# DDEC6 charges by PACMAN v1.1 (https://github.com/mtap-research/PACMAN-charge/)
data_RIVDIL_ASR_pacman
_symmetry_space_group_name_H-M   'P 1'
_cell_length_a   45.42100000
_cell_length_b   45.42100000
_cell_length_c   45.42100000
_cell_angle_alpha   60.00000000
_cell_angle_beta   60.00000000
_cell_angle_gamma   60.00000000
_symmetry_Int_Tables_number   1
_chemical_formula_structural   CoH16C26(SN5)2
_chemical_formula_sum   'Co48 H768 C1248 S96 N480'
_cell_volume   66260.55614699
_cell_formula_units_Z   48
loop_
 _symmetry_equiv_pos_site_id
 _symmetry_equiv_pos_as_xyz
  1  'x, y, z'
loop_
 _atom_site_type_symbol
 _atom_site_label
 _atom_site_symmetry_multiplicity
 _atom_site_fract_x
 _atom_site_fract_y
 _atom_site_fract_z
 _atom_site_occupancy
 _atom_site_charge
Co  Co1  1  0.62500000  0.12500000  0.88472000  1.0 0.6668160449
Co  Co2  1  0.12500000  0.62500000  0.36528000  1.0 0.6668160449
Co  Co3  1  0.88472000  0.36528000  0.62500000  1.0 0.6601036238
Co  Co4  1  0.36528000  0.88472000  0.12500000  1.0 0.6668160449
Co  Co5  1  0.88472000  0.62500000  0.12500000  1.0 0.6601036238
Co  Co6  1  0.36528000  0.12500000  0.62500000  1.0 0.6601036238
Co  Co7  1  0.62500000  0.88472000  0.36528000  1.0 0.6668160449
Co  Co8  1  0.12500000  0.36528000  0.88472000  1.0 0.6668160449
Co  Co9  1  0.12500000  0.88472000  0.62500000  1.0 0.6601036238
Co  Co10  1  0.62500000  0.36528000  0.12500000  1.0 0.6668160449
Co  Co11  1  0.36528000  0.62500000  0.88472000  1.0 0.6668160449
Co  Co12  1  0.88472000  0.12500000  0.36528000  1.0 0.6668160449
Co  Co13  1  0.12500000  0.62500000  0.86528000  1.0 0.6668160449
Co  Co14  1  0.62500000  0.12500000  0.38472000  1.0 0.6601036238
Co  Co15  1  0.86528000  0.38472000  0.12500000  1.0 0.6668160449
Co  Co16  1  0.38472000  0.86528000  0.62500000  1.0 0.6601036238
Co  Co17  1  0.86528000  0.12500000  0.62500000  1.0 0.6668160449
Co  Co18  1  0.38472000  0.62500000  0.12500000  1.0 0.6601036238
Co  Co19  1  0.12500000  0.86528000  0.38472000  1.0 0.6601036238
Co  Co20  1  0.62500000  0.38472000  0.86528000  1.0 0.6668160449
Co  Co21  1  0.62500000  0.86528000  0.12500000  1.0 0.6668160449
Co  Co22  1  0.12500000  0.38472000  0.62500000  1.0 0.6601036238
Co  Co23  1  0.38472000  0.12500000  0.86528000  1.0 0.6668160449
Co  Co24  1  0.86528000  0.62500000  0.38472000  1.0 0.6601036238
Co  Co25  1  0.62680000  0.37320000  0.62680000  1.0 0.6601036238
Co  Co26  1  0.37320000  0.62680000  0.37320000  1.0 0.6601036238
Co  Co27  1  0.62680000  0.62680000  0.37320000  1.0 0.6601036238
Co  Co28  1  0.37320000  0.37320000  0.62680000  1.0 0.6601036238
Co  Co29  1  0.37320000  0.62680000  0.62680000  1.0 0.6601036238
Co  Co30  1  0.62680000  0.37320000  0.37320000  1.0 0.6601036238
Co  Co31  1  0.62320000  0.87680000  0.87680000  1.0 0.6601036238
Co  Co32  1  0.87680000  0.62320000  0.62320000  1.0 0.6601036238
Co  Co33  1  0.62320000  0.62320000  0.87680000  1.0 0.6601036238
Co  Co34  1  0.87680000  0.87680000  0.62320000  1.0 0.6601036238
Co  Co35  1  0.87680000  0.62320000  0.87680000  1.0 0.6601036238
Co  Co36  1  0.62320000  0.87680000  0.62320000  1.0 0.6601036238
Co  Co37  1  0.12320000  0.37680000  0.12320000  1.0 0.6601036238
Co  Co38  1  0.37680000  0.12320000  0.37680000  1.0 0.6601036238
Co  Co39  1  0.12320000  0.12320000  0.37680000  1.0 0.6601036238
Co  Co40  1  0.37680000  0.37680000  0.12320000  1.0 0.6601036238
Co  Co41  1  0.37680000  0.12320000  0.12320000  1.0 0.6601036238
Co  Co42  1  0.12320000  0.37680000  0.37680000  1.0 0.6601036238
Co  Co43  1  0.12680000  0.87320000  0.87320000  1.0 0.6601036238
Co  Co44  1  0.87320000  0.12680000  0.12680000  1.0 0.6601036238
Co  Co45  1  0.12680000  0.12680000  0.87320000  1.0 0.6601036238
Co  Co46  1  0.87320000  0.87320000  0.12680000  1.0 0.6601036238
Co  Co47  1  0.87320000  0.12680000  0.87320000  1.0 0.6601036238
Co  Co48  1  0.12680000  0.87320000  0.12680000  1.0 0.6601036238
H  H1  1  0.78680000  0.15180000  0.66800000  1.0 0.1082156906
H  H2  1  0.15180000  0.78680000  0.39340000  1.0 0.1082156906
H  H3  1  0.66800000  0.39340000  0.78680000  1.0 0.1082156906
H  H4  1  0.39340000  0.66800000  0.15180000  1.0 0.1082156906
H  H5  1  0.66800000  0.78680000  0.15180000  1.0 0.1082156906
H  H6  1  0.39340000  0.15180000  0.78680000  1.0 0.1082156906
H  H7  1  0.78680000  0.66800000  0.39340000  1.0 0.1082156906
H  H8  1  0.15180000  0.39340000  0.66800000  1.0 0.1082156906
H  H9  1  0.15180000  0.66800000  0.78680000  1.0 0.1082156906
H  H10  1  0.78680000  0.39340000  0.15180000  1.0 0.1082156906
H  H11  1  0.39340000  0.78680000  0.66800000  1.0 0.1082156906
H  H12  1  0.66800000  0.15180000  0.39340000  1.0 0.1082156906
H  H13  1  0.46320000  0.09820000  0.85660000  1.0 0.1082156906
H  H14  1  0.09820000  0.46320000  0.58200000  1.0 0.1082156906
H  H15  1  0.58200000  0.85660000  0.09820000  1.0 0.1082156906
H  H16  1  0.85660000  0.58200000  0.46320000  1.0 0.1082156906
H  H17  1  0.58200000  0.46320000  0.85660000  1.0 0.1082156906
H  H18  1  0.85660000  0.09820000  0.58200000  1.0 0.1082156906
H  H19  1  0.46320000  0.58200000  0.09820000  1.0 0.1082156906
H  H20  1  0.09820000  0.85660000  0.46320000  1.0 0.1082156906
H  H21  1  0.09820000  0.58200000  0.85660000  1.0 0.1082156906
H  H22  1  0.46320000  0.85660000  0.58200000  1.0 0.1082156906
H  H23  1  0.85660000  0.46320000  0.09820000  1.0 0.1082156906
H  H24  1  0.58200000  0.09820000  0.46320000  1.0 0.1082156906
H  H25  1  0.96320000  0.59820000  0.08200000  1.0 0.1082156906
H  H26  1  0.59820000  0.96320000  0.35660000  1.0 0.1082156906
H  H27  1  0.08200000  0.35660000  0.96320000  1.0 0.1082156906
H  H28  1  0.35660000  0.08200000  0.59820000  1.0 0.1082156906
H  H29  1  0.08200000  0.96320000  0.59820000  1.0 0.1082156906
H  H30  1  0.35660000  0.59820000  0.96320000  1.0 0.1082156906
H  H31  1  0.96320000  0.08200000  0.35660000  1.0 0.1082156906
H  H32  1  0.59820000  0.35660000  0.08200000  1.0 0.1082156906
H  H33  1  0.59820000  0.08200000  0.96320000  1.0 0.1082156906
H  H34  1  0.96320000  0.35660000  0.59820000  1.0 0.1082156906
H  H35  1  0.35660000  0.96320000  0.08200000  1.0 0.1082156906
H  H36  1  0.08200000  0.59820000  0.35660000  1.0 0.1082156906
H  H37  1  0.28680000  0.65180000  0.89340000  1.0 0.1082156906
H  H38  1  0.65180000  0.28680000  0.16800000  1.0 0.1082156906
H  H39  1  0.16800000  0.89340000  0.65180000  1.0 0.1082156906
H  H40  1  0.89340000  0.16800000  0.28680000  1.0 0.1082156906
H  H41  1  0.16800000  0.28680000  0.89340000  1.0 0.1082156906
H  H42  1  0.89340000  0.65180000  0.16800000  1.0 0.1082156906
H  H43  1  0.28680000  0.16800000  0.65180000  1.0 0.1082156906
H  H44  1  0.65180000  0.89340000  0.28680000  1.0 0.1082156906
H  H45  1  0.65180000  0.16800000  0.89340000  1.0 0.1082156906
H  H46  1  0.28680000  0.89340000  0.16800000  1.0 0.1082156906
H  H47  1  0.89340000  0.28680000  0.65180000  1.0 0.1082156906
H  H48  1  0.16800000  0.65180000  0.28680000  1.0 0.1082156906
H  H49  1  0.72590000  0.23730000  0.60890000  1.0 0.1197307859
H  H50  1  0.23730000  0.72590000  0.42790000  1.0 0.1197307859
H  H51  1  0.60890000  0.42790000  0.72590000  1.0 0.1197307859
H  H52  1  0.42790000  0.60890000  0.23730000  1.0 0.1197307859
H  H53  1  0.60890000  0.72590000  0.23730000  1.0 0.1197307859
H  H54  1  0.42790000  0.23730000  0.72590000  1.0 0.1197307859
H  H55  1  0.72590000  0.60890000  0.42790000  1.0 0.1197307859
H  H56  1  0.23730000  0.42790000  0.60890000  1.0 0.1197307859
H  H57  1  0.23730000  0.60890000  0.72590000  1.0 0.1197307859
H  H58  1  0.72590000  0.42790000  0.23730000  1.0 0.1197307859
H  H59  1  0.42790000  0.72590000  0.60890000  1.0 0.1197307859
H  H60  1  0.60890000  0.23730000  0.42790000  1.0 0.1197307859
H  H61  1  0.52410000  0.01270000  0.82210000  1.0 0.1197307859
H  H62  1  0.01270000  0.52410000  0.64110000  1.0 0.1197307859
H  H63  1  0.64110000  0.82210000  0.01270000  1.0 0.1197307859
H  H64  1  0.82210000  0.64110000  0.52410000  1.0 0.1197307859
H  H65  1  0.64110000  0.52410000  0.82210000  1.0 0.1197307859
H  H66  1  0.82210000  0.01270000  0.64110000  1.0 0.1197307859
H  H67  1  0.52410000  0.64110000  0.01270000  1.0 0.1197307859
H  H68  1  0.01270000  0.82210000  0.52410000  1.0 0.1197307859
H  H69  1  0.01270000  0.64110000  0.82210000  1.0 0.1197307859
H  H70  1  0.52410000  0.82210000  0.64110000  1.0 0.1197307859
H  H71  1  0.82210000  0.52410000  0.01270000  1.0 0.1197307859
H  H72  1  0.64110000  0.01270000  0.52410000  1.0 0.1197307859
H  H73  1  0.02410000  0.51270000  0.14110000  1.0 0.1197307859
H  H74  1  0.51270000  0.02410000  0.32210000  1.0 0.1197307859
H  H75  1  0.14110000  0.32210000  0.02410000  1.0 0.1197307859
H  H76  1  0.32210000  0.14110000  0.51270000  1.0 0.1197307859
H  H77  1  0.14110000  0.02410000  0.51270000  1.0 0.1197307859
H  H78  1  0.32210000  0.51270000  0.02410000  1.0 0.1197307859
H  H79  1  0.02410000  0.14110000  0.32210000  1.0 0.1197307859
H  H80  1  0.51270000  0.32210000  0.14110000  1.0 0.1197307859
H  H81  1  0.51270000  0.14110000  0.02410000  1.0 0.1197307859
H  H82  1  0.02410000  0.32210000  0.51270000  1.0 0.1197307859
H  H83  1  0.32210000  0.02410000  0.14110000  1.0 0.1197307859
H  H84  1  0.14110000  0.51270000  0.32210000  1.0 0.1197307859
H  H85  1  0.22590000  0.73730000  0.92790000  1.0 0.1197307859
H  H86  1  0.73730000  0.22590000  0.10890000  1.0 0.1197307859
H  H87  1  0.10890000  0.92790000  0.73730000  1.0 0.1197307859
H  H88  1  0.92790000  0.10890000  0.22590000  1.0 0.1197307859
H  H89  1  0.10890000  0.22590000  0.92790000  1.0 0.1197307859
H  H90  1  0.92790000  0.73730000  0.10890000  1.0 0.1197307859
H  H91  1  0.22590000  0.10890000  0.73730000  1.0 0.1197307859
H  H92  1  0.73730000  0.92790000  0.22590000  1.0 0.1197307859
H  H93  1  0.73730000  0.10890000  0.92790000  1.0 0.1197307859
H  H94  1  0.22590000  0.92790000  0.10890000  1.0 0.1197307859
H  H95  1  0.92790000  0.22590000  0.73730000  1.0 0.1197307859
H  H96  1  0.10890000  0.73730000  0.22590000  1.0 0.1197307859
H  H97  1  0.77520000  0.22820000  0.55700000  1.0 0.1379023343
H  H98  1  0.22820000  0.77520000  0.43960000  1.0 0.1379023343
H  H99  1  0.55700000  0.43960000  0.77520000  1.0 0.1379023343
H  H100  1  0.43960000  0.55700000  0.22820000  1.0 0.1379023343
H  H101  1  0.55700000  0.77520000  0.22820000  1.0 0.1379023343
H  H102  1  0.43960000  0.22820000  0.77520000  1.0 0.1379023343
H  H103  1  0.77520000  0.55700000  0.43960000  1.0 0.1379023343
H  H104  1  0.22820000  0.43960000  0.55700000  1.0 0.1379023343
H  H105  1  0.22820000  0.55700000  0.77520000  1.0 0.1379023343
H  H106  1  0.77520000  0.43960000  0.22820000  1.0 0.1379023343
H  H107  1  0.43960000  0.77520000  0.55700000  1.0 0.1379023343
H  H108  1  0.55700000  0.22820000  0.43960000  1.0 0.1379023343
H  H109  1  0.47480000  0.02180000  0.81040000  1.0 0.1379023343
H  H110  1  0.02180000  0.47480000  0.69300000  1.0 0.1379023343
H  H111  1  0.69300000  0.81040000  0.02180000  1.0 0.1379023343
H  H112  1  0.81040000  0.69300000  0.47480000  1.0 0.1379023343
H  H113  1  0.69300000  0.47480000  0.81040000  1.0 0.1379023343
H  H114  1  0.81040000  0.02180000  0.69300000  1.0 0.1379023343
H  H115  1  0.47480000  0.69300000  0.02180000  1.0 0.1379023343
H  H116  1  0.02180000  0.81040000  0.47480000  1.0 0.1379023343
H  H117  1  0.02180000  0.69300000  0.81040000  1.0 0.1379023343
H  H118  1  0.47480000  0.81040000  0.69300000  1.0 0.1379023343
H  H119  1  0.81040000  0.47480000  0.02180000  1.0 0.1379023343
H  H120  1  0.69300000  0.02180000  0.47480000  1.0 0.1379023343
H  H121  1  0.97480000  0.52180000  0.19300000  1.0 0.1379023343
H  H122  1  0.52180000  0.97480000  0.31040000  1.0 0.1379023343
H  H123  1  0.19300000  0.31040000  0.97480000  1.0 0.1379023343
H  H124  1  0.31040000  0.19300000  0.52180000  1.0 0.1379023343
H  H125  1  0.19300000  0.97480000  0.52180000  1.0 0.1379023343
H  H126  1  0.31040000  0.52180000  0.97480000  1.0 0.1379023343
H  H127  1  0.97480000  0.19300000  0.31040000  1.0 0.1379023343
H  H128  1  0.52180000  0.31040000  0.19300000  1.0 0.1379023343
H  H129  1  0.52180000  0.19300000  0.97480000  1.0 0.1379023343
H  H130  1  0.97480000  0.31040000  0.52180000  1.0 0.1379023343
H  H131  1  0.31040000  0.97480000  0.19300000  1.0 0.1379023343
H  H132  1  0.19300000  0.52180000  0.31040000  1.0 0.1379023343
H  H133  1  0.27520000  0.72820000  0.93960000  1.0 0.1379023343
H  H134  1  0.72820000  0.27520000  0.05700000  1.0 0.1379023343
H  H135  1  0.05700000  0.93960000  0.72820000  1.0 0.1379023343
H  H136  1  0.93960000  0.05700000  0.27520000  1.0 0.1379023343
H  H137  1  0.05700000  0.27520000  0.93960000  1.0 0.1379023343
H  H138  1  0.93960000  0.72820000  0.05700000  1.0 0.1379023343
H  H139  1  0.27520000  0.05700000  0.72820000  1.0 0.1379023343
H  H140  1  0.72820000  0.93960000  0.27520000  1.0 0.1379023343
H  H141  1  0.72820000  0.05700000  0.93960000  1.0 0.1379023343
H  H142  1  0.27520000  0.93960000  0.05700000  1.0 0.1379023343
H  H143  1  0.93960000  0.27520000  0.72820000  1.0 0.1379023343
H  H144  1  0.05700000  0.72820000  0.27520000  1.0 0.1379023343
H  H145  1  0.83030000  0.18710000  0.56210000  1.0 0.1013566709
H  H146  1  0.18710000  0.83030000  0.42050000  1.0 0.1013566709
H  H147  1  0.56210000  0.42050000  0.83030000  1.0 0.1013566709
H  H148  1  0.42050000  0.56210000  0.18710000  1.0 0.1013566709
H  H149  1  0.56210000  0.83030000  0.18710000  1.0 0.1013566709
H  H150  1  0.42050000  0.18710000  0.83030000  1.0 0.1013566709
H  H151  1  0.83030000  0.56210000  0.42050000  1.0 0.1013566709
H  H152  1  0.18710000  0.42050000  0.56210000  1.0 0.1013566709
H  H153  1  0.18710000  0.56210000  0.83030000  1.0 0.1013566709
H  H154  1  0.83030000  0.42050000  0.18710000  1.0 0.1013566709
H  H155  1  0.42050000  0.83030000  0.56210000  1.0 0.1013566709
H  H156  1  0.56210000  0.18710000  0.42050000  1.0 0.1013566709
H  H157  1  0.41970000  0.06290000  0.82950000  1.0 0.1013566709
H  H158  1  0.06290000  0.41970000  0.68790000  1.0 0.1013566709
H  H159  1  0.68790000  0.82950000  0.06290000  1.0 0.1013566709
H  H160  1  0.82950000  0.68790000  0.41970000  1.0 0.1013566709
H  H161  1  0.68790000  0.41970000  0.82950000  1.0 0.1013566709
H  H162  1  0.82950000  0.06290000  0.68790000  1.0 0.1013566709
H  H163  1  0.41970000  0.68790000  0.06290000  1.0 0.1013566709
H  H164  1  0.06290000  0.82950000  0.41970000  1.0 0.1013566709
H  H165  1  0.06290000  0.68790000  0.82950000  1.0 0.1013566709
H  H166  1  0.41970000  0.82950000  0.68790000  1.0 0.1013566709
H  H167  1  0.82950000  0.41970000  0.06290000  1.0 0.1013566709
H  H168  1  0.68790000  0.06290000  0.41970000  1.0 0.1013566709
H  H169  1  0.91970000  0.56290000  0.18790000  1.0 0.1013566709
H  H170  1  0.56290000  0.91970000  0.32950000  1.0 0.1013566709
H  H171  1  0.18790000  0.32950000  0.91970000  1.0 0.1013566709
H  H172  1  0.32950000  0.18790000  0.56290000  1.0 0.1013566709
H  H173  1  0.18790000  0.91970000  0.56290000  1.0 0.1013566709
H  H174  1  0.32950000  0.56290000  0.91970000  1.0 0.1013566709
H  H175  1  0.91970000  0.18790000  0.32950000  1.0 0.1013566709
H  H176  1  0.56290000  0.32950000  0.18790000  1.0 0.1013566709
H  H177  1  0.56290000  0.18790000  0.91970000  1.0 0.1013566709
H  H178  1  0.91970000  0.32950000  0.56290000  1.0 0.1013566709
H  H179  1  0.32950000  0.91970000  0.18790000  1.0 0.1013566709
H  H180  1  0.18790000  0.56290000  0.32950000  1.0 0.1013566709
H  H181  1  0.33030000  0.68710000  0.92050000  1.0 0.1013566709
H  H182  1  0.68710000  0.33030000  0.06210000  1.0 0.1013566709
H  H183  1  0.06210000  0.92050000  0.68710000  1.0 0.1013566709
H  H184  1  0.92050000  0.06210000  0.33030000  1.0 0.1013566709
H  H185  1  0.06210000  0.33030000  0.92050000  1.0 0.1013566709
H  H186  1  0.92050000  0.68710000  0.06210000  1.0 0.1013566709
H  H187  1  0.33030000  0.06210000  0.68710000  1.0 0.1013566709
H  H188  1  0.68710000  0.92050000  0.33030000  1.0 0.1013566709
H  H189  1  0.68710000  0.06210000  0.92050000  1.0 0.1013566709
H  H190  1  0.33030000  0.92050000  0.06210000  1.0 0.1013566709
H  H191  1  0.92050000  0.33030000  0.68710000  1.0 0.1013566709
H  H192  1  0.06210000  0.68710000  0.33030000  1.0 0.1013566709
H  H193  1  0.69660000  0.06620000  0.85580000  1.0 0.1013566709
H  H194  1  0.06620000  0.69660000  0.38140000  1.0 0.1013566709
H  H195  1  0.85580000  0.38140000  0.69660000  1.0 0.1013566709
H  H196  1  0.38140000  0.85580000  0.06620000  1.0 0.1013566709
H  H197  1  0.85580000  0.69660000  0.06620000  1.0 0.1013566709
H  H198  1  0.38140000  0.06620000  0.69660000  1.0 0.1013566709
H  H199  1  0.69660000  0.85580000  0.38140000  1.0 0.1013566709
H  H200  1  0.06620000  0.38140000  0.85580000  1.0 0.1013566709
H  H201  1  0.06620000  0.85580000  0.69660000  1.0 0.1013566709
H  H202  1  0.69660000  0.38140000  0.06620000  1.0 0.1013566709
H  H203  1  0.38140000  0.69660000  0.85580000  1.0 0.1013566709
H  H204  1  0.85580000  0.06620000  0.38140000  1.0 0.1013566709
H  H205  1  0.55340000  0.18380000  0.86860000  1.0 0.1013566709
H  H206  1  0.18380000  0.55340000  0.39420000  1.0 0.1013566709
H  H207  1  0.39420000  0.86860000  0.18380000  1.0 0.1013566709
H  H208  1  0.86860000  0.39420000  0.55340000  1.0 0.1013566709
H  H209  1  0.39420000  0.55340000  0.86860000  1.0 0.1013566709
H  H210  1  0.86860000  0.18380000  0.39420000  1.0 0.1013566709
H  H211  1  0.55340000  0.39420000  0.18380000  1.0 0.1013566709
H  H212  1  0.18380000  0.86860000  0.55340000  1.0 0.1013566709
H  H213  1  0.18380000  0.39420000  0.86860000  1.0 0.1013566709
H  H214  1  0.55340000  0.86860000  0.39420000  1.0 0.1013566709
H  H215  1  0.86860000  0.55340000  0.18380000  1.0 0.1013566709
H  H216  1  0.39420000  0.18380000  0.55340000  1.0 0.1013566709
H  H217  1  0.05340000  0.68380000  0.89420000  1.0 0.1013566709
H  H218  1  0.68380000  0.05340000  0.36860000  1.0 0.1013566709
H  H219  1  0.89420000  0.36860000  0.05340000  1.0 0.1013566709
H  H220  1  0.36860000  0.89420000  0.68380000  1.0 0.1013566709
H  H221  1  0.89420000  0.05340000  0.68380000  1.0 0.1013566709
H  H222  1  0.36860000  0.68380000  0.05340000  1.0 0.1013566709
H  H223  1  0.05340000  0.89420000  0.36860000  1.0 0.1013566709
H  H224  1  0.68380000  0.36860000  0.89420000  1.0 0.1013566709
H  H225  1  0.68380000  0.89420000  0.05340000  1.0 0.1013566709
H  H226  1  0.05340000  0.36860000  0.68380000  1.0 0.1013566709
H  H227  1  0.36860000  0.05340000  0.89420000  1.0 0.1013566709
H  H228  1  0.89420000  0.68380000  0.36860000  1.0 0.1013566709
H  H229  1  0.19660000  0.56620000  0.88140000  1.0 0.1013566709
H  H230  1  0.56620000  0.19660000  0.35580000  1.0 0.1013566709
H  H231  1  0.35580000  0.88140000  0.56620000  1.0 0.1013566709
H  H232  1  0.88140000  0.35580000  0.19660000  1.0 0.1013566709
H  H233  1  0.35580000  0.19660000  0.88140000  1.0 0.1013566709
H  H234  1  0.88140000  0.56620000  0.35580000  1.0 0.1013566709
H  H235  1  0.19660000  0.35580000  0.56620000  1.0 0.1013566709
H  H236  1  0.56620000  0.88140000  0.19660000  1.0 0.1013566709
H  H237  1  0.56620000  0.35580000  0.88140000  1.0 0.1013566709
H  H238  1  0.19660000  0.88140000  0.35580000  1.0 0.1013566709
H  H239  1  0.88140000  0.19660000  0.56620000  1.0 0.1013566709
H  H240  1  0.35580000  0.56620000  0.19660000  1.0 0.1013566709
H  H241  1  0.74700000  0.06040000  0.80600000  1.0 0.1379023343
H  H242  1  0.06040000  0.74700000  0.38660000  1.0 0.1379023343
H  H243  1  0.80600000  0.38660000  0.74700000  1.0 0.1379023343
H  H244  1  0.38660000  0.80600000  0.06040000  1.0 0.1379023343
H  H245  1  0.80600000  0.74700000  0.06040000  1.0 0.1379023343
H  H246  1  0.38660000  0.06040000  0.74700000  1.0 0.1379023343
H  H247  1  0.74700000  0.80600000  0.38660000  1.0 0.1379023343
H  H248  1  0.06040000  0.38660000  0.80600000  1.0 0.1379023343
H  H249  1  0.06040000  0.80600000  0.74700000  1.0 0.1379023343
H  H250  1  0.74700000  0.38660000  0.06040000  1.0 0.1379023343
H  H251  1  0.38660000  0.74700000  0.80600000  1.0 0.1379023343
H  H252  1  0.80600000  0.06040000  0.38660000  1.0 0.1379023343
H  H253  1  0.50300000  0.18960000  0.86340000  1.0 0.1379023343
H  H254  1  0.18960000  0.50300000  0.44400000  1.0 0.1379023343
H  H255  1  0.44400000  0.86340000  0.18960000  1.0 0.1379023343
H  H256  1  0.86340000  0.44400000  0.50300000  1.0 0.1379023343
H  H257  1  0.44400000  0.50300000  0.86340000  1.0 0.1379023343
H  H258  1  0.86340000  0.18960000  0.44400000  1.0 0.1379023343
H  H259  1  0.50300000  0.44400000  0.18960000  1.0 0.1379023343
H  H260  1  0.18960000  0.86340000  0.50300000  1.0 0.1379023343
H  H261  1  0.18960000  0.44400000  0.86340000  1.0 0.1379023343
H  H262  1  0.50300000  0.86340000  0.44400000  1.0 0.1379023343
H  H263  1  0.86340000  0.50300000  0.18960000  1.0 0.1379023343
H  H264  1  0.44400000  0.18960000  0.50300000  1.0 0.1379023343
H  H265  1  0.00300000  0.68960000  0.94400000  1.0 0.1379023343
H  H266  1  0.68960000  0.00300000  0.36340000  1.0 0.1379023343
H  H267  1  0.94400000  0.36340000  0.00300000  1.0 0.1379023343
H  H268  1  0.36340000  0.94400000  0.68960000  1.0 0.1379023343
H  H269  1  0.94400000  0.00300000  0.68960000  1.0 0.1379023343
H  H270  1  0.36340000  0.68960000  0.00300000  1.0 0.1379023343
H  H271  1  0.00300000  0.94400000  0.36340000  1.0 0.1379023343
H  H272  1  0.68960000  0.36340000  0.94400000  1.0 0.1379023343
H  H273  1  0.68960000  0.94400000  0.00300000  1.0 0.1379023343
H  H274  1  0.00300000  0.36340000  0.68960000  1.0 0.1379023343
H  H275  1  0.36340000  0.00300000  0.94400000  1.0 0.1379023343
H  H276  1  0.94400000  0.68960000  0.36340000  1.0 0.1379023343
H  H277  1  0.24700000  0.56040000  0.88660000  1.0 0.1379023343
H  H278  1  0.56040000  0.24700000  0.30600000  1.0 0.1379023343
H  H279  1  0.30600000  0.88660000  0.56040000  1.0 0.1379023343
H  H280  1  0.88660000  0.30600000  0.24700000  1.0 0.1379023343
H  H281  1  0.30600000  0.24700000  0.88660000  1.0 0.1379023343
H  H282  1  0.88660000  0.56040000  0.30600000  1.0 0.1379023343
H  H283  1  0.24700000  0.30600000  0.56040000  1.0 0.1379023343
H  H284  1  0.56040000  0.88660000  0.24700000  1.0 0.1379023343
H  H285  1  0.56040000  0.30600000  0.88660000  1.0 0.1379023343
H  H286  1  0.24700000  0.88660000  0.30600000  1.0 0.1379023343
H  H287  1  0.88660000  0.24700000  0.56040000  1.0 0.1379023343
H  H288  1  0.30600000  0.56040000  0.24700000  1.0 0.1379023343
H  H289  1  0.74790000  0.10830000  0.75110000  1.0 0.1197307859
H  H290  1  0.10830000  0.74790000  0.39270000  1.0 0.1197307859
H  H291  1  0.75110000  0.39270000  0.74790000  1.0 0.1197307859
H  H292  1  0.39270000  0.75110000  0.10830000  1.0 0.1197307859
H  H293  1  0.75110000  0.74790000  0.10830000  1.0 0.1197307859
H  H294  1  0.39270000  0.10830000  0.74790000  1.0 0.1197307859
H  H295  1  0.74790000  0.75110000  0.39270000  1.0 0.1197307859
H  H296  1  0.10830000  0.39270000  0.75110000  1.0 0.1197307859
H  H297  1  0.10830000  0.75110000  0.74790000  1.0 0.1197307859
H  H298  1  0.74790000  0.39270000  0.10830000  1.0 0.1197307859
H  H299  1  0.39270000  0.74790000  0.75110000  1.0 0.1197307859
H  H300  1  0.75110000  0.10830000  0.39270000  1.0 0.1197307859
H  H301  1  0.50210000  0.14170000  0.85730000  1.0 0.1197307859
H  H302  1  0.14170000  0.50210000  0.49890000  1.0 0.1197307859
H  H303  1  0.49890000  0.85730000  0.14170000  1.0 0.1197307859
H  H304  1  0.85730000  0.49890000  0.50210000  1.0 0.1197307859
H  H305  1  0.49890000  0.50210000  0.85730000  1.0 0.1197307859
H  H306  1  0.85730000  0.14170000  0.49890000  1.0 0.1197307859
H  H307  1  0.50210000  0.49890000  0.14170000  1.0 0.1197307859
H  H308  1  0.14170000  0.85730000  0.50210000  1.0 0.1197307859
H  H309  1  0.14170000  0.49890000  0.85730000  1.0 0.1197307859
H  H310  1  0.50210000  0.85730000  0.49890000  1.0 0.1197307859
H  H311  1  0.85730000  0.50210000  0.14170000  1.0 0.1197307859
H  H312  1  0.49890000  0.14170000  0.50210000  1.0 0.1197307859
H  H313  1  0.00210000  0.64170000  0.99890000  1.0 0.1197307859
H  H314  1  0.64170000  0.00210000  0.35730000  1.0 0.1197307859
H  H315  1  0.99890000  0.35730000  0.00210000  1.0 0.1197307859
H  H316  1  0.35730000  0.99890000  0.64170000  1.0 0.1197307859
H  H317  1  0.99890000  0.00210000  0.64170000  1.0 0.1197307859
H  H318  1  0.35730000  0.64170000  0.00210000  1.0 0.1197307859
H  H319  1  0.00210000  0.99890000  0.35730000  1.0 0.1197307859
H  H320  1  0.64170000  0.35730000  0.99890000  1.0 0.1197307859
H  H321  1  0.64170000  0.99890000  0.00210000  1.0 0.1197307859
H  H322  1  0.00210000  0.35730000  0.64170000  1.0 0.1197307859
H  H323  1  0.35730000  0.00210000  0.99890000  1.0 0.1197307859
H  H324  1  0.99890000  0.64170000  0.35730000  1.0 0.1197307859
H  H325  1  0.24790000  0.60830000  0.89270000  1.0 0.1197307859
H  H326  1  0.60830000  0.24790000  0.25110000  1.0 0.1197307859
H  H327  1  0.25110000  0.89270000  0.60830000  1.0 0.1197307859
H  H328  1  0.89270000  0.25110000  0.24790000  1.0 0.1197307859
H  H329  1  0.25110000  0.24790000  0.89270000  1.0 0.1197307859
H  H330  1  0.89270000  0.60830000  0.25110000  1.0 0.1197307859
H  H331  1  0.24790000  0.25110000  0.60830000  1.0 0.1197307859
H  H332  1  0.60830000  0.89270000  0.24790000  1.0 0.1197307859
H  H333  1  0.60830000  0.25110000  0.89270000  1.0 0.1197307859
H  H334  1  0.24790000  0.89270000  0.25110000  1.0 0.1197307859
H  H335  1  0.89270000  0.24790000  0.60830000  1.0 0.1197307859
H  H336  1  0.25110000  0.60830000  0.24790000  1.0 0.1197307859
H  H337  1  0.64880000  0.16420000  0.80220000  1.0 0.1082156906
H  H338  1  0.16420000  0.64880000  0.38480000  1.0 0.1082156906
H  H339  1  0.80220000  0.38480000  0.64880000  1.0 0.1082156906
H  H340  1  0.38480000  0.80220000  0.16420000  1.0 0.1082156906
H  H341  1  0.80220000  0.64880000  0.16420000  1.0 0.1082156906
H  H342  1  0.38480000  0.16420000  0.64880000  1.0 0.1082156906
H  H343  1  0.64880000  0.80220000  0.38480000  1.0 0.1082156906
H  H344  1  0.16420000  0.38480000  0.80220000  1.0 0.1082156906
H  H345  1  0.16420000  0.80220000  0.64880000  1.0 0.1082156906
H  H346  1  0.64880000  0.38480000  0.16420000  1.0 0.1082156906
H  H347  1  0.38480000  0.64880000  0.80220000  1.0 0.1082156906
H  H348  1  0.80220000  0.16420000  0.38480000  1.0 0.1082156906
H  H349  1  0.60120000  0.08580000  0.86520000  1.0 0.1082156906
H  H350  1  0.08580000  0.60120000  0.44780000  1.0 0.1082156906
H  H351  1  0.44780000  0.86520000  0.08580000  1.0 0.1082156906
H  H352  1  0.86520000  0.44780000  0.60120000  1.0 0.1082156906
H  H353  1  0.44780000  0.60120000  0.86520000  1.0 0.1082156906
H  H354  1  0.86520000  0.08580000  0.44780000  1.0 0.1082156906
H  H355  1  0.60120000  0.44780000  0.08580000  1.0 0.1082156906
H  H356  1  0.08580000  0.86520000  0.60120000  1.0 0.1082156906
H  H357  1  0.08580000  0.44780000  0.86520000  1.0 0.1082156906
H  H358  1  0.60120000  0.86520000  0.44780000  1.0 0.1082156906
H  H359  1  0.86520000  0.60120000  0.08580000  1.0 0.1082156906
H  H360  1  0.44780000  0.08580000  0.60120000  1.0 0.1082156906
H  H361  1  0.10120000  0.58580000  0.94780000  1.0 0.1082156906
H  H362  1  0.58580000  0.10120000  0.36520000  1.0 0.1082156906
H  H363  1  0.94780000  0.36520000  0.10120000  1.0 0.1082156906
H  H364  1  0.36520000  0.94780000  0.58580000  1.0 0.1082156906
H  H365  1  0.94780000  0.10120000  0.58580000  1.0 0.1082156906
H  H366  1  0.36520000  0.58580000  0.10120000  1.0 0.1082156906
H  H367  1  0.10120000  0.94780000  0.36520000  1.0 0.1082156906
H  H368  1  0.58580000  0.36520000  0.94780000  1.0 0.1082156906
H  H369  1  0.58580000  0.94780000  0.10120000  1.0 0.1082156906
H  H370  1  0.10120000  0.36520000  0.58580000  1.0 0.1082156906
H  H371  1  0.36520000  0.10120000  0.94780000  1.0 0.1082156906
H  H372  1  0.94780000  0.58580000  0.36520000  1.0 0.1082156906
H  H373  1  0.14880000  0.66420000  0.88480000  1.0 0.1082156906
H  H374  1  0.66420000  0.14880000  0.30220000  1.0 0.1082156906
H  H375  1  0.30220000  0.88480000  0.66420000  1.0 0.1082156906
H  H376  1  0.88480000  0.30220000  0.14880000  1.0 0.1082156906
H  H377  1  0.30220000  0.14880000  0.88480000  1.0 0.1082156906
H  H378  1  0.88480000  0.66420000  0.30220000  1.0 0.1082156906
H  H379  1  0.14880000  0.30220000  0.66420000  1.0 0.1082156906
H  H380  1  0.66420000  0.88480000  0.14880000  1.0 0.1082156906
H  H381  1  0.66420000  0.30220000  0.88480000  1.0 0.1082156906
H  H382  1  0.14880000  0.88480000  0.30220000  1.0 0.1082156906
H  H383  1  0.88480000  0.14880000  0.66420000  1.0 0.1082156906
H  H384  1  0.30220000  0.66420000  0.14880000  1.0 0.1082156906
H  H385  1  0.66680000  0.29400000  0.65800000  1.0 0.1013566709
H  H386  1  0.29400000  0.66680000  0.38120000  1.0 0.1013566709
H  H387  1  0.65800000  0.38120000  0.66680000  1.0 0.1013566709
H  H388  1  0.38120000  0.65800000  0.29400000  1.0 0.1013566709
H  H389  1  0.65800000  0.66680000  0.29400000  1.0 0.1013566709
H  H390  1  0.38120000  0.29400000  0.66680000  1.0 0.1013566709
H  H391  1  0.66680000  0.65800000  0.38120000  1.0 0.1013566709
H  H392  1  0.29400000  0.38120000  0.65800000  1.0 0.1013566709
H  H393  1  0.29400000  0.65800000  0.66680000  1.0 0.1013566709
H  H394  1  0.66680000  0.38120000  0.29400000  1.0 0.1013566709
H  H395  1  0.38120000  0.66680000  0.65800000  1.0 0.1013566709
H  H396  1  0.65800000  0.29400000  0.38120000  1.0 0.1013566709
H  H397  1  0.58320000  0.95600000  0.86880000  1.0 0.1013566709
H  H398  1  0.95600000  0.58320000  0.59200000  1.0 0.1013566709
H  H399  1  0.59200000  0.86880000  0.95600000  1.0 0.1013566709
H  H400  1  0.86880000  0.59200000  0.58320000  1.0 0.1013566709
H  H401  1  0.59200000  0.58320000  0.86880000  1.0 0.1013566709
H  H402  1  0.86880000  0.95600000  0.59200000  1.0 0.1013566709
H  H403  1  0.58320000  0.59200000  0.95600000  1.0 0.1013566709
H  H404  1  0.95600000  0.86880000  0.58320000  1.0 0.1013566709
H  H405  1  0.95600000  0.59200000  0.86880000  1.0 0.1013566709
H  H406  1  0.58320000  0.86880000  0.59200000  1.0 0.1013566709
H  H407  1  0.86880000  0.58320000  0.95600000  1.0 0.1013566709
H  H408  1  0.59200000  0.95600000  0.58320000  1.0 0.1013566709
H  H409  1  0.08320000  0.45600000  0.09200000  1.0 0.1013566709
H  H410  1  0.45600000  0.08320000  0.36880000  1.0 0.1013566709
H  H411  1  0.09200000  0.36880000  0.08320000  1.0 0.1013566709
H  H412  1  0.36880000  0.09200000  0.45600000  1.0 0.1013566709
H  H413  1  0.09200000  0.08320000  0.45600000  1.0 0.1013566709
H  H414  1  0.36880000  0.45600000  0.08320000  1.0 0.1013566709
H  H415  1  0.08320000  0.09200000  0.36880000  1.0 0.1013566709
H  H416  1  0.45600000  0.36880000  0.09200000  1.0 0.1013566709
H  H417  1  0.45600000  0.09200000  0.08320000  1.0 0.1013566709
H  H418  1  0.08320000  0.36880000  0.45600000  1.0 0.1013566709
H  H419  1  0.36880000  0.08320000  0.09200000  1.0 0.1013566709
H  H420  1  0.09200000  0.45600000  0.36880000  1.0 0.1013566709
H  H421  1  0.16680000  0.79400000  0.88120000  1.0 0.1013566709
H  H422  1  0.79400000  0.16680000  0.15800000  1.0 0.1013566709
H  H423  1  0.15800000  0.88120000  0.79400000  1.0 0.1013566709
H  H424  1  0.88120000  0.15800000  0.16680000  1.0 0.1013566709
H  H425  1  0.15800000  0.16680000  0.88120000  1.0 0.1013566709
H  H426  1  0.88120000  0.79400000  0.15800000  1.0 0.1013566709
H  H427  1  0.16680000  0.15800000  0.79400000  1.0 0.1013566709
H  H428  1  0.79400000  0.88120000  0.16680000  1.0 0.1013566709
H  H429  1  0.79400000  0.15800000  0.88120000  1.0 0.1013566709
H  H430  1  0.16680000  0.88120000  0.15800000  1.0 0.1013566709
H  H431  1  0.88120000  0.16680000  0.79400000  1.0 0.1013566709
H  H432  1  0.15800000  0.79400000  0.16680000  1.0 0.1013566709
H  H433  1  0.61210000  0.25130000  0.76250000  1.0 0.1253318068
H  H434  1  0.25130000  0.61210000  0.37410000  1.0 0.1253318068
H  H435  1  0.76250000  0.37410000  0.61210000  1.0 0.1253318068
H  H436  1  0.37410000  0.76250000  0.25130000  1.0 0.1253318068
H  H437  1  0.76250000  0.61210000  0.25130000  1.0 0.1253318068
H  H438  1  0.37410000  0.25130000  0.61210000  1.0 0.1253318068
H  H439  1  0.61210000  0.76250000  0.37410000  1.0 0.1253318068
H  H440  1  0.25130000  0.37410000  0.76250000  1.0 0.1253318068
H  H441  1  0.25130000  0.76250000  0.61210000  1.0 0.1253318068
H  H442  1  0.61210000  0.37410000  0.25130000  1.0 0.1253318068
H  H443  1  0.37410000  0.61210000  0.76250000  1.0 0.1253318068
H  H444  1  0.76250000  0.25130000  0.37410000  1.0 0.1253318068
H  H445  1  0.63790000  0.99870000  0.87590000  1.0 0.1253318068
H  H446  1  0.99870000  0.63790000  0.48750000  1.0 0.1253318068
H  H447  1  0.48750000  0.87590000  0.99870000  1.0 0.1253318068
H  H448  1  0.87590000  0.48750000  0.63790000  1.0 0.1253318068
H  H449  1  0.48750000  0.63790000  0.87590000  1.0 0.1253318068
H  H450  1  0.87590000  0.99870000  0.48750000  1.0 0.1253318068
H  H451  1  0.63790000  0.48750000  0.99870000  1.0 0.1253318068
H  H452  1  0.99870000  0.87590000  0.63790000  1.0 0.1253318068
H  H453  1  0.99870000  0.48750000  0.87590000  1.0 0.1253318068
H  H454  1  0.63790000  0.87590000  0.48750000  1.0 0.1253318068
H  H455  1  0.87590000  0.63790000  0.99870000  1.0 0.1253318068
H  H456  1  0.48750000  0.99870000  0.63790000  1.0 0.1253318068
H  H457  1  0.13790000  0.49870000  0.98750000  1.0 0.1253318068
H  H458  1  0.49870000  0.13790000  0.37590000  1.0 0.1253318068
H  H459  1  0.98750000  0.37590000  0.13790000  1.0 0.1253318068
H  H460  1  0.37590000  0.98750000  0.49870000  1.0 0.1253318068
H  H461  1  0.98750000  0.13790000  0.49870000  1.0 0.1253318068
H  H462  1  0.37590000  0.49870000  0.13790000  1.0 0.1253318068
H  H463  1  0.13790000  0.98750000  0.37590000  1.0 0.1253318068
H  H464  1  0.49870000  0.37590000  0.98750000  1.0 0.1253318068
H  H465  1  0.49870000  0.98750000  0.13790000  1.0 0.1253318068
H  H466  1  0.13790000  0.37590000  0.49870000  1.0 0.1253318068
H  H467  1  0.37590000  0.13790000  0.98750000  1.0 0.1253318068
H  H468  1  0.98750000  0.49870000  0.37590000  1.0 0.1253318068
H  H469  1  0.11210000  0.75130000  0.87410000  1.0 0.1253318068
H  H470  1  0.75130000  0.11210000  0.26250000  1.0 0.1253318068
H  H471  1  0.26250000  0.87410000  0.75130000  1.0 0.1253318068
H  H472  1  0.87410000  0.26250000  0.11210000  1.0 0.1253318068
H  H473  1  0.26250000  0.11210000  0.87410000  1.0 0.1253318068
H  H474  1  0.87410000  0.75130000  0.26250000  1.0 0.1253318068
H  H475  1  0.11210000  0.26250000  0.75130000  1.0 0.1253318068
H  H476  1  0.75130000  0.87410000  0.11210000  1.0 0.1253318068
H  H477  1  0.75130000  0.26250000  0.87410000  1.0 0.1253318068
H  H478  1  0.11210000  0.87410000  0.26250000  1.0 0.1253318068
H  H479  1  0.87410000  0.11210000  0.75130000  1.0 0.1253318068
H  H480  1  0.26250000  0.75130000  0.11210000  1.0 0.1253318068
H  H481  1  0.57040000  0.30920000  0.76040000  1.0 0.1379023343
H  H482  1  0.30920000  0.57040000  0.36000000  1.0 0.1379023343
H  H483  1  0.76040000  0.36000000  0.57040000  1.0 0.1379023343
H  H484  1  0.36000000  0.76040000  0.30920000  1.0 0.1379023343
H  H485  1  0.76040000  0.57040000  0.30920000  1.0 0.1379023343
H  H486  1  0.36000000  0.30920000  0.57040000  1.0 0.1379023343
H  H487  1  0.57040000  0.76040000  0.36000000  1.0 0.1379023343
H  H488  1  0.30920000  0.36000000  0.76040000  1.0 0.1379023343
H  H489  1  0.30920000  0.76040000  0.57040000  1.0 0.1379023343
H  H490  1  0.57040000  0.36000000  0.30920000  1.0 0.1379023343
H  H491  1  0.36000000  0.57040000  0.76040000  1.0 0.1379023343
H  H492  1  0.76040000  0.30920000  0.36000000  1.0 0.1379023343
H  H493  1  0.67960000  0.94080000  0.89000000  1.0 0.1379023343
H  H494  1  0.94080000  0.67960000  0.48960000  1.0 0.1379023343
H  H495  1  0.48960000  0.89000000  0.94080000  1.0 0.1379023343
H  H496  1  0.89000000  0.48960000  0.67960000  1.0 0.1379023343
H  H497  1  0.48960000  0.67960000  0.89000000  1.0 0.1379023343
H  H498  1  0.89000000  0.94080000  0.48960000  1.0 0.1379023343
H  H499  1  0.67960000  0.48960000  0.94080000  1.0 0.1379023343
H  H500  1  0.94080000  0.89000000  0.67960000  1.0 0.1379023343
H  H501  1  0.94080000  0.48960000  0.89000000  1.0 0.1379023343
H  H502  1  0.67960000  0.89000000  0.48960000  1.0 0.1379023343
H  H503  1  0.89000000  0.67960000  0.94080000  1.0 0.1379023343
H  H504  1  0.48960000  0.94080000  0.67960000  1.0 0.1379023343
H  H505  1  0.17960000  0.44080000  0.98960000  1.0 0.1379023343
H  H506  1  0.44080000  0.17960000  0.39000000  1.0 0.1379023343
H  H507  1  0.98960000  0.39000000  0.17960000  1.0 0.1379023343
H  H508  1  0.39000000  0.98960000  0.44080000  1.0 0.1379023343
H  H509  1  0.98960000  0.17960000  0.44080000  1.0 0.1379023343
H  H510  1  0.39000000  0.44080000  0.17960000  1.0 0.1379023343
H  H511  1  0.17960000  0.98960000  0.39000000  1.0 0.1379023343
H  H512  1  0.44080000  0.39000000  0.98960000  1.0 0.1379023343
H  H513  1  0.44080000  0.98960000  0.17960000  1.0 0.1379023343
H  H514  1  0.17960000  0.39000000  0.44080000  1.0 0.1379023343
H  H515  1  0.39000000  0.17960000  0.98960000  1.0 0.1379023343
H  H516  1  0.98960000  0.44080000  0.39000000  1.0 0.1379023343
H  H517  1  0.07040000  0.80920000  0.86000000  1.0 0.1379023343
H  H518  1  0.80920000  0.07040000  0.26040000  1.0 0.1379023343
H  H519  1  0.26040000  0.86000000  0.80920000  1.0 0.1379023343
H  H520  1  0.86000000  0.26040000  0.07040000  1.0 0.1379023343
H  H521  1  0.26040000  0.07040000  0.86000000  1.0 0.1379023343
H  H522  1  0.86000000  0.80920000  0.26040000  1.0 0.1379023343
H  H523  1  0.07040000  0.26040000  0.80920000  1.0 0.1379023343
H  H524  1  0.80920000  0.86000000  0.07040000  1.0 0.1379023343
H  H525  1  0.80920000  0.26040000  0.86000000  1.0 0.1379023343
H  H526  1  0.07040000  0.86000000  0.26040000  1.0 0.1379023343
H  H527  1  0.86000000  0.07040000  0.80920000  1.0 0.1379023343
H  H528  1  0.26040000  0.80920000  0.07040000  1.0 0.1379023343
H  H529  1  0.57660000  0.35580000  0.70620000  1.0 0.1082156906
H  H530  1  0.35580000  0.57660000  0.36140000  1.0 0.1082156906
H  H531  1  0.70620000  0.36140000  0.57660000  1.0 0.1082156906
H  H532  1  0.36140000  0.70620000  0.35580000  1.0 0.1082156906
H  H533  1  0.70620000  0.57660000  0.35580000  1.0 0.1082156906
H  H534  1  0.36140000  0.35580000  0.57660000  1.0 0.1082156906
H  H535  1  0.57660000  0.70620000  0.36140000  1.0 0.1082156906
H  H536  1  0.35580000  0.36140000  0.70620000  1.0 0.1082156906
H  H537  1  0.35580000  0.70620000  0.57660000  1.0 0.1082156906
H  H538  1  0.57660000  0.36140000  0.35580000  1.0 0.1082156906
H  H539  1  0.36140000  0.57660000  0.70620000  1.0 0.1082156906
H  H540  1  0.70620000  0.35580000  0.36140000  1.0 0.1082156906
H  H541  1  0.67340000  0.89420000  0.88860000  1.0 0.1082156906
H  H542  1  0.89420000  0.67340000  0.54380000  1.0 0.1082156906
H  H543  1  0.54380000  0.88860000  0.89420000  1.0 0.1082156906
H  H544  1  0.88860000  0.54380000  0.67340000  1.0 0.1082156906
H  H545  1  0.54380000  0.67340000  0.88860000  1.0 0.1082156906
H  H546  1  0.88860000  0.89420000  0.54380000  1.0 0.1082156906
H  H547  1  0.67340000  0.54380000  0.89420000  1.0 0.1082156906
H  H548  1  0.89420000  0.88860000  0.67340000  1.0 0.1082156906
H  H549  1  0.89420000  0.54380000  0.88860000  1.0 0.1082156906
H  H550  1  0.67340000  0.88860000  0.54380000  1.0 0.1082156906
H  H551  1  0.88860000  0.67340000  0.89420000  1.0 0.1082156906
H  H552  1  0.54380000  0.89420000  0.67340000  1.0 0.1082156906
H  H553  1  0.17340000  0.39420000  0.04380000  1.0 0.1082156906
H  H554  1  0.39420000  0.17340000  0.38860000  1.0 0.1082156906
H  H555  1  0.04380000  0.38860000  0.17340000  1.0 0.1082156906
H  H556  1  0.38860000  0.04380000  0.39420000  1.0 0.1082156906
H  H557  1  0.04380000  0.17340000  0.39420000  1.0 0.1082156906
H  H558  1  0.38860000  0.39420000  0.17340000  1.0 0.1082156906
H  H559  1  0.17340000  0.04380000  0.38860000  1.0 0.1082156906
H  H560  1  0.39420000  0.38860000  0.04380000  1.0 0.1082156906
H  H561  1  0.39420000  0.04380000  0.17340000  1.0 0.1082156906
H  H562  1  0.17340000  0.38860000  0.39420000  1.0 0.1082156906
H  H563  1  0.38860000  0.17340000  0.04380000  1.0 0.1082156906
H  H564  1  0.04380000  0.39420000  0.38860000  1.0 0.1082156906
H  H565  1  0.07660000  0.85580000  0.86140000  1.0 0.1082156906
H  H566  1  0.85580000  0.07660000  0.20620000  1.0 0.1082156906
H  H567  1  0.20620000  0.86140000  0.85580000  1.0 0.1082156906
H  H568  1  0.86140000  0.20620000  0.07660000  1.0 0.1082156906
H  H569  1  0.20620000  0.07660000  0.86140000  1.0 0.1082156906
H  H570  1  0.86140000  0.85580000  0.20620000  1.0 0.1082156906
H  H571  1  0.07660000  0.20620000  0.85580000  1.0 0.1082156906
H  H572  1  0.85580000  0.86140000  0.07660000  1.0 0.1082156906
H  H573  1  0.85580000  0.20620000  0.86140000  1.0 0.1082156906
H  H574  1  0.07660000  0.86140000  0.20620000  1.0 0.1082156906
H  H575  1  0.86140000  0.07660000  0.85580000  1.0 0.1082156906
H  H576  1  0.20620000  0.85580000  0.07660000  1.0 0.1082156906
H  H577  1  0.63680000  0.44620000  0.59960000  1.0 0.1082156906
H  H578  1  0.44620000  0.63680000  0.31740000  1.0 0.1082156906
H  H579  1  0.59960000  0.31740000  0.63680000  1.0 0.1082156906
H  H580  1  0.31740000  0.59960000  0.44620000  1.0 0.1082156906
H  H581  1  0.59960000  0.63680000  0.44620000  1.0 0.1082156906
H  H582  1  0.31740000  0.44620000  0.63680000  1.0 0.1082156906
H  H583  1  0.63680000  0.59960000  0.31740000  1.0 0.1082156906
H  H584  1  0.44620000  0.31740000  0.59960000  1.0 0.1082156906
H  H585  1  0.44620000  0.59960000  0.63680000  1.0 0.1082156906
H  H586  1  0.63680000  0.31740000  0.44620000  1.0 0.1082156906
H  H587  1  0.31740000  0.63680000  0.59960000  1.0 0.1082156906
H  H588  1  0.59960000  0.44620000  0.31740000  1.0 0.1082156906
H  H589  1  0.61320000  0.80380000  0.93260000  1.0 0.1082156906
H  H590  1  0.80380000  0.61320000  0.65040000  1.0 0.1082156906
H  H591  1  0.65040000  0.93260000  0.80380000  1.0 0.1082156906
H  H592  1  0.93260000  0.65040000  0.61320000  1.0 0.1082156906
H  H593  1  0.65040000  0.61320000  0.93260000  1.0 0.1082156906
H  H594  1  0.93260000  0.80380000  0.65040000  1.0 0.1082156906
H  H595  1  0.61320000  0.65040000  0.80380000  1.0 0.1082156906
H  H596  1  0.80380000  0.93260000  0.61320000  1.0 0.1082156906
H  H597  1  0.80380000  0.65040000  0.93260000  1.0 0.1082156906
H  H598  1  0.61320000  0.93260000  0.65040000  1.0 0.1082156906
H  H599  1  0.93260000  0.61320000  0.80380000  1.0 0.1082156906
H  H600  1  0.65040000  0.80380000  0.61320000  1.0 0.1082156906
H  H601  1  0.11320000  0.30380000  0.15040000  1.0 0.1082156906
H  H602  1  0.30380000  0.11320000  0.43260000  1.0 0.1082156906
H  H603  1  0.15040000  0.43260000  0.11320000  1.0 0.1082156906
H  H604  1  0.43260000  0.15040000  0.30380000  1.0 0.1082156906
H  H605  1  0.15040000  0.11320000  0.30380000  1.0 0.1082156906
H  H606  1  0.43260000  0.30380000  0.11320000  1.0 0.1082156906
H  H607  1  0.11320000  0.15040000  0.43260000  1.0 0.1082156906
H  H608  1  0.30380000  0.43260000  0.15040000  1.0 0.1082156906
H  H609  1  0.30380000  0.15040000  0.11320000  1.0 0.1082156906
H  H610  1  0.11320000  0.43260000  0.30380000  1.0 0.1082156906
H  H611  1  0.43260000  0.11320000  0.15040000  1.0 0.1082156906
H  H612  1  0.15040000  0.30380000  0.43260000  1.0 0.1082156906
H  H613  1  0.13680000  0.94620000  0.81740000  1.0 0.1082156906
H  H614  1  0.94620000  0.13680000  0.09960000  1.0 0.1082156906
H  H615  1  0.09960000  0.81740000  0.94620000  1.0 0.1082156906
H  H616  1  0.81740000  0.09960000  0.13680000  1.0 0.1082156906
H  H617  1  0.09960000  0.13680000  0.81740000  1.0 0.1082156906
H  H618  1  0.81740000  0.94620000  0.09960000  1.0 0.1082156906
H  H619  1  0.13680000  0.09960000  0.94620000  1.0 0.1082156906
H  H620  1  0.94620000  0.81740000  0.13680000  1.0 0.1082156906
H  H621  1  0.94620000  0.09960000  0.81740000  1.0 0.1082156906
H  H622  1  0.13680000  0.81740000  0.09960000  1.0 0.1082156906
H  H623  1  0.81740000  0.13680000  0.94620000  1.0 0.1082156906
H  H624  1  0.09960000  0.94620000  0.13680000  1.0 0.1082156906
H  H625  1  0.64660000  0.49440000  0.55000000  1.0 0.1379023343
H  H626  1  0.49440000  0.64660000  0.30900000  1.0 0.1379023343
H  H627  1  0.55000000  0.30900000  0.64660000  1.0 0.1379023343
H  H628  1  0.30900000  0.55000000  0.49440000  1.0 0.1379023343
H  H629  1  0.55000000  0.64660000  0.49440000  1.0 0.1379023343
H  H630  1  0.30900000  0.49440000  0.64660000  1.0 0.1379023343
H  H631  1  0.64660000  0.55000000  0.30900000  1.0 0.1379023343
H  H632  1  0.49440000  0.30900000  0.55000000  1.0 0.1379023343
H  H633  1  0.49440000  0.55000000  0.64660000  1.0 0.1379023343
H  H634  1  0.64660000  0.30900000  0.49440000  1.0 0.1379023343
H  H635  1  0.30900000  0.64660000  0.55000000  1.0 0.1379023343
H  H636  1  0.55000000  0.49440000  0.30900000  1.0 0.1379023343
H  H637  1  0.60340000  0.75560000  0.94100000  1.0 0.1379023343
H  H638  1  0.75560000  0.60340000  0.70000000  1.0 0.1379023343
H  H639  1  0.70000000  0.94100000  0.75560000  1.0 0.1379023343
H  H640  1  0.94100000  0.70000000  0.60340000  1.0 0.1379023343
H  H641  1  0.70000000  0.60340000  0.94100000  1.0 0.1379023343
H  H642  1  0.94100000  0.75560000  0.70000000  1.0 0.1379023343
H  H643  1  0.60340000  0.70000000  0.75560000  1.0 0.1379023343
H  H644  1  0.75560000  0.94100000  0.60340000  1.0 0.1379023343
H  H645  1  0.75560000  0.70000000  0.94100000  1.0 0.1379023343
H  H646  1  0.60340000  0.94100000  0.70000000  1.0 0.1379023343
H  H647  1  0.94100000  0.60340000  0.75560000  1.0 0.1379023343
H  H648  1  0.70000000  0.75560000  0.60340000  1.0 0.1379023343
H  H649  1  0.10340000  0.25560000  0.20000000  1.0 0.1379023343
H  H650  1  0.25560000  0.10340000  0.44100000  1.0 0.1379023343
H  H651  1  0.20000000  0.44100000  0.10340000  1.0 0.1379023343
H  H652  1  0.44100000  0.20000000  0.25560000  1.0 0.1379023343
H  H653  1  0.20000000  0.10340000  0.25560000  1.0 0.1379023343
H  H654  1  0.44100000  0.25560000  0.10340000  1.0 0.1379023343
H  H655  1  0.10340000  0.20000000  0.44100000  1.0 0.1379023343
H  H656  1  0.25560000  0.44100000  0.20000000  1.0 0.1379023343
H  H657  1  0.25560000  0.20000000  0.10340000  1.0 0.1379023343
H  H658  1  0.10340000  0.44100000  0.25560000  1.0 0.1379023343
H  H659  1  0.44100000  0.10340000  0.20000000  1.0 0.1379023343
H  H660  1  0.20000000  0.25560000  0.44100000  1.0 0.1379023343
H  H661  1  0.14660000  0.99440000  0.80900000  1.0 0.1379023343
H  H662  1  0.99440000  0.14660000  0.05000000  1.0 0.1379023343
H  H663  1  0.05000000  0.80900000  0.99440000  1.0 0.1379023343
H  H664  1  0.80900000  0.05000000  0.14660000  1.0 0.1379023343
H  H665  1  0.05000000  0.14660000  0.80900000  1.0 0.1379023343
H  H666  1  0.80900000  0.99440000  0.05000000  1.0 0.1379023343
H  H667  1  0.14660000  0.05000000  0.99440000  1.0 0.1379023343
H  H668  1  0.99440000  0.80900000  0.14660000  1.0 0.1379023343
H  H669  1  0.99440000  0.05000000  0.80900000  1.0 0.1379023343
H  H670  1  0.14660000  0.80900000  0.05000000  1.0 0.1379023343
H  H671  1  0.80900000  0.14660000  0.99440000  1.0 0.1379023343
H  H672  1  0.05000000  0.99440000  0.14660000  1.0 0.1379023343
H  H673  1  0.65130000  0.49750000  0.49390000  1.0 0.1197307859
H  H674  1  0.49750000  0.65130000  0.35730000  1.0 0.1197307859
H  H675  1  0.49390000  0.35730000  0.65130000  1.0 0.1197307859
H  H676  1  0.35730000  0.49390000  0.49750000  1.0 0.1197307859
H  H677  1  0.49390000  0.65130000  0.49750000  1.0 0.1197307859
H  H678  1  0.35730000  0.49750000  0.65130000  1.0 0.1197307859
H  H679  1  0.65130000  0.49390000  0.35730000  1.0 0.1197307859
H  H680  1  0.49750000  0.35730000  0.49390000  1.0 0.1197307859
H  H681  1  0.49750000  0.49390000  0.65130000  1.0 0.1197307859
H  H682  1  0.65130000  0.35730000  0.49750000  1.0 0.1197307859
H  H683  1  0.35730000  0.65130000  0.49390000  1.0 0.1197307859
H  H684  1  0.49390000  0.49750000  0.35730000  1.0 0.1197307859
H  H685  1  0.59870000  0.75250000  0.89270000  1.0 0.1197307859
H  H686  1  0.75250000  0.59870000  0.75610000  1.0 0.1197307859
H  H687  1  0.75610000  0.89270000  0.75250000  1.0 0.1197307859
H  H688  1  0.89270000  0.75610000  0.59870000  1.0 0.1197307859
H  H689  1  0.75610000  0.59870000  0.89270000  1.0 0.1197307859
H  H690  1  0.89270000  0.75250000  0.75610000  1.0 0.1197307859
H  H691  1  0.59870000  0.75610000  0.75250000  1.0 0.1197307859
H  H692  1  0.75250000  0.89270000  0.59870000  1.0 0.1197307859
H  H693  1  0.75250000  0.75610000  0.89270000  1.0 0.1197307859
H  H694  1  0.59870000  0.89270000  0.75610000  1.0 0.1197307859
H  H695  1  0.89270000  0.59870000  0.75250000  1.0 0.1197307859
H  H696  1  0.75610000  0.75250000  0.59870000  1.0 0.1197307859
H  H697  1  0.09870000  0.25250000  0.25610000  1.0 0.1197307859
H  H698  1  0.25250000  0.09870000  0.39270000  1.0 0.1197307859
H  H699  1  0.25610000  0.39270000  0.09870000  1.0 0.1197307859
H  H700  1  0.39270000  0.25610000  0.25250000  1.0 0.1197307859
H  H701  1  0.25610000  0.09870000  0.25250000  1.0 0.1197307859
H  H702  1  0.39270000  0.25250000  0.09870000  1.0 0.1197307859
H  H703  1  0.09870000  0.25610000  0.39270000  1.0 0.1197307859
H  H704  1  0.25250000  0.39270000  0.25610000  1.0 0.1197307859
H  H705  1  0.25250000  0.25610000  0.09870000  1.0 0.1197307859
H  H706  1  0.09870000  0.39270000  0.25250000  1.0 0.1197307859
H  H707  1  0.39270000  0.09870000  0.25610000  1.0 0.1197307859
H  H708  1  0.25610000  0.25250000  0.39270000  1.0 0.1197307859
H  H709  1  0.15130000  0.99750000  0.85730000  1.0 0.1197307859
H  H710  1  0.99750000  0.15130000  0.99390000  1.0 0.1197307859
H  H711  1  0.99390000  0.85730000  0.99750000  1.0 0.1197307859
H  H712  1  0.85730000  0.99390000  0.15130000  1.0 0.1197307859
H  H713  1  0.99390000  0.15130000  0.85730000  1.0 0.1197307859
H  H714  1  0.85730000  0.99750000  0.99390000  1.0 0.1197307859
H  H715  1  0.15130000  0.99390000  0.99750000  1.0 0.1197307859
H  H716  1  0.99750000  0.85730000  0.15130000  1.0 0.1197307859
H  H717  1  0.99750000  0.99390000  0.85730000  1.0 0.1197307859
H  H718  1  0.15130000  0.85730000  0.99390000  1.0 0.1197307859
H  H719  1  0.85730000  0.15130000  0.99750000  1.0 0.1197307859
H  H720  1  0.99390000  0.99750000  0.15130000  1.0 0.1197307859
H  H721  1  0.63020000  0.40400000  0.54660000  1.0 0.1082156906
H  H722  1  0.40400000  0.63020000  0.41920000  1.0 0.1082156906
H  H723  1  0.54660000  0.41920000  0.63020000  1.0 0.1082156906
H  H724  1  0.41920000  0.54660000  0.40400000  1.0 0.1082156906
H  H725  1  0.54660000  0.63020000  0.40400000  1.0 0.1082156906
H  H726  1  0.41920000  0.40400000  0.63020000  1.0 0.1082156906
H  H727  1  0.63020000  0.54660000  0.41920000  1.0 0.1082156906
H  H728  1  0.40400000  0.41920000  0.54660000  1.0 0.1082156906
H  H729  1  0.40400000  0.54660000  0.63020000  1.0 0.1082156906
H  H730  1  0.63020000  0.41920000  0.40400000  1.0 0.1082156906
H  H731  1  0.41920000  0.63020000  0.54660000  1.0 0.1082156906
H  H732  1  0.54660000  0.40400000  0.41920000  1.0 0.1082156906
H  H733  1  0.61980000  0.84600000  0.83080000  1.0 0.1082156906
H  H734  1  0.84600000  0.61980000  0.70340000  1.0 0.1082156906
H  H735  1  0.70340000  0.83080000  0.84600000  1.0 0.1082156906
H  H736  1  0.83080000  0.70340000  0.61980000  1.0 0.1082156906
H  H737  1  0.70340000  0.61980000  0.83080000  1.0 0.1082156906
H  H738  1  0.83080000  0.84600000  0.70340000  1.0 0.1082156906
H  H739  1  0.61980000  0.70340000  0.84600000  1.0 0.1082156906
H  H740  1  0.84600000  0.83080000  0.61980000  1.0 0.1082156906
H  H741  1  0.84600000  0.70340000  0.83080000  1.0 0.1082156906
H  H742  1  0.61980000  0.83080000  0.70340000  1.0 0.1082156906
H  H743  1  0.83080000  0.61980000  0.84600000  1.0 0.1082156906
H  H744  1  0.70340000  0.84600000  0.61980000  1.0 0.1082156906
H  H745  1  0.11980000  0.34600000  0.20340000  1.0 0.1082156906
H  H746  1  0.34600000  0.11980000  0.33080000  1.0 0.1082156906
H  H747  1  0.20340000  0.33080000  0.11980000  1.0 0.1082156906
H  H748  1  0.33080000  0.20340000  0.34600000  1.0 0.1082156906
H  H749  1  0.20340000  0.11980000  0.34600000  1.0 0.1082156906
H  H750  1  0.33080000  0.34600000  0.11980000  1.0 0.1082156906
H  H751  1  0.11980000  0.20340000  0.33080000  1.0 0.1082156906
H  H752  1  0.34600000  0.33080000  0.20340000  1.0 0.1082156906
H  H753  1  0.34600000  0.20340000  0.11980000  1.0 0.1082156906
H  H754  1  0.11980000  0.33080000  0.34600000  1.0 0.1082156906
H  H755  1  0.33080000  0.11980000  0.20340000  1.0 0.1082156906
H  H756  1  0.20340000  0.34600000  0.33080000  1.0 0.1082156906
H  H757  1  0.13020000  0.90400000  0.91920000  1.0 0.1082156906
H  H758  1  0.90400000  0.13020000  0.04660000  1.0 0.1082156906
H  H759  1  0.04660000  0.91920000  0.90400000  1.0 0.1082156906
H  H760  1  0.91920000  0.04660000  0.13020000  1.0 0.1082156906
H  H761  1  0.04660000  0.13020000  0.91920000  1.0 0.1082156906
H  H762  1  0.91920000  0.90400000  0.04660000  1.0 0.1082156906
H  H763  1  0.13020000  0.04660000  0.90400000  1.0 0.1082156906
H  H764  1  0.90400000  0.91920000  0.13020000  1.0 0.1082156906
H  H765  1  0.90400000  0.04660000  0.91920000  1.0 0.1082156906
H  H766  1  0.13020000  0.91920000  0.04660000  1.0 0.1082156906
H  H767  1  0.91920000  0.13020000  0.90400000  1.0 0.1082156906
H  H768  1  0.04660000  0.90400000  0.13020000  1.0 0.1082156906
C  C1  1  0.78478000  0.16854000  0.64502000  1.0 0.0616745623
C  C2  1  0.16854000  0.78478000  0.40166000  1.0 0.0616745623
C  C3  1  0.64502000  0.40166000  0.78478000  1.0 0.0616745623
C  C4  1  0.40166000  0.64502000  0.16854000  1.0 0.0616745623
C  C5  1  0.64502000  0.78478000  0.16854000  1.0 0.0616745623
C  C6  1  0.40166000  0.16854000  0.78478000  1.0 0.0616745623
C  C7  1  0.78478000  0.64502000  0.40166000  1.0 0.0616745623
C  C8  1  0.16854000  0.40166000  0.64502000  1.0 0.0616745623
C  C9  1  0.16854000  0.64502000  0.78478000  1.0 0.0616745623
C  C10  1  0.78478000  0.40166000  0.16854000  1.0 0.0616745623
C  C11  1  0.40166000  0.78478000  0.64502000  1.0 0.0616745623
C  C12  1  0.64502000  0.16854000  0.40166000  1.0 0.0616745623
C  C13  1  0.46522000  0.08146000  0.84834000  1.0 0.0616745623
C  C14  1  0.08146000  0.46522000  0.60498000  1.0 0.0616745623
C  C15  1  0.60498000  0.84834000  0.08146000  1.0 0.0616745623
C  C16  1  0.84834000  0.60498000  0.46522000  1.0 0.0616745623
C  C17  1  0.60498000  0.46522000  0.84834000  1.0 0.0616745623
C  C18  1  0.84834000  0.08146000  0.60498000  1.0 0.0616745623
C  C19  1  0.46522000  0.60498000  0.08146000  1.0 0.0616745623
C  C20  1  0.08146000  0.84834000  0.46522000  1.0 0.0616745623
C  C21  1  0.08146000  0.60498000  0.84834000  1.0 0.0616745623
C  C22  1  0.46522000  0.84834000  0.60498000  1.0 0.0616745623
C  C23  1  0.84834000  0.46522000  0.08146000  1.0 0.0616745623
C  C24  1  0.60498000  0.08146000  0.46522000  1.0 0.0616745623
C  C25  1  0.96522000  0.58146000  0.10498000  1.0 0.0616745623
C  C26  1  0.58146000  0.96522000  0.34834000  1.0 0.0616745623
C  C27  1  0.10498000  0.34834000  0.96522000  1.0 0.0616745623
C  C28  1  0.34834000  0.10498000  0.58146000  1.0 0.0616745623
C  C29  1  0.10498000  0.96522000  0.58146000  1.0 0.0616745623
C  C30  1  0.34834000  0.58146000  0.96522000  1.0 0.0616745623
C  C31  1  0.96522000  0.10498000  0.34834000  1.0 0.0616745623
C  C32  1  0.58146000  0.34834000  0.10498000  1.0 0.0616745623
C  C33  1  0.58146000  0.10498000  0.96522000  1.0 0.0616745623
C  C34  1  0.96522000  0.34834000  0.58146000  1.0 0.0616745623
C  C35  1  0.34834000  0.96522000  0.10498000  1.0 0.0616745623
C  C36  1  0.10498000  0.58146000  0.34834000  1.0 0.0616745623
C  C37  1  0.28478000  0.66854000  0.90166000  1.0 0.0616745623
C  C38  1  0.66854000  0.28478000  0.14502000  1.0 0.0616745623
C  C39  1  0.14502000  0.90166000  0.66854000  1.0 0.0616745623
C  C40  1  0.90166000  0.14502000  0.28478000  1.0 0.0616745623
C  C41  1  0.14502000  0.28478000  0.90166000  1.0 0.0616745623
C  C42  1  0.90166000  0.66854000  0.14502000  1.0 0.0616745623
C  C43  1  0.28478000  0.14502000  0.66854000  1.0 0.0616745623
C  C44  1  0.66854000  0.90166000  0.28478000  1.0 0.0616745623
C  C45  1  0.66854000  0.14502000  0.90166000  1.0 0.0616745623
C  C46  1  0.28478000  0.90166000  0.14502000  1.0 0.0616745623
C  C47  1  0.90166000  0.28478000  0.66854000  1.0 0.0616745623
C  C48  1  0.14502000  0.66854000  0.28478000  1.0 0.0616745623
C  C49  1  0.75167000  0.19455000  0.64379000  1.0 -0.0276983779
C  C50  1  0.19455000  0.75167000  0.40999000  1.0 -0.0276983779
C  C51  1  0.64379000  0.40999000  0.75167000  1.0 -0.0276983779
C  C52  1  0.40999000  0.64379000  0.19455000  1.0 -0.0276983779
C  C53  1  0.64379000  0.75167000  0.19455000  1.0 -0.0276983779
C  C54  1  0.40999000  0.19455000  0.75167000  1.0 -0.0276983779
C  C55  1  0.75167000  0.64379000  0.40999000  1.0 -0.0276983779
C  C56  1  0.19455000  0.40999000  0.64379000  1.0 -0.0276983779
C  C57  1  0.19455000  0.64379000  0.75167000  1.0 -0.0276983779
C  C58  1  0.75167000  0.40999000  0.19455000  1.0 -0.0276983779
C  C59  1  0.40999000  0.75167000  0.64379000  1.0 -0.0276983779
C  C60  1  0.64379000  0.19455000  0.40999000  1.0 -0.0276983779
C  C61  1  0.49833000  0.05545000  0.84001000  1.0 -0.0276983779
C  C62  1  0.05545000  0.49833000  0.60621000  1.0 -0.0276983779
C  C63  1  0.60621000  0.84001000  0.05545000  1.0 -0.0276983779
C  C64  1  0.84001000  0.60621000  0.49833000  1.0 -0.0276983779
C  C65  1  0.60621000  0.49833000  0.84001000  1.0 -0.0276983779
C  C66  1  0.84001000  0.05545000  0.60621000  1.0 -0.0276983779
C  C67  1  0.49833000  0.60621000  0.05545000  1.0 -0.0276983779
C  C68  1  0.05545000  0.84001000  0.49833000  1.0 -0.0276983779
C  C69  1  0.05545000  0.60621000  0.84001000  1.0 -0.0276983779
C  C70  1  0.49833000  0.84001000  0.60621000  1.0 -0.0276983779
C  C71  1  0.84001000  0.49833000  0.05545000  1.0 -0.0276983779
C  C72  1  0.60621000  0.05545000  0.49833000  1.0 -0.0276983779
C  C73  1  0.99833000  0.55545000  0.10621000  1.0 -0.0276983779
C  C74  1  0.55545000  0.99833000  0.34001000  1.0 -0.0276983779
C  C75  1  0.10621000  0.34001000  0.99833000  1.0 -0.0276983779
C  C76  1  0.34001000  0.10621000  0.55545000  1.0 -0.0276983779
C  C77  1  0.10621000  0.99833000  0.55545000  1.0 -0.0276983779
C  C78  1  0.34001000  0.55545000  0.99833000  1.0 -0.0276983779
C  C79  1  0.99833000  0.10621000  0.34001000  1.0 -0.0276983779
C  C80  1  0.55545000  0.34001000  0.10621000  1.0 -0.0276983779
C  C81  1  0.55545000  0.10621000  0.99833000  1.0 -0.0276983779
C  C82  1  0.99833000  0.34001000  0.55545000  1.0 -0.0276983779
C  C83  1  0.34001000  0.99833000  0.10621000  1.0 -0.0276983779
C  C84  1  0.10621000  0.55545000  0.34001000  1.0 -0.0276983779
C  C85  1  0.25167000  0.69455000  0.90999000  1.0 -0.0276983779
C  C86  1  0.69455000  0.25167000  0.14379000  1.0 -0.0276983779
C  C87  1  0.14379000  0.90999000  0.69455000  1.0 -0.0276983779
C  C88  1  0.90999000  0.14379000  0.25167000  1.0 -0.0276983779
C  C89  1  0.14379000  0.25167000  0.90999000  1.0 -0.0276983779
C  C90  1  0.90999000  0.69455000  0.14379000  1.0 -0.0276983779
C  C91  1  0.25167000  0.14379000  0.69455000  1.0 -0.0276983779
C  C92  1  0.69455000  0.90999000  0.25167000  1.0 -0.0276983779
C  C93  1  0.69455000  0.14379000  0.90999000  1.0 -0.0276983779
C  C94  1  0.25167000  0.90999000  0.14379000  1.0 -0.0276983779
C  C95  1  0.90999000  0.25167000  0.69455000  1.0 -0.0276983779
C  C96  1  0.14379000  0.69455000  0.25167000  1.0 -0.0276983779
C  C97  1  0.74803000  0.21831000  0.61071000  1.0 -0.050745868
C  C98  1  0.21831000  0.74803000  0.42295000  1.0 -0.050745868
C  C99  1  0.61071000  0.42295000  0.74803000  1.0 -0.050745868
C  C100  1  0.42295000  0.61071000  0.21831000  1.0 -0.050745868
C  C101  1  0.61071000  0.74803000  0.21831000  1.0 -0.050745868
C  C102  1  0.42295000  0.21831000  0.74803000  1.0 -0.050745868
C  C103  1  0.74803000  0.61071000  0.42295000  1.0 -0.050745868
C  C104  1  0.21831000  0.42295000  0.61071000  1.0 -0.050745868
C  C105  1  0.21831000  0.61071000  0.74803000  1.0 -0.050745868
C  C106  1  0.74803000  0.42295000  0.21831000  1.0 -0.050745868
C  C107  1  0.42295000  0.74803000  0.61071000  1.0 -0.050745868
C  C108  1  0.61071000  0.21831000  0.42295000  1.0 -0.050745868
C  C109  1  0.50197000  0.03169000  0.82705000  1.0 -0.050745868
C  C110  1  0.03169000  0.50197000  0.63929000  1.0 -0.050745868
C  C111  1  0.63929000  0.82705000  0.03169000  1.0 -0.050745868
C  C112  1  0.82705000  0.63929000  0.50197000  1.0 -0.050745868
C  C113  1  0.63929000  0.50197000  0.82705000  1.0 -0.050745868
C  C114  1  0.82705000  0.03169000  0.63929000  1.0 -0.050745868
C  C115  1  0.50197000  0.63929000  0.03169000  1.0 -0.050745868
C  C116  1  0.03169000  0.82705000  0.50197000  1.0 -0.050745868
C  C117  1  0.03169000  0.63929000  0.82705000  1.0 -0.050745868
C  C118  1  0.50197000  0.82705000  0.63929000  1.0 -0.050745868
C  C119  1  0.82705000  0.50197000  0.03169000  1.0 -0.050745868
C  C120  1  0.63929000  0.03169000  0.50197000  1.0 -0.050745868
C  C121  1  0.00197000  0.53169000  0.13929000  1.0 -0.050745868
C  C122  1  0.53169000  0.00197000  0.32705000  1.0 -0.050745868
C  C123  1  0.13929000  0.32705000  0.00197000  1.0 -0.050745868
C  C124  1  0.32705000  0.13929000  0.53169000  1.0 -0.050745868
C  C125  1  0.13929000  0.00197000  0.53169000  1.0 -0.050745868
C  C126  1  0.32705000  0.53169000  0.00197000  1.0 -0.050745868
C  C127  1  0.00197000  0.13929000  0.32705000  1.0 -0.050745868
C  C128  1  0.53169000  0.32705000  0.13929000  1.0 -0.050745868
C  C129  1  0.53169000  0.13929000  0.00197000  1.0 -0.050745868
C  C130  1  0.00197000  0.32705000  0.53169000  1.0 -0.050745868
C  C131  1  0.32705000  0.00197000  0.13929000  1.0 -0.050745868
C  C132  1  0.13929000  0.53169000  0.32705000  1.0 -0.050745868
C  C133  1  0.24803000  0.71831000  0.92295000  1.0 -0.050745868
C  C134  1  0.71831000  0.24803000  0.11071000  1.0 -0.050745868
C  C135  1  0.11071000  0.92295000  0.71831000  1.0 -0.050745868
C  C136  1  0.92295000  0.11071000  0.24803000  1.0 -0.050745868
C  C137  1  0.11071000  0.24803000  0.92295000  1.0 -0.050745868
C  C138  1  0.92295000  0.71831000  0.11071000  1.0 -0.050745868
C  C139  1  0.24803000  0.11071000  0.71831000  1.0 -0.050745868
C  C140  1  0.71831000  0.92295000  0.24803000  1.0 -0.050745868
C  C141  1  0.71831000  0.11071000  0.92295000  1.0 -0.050745868
C  C142  1  0.24803000  0.92295000  0.11071000  1.0 -0.050745868
C  C143  1  0.92295000  0.24803000  0.71831000  1.0 -0.050745868
C  C144  1  0.11071000  0.71831000  0.24803000  1.0 -0.050745868
C  C145  1  0.77743000  0.21381000  0.58023000  1.0 -0.1308782589
C  C146  1  0.21381000  0.77743000  0.42853000  1.0 -0.1308782589
C  C147  1  0.58023000  0.42853000  0.77743000  1.0 -0.1308782589
C  C148  1  0.42853000  0.58023000  0.21381000  1.0 -0.1308782589
C  C149  1  0.58023000  0.77743000  0.21381000  1.0 -0.1308782589
C  C150  1  0.42853000  0.21381000  0.77743000  1.0 -0.1308782589
C  C151  1  0.77743000  0.58023000  0.42853000  1.0 -0.1308782589
C  C152  1  0.21381000  0.42853000  0.58023000  1.0 -0.1308782589
C  C153  1  0.21381000  0.58023000  0.77743000  1.0 -0.1308782589
C  C154  1  0.77743000  0.42853000  0.21381000  1.0 -0.1308782589
C  C155  1  0.42853000  0.77743000  0.58023000  1.0 -0.1308782589
C  C156  1  0.58023000  0.21381000  0.42853000  1.0 -0.1308782589
C  C157  1  0.47257000  0.03619000  0.82147000  1.0 -0.1308782589
C  C158  1  0.03619000  0.47257000  0.66977000  1.0 -0.1308782589
C  C159  1  0.66977000  0.82147000  0.03619000  1.0 -0.1308782589
C  C160  1  0.82147000  0.66977000  0.47257000  1.0 -0.1308782589
C  C161  1  0.66977000  0.47257000  0.82147000  1.0 -0.1308782589
C  C162  1  0.82147000  0.03619000  0.66977000  1.0 -0.1308782589
C  C163  1  0.47257000  0.66977000  0.03619000  1.0 -0.1308782589
C  C164  1  0.03619000  0.82147000  0.47257000  1.0 -0.1308782589
C  C165  1  0.03619000  0.66977000  0.82147000  1.0 -0.1308782589
C  C166  1  0.47257000  0.82147000  0.66977000  1.0 -0.1308782589
C  C167  1  0.82147000  0.47257000  0.03619000  1.0 -0.1308782589
C  C168  1  0.66977000  0.03619000  0.47257000  1.0 -0.1308782589
C  C169  1  0.97257000  0.53619000  0.16977000  1.0 -0.1308782589
C  C170  1  0.53619000  0.97257000  0.32147000  1.0 -0.1308782589
C  C171  1  0.16977000  0.32147000  0.97257000  1.0 -0.1308782589
C  C172  1  0.32147000  0.16977000  0.53619000  1.0 -0.1308782589
C  C173  1  0.16977000  0.97257000  0.53619000  1.0 -0.1308782589
C  C174  1  0.32147000  0.53619000  0.97257000  1.0 -0.1308782589
C  C175  1  0.97257000  0.16977000  0.32147000  1.0 -0.1308782589
C  C176  1  0.53619000  0.32147000  0.16977000  1.0 -0.1308782589
C  C177  1  0.53619000  0.16977000  0.97257000  1.0 -0.1308782589
C  C178  1  0.97257000  0.32147000  0.53619000  1.0 -0.1308782589
C  C179  1  0.32147000  0.97257000  0.16977000  1.0 -0.1308782589
C  C180  1  0.16977000  0.53619000  0.32147000  1.0 -0.1308782589
C  C181  1  0.27743000  0.71381000  0.92853000  1.0 -0.1308782589
C  C182  1  0.71381000  0.27743000  0.08023000  1.0 -0.1308782589
C  C183  1  0.08023000  0.92853000  0.71381000  1.0 -0.1308782589
C  C184  1  0.92853000  0.08023000  0.27743000  1.0 -0.1308782589
C  C185  1  0.08023000  0.27743000  0.92853000  1.0 -0.1308782589
C  C186  1  0.92853000  0.71381000  0.08023000  1.0 -0.1308782589
C  C187  1  0.27743000  0.08023000  0.71381000  1.0 -0.1308782589
C  C188  1  0.71381000  0.92853000  0.27743000  1.0 -0.1308782589
C  C189  1  0.71381000  0.08023000  0.92853000  1.0 -0.1308782589
C  C190  1  0.27743000  0.92853000  0.08023000  1.0 -0.1308782589
C  C191  1  0.92853000  0.27743000  0.71381000  1.0 -0.1308782589
C  C192  1  0.08023000  0.71381000  0.27743000  1.0 -0.1308782589
C  C193  1  0.80994000  0.18850000  0.58348000  1.0 0.0707179337
C  C194  1  0.18850000  0.80994000  0.41808000  1.0 0.0707179337
C  C195  1  0.58348000  0.41808000  0.80994000  1.0 0.0707179337
C  C196  1  0.41808000  0.58348000  0.18850000  1.0 0.0707179337
C  C197  1  0.58348000  0.80994000  0.18850000  1.0 0.0707179337
C  C198  1  0.41808000  0.18850000  0.80994000  1.0 0.0707179337
C  C199  1  0.80994000  0.58348000  0.41808000  1.0 0.0707179337
C  C200  1  0.18850000  0.41808000  0.58348000  1.0 0.0707179337
C  C201  1  0.18850000  0.58348000  0.80994000  1.0 0.0707179337
C  C202  1  0.80994000  0.41808000  0.18850000  1.0 0.0707179337
C  C203  1  0.41808000  0.80994000  0.58348000  1.0 0.0707179337
C  C204  1  0.58348000  0.18850000  0.41808000  1.0 0.0707179337
C  C205  1  0.44006000  0.06150000  0.83192000  1.0 0.0707179337
C  C206  1  0.06150000  0.44006000  0.66652000  1.0 0.0707179337
C  C207  1  0.66652000  0.83192000  0.06150000  1.0 0.0707179337
C  C208  1  0.83192000  0.66652000  0.44006000  1.0 0.0707179337
C  C209  1  0.66652000  0.44006000  0.83192000  1.0 0.0707179337
C  C210  1  0.83192000  0.06150000  0.66652000  1.0 0.0707179337
C  C211  1  0.44006000  0.66652000  0.06150000  1.0 0.0707179337
C  C212  1  0.06150000  0.83192000  0.44006000  1.0 0.0707179337
C  C213  1  0.06150000  0.66652000  0.83192000  1.0 0.0707179337
C  C214  1  0.44006000  0.83192000  0.66652000  1.0 0.0707179337
C  C215  1  0.83192000  0.44006000  0.06150000  1.0 0.0707179337
C  C216  1  0.66652000  0.06150000  0.44006000  1.0 0.0707179337
C  C217  1  0.94006000  0.56150000  0.16652000  1.0 0.0707179337
C  C218  1  0.56150000  0.94006000  0.33192000  1.0 0.0707179337
C  C219  1  0.16652000  0.33192000  0.94006000  1.0 0.0707179337
C  C220  1  0.33192000  0.16652000  0.56150000  1.0 0.0707179337
C  C221  1  0.16652000  0.94006000  0.56150000  1.0 0.0707179337
C  C222  1  0.33192000  0.56150000  0.94006000  1.0 0.0707179337
C  C223  1  0.94006000  0.16652000  0.33192000  1.0 0.0707179337
C  C224  1  0.56150000  0.33192000  0.16652000  1.0 0.0707179337
C  C225  1  0.56150000  0.16652000  0.94006000  1.0 0.0707179337
C  C226  1  0.94006000  0.33192000  0.56150000  1.0 0.0707179337
C  C227  1  0.33192000  0.94006000  0.16652000  1.0 0.0707179337
C  C228  1  0.16652000  0.56150000  0.33192000  1.0 0.0707179337
C  C229  1  0.30994000  0.68850000  0.91808000  1.0 0.0707179337
C  C230  1  0.68850000  0.30994000  0.08348000  1.0 0.0707179337
C  C231  1  0.08348000  0.91808000  0.68850000  1.0 0.0707179337
C  C232  1  0.91808000  0.08348000  0.30994000  1.0 0.0707179337
C  C233  1  0.08348000  0.30994000  0.91808000  1.0 0.0707179337
C  C234  1  0.91808000  0.68850000  0.08348000  1.0 0.0707179337
C  C235  1  0.30994000  0.08348000  0.68850000  1.0 0.0707179337
C  C236  1  0.68850000  0.91808000  0.30994000  1.0 0.0707179337
C  C237  1  0.68850000  0.08348000  0.91808000  1.0 0.0707179337
C  C238  1  0.30994000  0.91808000  0.08348000  1.0 0.0707179337
C  C239  1  0.91808000  0.30994000  0.68850000  1.0 0.0707179337
C  C240  1  0.08348000  0.68850000  0.30994000  1.0 0.0707179337
C  C241  1  0.64907000  0.03893000  0.91409000  1.0 0.2374372199
C  C242  1  0.03893000  0.64907000  0.39791000  1.0 0.2374372199
C  C243  1  0.91409000  0.39791000  0.64907000  1.0 0.2374372199
C  C244  1  0.39791000  0.91409000  0.03893000  1.0 0.2374372199
C  C245  1  0.91409000  0.64907000  0.03893000  1.0 0.2374372199
C  C246  1  0.39791000  0.03893000  0.64907000  1.0 0.2374372199
C  C247  1  0.64907000  0.91409000  0.39791000  1.0 0.2374372199
C  C248  1  0.03893000  0.39791000  0.91409000  1.0 0.2374372199
C  C249  1  0.03893000  0.91409000  0.64907000  1.0 0.2374372199
C  C250  1  0.64907000  0.39791000  0.03893000  1.0 0.2374372199
C  C251  1  0.39791000  0.64907000  0.91409000  1.0 0.2374372199
C  C252  1  0.91409000  0.03893000  0.39791000  1.0 0.2374372199
C  C253  1  0.60093000  0.21107000  0.85209000  1.0 0.2374372199
C  C254  1  0.21107000  0.60093000  0.33591000  1.0 0.2374372199
C  C255  1  0.33591000  0.85209000  0.21107000  1.0 0.2374372199
C  C256  1  0.85209000  0.33591000  0.60093000  1.0 0.2374372199
C  C257  1  0.33591000  0.60093000  0.85209000  1.0 0.2374372199
C  C258  1  0.85209000  0.21107000  0.33591000  1.0 0.2374372199
C  C259  1  0.60093000  0.33591000  0.21107000  1.0 0.2374372199
C  C260  1  0.21107000  0.85209000  0.60093000  1.0 0.2374372199
C  C261  1  0.21107000  0.33591000  0.85209000  1.0 0.2374372199
C  C262  1  0.60093000  0.85209000  0.33591000  1.0 0.2374372199
C  C263  1  0.85209000  0.60093000  0.21107000  1.0 0.2374372199
C  C264  1  0.33591000  0.21107000  0.60093000  1.0 0.2374372199
C  C265  1  0.10093000  0.71107000  0.83591000  1.0 0.2374372199
C  C266  1  0.71107000  0.10093000  0.35209000  1.0 0.2374372199
C  C267  1  0.83591000  0.35209000  0.10093000  1.0 0.2374372199
C  C268  1  0.35209000  0.83591000  0.71107000  1.0 0.2374372199
C  C269  1  0.83591000  0.10093000  0.71107000  1.0 0.2374372199
C  C270  1  0.35209000  0.71107000  0.10093000  1.0 0.2374372199
C  C271  1  0.10093000  0.83591000  0.35209000  1.0 0.2374372199
C  C272  1  0.71107000  0.35209000  0.83591000  1.0 0.2374372199
C  C273  1  0.71107000  0.83591000  0.10093000  1.0 0.2374372199
C  C274  1  0.10093000  0.35209000  0.71107000  1.0 0.2374372199
C  C275  1  0.35209000  0.10093000  0.83591000  1.0 0.2374372199
C  C276  1  0.83591000  0.71107000  0.35209000  1.0 0.2374372199
C  C277  1  0.14907000  0.53893000  0.89791000  1.0 0.2374372199
C  C278  1  0.53893000  0.14907000  0.41409000  1.0 0.2374372199
C  C279  1  0.41409000  0.89791000  0.53893000  1.0 0.2374372199
C  C280  1  0.89791000  0.41409000  0.14907000  1.0 0.2374372199
C  C281  1  0.41409000  0.14907000  0.89791000  1.0 0.2374372199
C  C282  1  0.89791000  0.53893000  0.41409000  1.0 0.2374372199
C  C283  1  0.14907000  0.41409000  0.53893000  1.0 0.2374372199
C  C284  1  0.53893000  0.89791000  0.14907000  1.0 0.2374372199
C  C285  1  0.53893000  0.41409000  0.89791000  1.0 0.2374372199
C  C286  1  0.14907000  0.89791000  0.41409000  1.0 0.2374372199
C  C287  1  0.89791000  0.14907000  0.53893000  1.0 0.2374372199
C  C288  1  0.41409000  0.53893000  0.14907000  1.0 0.2374372199
C  C289  1  0.69724000  0.08622000  0.83410000  1.0 0.0707179337
C  C290  1  0.08622000  0.69724000  0.38244000  1.0 0.0707179337
C  C291  1  0.83410000  0.38244000  0.69724000  1.0 0.0707179337
C  C292  1  0.38244000  0.83410000  0.08622000  1.0 0.0707179337
C  C293  1  0.83410000  0.69724000  0.08622000  1.0 0.0707179337
C  C294  1  0.38244000  0.08622000  0.69724000  1.0 0.0707179337
C  C295  1  0.69724000  0.83410000  0.38244000  1.0 0.0707179337
C  C296  1  0.08622000  0.38244000  0.83410000  1.0 0.0707179337
C  C297  1  0.08622000  0.83410000  0.69724000  1.0 0.0707179337
C  C298  1  0.69724000  0.38244000  0.08622000  1.0 0.0707179337
C  C299  1  0.38244000  0.69724000  0.83410000  1.0 0.0707179337
C  C300  1  0.83410000  0.08622000  0.38244000  1.0 0.0707179337
C  C301  1  0.55276000  0.16378000  0.86756000  1.0 0.0707179337
C  C302  1  0.16378000  0.55276000  0.41590000  1.0 0.0707179337
C  C303  1  0.41590000  0.86756000  0.16378000  1.0 0.0707179337
C  C304  1  0.86756000  0.41590000  0.55276000  1.0 0.0707179337
C  C305  1  0.41590000  0.55276000  0.86756000  1.0 0.0707179337
C  C306  1  0.86756000  0.16378000  0.41590000  1.0 0.0707179337
C  C307  1  0.55276000  0.41590000  0.16378000  1.0 0.0707179337
C  C308  1  0.16378000  0.86756000  0.55276000  1.0 0.0707179337
C  C309  1  0.16378000  0.41590000  0.86756000  1.0 0.0707179337
C  C310  1  0.55276000  0.86756000  0.41590000  1.0 0.0707179337
C  C311  1  0.86756000  0.55276000  0.16378000  1.0 0.0707179337
C  C312  1  0.41590000  0.16378000  0.55276000  1.0 0.0707179337
C  C313  1  0.05276000  0.66378000  0.91590000  1.0 0.0707179337
C  C314  1  0.66378000  0.05276000  0.36756000  1.0 0.0707179337
C  C315  1  0.91590000  0.36756000  0.05276000  1.0 0.0707179337
C  C316  1  0.36756000  0.91590000  0.66378000  1.0 0.0707179337
C  C317  1  0.91590000  0.05276000  0.66378000  1.0 0.0707179337
C  C318  1  0.36756000  0.66378000  0.05276000  1.0 0.0707179337
C  C319  1  0.05276000  0.91590000  0.36756000  1.0 0.0707179337
C  C320  1  0.66378000  0.36756000  0.91590000  1.0 0.0707179337
C  C321  1  0.66378000  0.91590000  0.05276000  1.0 0.0707179337
C  C322  1  0.05276000  0.36756000  0.66378000  1.0 0.0707179337
C  C323  1  0.36756000  0.05276000  0.91590000  1.0 0.0707179337
C  C324  1  0.91590000  0.66378000  0.36756000  1.0 0.0707179337
C  C325  1  0.19724000  0.58622000  0.88244000  1.0 0.0707179337
C  C326  1  0.58622000  0.19724000  0.33410000  1.0 0.0707179337
C  C327  1  0.33410000  0.88244000  0.58622000  1.0 0.0707179337
C  C328  1  0.88244000  0.33410000  0.19724000  1.0 0.0707179337
C  C329  1  0.33410000  0.19724000  0.88244000  1.0 0.0707179337
C  C330  1  0.88244000  0.58622000  0.33410000  1.0 0.0707179337
C  C331  1  0.19724000  0.33410000  0.58622000  1.0 0.0707179337
C  C332  1  0.58622000  0.88244000  0.19724000  1.0 0.0707179337
C  C333  1  0.58622000  0.33410000  0.88244000  1.0 0.0707179337
C  C334  1  0.19724000  0.88244000  0.33410000  1.0 0.0707179337
C  C335  1  0.88244000  0.19724000  0.58622000  1.0 0.0707179337
C  C336  1  0.33410000  0.58622000  0.19724000  1.0 0.0707179337
C  C337  1  0.72706000  0.08212000  0.80448000  1.0 -0.1308782589
C  C338  1  0.08212000  0.72706000  0.38634000  1.0 -0.1308782589
C  C339  1  0.80448000  0.38634000  0.72706000  1.0 -0.1308782589
C  C340  1  0.38634000  0.80448000  0.08212000  1.0 -0.1308782589
C  C341  1  0.80448000  0.72706000  0.08212000  1.0 -0.1308782589
C  C342  1  0.38634000  0.08212000  0.72706000  1.0 -0.1308782589
C  C343  1  0.72706000  0.80448000  0.38634000  1.0 -0.1308782589
C  C344  1  0.08212000  0.38634000  0.80448000  1.0 -0.1308782589
C  C345  1  0.08212000  0.80448000  0.72706000  1.0 -0.1308782589
C  C346  1  0.72706000  0.38634000  0.08212000  1.0 -0.1308782589
C  C347  1  0.38634000  0.72706000  0.80448000  1.0 -0.1308782589
C  C348  1  0.80448000  0.08212000  0.38634000  1.0 -0.1308782589
C  C349  1  0.52294000  0.16788000  0.86366000  1.0 -0.1308782589
C  C350  1  0.16788000  0.52294000  0.44552000  1.0 -0.1308782589
C  C351  1  0.44552000  0.86366000  0.16788000  1.0 -0.1308782589
C  C352  1  0.86366000  0.44552000  0.52294000  1.0 -0.1308782589
C  C353  1  0.44552000  0.52294000  0.86366000  1.0 -0.1308782589
C  C354  1  0.86366000  0.16788000  0.44552000  1.0 -0.1308782589
C  C355  1  0.52294000  0.44552000  0.16788000  1.0 -0.1308782589
C  C356  1  0.16788000  0.86366000  0.52294000  1.0 -0.1308782589
C  C357  1  0.16788000  0.44552000  0.86366000  1.0 -0.1308782589
C  C358  1  0.52294000  0.86366000  0.44552000  1.0 -0.1308782589
C  C359  1  0.86366000  0.52294000  0.16788000  1.0 -0.1308782589
C  C360  1  0.44552000  0.16788000  0.52294000  1.0 -0.1308782589
C  C361  1  0.02294000  0.66788000  0.94552000  1.0 -0.1308782589
C  C362  1  0.66788000  0.02294000  0.36366000  1.0 -0.1308782589
C  C363  1  0.94552000  0.36366000  0.02294000  1.0 -0.1308782589
C  C364  1  0.36366000  0.94552000  0.66788000  1.0 -0.1308782589
C  C365  1  0.94552000  0.02294000  0.66788000  1.0 -0.1308782589
C  C366  1  0.36366000  0.66788000  0.02294000  1.0 -0.1308782589
C  C367  1  0.02294000  0.94552000  0.36366000  1.0 -0.1308782589
C  C368  1  0.66788000  0.36366000  0.94552000  1.0 -0.1308782589
C  C369  1  0.66788000  0.94552000  0.02294000  1.0 -0.1308782589
C  C370  1  0.02294000  0.36366000  0.66788000  1.0 -0.1308782589
C  C371  1  0.36366000  0.02294000  0.94552000  1.0 -0.1308782589
C  C372  1  0.94552000  0.66788000  0.36366000  1.0 -0.1308782589
C  C373  1  0.22706000  0.58212000  0.88634000  1.0 -0.1308782589
C  C374  1  0.58212000  0.22706000  0.30448000  1.0 -0.1308782589
C  C375  1  0.30448000  0.88634000  0.58212000  1.0 -0.1308782589
C  C376  1  0.88634000  0.30448000  0.22706000  1.0 -0.1308782589
C  C377  1  0.30448000  0.22706000  0.88634000  1.0 -0.1308782589
C  C378  1  0.88634000  0.58212000  0.30448000  1.0 -0.1308782589
C  C379  1  0.22706000  0.30448000  0.58212000  1.0 -0.1308782589
C  C380  1  0.58212000  0.88634000  0.22706000  1.0 -0.1308782589
C  C381  1  0.58212000  0.30448000  0.88634000  1.0 -0.1308782589
C  C382  1  0.22706000  0.88634000  0.30448000  1.0 -0.1308782589
C  C383  1  0.88634000  0.22706000  0.58212000  1.0 -0.1308782589
C  C384  1  0.30448000  0.58212000  0.22706000  1.0 -0.1308782589
C  C385  1  0.72760000  0.11018000  0.77230000  1.0 -0.0566934536
C  C386  1  0.11018000  0.72760000  0.38992000  1.0 -0.0566934536
C  C387  1  0.77230000  0.38992000  0.72760000  1.0 -0.0566934536
C  C388  1  0.38992000  0.77230000  0.11018000  1.0 -0.0566934536
C  C389  1  0.77230000  0.72760000  0.11018000  1.0 -0.0566934536
C  C390  1  0.38992000  0.11018000  0.72760000  1.0 -0.0566934536
C  C391  1  0.72760000  0.77230000  0.38992000  1.0 -0.0566934536
C  C392  1  0.11018000  0.38992000  0.77230000  1.0 -0.0566934536
C  C393  1  0.11018000  0.77230000  0.72760000  1.0 -0.0566934536
C  C394  1  0.72760000  0.38992000  0.11018000  1.0 -0.0566934536
C  C395  1  0.38992000  0.72760000  0.77230000  1.0 -0.0566934536
C  C396  1  0.77230000  0.11018000  0.38992000  1.0 -0.0566934536
C  C397  1  0.52240000  0.13982000  0.86008000  1.0 -0.0566934536
C  C398  1  0.13982000  0.52240000  0.47770000  1.0 -0.0566934536
C  C399  1  0.47770000  0.86008000  0.13982000  1.0 -0.0566934536
C  C400  1  0.86008000  0.47770000  0.52240000  1.0 -0.0566934536
C  C401  1  0.47770000  0.52240000  0.86008000  1.0 -0.0566934536
C  C402  1  0.86008000  0.13982000  0.47770000  1.0 -0.0566934536
C  C403  1  0.52240000  0.47770000  0.13982000  1.0 -0.0566934536
C  C404  1  0.13982000  0.86008000  0.52240000  1.0 -0.0566934536
C  C405  1  0.13982000  0.47770000  0.86008000  1.0 -0.0566934536
C  C406  1  0.52240000  0.86008000  0.47770000  1.0 -0.0566934536
C  C407  1  0.86008000  0.52240000  0.13982000  1.0 -0.0566934536
C  C408  1  0.47770000  0.13982000  0.52240000  1.0 -0.0566934536
C  C409  1  0.02240000  0.63982000  0.97770000  1.0 -0.0566934536
C  C410  1  0.63982000  0.02240000  0.36008000  1.0 -0.0566934536
C  C411  1  0.97770000  0.36008000  0.02240000  1.0 -0.0566934536
C  C412  1  0.36008000  0.97770000  0.63982000  1.0 -0.0566934536
C  C413  1  0.97770000  0.02240000  0.63982000  1.0 -0.0566934536
C  C414  1  0.36008000  0.63982000  0.02240000  1.0 -0.0566934536
C  C415  1  0.02240000  0.97770000  0.36008000  1.0 -0.0566934536
C  C416  1  0.63982000  0.36008000  0.97770000  1.0 -0.0566934536
C  C417  1  0.63982000  0.97770000  0.02240000  1.0 -0.0566934536
C  C418  1  0.02240000  0.36008000  0.63982000  1.0 -0.0566934536
C  C419  1  0.36008000  0.02240000  0.97770000  1.0 -0.0566934536
C  C420  1  0.97770000  0.63982000  0.36008000  1.0 -0.0566934536
C  C421  1  0.22760000  0.61018000  0.88992000  1.0 -0.0566934536
C  C422  1  0.61018000  0.22760000  0.27230000  1.0 -0.0566934536
C  C423  1  0.27230000  0.88992000  0.61018000  1.0 -0.0566934536
C  C424  1  0.88992000  0.27230000  0.22760000  1.0 -0.0566934536
C  C425  1  0.27230000  0.22760000  0.88992000  1.0 -0.0566934536
C  C426  1  0.88992000  0.61018000  0.27230000  1.0 -0.0566934536
C  C427  1  0.22760000  0.27230000  0.61018000  1.0 -0.0566934536
C  C428  1  0.61018000  0.88992000  0.22760000  1.0 -0.0566934536
C  C429  1  0.61018000  0.27230000  0.88992000  1.0 -0.0566934536
C  C430  1  0.22760000  0.88992000  0.27230000  1.0 -0.0566934536
C  C431  1  0.88992000  0.22760000  0.61018000  1.0 -0.0566934536
C  C432  1  0.27230000  0.61018000  0.22760000  1.0 -0.0566934536
C  C433  1  0.69754000  0.14154000  0.77154000  1.0 -0.0276983779
C  C434  1  0.14154000  0.69754000  0.38938000  1.0 -0.0276983779
C  C435  1  0.77154000  0.38938000  0.69754000  1.0 -0.0276983779
C  C436  1  0.38938000  0.77154000  0.14154000  1.0 -0.0276983779
C  C437  1  0.77154000  0.69754000  0.14154000  1.0 -0.0245807715
C  C438  1  0.38938000  0.14154000  0.69754000  1.0 -0.0276983779
C  C439  1  0.69754000  0.77154000  0.38938000  1.0 -0.0276983779
C  C440  1  0.14154000  0.38938000  0.77154000  1.0 -0.0276983779
C  C441  1  0.14154000  0.77154000  0.69754000  1.0 -0.0276983779
C  C442  1  0.69754000  0.38938000  0.14154000  1.0 -0.0276983779
C  C443  1  0.38938000  0.69754000  0.77154000  1.0 -0.0276983779
C  C444  1  0.77154000  0.14154000  0.38938000  1.0 -0.0276983779
C  C445  1  0.55246000  0.10846000  0.86062000  1.0 -0.0276983779
C  C446  1  0.10846000  0.55246000  0.47846000  1.0 -0.0276983779
C  C447  1  0.47846000  0.86062000  0.10846000  1.0 -0.0276983779
C  C448  1  0.86062000  0.47846000  0.55246000  1.0 -0.0276983779
C  C449  1  0.47846000  0.55246000  0.86062000  1.0 -0.0276983779
C  C450  1  0.86062000  0.10846000  0.47846000  1.0 -0.0276983779
C  C451  1  0.55246000  0.47846000  0.10846000  1.0 -0.0276983779
C  C452  1  0.10846000  0.86062000  0.55246000  1.0 -0.0276983779
C  C453  1  0.10846000  0.47846000  0.86062000  1.0 -0.0276983779
C  C454  1  0.55246000  0.86062000  0.47846000  1.0 -0.0276983779
C  C455  1  0.86062000  0.55246000  0.10846000  1.0 -0.0276983779
C  C456  1  0.47846000  0.10846000  0.55246000  1.0 -0.0276983779
C  C457  1  0.05246000  0.60846000  0.97846000  1.0 -0.0276983779
C  C458  1  0.60846000  0.05246000  0.36062000  1.0 -0.0276983779
C  C459  1  0.97846000  0.36062000  0.05246000  1.0 -0.0276983779
C  C460  1  0.36062000  0.97846000  0.60846000  1.0 -0.0276983779
C  C461  1  0.97846000  0.05246000  0.60846000  1.0 -0.0276983779
C  C462  1  0.36062000  0.60846000  0.05246000  1.0 -0.0276983779
C  C463  1  0.05246000  0.97846000  0.36062000  1.0 -0.0276983779
C  C464  1  0.60846000  0.36062000  0.97846000  1.0 -0.0276983779
C  C465  1  0.60846000  0.97846000  0.05246000  1.0 -0.0276983779
C  C466  1  0.05246000  0.36062000  0.60846000  1.0 -0.0276983779
C  C467  1  0.36062000  0.05246000  0.97846000  1.0 -0.0276983779
C  C468  1  0.97846000  0.60846000  0.36062000  1.0 -0.0276983779
C  C469  1  0.19754000  0.64154000  0.88938000  1.0 -0.0276983779
C  C470  1  0.64154000  0.19754000  0.27154000  1.0 -0.0276983779
C  C471  1  0.27154000  0.88938000  0.64154000  1.0 -0.0276983779
C  C472  1  0.88938000  0.27154000  0.19754000  1.0 -0.0276983779
C  C473  1  0.27154000  0.19754000  0.88938000  1.0 -0.0276983779
C  C474  1  0.88938000  0.64154000  0.27154000  1.0 -0.0245807715
C  C475  1  0.19754000  0.27154000  0.64154000  1.0 -0.0276983779
C  C476  1  0.64154000  0.88938000  0.19754000  1.0 -0.0276983779
C  C477  1  0.64154000  0.27154000  0.88938000  1.0 -0.0276983779
C  C478  1  0.19754000  0.88938000  0.27154000  1.0 -0.0245807715
C  C479  1  0.88938000  0.19754000  0.64154000  1.0 -0.0276983779
C  C480  1  0.27154000  0.64154000  0.19754000  1.0 -0.0276983779
C  C481  1  0.66929000  0.14301000  0.80301000  1.0 0.0616745623
C  C482  1  0.14301000  0.66929000  0.38469000  1.0 0.0616745623
C  C483  1  0.80301000  0.38469000  0.66929000  1.0 0.0616745623
C  C484  1  0.38469000  0.80301000  0.14301000  1.0 0.0616745623
C  C485  1  0.80301000  0.66929000  0.14301000  1.0 0.0616745623
C  C486  1  0.38469000  0.14301000  0.66929000  1.0 0.0616745623
C  C487  1  0.66929000  0.80301000  0.38469000  1.0 0.0616745623
C  C488  1  0.14301000  0.38469000  0.80301000  1.0 0.0616745623
C  C489  1  0.14301000  0.80301000  0.66929000  1.0 0.0616745623
C  C490  1  0.66929000  0.38469000  0.14301000  1.0 0.0616745623
C  C491  1  0.38469000  0.66929000  0.80301000  1.0 0.0616745623
C  C492  1  0.80301000  0.14301000  0.38469000  1.0 0.0616745623
C  C493  1  0.58071000  0.10699000  0.86531000  1.0 0.0616745623
C  C494  1  0.10699000  0.58071000  0.44699000  1.0 0.0616745623
C  C495  1  0.44699000  0.86531000  0.10699000  1.0 0.0616745623
C  C496  1  0.86531000  0.44699000  0.58071000  1.0 0.0616745623
C  C497  1  0.44699000  0.58071000  0.86531000  1.0 0.0616745623
C  C498  1  0.86531000  0.10699000  0.44699000  1.0 0.0616745623
C  C499  1  0.58071000  0.44699000  0.10699000  1.0 0.0616745623
C  C500  1  0.10699000  0.86531000  0.58071000  1.0 0.0616745623
C  C501  1  0.10699000  0.44699000  0.86531000  1.0 0.0616745623
C  C502  1  0.58071000  0.86531000  0.44699000  1.0 0.0616745623
C  C503  1  0.86531000  0.58071000  0.10699000  1.0 0.0616745623
C  C504  1  0.44699000  0.10699000  0.58071000  1.0 0.0616745623
C  C505  1  0.08071000  0.60699000  0.94699000  1.0 0.0616745623
C  C506  1  0.60699000  0.08071000  0.36531000  1.0 0.0616745623
C  C507  1  0.94699000  0.36531000  0.08071000  1.0 0.0616745623
C  C508  1  0.36531000  0.94699000  0.60699000  1.0 0.0616745623
C  C509  1  0.94699000  0.08071000  0.60699000  1.0 0.0616745623
C  C510  1  0.36531000  0.60699000  0.08071000  1.0 0.0616745623
C  C511  1  0.08071000  0.94699000  0.36531000  1.0 0.0616745623
C  C512  1  0.60699000  0.36531000  0.94699000  1.0 0.0616745623
C  C513  1  0.60699000  0.94699000  0.08071000  1.0 0.0616745623
C  C514  1  0.08071000  0.36531000  0.60699000  1.0 0.0616745623
C  C515  1  0.36531000  0.08071000  0.94699000  1.0 0.0616745623
C  C516  1  0.94699000  0.60699000  0.36531000  1.0 0.0616745623
C  C517  1  0.16929000  0.64301000  0.88469000  1.0 0.0616745623
C  C518  1  0.64301000  0.16929000  0.30301000  1.0 0.0616745623
C  C519  1  0.30301000  0.88469000  0.64301000  1.0 0.0616745623
C  C520  1  0.88469000  0.30301000  0.16929000  1.0 0.0616745623
C  C521  1  0.30301000  0.16929000  0.88469000  1.0 0.0616745623
C  C522  1  0.88469000  0.64301000  0.30301000  1.0 0.0616745623
C  C523  1  0.16929000  0.30301000  0.64301000  1.0 0.0616745623
C  C524  1  0.64301000  0.88469000  0.16929000  1.0 0.0616745623
C  C525  1  0.64301000  0.30301000  0.88469000  1.0 0.0616745623
C  C526  1  0.16929000  0.88469000  0.30301000  1.0 0.0616745623
C  C527  1  0.88469000  0.16929000  0.64301000  1.0 0.0616745623
C  C528  1  0.30301000  0.64301000  0.16929000  1.0 0.0616745623
C  C529  1  0.69686000  0.17280000  0.73728000  1.0 0.380011401
C  C530  1  0.17280000  0.69686000  0.39306000  1.0 0.380011401
C  C531  1  0.73728000  0.39306000  0.69686000  1.0 0.380011401
C  C532  1  0.39306000  0.73728000  0.17280000  1.0 0.380011401
C  C533  1  0.73728000  0.69686000  0.17280000  1.0 0.380011401
C  C534  1  0.39306000  0.17280000  0.69686000  1.0 0.380011401
C  C535  1  0.69686000  0.73728000  0.39306000  1.0 0.380011401
C  C536  1  0.17280000  0.39306000  0.73728000  1.0 0.380011401
C  C537  1  0.17280000  0.73728000  0.69686000  1.0 0.380011401
C  C538  1  0.69686000  0.39306000  0.17280000  1.0 0.380011401
C  C539  1  0.39306000  0.69686000  0.73728000  1.0 0.380011401
C  C540  1  0.73728000  0.17280000  0.39306000  1.0 0.380011401
C  C541  1  0.55314000  0.07720000  0.85694000  1.0 0.380011401
C  C542  1  0.07720000  0.55314000  0.51272000  1.0 0.380011401
C  C543  1  0.51272000  0.85694000  0.07720000  1.0 0.380011401
C  C544  1  0.85694000  0.51272000  0.55314000  1.0 0.380011401
C  C545  1  0.51272000  0.55314000  0.85694000  1.0 0.380011401
C  C546  1  0.85694000  0.07720000  0.51272000  1.0 0.380011401
C  C547  1  0.55314000  0.51272000  0.07720000  1.0 0.380011401
C  C548  1  0.07720000  0.85694000  0.55314000  1.0 0.380011401
C  C549  1  0.07720000  0.51272000  0.85694000  1.0 0.380011401
C  C550  1  0.55314000  0.85694000  0.51272000  1.0 0.380011401
C  C551  1  0.85694000  0.55314000  0.07720000  1.0 0.380011401
C  C552  1  0.51272000  0.07720000  0.55314000  1.0 0.380011401
C  C553  1  0.05314000  0.57720000  0.01272000  1.0 0.380011401
C  C554  1  0.57720000  0.05314000  0.35694000  1.0 0.380011401
C  C555  1  0.01272000  0.35694000  0.05314000  1.0 0.380011401
C  C556  1  0.35694000  0.01272000  0.57720000  1.0 0.380011401
C  C557  1  0.01272000  0.05314000  0.57720000  1.0 0.380011401
C  C558  1  0.35694000  0.57720000  0.05314000  1.0 0.380011401
C  C559  1  0.05314000  0.01272000  0.35694000  1.0 0.380011401
C  C560  1  0.57720000  0.35694000  0.01272000  1.0 0.380011401
C  C561  1  0.57720000  0.01272000  0.05314000  1.0 0.380011401
C  C562  1  0.05314000  0.35694000  0.57720000  1.0 0.380011401
C  C563  1  0.35694000  0.05314000  0.01272000  1.0 0.380011401
C  C564  1  0.01272000  0.57720000  0.35694000  1.0 0.380011401
C  C565  1  0.19686000  0.67280000  0.89306000  1.0 0.380011401
C  C566  1  0.67280000  0.19686000  0.23728000  1.0 0.380011401
C  C567  1  0.23728000  0.89306000  0.67280000  1.0 0.380011401
C  C568  1  0.89306000  0.23728000  0.19686000  1.0 0.380011401
C  C569  1  0.23728000  0.19686000  0.89306000  1.0 0.380011401
C  C570  1  0.89306000  0.67280000  0.23728000  1.0 0.380011401
C  C571  1  0.19686000  0.23728000  0.67280000  1.0 0.380011401
C  C572  1  0.67280000  0.89306000  0.19686000  1.0 0.380011401
C  C573  1  0.67280000  0.23728000  0.89306000  1.0 0.380011401
C  C574  1  0.19686000  0.89306000  0.23728000  1.0 0.380011401
C  C575  1  0.89306000  0.19686000  0.67280000  1.0 0.380011401
C  C576  1  0.23728000  0.67280000  0.19686000  1.0 0.380011401
C  C577  1  0.67045000  0.23095000  0.70911000  1.0 0.3558245601
C  C578  1  0.23095000  0.67045000  0.38949000  1.0 0.3558245601
C  C579  1  0.70911000  0.38949000  0.67045000  1.0 0.3558245601
C  C580  1  0.38949000  0.70911000  0.23095000  1.0 0.3558245601
C  C581  1  0.70911000  0.67045000  0.23095000  1.0 0.3558245601
C  C582  1  0.38949000  0.23095000  0.67045000  1.0 0.3558245601
C  C583  1  0.67045000  0.70911000  0.38949000  1.0 0.3558245601
C  C584  1  0.23095000  0.38949000  0.70911000  1.0 0.3558245601
C  C585  1  0.23095000  0.70911000  0.67045000  1.0 0.3558245601
C  C586  1  0.67045000  0.38949000  0.23095000  1.0 0.3558245601
C  C587  1  0.38949000  0.67045000  0.70911000  1.0 0.3558245601
C  C588  1  0.70911000  0.23095000  0.38949000  1.0 0.3558245601
C  C589  1  0.57955000  0.01905000  0.86051000  1.0 0.3558245601
C  C590  1  0.01905000  0.57955000  0.54089000  1.0 0.3558245601
C  C591  1  0.54089000  0.86051000  0.01905000  1.0 0.3558245601
C  C592  1  0.86051000  0.54089000  0.57955000  1.0 0.3558245601
C  C593  1  0.54089000  0.57955000  0.86051000  1.0 0.3558245601
C  C594  1  0.86051000  0.01905000  0.54089000  1.0 0.3558245601
C  C595  1  0.57955000  0.54089000  0.01905000  1.0 0.3558245601
C  C596  1  0.01905000  0.86051000  0.57955000  1.0 0.3558245601
C  C597  1  0.01905000  0.54089000  0.86051000  1.0 0.3558245601
C  C598  1  0.57955000  0.86051000  0.54089000  1.0 0.3558245601
C  C599  1  0.86051000  0.57955000  0.01905000  1.0 0.3558245601
C  C600  1  0.54089000  0.01905000  0.57955000  1.0 0.3558245601
C  C601  1  0.07955000  0.51905000  0.04089000  1.0 0.3558245601
C  C602  1  0.51905000  0.07955000  0.36051000  1.0 0.3558245601
C  C603  1  0.04089000  0.36051000  0.07955000  1.0 0.3558245601
C  C604  1  0.36051000  0.04089000  0.51905000  1.0 0.3558245601
C  C605  1  0.04089000  0.07955000  0.51905000  1.0 0.3558245601
C  C606  1  0.36051000  0.51905000  0.07955000  1.0 0.3558245601
C  C607  1  0.07955000  0.04089000  0.36051000  1.0 0.3558245601
C  C608  1  0.51905000  0.36051000  0.04089000  1.0 0.3558245601
C  C609  1  0.51905000  0.04089000  0.07955000  1.0 0.3558245601
C  C610  1  0.07955000  0.36051000  0.51905000  1.0 0.3558245601
C  C611  1  0.36051000  0.07955000  0.04089000  1.0 0.3558245601
C  C612  1  0.04089000  0.51905000  0.36051000  1.0 0.3558245601
C  C613  1  0.17045000  0.73095000  0.88949000  1.0 0.3558245601
C  C614  1  0.73095000  0.17045000  0.20911000  1.0 0.3558245601
C  C615  1  0.20911000  0.88949000  0.73095000  1.0 0.3558245601
C  C616  1  0.88949000  0.20911000  0.17045000  1.0 0.3558245601
C  C617  1  0.20911000  0.17045000  0.88949000  1.0 0.3558245601
C  C618  1  0.88949000  0.73095000  0.20911000  1.0 0.3558245601
C  C619  1  0.17045000  0.20911000  0.73095000  1.0 0.3558245601
C  C620  1  0.73095000  0.88949000  0.17045000  1.0 0.3558245601
C  C621  1  0.73095000  0.20911000  0.88949000  1.0 0.3558245601
C  C622  1  0.17045000  0.88949000  0.20911000  1.0 0.3558245601
C  C623  1  0.88949000  0.17045000  0.73095000  1.0 0.3558245601
C  C624  1  0.20911000  0.73095000  0.17045000  1.0 0.3558245601
C  C625  1  0.72184000  0.19742000  0.67764000  1.0 0.380011401
C  C626  1  0.19742000  0.72184000  0.40310000  1.0 0.380011401
C  C627  1  0.67764000  0.40310000  0.72184000  1.0 0.380011401
C  C628  1  0.40310000  0.67764000  0.19742000  1.0 0.380011401
C  C629  1  0.67764000  0.72184000  0.19742000  1.0 0.380011401
C  C630  1  0.40310000  0.19742000  0.72184000  1.0 0.380011401
C  C631  1  0.72184000  0.67764000  0.40310000  1.0 0.380011401
C  C632  1  0.19742000  0.40310000  0.67764000  1.0 0.380011401
C  C633  1  0.19742000  0.67764000  0.72184000  1.0 0.380011401
C  C634  1  0.72184000  0.40310000  0.19742000  1.0 0.380011401
C  C635  1  0.40310000  0.72184000  0.67764000  1.0 0.380011401
C  C636  1  0.67764000  0.19742000  0.40310000  1.0 0.380011401
C  C637  1  0.52816000  0.05258000  0.84690000  1.0 0.380011401
C  C638  1  0.05258000  0.52816000  0.57236000  1.0 0.380011401
C  C639  1  0.57236000  0.84690000  0.05258000  1.0 0.380011401
C  C640  1  0.84690000  0.57236000  0.52816000  1.0 0.380011401
C  C641  1  0.57236000  0.52816000  0.84690000  1.0 0.380011401
C  C642  1  0.84690000  0.05258000  0.57236000  1.0 0.380011401
C  C643  1  0.52816000  0.57236000  0.05258000  1.0 0.380011401
C  C644  1  0.05258000  0.84690000  0.52816000  1.0 0.380011401
C  C645  1  0.05258000  0.57236000  0.84690000  1.0 0.380011401
C  C646  1  0.52816000  0.84690000  0.57236000  1.0 0.380011401
C  C647  1  0.84690000  0.52816000  0.05258000  1.0 0.380011401
C  C648  1  0.57236000  0.05258000  0.52816000  1.0 0.380011401
C  C649  1  0.02816000  0.55258000  0.07236000  1.0 0.380011401
C  C650  1  0.55258000  0.02816000  0.34690000  1.0 0.380011401
C  C651  1  0.07236000  0.34690000  0.02816000  1.0 0.380011401
C  C652  1  0.34690000  0.07236000  0.55258000  1.0 0.380011401
C  C653  1  0.07236000  0.02816000  0.55258000  1.0 0.380011401
C  C654  1  0.34690000  0.55258000  0.02816000  1.0 0.380011401
C  C655  1  0.02816000  0.07236000  0.34690000  1.0 0.380011401
C  C656  1  0.55258000  0.34690000  0.07236000  1.0 0.380011401
C  C657  1  0.55258000  0.07236000  0.02816000  1.0 0.380011401
C  C658  1  0.02816000  0.34690000  0.55258000  1.0 0.380011401
C  C659  1  0.34690000  0.02816000  0.07236000  1.0 0.380011401
C  C660  1  0.07236000  0.55258000  0.34690000  1.0 0.380011401
C  C661  1  0.22184000  0.69742000  0.90310000  1.0 0.380011401
C  C662  1  0.69742000  0.22184000  0.17764000  1.0 0.380011401
C  C663  1  0.17764000  0.90310000  0.69742000  1.0 0.380011401
C  C664  1  0.90310000  0.17764000  0.22184000  1.0 0.380011401
C  C665  1  0.17764000  0.22184000  0.90310000  1.0 0.380011401
C  C666  1  0.90310000  0.69742000  0.17764000  1.0 0.380011401
C  C667  1  0.22184000  0.17764000  0.69742000  1.0 0.380011401
C  C668  1  0.69742000  0.90310000  0.22184000  1.0 0.380011401
C  C669  1  0.69742000  0.17764000  0.90310000  1.0 0.380011401
C  C670  1  0.22184000  0.90310000  0.17764000  1.0 0.380011401
C  C671  1  0.90310000  0.22184000  0.69742000  1.0 0.380011401
C  C672  1  0.17764000  0.69742000  0.22184000  1.0 0.380011401
C  C673  1  0.64640000  0.29678000  0.67888000  1.0 0.0707179337
C  C674  1  0.29678000  0.64640000  0.37794000  1.0 0.0616745623
C  C675  1  0.67888000  0.37794000  0.64640000  1.0 0.0616745623
C  C676  1  0.37794000  0.67888000  0.29678000  1.0 0.0616745623
C  C677  1  0.67888000  0.64640000  0.29678000  1.0 0.0616745623
C  C678  1  0.37794000  0.29678000  0.64640000  1.0 0.0616745623
C  C679  1  0.64640000  0.67888000  0.37794000  1.0 0.0616745623
C  C680  1  0.29678000  0.37794000  0.67888000  1.0 0.0616745623
C  C681  1  0.29678000  0.67888000  0.64640000  1.0 0.0616745623
C  C682  1  0.64640000  0.37794000  0.29678000  1.0 0.0616745623
C  C683  1  0.37794000  0.64640000  0.67888000  1.0 0.0616745623
C  C684  1  0.67888000  0.29678000  0.37794000  1.0 0.0616745623
C  C685  1  0.60360000  0.95322000  0.87206000  1.0 0.0616745623
C  C686  1  0.95322000  0.60360000  0.57112000  1.0 0.0616745623
C  C687  1  0.57112000  0.87206000  0.95322000  1.0 0.0616745623
C  C688  1  0.87206000  0.57112000  0.60360000  1.0 0.0616745623
C  C689  1  0.57112000  0.60360000  0.87206000  1.0 0.0616745623
C  C690  1  0.87206000  0.95322000  0.57112000  1.0 0.0616745623
C  C691  1  0.60360000  0.57112000  0.95322000  1.0 0.0616745623
C  C692  1  0.95322000  0.87206000  0.60360000  1.0 0.0616745623
C  C693  1  0.95322000  0.57112000  0.87206000  1.0 0.0616745623
C  C694  1  0.60360000  0.87206000  0.57112000  1.0 0.0616745623
C  C695  1  0.87206000  0.60360000  0.95322000  1.0 0.0616745623
C  C696  1  0.57112000  0.95322000  0.60360000  1.0 0.0616745623
C  C697  1  0.10360000  0.45322000  0.07112000  1.0 0.0616745623
C  C698  1  0.45322000  0.10360000  0.37206000  1.0 0.0616745623
C  C699  1  0.07112000  0.37206000  0.10360000  1.0 0.0616745623
C  C700  1  0.37206000  0.07112000  0.45322000  1.0 0.0616745623
C  C701  1  0.07112000  0.10360000  0.45322000  1.0 0.0616745623
C  C702  1  0.37206000  0.45322000  0.10360000  1.0 0.0616745623
C  C703  1  0.10360000  0.07112000  0.37206000  1.0 0.0616745623
C  C704  1  0.45322000  0.37206000  0.07112000  1.0 0.0616745623
C  C705  1  0.45322000  0.07112000  0.10360000  1.0 0.0616745623
C  C706  1  0.10360000  0.37206000  0.45322000  1.0 0.0616745623
C  C707  1  0.37206000  0.10360000  0.07112000  1.0 0.0616745623
C  C708  1  0.07112000  0.45322000  0.37206000  1.0 0.0616745623
C  C709  1  0.14640000  0.79678000  0.87794000  1.0 0.0616745623
C  C710  1  0.79678000  0.14640000  0.17888000  1.0 0.0616745623
C  C711  1  0.17888000  0.87794000  0.79678000  1.0 0.0616745623
C  C712  1  0.87794000  0.17888000  0.14640000  1.0 0.0616745623
C  C713  1  0.17888000  0.14640000  0.87794000  1.0 0.0616745623
C  C714  1  0.87794000  0.79678000  0.17888000  1.0 0.0616745623
C  C715  1  0.14640000  0.17888000  0.79678000  1.0 0.0616745623
C  C716  1  0.79678000  0.87794000  0.14640000  1.0 0.0616745623
C  C717  1  0.79678000  0.17888000  0.87794000  1.0 0.0616745623
C  C718  1  0.14640000  0.87794000  0.17888000  1.0 0.0616745623
C  C719  1  0.87794000  0.14640000  0.79678000  1.0 0.0616745623
C  C720  1  0.17888000  0.79678000  0.14640000  1.0 0.0616745623
C  C721  1  0.64341000  0.26583000  0.71013000  1.0 -0.0276983779
C  C722  1  0.26583000  0.64341000  0.38063000  1.0 -0.0276983779
C  C723  1  0.71013000  0.38063000  0.64341000  1.0 -0.0276983779
C  C724  1  0.38063000  0.71013000  0.26583000  1.0 -0.0276983779
C  C725  1  0.71013000  0.64341000  0.26583000  1.0 -0.0276983779
C  C726  1  0.38063000  0.26583000  0.64341000  1.0 -0.0276983779
C  C727  1  0.64341000  0.71013000  0.38063000  1.0 -0.0276983779
C  C728  1  0.26583000  0.38063000  0.71013000  1.0 -0.0276983779
C  C729  1  0.26583000  0.71013000  0.64341000  1.0 -0.0276983779
C  C730  1  0.64341000  0.38063000  0.26583000  1.0 -0.0276983779
C  C731  1  0.38063000  0.64341000  0.71013000  1.0 -0.0276983779
C  C732  1  0.71013000  0.26583000  0.38063000  1.0 -0.0276983779
C  C733  1  0.60659000  0.98417000  0.86937000  1.0 -0.0276983779
C  C734  1  0.98417000  0.60659000  0.53987000  1.0 -0.0276983779
C  C735  1  0.53987000  0.86937000  0.98417000  1.0 -0.0276983779
C  C736  1  0.86937000  0.53987000  0.60659000  1.0 -0.0276983779
C  C737  1  0.53987000  0.60659000  0.86937000  1.0 -0.0276983779
C  C738  1  0.86937000  0.98417000  0.53987000  1.0 -0.0276983779
C  C739  1  0.60659000  0.53987000  0.98417000  1.0 -0.0276983779
C  C740  1  0.98417000  0.86937000  0.60659000  1.0 -0.0276983779
C  C741  1  0.98417000  0.53987000  0.86937000  1.0 -0.0276983779
C  C742  1  0.60659000  0.86937000  0.53987000  1.0 -0.0276983779
C  C743  1  0.86937000  0.60659000  0.98417000  1.0 -0.0276983779
C  C744  1  0.53987000  0.98417000  0.60659000  1.0 -0.0276983779
C  C745  1  0.10659000  0.48417000  0.03987000  1.0 -0.0276983779
C  C746  1  0.48417000  0.10659000  0.36937000  1.0 -0.0276983779
C  C747  1  0.03987000  0.36937000  0.10659000  1.0 -0.0276983779
C  C748  1  0.36937000  0.03987000  0.48417000  1.0 -0.0276983779
C  C749  1  0.03987000  0.10659000  0.48417000  1.0 -0.0276983779
C  C750  1  0.36937000  0.48417000  0.10659000  1.0 -0.0276983779
C  C751  1  0.10659000  0.03987000  0.36937000  1.0 -0.0276983779
C  C752  1  0.48417000  0.36937000  0.03987000  1.0 -0.0276983779
C  C753  1  0.48417000  0.03987000  0.10659000  1.0 -0.0276983779
C  C754  1  0.10659000  0.36937000  0.48417000  1.0 -0.0276983779
C  C755  1  0.36937000  0.10659000  0.03987000  1.0 -0.0276983779
C  C756  1  0.03987000  0.48417000  0.36937000  1.0 -0.0276983779
C  C757  1  0.14341000  0.76583000  0.88063000  1.0 -0.0276983779
C  C758  1  0.76583000  0.14341000  0.21013000  1.0 -0.0276983779
C  C759  1  0.21013000  0.88063000  0.76583000  1.0 -0.0276983779
C  C760  1  0.88063000  0.21013000  0.14341000  1.0 -0.0276983779
C  C761  1  0.21013000  0.14341000  0.88063000  1.0 -0.0276983779
C  C762  1  0.88063000  0.76583000  0.21013000  1.0 -0.0276983779
C  C763  1  0.14341000  0.21013000  0.76583000  1.0 -0.0276983779
C  C764  1  0.76583000  0.88063000  0.14341000  1.0 -0.0276983779
C  C765  1  0.76583000  0.21013000  0.88063000  1.0 -0.0276983779
C  C766  1  0.14341000  0.88063000  0.21013000  1.0 -0.0276983779
C  C767  1  0.88063000  0.14341000  0.76583000  1.0 -0.0276983779
C  C768  1  0.21013000  0.76583000  0.14341000  1.0 -0.0276983779
C  C769  1  0.61478000  0.27098000  0.74074000  1.0 -0.0566934536
C  C770  1  0.27098000  0.61478000  0.37350000  1.0 -0.0566934536
C  C771  1  0.74074000  0.37350000  0.61478000  1.0 -0.0566934536
C  C772  1  0.37350000  0.74074000  0.27098000  1.0 -0.0566934536
C  C773  1  0.74074000  0.61478000  0.27098000  1.0 -0.0566934536
C  C774  1  0.37350000  0.27098000  0.61478000  1.0 -0.0566934536
C  C775  1  0.61478000  0.74074000  0.37350000  1.0 -0.0566934536
C  C776  1  0.27098000  0.37350000  0.74074000  1.0 -0.0566934536
C  C777  1  0.27098000  0.74074000  0.61478000  1.0 -0.0566934536
C  C778  1  0.61478000  0.37350000  0.27098000  1.0 -0.0566934536
C  C779  1  0.37350000  0.61478000  0.74074000  1.0 -0.0566934536
C  C780  1  0.74074000  0.27098000  0.37350000  1.0 -0.0566934536
C  C781  1  0.63522000  0.97902000  0.87650000  1.0 -0.0566934536
C  C782  1  0.97902000  0.63522000  0.50926000  1.0 -0.0566934536
C  C783  1  0.50926000  0.87650000  0.97902000  1.0 -0.0566934536
C  C784  1  0.87650000  0.50926000  0.63522000  1.0 -0.0566934536
C  C785  1  0.50926000  0.63522000  0.87650000  1.0 -0.0566934536
C  C786  1  0.87650000  0.97902000  0.50926000  1.0 -0.0566934536
C  C787  1  0.63522000  0.50926000  0.97902000  1.0 -0.0566934536
C  C788  1  0.97902000  0.87650000  0.63522000  1.0 -0.0566934536
C  C789  1  0.97902000  0.50926000  0.87650000  1.0 -0.0566934536
C  C790  1  0.63522000  0.87650000  0.50926000  1.0 -0.0566934536
C  C791  1  0.87650000  0.63522000  0.97902000  1.0 -0.0566934536
C  C792  1  0.50926000  0.97902000  0.63522000  1.0 -0.0566934536
C  C793  1  0.13522000  0.47902000  0.00926000  1.0 -0.0566934536
C  C794  1  0.47902000  0.13522000  0.37650000  1.0 -0.0566934536
C  C795  1  0.00926000  0.37650000  0.13522000  1.0 -0.0566934536
C  C796  1  0.37650000  0.00926000  0.47902000  1.0 -0.0566934536
C  C797  1  0.00926000  0.13522000  0.47902000  1.0 -0.0566934536
C  C798  1  0.37650000  0.47902000  0.13522000  1.0 -0.0566934536
C  C799  1  0.13522000  0.00926000  0.37650000  1.0 -0.0566934536
C  C800  1  0.47902000  0.37650000  0.00926000  1.0 -0.0566934536
C  C801  1  0.47902000  0.00926000  0.13522000  1.0 -0.0566934536
C  C802  1  0.13522000  0.37650000  0.47902000  1.0 -0.0566934536
C  C803  1  0.37650000  0.13522000  0.00926000  1.0 -0.0566934536
C  C804  1  0.00926000  0.47902000  0.37650000  1.0 -0.0566934536
C  C805  1  0.11478000  0.77098000  0.87350000  1.0 -0.0566934536
C  C806  1  0.77098000  0.11478000  0.24074000  1.0 -0.0566934536
C  C807  1  0.24074000  0.87350000  0.77098000  1.0 -0.0566934536
C  C808  1  0.87350000  0.24074000  0.11478000  1.0 -0.0566934536
C  C809  1  0.24074000  0.11478000  0.87350000  1.0 -0.0566934536
C  C810  1  0.87350000  0.77098000  0.24074000  1.0 -0.0566934536
C  C811  1  0.11478000  0.24074000  0.77098000  1.0 -0.0566934536
C  C812  1  0.77098000  0.87350000  0.11478000  1.0 -0.0566934536
C  C813  1  0.77098000  0.24074000  0.87350000  1.0 -0.0566934536
C  C814  1  0.11478000  0.87350000  0.24074000  1.0 -0.0566934536
C  C815  1  0.87350000  0.11478000  0.77098000  1.0 -0.0566934536
C  C816  1  0.24074000  0.77098000  0.11478000  1.0 -0.0566934536
C  C817  1  0.59006000  0.30492000  0.73956000  1.0 -0.1308782589
C  C818  1  0.30492000  0.59006000  0.36546000  1.0 -0.1308782589
C  C819  1  0.73956000  0.36546000  0.59006000  1.0 -0.1308782589
C  C820  1  0.36546000  0.73956000  0.30492000  1.0 -0.1308782589
C  C821  1  0.73956000  0.59006000  0.30492000  1.0 -0.1308782589
C  C822  1  0.36546000  0.30492000  0.59006000  1.0 -0.1308782589
C  C823  1  0.59006000  0.73956000  0.36546000  1.0 -0.1308782589
C  C824  1  0.30492000  0.36546000  0.73956000  1.0 -0.1308782589
C  C825  1  0.30492000  0.73956000  0.59006000  1.0 -0.1308782589
C  C826  1  0.59006000  0.36546000  0.30492000  1.0 -0.1308782589
C  C827  1  0.36546000  0.59006000  0.73956000  1.0 -0.1308782589
C  C828  1  0.73956000  0.30492000  0.36546000  1.0 -0.1308782589
C  C829  1  0.65994000  0.94508000  0.88454000  1.0 -0.1308782589
C  C830  1  0.94508000  0.65994000  0.51044000  1.0 -0.1308782589
C  C831  1  0.51044000  0.88454000  0.94508000  1.0 -0.1308782589
C  C832  1  0.88454000  0.51044000  0.65994000  1.0 -0.1308782589
C  C833  1  0.51044000  0.65994000  0.88454000  1.0 -0.1308782589
C  C834  1  0.88454000  0.94508000  0.51044000  1.0 -0.1308782589
C  C835  1  0.65994000  0.51044000  0.94508000  1.0 -0.1308782589
C  C836  1  0.94508000  0.88454000  0.65994000  1.0 -0.1308782589
C  C837  1  0.94508000  0.51044000  0.88454000  1.0 -0.1308782589
C  C838  1  0.65994000  0.88454000  0.51044000  1.0 -0.1308782589
C  C839  1  0.88454000  0.65994000  0.94508000  1.0 -0.1308782589
C  C840  1  0.51044000  0.94508000  0.65994000  1.0 -0.1308782589
C  C841  1  0.15994000  0.44508000  0.01044000  1.0 -0.1308782589
C  C842  1  0.44508000  0.15994000  0.38454000  1.0 -0.1308782589
C  C843  1  0.01044000  0.38454000  0.15994000  1.0 -0.1308782589
C  C844  1  0.38454000  0.01044000  0.44508000  1.0 -0.1308782589
C  C845  1  0.01044000  0.15994000  0.44508000  1.0 -0.1308782589
C  C846  1  0.38454000  0.44508000  0.15994000  1.0 -0.1308782589
C  C847  1  0.15994000  0.01044000  0.38454000  1.0 -0.1308782589
C  C848  1  0.44508000  0.38454000  0.01044000  1.0 -0.1308782589
C  C849  1  0.44508000  0.01044000  0.15994000  1.0 -0.1308782589
C  C850  1  0.15994000  0.38454000  0.44508000  1.0 -0.1308782589
C  C851  1  0.38454000  0.15994000  0.01044000  1.0 -0.1308782589
C  C852  1  0.01044000  0.44508000  0.38454000  1.0 -0.1308782589
C  C853  1  0.09006000  0.80492000  0.86546000  1.0 -0.1308782589
C  C854  1  0.80492000  0.09006000  0.23956000  1.0 -0.1308782589
C  C855  1  0.23956000  0.86546000  0.80492000  1.0 -0.1308782589
C  C856  1  0.86546000  0.23956000  0.09006000  1.0 -0.1308782589
C  C857  1  0.23956000  0.09006000  0.86546000  1.0 -0.1308782589
C  C858  1  0.86546000  0.80492000  0.23956000  1.0 -0.1308782589
C  C859  1  0.09006000  0.23956000  0.80492000  1.0 -0.1308782589
C  C860  1  0.80492000  0.86546000  0.09006000  1.0 -0.1308782589
C  C861  1  0.80492000  0.23956000  0.86546000  1.0 -0.1308782589
C  C862  1  0.09006000  0.86546000  0.23956000  1.0 -0.1308782589
C  C863  1  0.86546000  0.09006000  0.80492000  1.0 -0.1308782589
C  C864  1  0.23956000  0.80492000  0.09006000  1.0 -0.1308782589
C  C865  1  0.59456000  0.33268000  0.70718000  1.0 0.0707179337
C  C866  1  0.33268000  0.59456000  0.36558000  1.0 0.0707179337
C  C867  1  0.70718000  0.36558000  0.59456000  1.0 0.0707179337
C  C868  1  0.36558000  0.70718000  0.33268000  1.0 0.0707179337
C  C869  1  0.70718000  0.59456000  0.33268000  1.0 0.0707179337
C  C870  1  0.36558000  0.33268000  0.59456000  1.0 0.0707179337
C  C871  1  0.59456000  0.70718000  0.36558000  1.0 0.0707179337
C  C872  1  0.33268000  0.36558000  0.70718000  1.0 0.0707179337
C  C873  1  0.33268000  0.70718000  0.59456000  1.0 0.0707179337
C  C874  1  0.59456000  0.36558000  0.33268000  1.0 0.0707179337
C  C875  1  0.36558000  0.59456000  0.70718000  1.0 0.0707179337
C  C876  1  0.70718000  0.33268000  0.36558000  1.0 0.0707179337
C  C877  1  0.65544000  0.91732000  0.88442000  1.0 0.0707179337
C  C878  1  0.91732000  0.65544000  0.54282000  1.0 0.0707179337
C  C879  1  0.54282000  0.88442000  0.91732000  1.0 0.0707179337
C  C880  1  0.88442000  0.54282000  0.65544000  1.0 0.0707179337
C  C881  1  0.54282000  0.65544000  0.88442000  1.0 0.0707179337
C  C882  1  0.88442000  0.91732000  0.54282000  1.0 0.0707179337
C  C883  1  0.65544000  0.54282000  0.91732000  1.0 0.0707179337
C  C884  1  0.91732000  0.88442000  0.65544000  1.0 0.0707179337
C  C885  1  0.91732000  0.54282000  0.88442000  1.0 0.0707179337
C  C886  1  0.65544000  0.88442000  0.54282000  1.0 0.0707179337
C  C887  1  0.88442000  0.65544000  0.91732000  1.0 0.0753294356
C  C888  1  0.54282000  0.91732000  0.65544000  1.0 0.0707179337
C  C889  1  0.15544000  0.41732000  0.04282000  1.0 0.0707179337
C  C890  1  0.41732000  0.15544000  0.38442000  1.0 0.0707179337
C  C891  1  0.04282000  0.38442000  0.15544000  1.0 0.0707179337
C  C892  1  0.38442000  0.04282000  0.41732000  1.0 0.0707179337
C  C893  1  0.04282000  0.15544000  0.41732000  1.0 0.0707179337
C  C894  1  0.38442000  0.41732000  0.15544000  1.0 0.0707179337
C  C895  1  0.15544000  0.04282000  0.38442000  1.0 0.0707179337
C  C896  1  0.41732000  0.38442000  0.04282000  1.0 0.0707179337
C  C897  1  0.41732000  0.04282000  0.15544000  1.0 0.0707179337
C  C898  1  0.15544000  0.38442000  0.41732000  1.0 0.0707179337
C  C899  1  0.38442000  0.15544000  0.04282000  1.0 0.0707179337
C  C900  1  0.04282000  0.41732000  0.38442000  1.0 0.0707179337
C  C901  1  0.09456000  0.83268000  0.86558000  1.0 0.0707179337
C  C902  1  0.83268000  0.09456000  0.20718000  1.0 0.0707179337
C  C903  1  0.20718000  0.86558000  0.83268000  1.0 0.0707179337
C  C904  1  0.86558000  0.20718000  0.09456000  1.0 0.0707179337
C  C905  1  0.20718000  0.09456000  0.86558000  1.0 0.0707179337
C  C906  1  0.86558000  0.83268000  0.20718000  1.0 0.0707179337
C  C907  1  0.09456000  0.20718000  0.83268000  1.0 0.0707179337
C  C908  1  0.83268000  0.86558000  0.09456000  1.0 0.0707179337
C  C909  1  0.83268000  0.20718000  0.86558000  1.0 0.0753294356
C  C910  1  0.09456000  0.86558000  0.20718000  1.0 0.0707179337
C  C911  1  0.86558000  0.09456000  0.83268000  1.0 0.0753294356
C  C912  1  0.20718000  0.83268000  0.09456000  1.0 0.0707179337
C  C913  1  0.67028000  0.32352000  0.57752000  1.0 0.2478408294
C  C914  1  0.32352000  0.67028000  0.42868000  1.0 0.2478408294
C  C915  1  0.57752000  0.42868000  0.67028000  1.0 0.2478408294
C  C916  1  0.42868000  0.57752000  0.32352000  1.0 0.2478408294
C  C917  1  0.57752000  0.67028000  0.32352000  1.0 0.2478408294
C  C918  1  0.42868000  0.32352000  0.67028000  1.0 0.2478408294
C  C919  1  0.67028000  0.57752000  0.42868000  1.0 0.2478408294
C  C920  1  0.32352000  0.42868000  0.57752000  1.0 0.2478408294
C  C921  1  0.32352000  0.57752000  0.67028000  1.0 0.2478408294
C  C922  1  0.67028000  0.42868000  0.32352000  1.0 0.2478408294
C  C923  1  0.42868000  0.67028000  0.57752000  1.0 0.2478408294
C  C924  1  0.57752000  0.32352000  0.42868000  1.0 0.2478408294
C  C925  1  0.57972000  0.92648000  0.82132000  1.0 0.2478408294
C  C926  1  0.92648000  0.57972000  0.67248000  1.0 0.2478408294
C  C927  1  0.67248000  0.82132000  0.92648000  1.0 0.2478408294
C  C928  1  0.82132000  0.67248000  0.57972000  1.0 0.2478408294
C  C929  1  0.67248000  0.57972000  0.82132000  1.0 0.2478408294
C  C930  1  0.82132000  0.92648000  0.67248000  1.0 0.2478408294
C  C931  1  0.57972000  0.67248000  0.92648000  1.0 0.2478408294
C  C932  1  0.92648000  0.82132000  0.57972000  1.0 0.2478408294
C  C933  1  0.92648000  0.67248000  0.82132000  1.0 0.2478408294
C  C934  1  0.57972000  0.82132000  0.67248000  1.0 0.2478408294
C  C935  1  0.82132000  0.57972000  0.92648000  1.0 0.2478408294
C  C936  1  0.67248000  0.92648000  0.57972000  1.0 0.2478408294
C  C937  1  0.07972000  0.42648000  0.17248000  1.0 0.2478408294
C  C938  1  0.42648000  0.07972000  0.32132000  1.0 0.2478408294
C  C939  1  0.17248000  0.32132000  0.07972000  1.0 0.2478408294
C  C940  1  0.32132000  0.17248000  0.42648000  1.0 0.2478408294
C  C941  1  0.17248000  0.07972000  0.42648000  1.0 0.2478408294
C  C942  1  0.32132000  0.42648000  0.07972000  1.0 0.2478408294
C  C943  1  0.07972000  0.17248000  0.32132000  1.0 0.2478408294
C  C944  1  0.42648000  0.32132000  0.17248000  1.0 0.2478408294
C  C945  1  0.42648000  0.17248000  0.07972000  1.0 0.2478408294
C  C946  1  0.07972000  0.32132000  0.42648000  1.0 0.2478408294
C  C947  1  0.32132000  0.07972000  0.17248000  1.0 0.2478408294
C  C948  1  0.17248000  0.42648000  0.32132000  1.0 0.2478408294
C  C949  1  0.17028000  0.82352000  0.92868000  1.0 0.2478408294
C  C950  1  0.82352000  0.17028000  0.07752000  1.0 0.2478408294
C  C951  1  0.07752000  0.92868000  0.82352000  1.0 0.2478408294
C  C952  1  0.92868000  0.07752000  0.17028000  1.0 0.2478408294
C  C953  1  0.07752000  0.17028000  0.92868000  1.0 0.2478408294
C  C954  1  0.92868000  0.82352000  0.07752000  1.0 0.2478408294
C  C955  1  0.17028000  0.07752000  0.82352000  1.0 0.2478408294
C  C956  1  0.82352000  0.92868000  0.17028000  1.0 0.2478408294
C  C957  1  0.82352000  0.07752000  0.92868000  1.0 0.2478408294
C  C958  1  0.17028000  0.92868000  0.07752000  1.0 0.2478408294
C  C959  1  0.92868000  0.17028000  0.82352000  1.0 0.2478408294
C  C960  1  0.07752000  0.82352000  0.17028000  1.0 0.2478408294
C  C961  1  0.63715000  0.44781000  0.57779000  1.0 0.0499492727
C  C962  1  0.44781000  0.63715000  0.33725000  1.0 0.0499492727
C  C963  1  0.57779000  0.33725000  0.63715000  1.0 0.0499492727
C  C964  1  0.33725000  0.57779000  0.44781000  1.0 0.0499492727
C  C965  1  0.57779000  0.63715000  0.44781000  1.0 0.0499492727
C  C966  1  0.33725000  0.44781000  0.63715000  1.0 0.0499492727
C  C967  1  0.63715000  0.57779000  0.33725000  1.0 0.0499492727
C  C968  1  0.44781000  0.33725000  0.57779000  1.0 0.0499492727
C  C969  1  0.44781000  0.57779000  0.63715000  1.0 0.0499492727
C  C970  1  0.63715000  0.33725000  0.44781000  1.0 0.0499492727
C  C971  1  0.33725000  0.63715000  0.57779000  1.0 0.0499492727
C  C972  1  0.57779000  0.44781000  0.33725000  1.0 0.0499492727
C  C973  1  0.61285000  0.80219000  0.91275000  1.0 0.0499492727
C  C974  1  0.80219000  0.61285000  0.67221000  1.0 0.0499492727
C  C975  1  0.67221000  0.91275000  0.80219000  1.0 0.0499492727
C  C976  1  0.91275000  0.67221000  0.61285000  1.0 0.0499492727
C  C977  1  0.67221000  0.61285000  0.91275000  1.0 0.0499492727
C  C978  1  0.91275000  0.80219000  0.67221000  1.0 0.0499492727
C  C979  1  0.61285000  0.67221000  0.80219000  1.0 0.0499492727
C  C980  1  0.80219000  0.91275000  0.61285000  1.0 0.0499492727
C  C981  1  0.80219000  0.67221000  0.91275000  1.0 0.0499492727
C  C982  1  0.61285000  0.91275000  0.67221000  1.0 0.0499492727
C  C983  1  0.91275000  0.61285000  0.80219000  1.0 0.0499492727
C  C984  1  0.67221000  0.80219000  0.61285000  1.0 0.0499492727
C  C985  1  0.11285000  0.30219000  0.17221000  1.0 0.0499492727
C  C986  1  0.30219000  0.11285000  0.41275000  1.0 0.0499492727
C  C987  1  0.17221000  0.41275000  0.11285000  1.0 0.0499492727
C  C988  1  0.41275000  0.17221000  0.30219000  1.0 0.0499492727
C  C989  1  0.17221000  0.11285000  0.30219000  1.0 0.0499492727
C  C990  1  0.41275000  0.30219000  0.11285000  1.0 0.0499492727
C  C991  1  0.11285000  0.17221000  0.41275000  1.0 0.0499492727
C  C992  1  0.30219000  0.41275000  0.17221000  1.0 0.0499492727
C  C993  1  0.30219000  0.17221000  0.11285000  1.0 0.0499492727
C  C994  1  0.11285000  0.41275000  0.30219000  1.0 0.0499492727
C  C995  1  0.41275000  0.11285000  0.17221000  1.0 0.0499492727
C  C996  1  0.17221000  0.30219000  0.41275000  1.0 0.0499492727
C  C997  1  0.13715000  0.94781000  0.83725000  1.0 0.0499492727
C  C998  1  0.94781000  0.13715000  0.07779000  1.0 0.0499492727
C  C999  1  0.07779000  0.83725000  0.94781000  1.0 0.0499492727
C  C1000  1  0.83725000  0.07779000  0.13715000  1.0 0.0499492727
C  C1001  1  0.07779000  0.13715000  0.83725000  1.0 0.0499492727
C  C1002  1  0.83725000  0.94781000  0.07779000  1.0 0.0499492727
C  C1003  1  0.13715000  0.07779000  0.94781000  1.0 0.0499492727
C  C1004  1  0.94781000  0.83725000  0.13715000  1.0 0.0499492727
C  C1005  1  0.94781000  0.07779000  0.83725000  1.0 0.0499492727
C  C1006  1  0.13715000  0.83725000  0.07779000  1.0 0.0499492727
C  C1007  1  0.83725000  0.13715000  0.94781000  1.0 0.0499492727
C  C1008  1  0.07779000  0.94781000  0.13715000  1.0 0.0499492727
C  C1009  1  0.64359000  0.47599000  0.54853000  1.0 -0.1308782589
C  C1010  1  0.47599000  0.64359000  0.33189000  1.0 -0.1308782589
C  C1011  1  0.54853000  0.33189000  0.64359000  1.0 -0.1308782589
C  C1012  1  0.33189000  0.54853000  0.47599000  1.0 -0.1308782589
C  C1013  1  0.54853000  0.64359000  0.47599000  1.0 -0.1308782589
C  C1014  1  0.33189000  0.47599000  0.64359000  1.0 -0.1308782589
C  C1015  1  0.64359000  0.54853000  0.33189000  1.0 -0.1308782589
C  C1016  1  0.47599000  0.33189000  0.54853000  1.0 -0.1308782589
C  C1017  1  0.47599000  0.54853000  0.64359000  1.0 -0.1308782589
C  C1018  1  0.64359000  0.33189000  0.47599000  1.0 -0.1308782589
C  C1019  1  0.33189000  0.64359000  0.54853000  1.0 -0.1308782589
C  C1020  1  0.54853000  0.47599000  0.33189000  1.0 -0.1308782589
C  C1021  1  0.60641000  0.77401000  0.91811000  1.0 -0.1308782589
C  C1022  1  0.77401000  0.60641000  0.70147000  1.0 -0.1308782589
C  C1023  1  0.70147000  0.91811000  0.77401000  1.0 -0.1308782589
C  C1024  1  0.91811000  0.70147000  0.60641000  1.0 -0.1308782589
C  C1025  1  0.70147000  0.60641000  0.91811000  1.0 -0.1308782589
C  C1026  1  0.91811000  0.77401000  0.70147000  1.0 -0.1308782589
C  C1027  1  0.60641000  0.70147000  0.77401000  1.0 -0.1308782589
C  C1028  1  0.77401000  0.91811000  0.60641000  1.0 -0.1308782589
C  C1029  1  0.77401000  0.70147000  0.91811000  1.0 -0.1308782589
C  C1030  1  0.60641000  0.91811000  0.70147000  1.0 -0.1308782589
C  C1031  1  0.91811000  0.60641000  0.77401000  1.0 -0.1308782589
C  C1032  1  0.70147000  0.77401000  0.60641000  1.0 -0.1308782589
C  C1033  1  0.10641000  0.27401000  0.20147000  1.0 -0.1308782589
C  C1034  1  0.27401000  0.10641000  0.41811000  1.0 -0.1308782589
C  C1035  1  0.20147000  0.41811000  0.10641000  1.0 -0.1308782589
C  C1036  1  0.41811000  0.20147000  0.27401000  1.0 -0.1308782589
C  C1037  1  0.20147000  0.10641000  0.27401000  1.0 -0.1308782589
C  C1038  1  0.41811000  0.27401000  0.10641000  1.0 -0.1308782589
C  C1039  1  0.10641000  0.20147000  0.41811000  1.0 -0.1308782589
C  C1040  1  0.27401000  0.41811000  0.20147000  1.0 -0.1308782589
C  C1041  1  0.27401000  0.20147000  0.10641000  1.0 -0.1308782589
C  C1042  1  0.10641000  0.41811000  0.27401000  1.0 -0.1308782589
C  C1043  1  0.41811000  0.10641000  0.20147000  1.0 -0.1308782589
C  C1044  1  0.20147000  0.27401000  0.41811000  1.0 -0.1308782589
C  C1045  1  0.14359000  0.97599000  0.83189000  1.0 -0.1308782589
C  C1046  1  0.97599000  0.14359000  0.04853000  1.0 -0.1308782589
C  C1047  1  0.04853000  0.83189000  0.97599000  1.0 -0.1308782589
C  C1048  1  0.83189000  0.04853000  0.14359000  1.0 -0.1308782589
C  C1049  1  0.04853000  0.14359000  0.83189000  1.0 -0.1308782589
C  C1050  1  0.83189000  0.97599000  0.04853000  1.0 -0.1308782589
C  C1051  1  0.14359000  0.04853000  0.97599000  1.0 -0.1308782589
C  C1052  1  0.97599000  0.83189000  0.14359000  1.0 -0.1308782589
C  C1053  1  0.97599000  0.04853000  0.83189000  1.0 -0.1308782589
C  C1054  1  0.14359000  0.83189000  0.04853000  1.0 -0.1308782589
C  C1055  1  0.83189000  0.14359000  0.97599000  1.0 -0.1308782589
C  C1056  1  0.04853000  0.97599000  0.14359000  1.0 -0.1308782589
C  C1057  1  0.64587000  0.47823000  0.51535000  1.0 -0.050745868
C  C1058  1  0.47823000  0.64587000  0.36055000  1.0 -0.050745868
C  C1059  1  0.51535000  0.36055000  0.64587000  1.0 -0.050745868
C  C1060  1  0.36055000  0.51535000  0.47823000  1.0 -0.050745868
C  C1061  1  0.51535000  0.64587000  0.47823000  1.0 -0.050745868
C  C1062  1  0.36055000  0.47823000  0.64587000  1.0 -0.050745868
C  C1063  1  0.64587000  0.51535000  0.36055000  1.0 -0.050745868
C  C1064  1  0.47823000  0.36055000  0.51535000  1.0 -0.050745868
C  C1065  1  0.47823000  0.51535000  0.64587000  1.0 -0.050745868
C  C1066  1  0.64587000  0.36055000  0.47823000  1.0 -0.050745868
C  C1067  1  0.36055000  0.64587000  0.51535000  1.0 -0.050745868
C  C1068  1  0.51535000  0.47823000  0.36055000  1.0 -0.050745868
C  C1069  1  0.60413000  0.77177000  0.88945000  1.0 -0.050745868
C  C1070  1  0.77177000  0.60413000  0.73465000  1.0 -0.050745868
C  C1071  1  0.73465000  0.88945000  0.77177000  1.0 -0.050745868
C  C1072  1  0.88945000  0.73465000  0.60413000  1.0 -0.050745868
C  C1073  1  0.73465000  0.60413000  0.88945000  1.0 -0.050745868
C  C1074  1  0.88945000  0.77177000  0.73465000  1.0 -0.050745868
C  C1075  1  0.60413000  0.73465000  0.77177000  1.0 -0.050745868
C  C1076  1  0.77177000  0.88945000  0.60413000  1.0 -0.050745868
C  C1077  1  0.77177000  0.73465000  0.88945000  1.0 -0.050745868
C  C1078  1  0.60413000  0.88945000  0.73465000  1.0 -0.050745868
C  C1079  1  0.88945000  0.60413000  0.77177000  1.0 -0.050745868
C  C1080  1  0.73465000  0.77177000  0.60413000  1.0 -0.050745868
C  C1081  1  0.10413000  0.27177000  0.23465000  1.0 -0.050745868
C  C1082  1  0.27177000  0.10413000  0.38945000  1.0 -0.050745868
C  C1083  1  0.23465000  0.38945000  0.10413000  1.0 -0.050745868
C  C1084  1  0.38945000  0.23465000  0.27177000  1.0 -0.050745868
C  C1085  1  0.23465000  0.10413000  0.27177000  1.0 -0.050745868
C  C1086  1  0.38945000  0.27177000  0.10413000  1.0 -0.050745868
C  C1087  1  0.10413000  0.23465000  0.38945000  1.0 -0.050745868
C  C1088  1  0.27177000  0.38945000  0.23465000  1.0 -0.050745868
C  C1089  1  0.27177000  0.23465000  0.10413000  1.0 -0.050745868
C  C1090  1  0.10413000  0.38945000  0.27177000  1.0 -0.050745868
C  C1091  1  0.38945000  0.10413000  0.23465000  1.0 -0.050745868
C  C1092  1  0.23465000  0.27177000  0.38945000  1.0 -0.050745868
C  C1093  1  0.14587000  0.97823000  0.86055000  1.0 -0.050745868
C  C1094  1  0.97823000  0.14587000  0.01535000  1.0 -0.050745868
C  C1095  1  0.01535000  0.86055000  0.97823000  1.0 -0.050745868
C  C1096  1  0.86055000  0.01535000  0.14587000  1.0 -0.050745868
C  C1097  1  0.01535000  0.14587000  0.86055000  1.0 -0.050745868
C  C1098  1  0.86055000  0.97823000  0.01535000  1.0 -0.050745868
C  C1099  1  0.14587000  0.01535000  0.97823000  1.0 -0.050745868
C  C1100  1  0.97823000  0.86055000  0.14587000  1.0 -0.050745868
C  C1101  1  0.97823000  0.01535000  0.86055000  1.0 -0.050745868
C  C1102  1  0.14587000  0.86055000  0.01535000  1.0 -0.050745868
C  C1103  1  0.86055000  0.14587000  0.97823000  1.0 -0.050745868
C  C1104  1  0.01535000  0.97823000  0.14587000  1.0 -0.050745868
C  C1105  1  0.63971000  0.45113000  0.51541000  1.0 -0.0373544082
C  C1106  1  0.45113000  0.63971000  0.39375000  1.0 -0.0373544082
C  C1107  1  0.51541000  0.39375000  0.63971000  1.0 -0.0373544082
C  C1108  1  0.39375000  0.51541000  0.45113000  1.0 -0.0373544082
C  C1109  1  0.51541000  0.63971000  0.45113000  1.0 -0.0373544082
C  C1110  1  0.39375000  0.45113000  0.63971000  1.0 -0.0373544082
C  C1111  1  0.63971000  0.51541000  0.39375000  1.0 -0.0373544082
C  C1112  1  0.45113000  0.39375000  0.51541000  1.0 -0.0373544082
C  C1113  1  0.45113000  0.51541000  0.63971000  1.0 -0.0373544082
C  C1114  1  0.63971000  0.39375000  0.45113000  1.0 -0.0373544082
C  C1115  1  0.39375000  0.63971000  0.51541000  1.0 -0.0373544082
C  C1116  1  0.51541000  0.45113000  0.39375000  1.0 -0.0373544082
C  C1117  1  0.61029000  0.79887000  0.85625000  1.0 -0.0373544082
C  C1118  1  0.79887000  0.61029000  0.73459000  1.0 -0.0373544082
C  C1119  1  0.73459000  0.85625000  0.79887000  1.0 -0.0373544082
C  C1120  1  0.85625000  0.73459000  0.61029000  1.0 -0.0373544082
C  C1121  1  0.73459000  0.61029000  0.85625000  1.0 -0.0373544082
C  C1122  1  0.85625000  0.79887000  0.73459000  1.0 -0.0373544082
C  C1123  1  0.61029000  0.73459000  0.79887000  1.0 -0.0373544082
C  C1124  1  0.79887000  0.85625000  0.61029000  1.0 -0.0373544082
C  C1125  1  0.79887000  0.73459000  0.85625000  1.0 -0.0373544082
C  C1126  1  0.61029000  0.85625000  0.73459000  1.0 -0.0373544082
C  C1127  1  0.85625000  0.61029000  0.79887000  1.0 -0.0373544082
C  C1128  1  0.73459000  0.79887000  0.61029000  1.0 -0.0373544082
C  C1129  1  0.11029000  0.29887000  0.23459000  1.0 -0.0373544082
C  C1130  1  0.29887000  0.11029000  0.35625000  1.0 -0.0373544082
C  C1131  1  0.23459000  0.35625000  0.11029000  1.0 -0.0373544082
C  C1132  1  0.35625000  0.23459000  0.29887000  1.0 -0.0373544082
C  C1133  1  0.23459000  0.11029000  0.29887000  1.0 -0.0373544082
C  C1134  1  0.35625000  0.29887000  0.11029000  1.0 -0.0373544082
C  C1135  1  0.11029000  0.23459000  0.35625000  1.0 -0.0373544082
C  C1136  1  0.29887000  0.35625000  0.23459000  1.0 -0.0373544082
C  C1137  1  0.29887000  0.23459000  0.11029000  1.0 -0.0373544082
C  C1138  1  0.11029000  0.35625000  0.29887000  1.0 -0.0373544082
C  C1139  1  0.35625000  0.11029000  0.23459000  1.0 -0.0373544082
C  C1140  1  0.23459000  0.29887000  0.35625000  1.0 -0.0373544082
C  C1141  1  0.13971000  0.95113000  0.89375000  1.0 -0.0373544082
C  C1142  1  0.95113000  0.13971000  0.01541000  1.0 -0.0373544082
C  C1143  1  0.01541000  0.89375000  0.95113000  1.0 -0.0373544082
C  C1144  1  0.89375000  0.01541000  0.13971000  1.0 -0.0373544082
C  C1145  1  0.01541000  0.13971000  0.89375000  1.0 -0.0373544082
C  C1146  1  0.89375000  0.95113000  0.01541000  1.0 -0.0373544082
C  C1147  1  0.13971000  0.01541000  0.95113000  1.0 -0.0373544082
C  C1148  1  0.95113000  0.89375000  0.13971000  1.0 -0.0373544082
C  C1149  1  0.95113000  0.01541000  0.89375000  1.0 -0.0373544082
C  C1150  1  0.13971000  0.89375000  0.01541000  1.0 -0.0373544082
C  C1151  1  0.89375000  0.13971000  0.95113000  1.0 -0.0373544082
C  C1152  1  0.01541000  0.95113000  0.13971000  1.0 -0.0373544082
C  C1153  1  0.63320000  0.42288000  0.54722000  1.0 0.0707179337
C  C1154  1  0.42288000  0.63320000  0.39670000  1.0 0.0707179337
C  C1155  1  0.54722000  0.39670000  0.63320000  1.0 0.0707179337
C  C1156  1  0.39670000  0.54722000  0.42288000  1.0 0.0707179337
C  C1157  1  0.54722000  0.63320000  0.42288000  1.0 0.0707179337
C  C1158  1  0.39670000  0.42288000  0.63320000  1.0 0.0707179337
C  C1159  1  0.63320000  0.54722000  0.39670000  1.0 0.0707179337
C  C1160  1  0.42288000  0.39670000  0.54722000  1.0 0.0707179337
C  C1161  1  0.42288000  0.54722000  0.63320000  1.0 0.0707179337
C  C1162  1  0.63320000  0.39670000  0.42288000  1.0 0.0707179337
C  C1163  1  0.39670000  0.63320000  0.54722000  1.0 0.0707179337
C  C1164  1  0.54722000  0.42288000  0.39670000  1.0 0.0707179337
C  C1165  1  0.61680000  0.82712000  0.85330000  1.0 0.0707179337
C  C1166  1  0.82712000  0.61680000  0.70278000  1.0 0.0707179337
C  C1167  1  0.70278000  0.85330000  0.82712000  1.0 0.0707179337
C  C1168  1  0.85330000  0.70278000  0.61680000  1.0 0.0707179337
C  C1169  1  0.70278000  0.61680000  0.85330000  1.0 0.0707179337
C  C1170  1  0.85330000  0.82712000  0.70278000  1.0 0.0707179337
C  C1171  1  0.61680000  0.70278000  0.82712000  1.0 0.0707179337
C  C1172  1  0.82712000  0.85330000  0.61680000  1.0 0.0707179337
C  C1173  1  0.82712000  0.70278000  0.85330000  1.0 0.0707179337
C  C1174  1  0.61680000  0.85330000  0.70278000  1.0 0.0707179337
C  C1175  1  0.85330000  0.61680000  0.82712000  1.0 0.0707179337
C  C1176  1  0.70278000  0.82712000  0.61680000  1.0 0.0707179337
C  C1177  1  0.11680000  0.32712000  0.20278000  1.0 0.0707179337
C  C1178  1  0.32712000  0.11680000  0.35330000  1.0 0.0707179337
C  C1179  1  0.20278000  0.35330000  0.11680000  1.0 0.0707179337
C  C1180  1  0.35330000  0.20278000  0.32712000  1.0 0.0707179337
C  C1181  1  0.20278000  0.11680000  0.32712000  1.0 0.0707179337
C  C1182  1  0.35330000  0.32712000  0.11680000  1.0 0.0707179337
C  C1183  1  0.11680000  0.20278000  0.35330000  1.0 0.0707179337
C  C1184  1  0.32712000  0.35330000  0.20278000  1.0 0.0707179337
C  C1185  1  0.32712000  0.20278000  0.11680000  1.0 0.0707179337
C  C1186  1  0.11680000  0.35330000  0.32712000  1.0 0.0707179337
C  C1187  1  0.35330000  0.11680000  0.20278000  1.0 0.0707179337
C  C1188  1  0.20278000  0.32712000  0.35330000  1.0 0.0707179337
C  C1189  1  0.13320000  0.92288000  0.89670000  1.0 0.0707179337
C  C1190  1  0.92288000  0.13320000  0.04722000  1.0 0.0707179337
C  C1191  1  0.04722000  0.89670000  0.92288000  1.0 0.0707179337
C  C1192  1  0.89670000  0.04722000  0.13320000  1.0 0.0707179337
C  C1193  1  0.04722000  0.13320000  0.89670000  1.0 0.0707179337
C  C1194  1  0.89670000  0.92288000  0.04722000  1.0 0.0707179337
C  C1195  1  0.13320000  0.04722000  0.92288000  1.0 0.0707179337
C  C1196  1  0.92288000  0.89670000  0.13320000  1.0 0.0707179337
C  C1197  1  0.92288000  0.04722000  0.89670000  1.0 0.0707179337
C  C1198  1  0.13320000  0.89670000  0.04722000  1.0 0.0707179337
C  C1199  1  0.89670000  0.13320000  0.92288000  1.0 0.0707179337
C  C1200  1  0.04722000  0.92288000  0.13320000  1.0 0.0707179337
C  C1201  1  0.64109000  0.45169000  0.48245000  1.0 0.3736211161
C  C1202  1  0.45169000  0.64109000  0.42477000  1.0 0.3736211161
C  C1203  1  0.48245000  0.42477000  0.64109000  1.0 0.380011401
C  C1204  1  0.42477000  0.48245000  0.45169000  1.0 0.3736211161
C  C1205  1  0.48245000  0.64109000  0.45169000  1.0 0.3736211161
C  C1206  1  0.42477000  0.45169000  0.64109000  1.0 0.380011401
C  C1207  1  0.64109000  0.48245000  0.42477000  1.0 0.3736211161
C  C1208  1  0.45169000  0.42477000  0.48245000  1.0 0.3736211161
C  C1209  1  0.45169000  0.48245000  0.64109000  1.0 0.380011401
C  C1210  1  0.64109000  0.42477000  0.45169000  1.0 0.380011401
C  C1211  1  0.42477000  0.64109000  0.48245000  1.0 0.3736211161
C  C1212  1  0.48245000  0.45169000  0.42477000  1.0 0.3736211161
C  C1213  1  0.60891000  0.79831000  0.82523000  1.0 0.3736211161
C  C1214  1  0.79831000  0.60891000  0.76755000  1.0 0.3736211161
C  C1215  1  0.76755000  0.82523000  0.79831000  1.0 0.3736211161
C  C1216  1  0.82523000  0.76755000  0.60891000  1.0 0.380011401
C  C1217  1  0.76755000  0.60891000  0.82523000  1.0 0.3736211161
C  C1218  1  0.82523000  0.79831000  0.76755000  1.0 0.3736211161
C  C1219  1  0.60891000  0.76755000  0.79831000  1.0 0.3736211161
C  C1220  1  0.79831000  0.82523000  0.60891000  1.0 0.380011401
C  C1221  1  0.79831000  0.76755000  0.82523000  1.0 0.3736211161
C  C1222  1  0.60891000  0.82523000  0.76755000  1.0 0.3736211161
C  C1223  1  0.82523000  0.60891000  0.79831000  1.0 0.3736211161
C  C1224  1  0.76755000  0.79831000  0.60891000  1.0 0.380011401
C  C1225  1  0.10891000  0.29831000  0.26755000  1.0 0.380011401
C  C1226  1  0.29831000  0.10891000  0.32523000  1.0 0.380011401
C  C1227  1  0.26755000  0.32523000  0.10891000  1.0 0.3736211161
C  C1228  1  0.32523000  0.26755000  0.29831000  1.0 0.3736211161
C  C1229  1  0.26755000  0.10891000  0.29831000  1.0 0.3736211161
C  C1230  1  0.32523000  0.29831000  0.10891000  1.0 0.3736211161
C  C1231  1  0.10891000  0.26755000  0.32523000  1.0 0.380011401
C  C1232  1  0.29831000  0.32523000  0.26755000  1.0 0.3736211161
C  C1233  1  0.29831000  0.26755000  0.10891000  1.0 0.380011401
C  C1234  1  0.10891000  0.32523000  0.29831000  1.0 0.3736211161
C  C1235  1  0.32523000  0.10891000  0.26755000  1.0 0.3736211161
C  C1236  1  0.26755000  0.29831000  0.32523000  1.0 0.380011401
C  C1237  1  0.14109000  0.95169000  0.92477000  1.0 0.3736211161
C  C1238  1  0.95169000  0.14109000  0.98245000  1.0 0.380011401
C  C1239  1  0.98245000  0.92477000  0.95169000  1.0 0.3736211161
C  C1240  1  0.92477000  0.98245000  0.14109000  1.0 0.3736211161
C  C1241  1  0.98245000  0.14109000  0.92477000  1.0 0.380011401
C  C1242  1  0.92477000  0.95169000  0.98245000  1.0 0.3736211161
C  C1243  1  0.14109000  0.98245000  0.95169000  1.0 0.3736211161
C  C1244  1  0.95169000  0.92477000  0.14109000  1.0 0.3736211161
C  C1245  1  0.95169000  0.98245000  0.92477000  1.0 0.3736211161
C  C1246  1  0.14109000  0.92477000  0.98245000  1.0 0.3736211161
C  C1247  1  0.92477000  0.14109000  0.95169000  1.0 0.3736211161
C  C1248  1  0.98245000  0.95169000  0.14109000  1.0 0.3736211161
S  S1  1  0.67305000  0.99661000  0.92209000  1.0 -0.3935598724
S  S2  1  0.99661000  0.67305000  0.40825000  1.0 -0.3935598724
S  S3  1  0.92209000  0.40825000  0.67305000  1.0 -0.4021158055
S  S4  1  0.40825000  0.92209000  0.99661000  1.0 -0.4021158055
S  S5  1  0.92209000  0.67305000  0.99661000  1.0 -0.4021158055
S  S6  1  0.40825000  0.99661000  0.67305000  1.0 -0.3935598724
S  S7  1  0.67305000  0.92209000  0.40825000  1.0 -0.3935598724
S  S8  1  0.99661000  0.40825000  0.92209000  1.0 -0.3935598724
S  S9  1  0.99661000  0.92209000  0.67305000  1.0 -0.3935598724
S  S10  1  0.67305000  0.40825000  0.99661000  1.0 -0.4021158055
S  S11  1  0.40825000  0.67305000  0.92209000  1.0 -0.3935598724
S  S12  1  0.92209000  0.99661000  0.40825000  1.0 -0.4021158055
S  S13  1  0.57695000  0.25339000  0.84175000  1.0 -0.3935598724
S  S14  1  0.25339000  0.57695000  0.32791000  1.0 -0.3935598724
S  S15  1  0.32791000  0.84175000  0.25339000  1.0 -0.3935598724
S  S16  1  0.84175000  0.32791000  0.57695000  1.0 -0.4021158055
S  S17  1  0.32791000  0.57695000  0.84175000  1.0 -0.3935598724
S  S18  1  0.84175000  0.25339000  0.32791000  1.0 -0.4021158055
S  S19  1  0.57695000  0.32791000  0.25339000  1.0 -0.4021158055
S  S20  1  0.25339000  0.84175000  0.57695000  1.0 -0.4021158055
S  S21  1  0.25339000  0.32791000  0.84175000  1.0 -0.3935598724
S  S22  1  0.57695000  0.84175000  0.32791000  1.0 -0.3935598724
S  S23  1  0.84175000  0.57695000  0.25339000  1.0 -0.4021158055
S  S24  1  0.32791000  0.25339000  0.57695000  1.0 -0.3935598724
S  S25  1  0.07695000  0.75339000  0.82791000  1.0 -0.3935598724
S  S26  1  0.75339000  0.07695000  0.34175000  1.0 -0.4021158055
S  S27  1  0.82791000  0.34175000  0.07695000  1.0 -0.4021158055
S  S28  1  0.34175000  0.82791000  0.75339000  1.0 -0.3935598724
S  S29  1  0.82791000  0.07695000  0.75339000  1.0 -0.3935598724
S  S30  1  0.34175000  0.75339000  0.07695000  1.0 -0.4021158055
S  S31  1  0.07695000  0.82791000  0.34175000  1.0 -0.4021158055
S  S32  1  0.75339000  0.34175000  0.82791000  1.0 -0.3935598724
S  S33  1  0.75339000  0.82791000  0.07695000  1.0 -0.3935598724
S  S34  1  0.07695000  0.34175000  0.75339000  1.0 -0.3935598724
S  S35  1  0.34175000  0.07695000  0.82791000  1.0 -0.3935598724
S  S36  1  0.82791000  0.75339000  0.34175000  1.0 -0.4021158055
S  S37  1  0.17305000  0.49661000  0.90825000  1.0 -0.3935598724
S  S38  1  0.49661000  0.17305000  0.42209000  1.0 -0.3935598724
S  S39  1  0.42209000  0.90825000  0.49661000  1.0 -0.4021158055
S  S40  1  0.90825000  0.42209000  0.17305000  1.0 -0.4021158055
S  S41  1  0.42209000  0.17305000  0.90825000  1.0 -0.3935598724
S  S42  1  0.90825000  0.49661000  0.42209000  1.0 -0.3935598724
S  S43  1  0.17305000  0.42209000  0.49661000  1.0 -0.4021158055
S  S44  1  0.49661000  0.90825000  0.17305000  1.0 -0.3935598724
S  S45  1  0.49661000  0.42209000  0.90825000  1.0 -0.3935598724
S  S46  1  0.17305000  0.90825000  0.42209000  1.0 -0.3935598724
S  S47  1  0.90825000  0.17305000  0.49661000  1.0 -0.3935598724
S  S48  1  0.42209000  0.49661000  0.17305000  1.0 -0.3935598724
S  S49  1  0.69245000  0.29913000  0.55037000  1.0 -0.4081731515
S  S50  1  0.29913000  0.69245000  0.45805000  1.0 -0.4081731515
S  S51  1  0.55037000  0.45805000  0.69245000  1.0 -0.4081731515
S  S52  1  0.45805000  0.55037000  0.29913000  1.0 -0.4081731515
S  S53  1  0.55037000  0.69245000  0.29913000  1.0 -0.4081731515
S  S54  1  0.45805000  0.29913000  0.69245000  1.0 -0.4081731515
S  S55  1  0.69245000  0.55037000  0.45805000  1.0 -0.4081731515
S  S56  1  0.29913000  0.45805000  0.55037000  1.0 -0.4081731515
S  S57  1  0.29913000  0.55037000  0.69245000  1.0 -0.4081731515
S  S58  1  0.69245000  0.45805000  0.29913000  1.0 -0.4081731515
S  S59  1  0.45805000  0.69245000  0.55037000  1.0 -0.4081731515
S  S60  1  0.55037000  0.29913000  0.45805000  1.0 -0.4150414192
S  S61  1  0.55755000  0.95087000  0.79195000  1.0 -0.4081731515
S  S62  1  0.95087000  0.55755000  0.69963000  1.0 -0.4081731515
S  S63  1  0.69963000  0.79195000  0.95087000  1.0 -0.4081731515
S  S64  1  0.79195000  0.69963000  0.55755000  1.0 -0.4081731515
S  S65  1  0.69963000  0.55755000  0.79195000  1.0 -0.4081731515
S  S66  1  0.79195000  0.95087000  0.69963000  1.0 -0.4081731515
S  S67  1  0.55755000  0.69963000  0.95087000  1.0 -0.4081731515
S  S68  1  0.95087000  0.79195000  0.55755000  1.0 -0.4081731515
S  S69  1  0.95087000  0.69963000  0.79195000  1.0 -0.4081731515
S  S70  1  0.55755000  0.79195000  0.69963000  1.0 -0.4081731515
S  S71  1  0.79195000  0.55755000  0.95087000  1.0 -0.4081731515
S  S72  1  0.69963000  0.95087000  0.55755000  1.0 -0.4081731515
S  S73  1  0.05755000  0.45087000  0.19963000  1.0 -0.4081731515
S  S74  1  0.45087000  0.05755000  0.29195000  1.0 -0.4081731515
S  S75  1  0.19963000  0.29195000  0.05755000  1.0 -0.4081731515
S  S76  1  0.29195000  0.19963000  0.45087000  1.0 -0.4081731515
S  S77  1  0.19963000  0.05755000  0.45087000  1.0 -0.4081731515
S  S78  1  0.29195000  0.45087000  0.05755000  1.0 -0.4081731515
S  S79  1  0.05755000  0.19963000  0.29195000  1.0 -0.4081731515
S  S80  1  0.45087000  0.29195000  0.19963000  1.0 -0.4081731515
S  S81  1  0.45087000  0.19963000  0.05755000  1.0 -0.4081731515
S  S82  1  0.05755000  0.29195000  0.45087000  1.0 -0.4081731515
S  S83  1  0.29195000  0.05755000  0.19963000  1.0 -0.4081731515
S  S84  1  0.19963000  0.45087000  0.29195000  1.0 -0.4081731515
S  S85  1  0.19245000  0.79913000  0.95805000  1.0 -0.4150414192
S  S86  1  0.79913000  0.19245000  0.05037000  1.0 -0.4081731515
S  S87  1  0.05037000  0.95805000  0.79913000  1.0 -0.4081731515
S  S88  1  0.95805000  0.05037000  0.19245000  1.0 -0.4081731515
S  S89  1  0.05037000  0.19245000  0.95805000  1.0 -0.4081731515
S  S90  1  0.95805000  0.79913000  0.05037000  1.0 -0.4081731515
S  S91  1  0.19245000  0.05037000  0.79913000  1.0 -0.4081731515
S  S92  1  0.79913000  0.95805000  0.19245000  1.0 -0.4081731515
S  S93  1  0.79913000  0.05037000  0.95805000  1.0 -0.4081731515
S  S94  1  0.19245000  0.95805000  0.05037000  1.0 -0.4081731515
S  S95  1  0.95805000  0.19245000  0.79913000  1.0 -0.4081731515
S  S96  1  0.05037000  0.79913000  0.19245000  1.0 -0.4081731515
N  N1  1  0.81432000  0.16548000  0.61574000  1.0 -0.2023702456
N  N2  1  0.16548000  0.81432000  0.40446000  1.0 -0.2023702456
N  N3  1  0.61574000  0.40446000  0.81432000  1.0 -0.2094510272
N  N4  1  0.40446000  0.61574000  0.16548000  1.0 -0.2094510272
N  N5  1  0.61574000  0.81432000  0.16548000  1.0 -0.2094510272
N  N6  1  0.40446000  0.16548000  0.81432000  1.0 -0.2094510272
N  N7  1  0.81432000  0.61574000  0.40446000  1.0 -0.2094510272
N  N8  1  0.16548000  0.40446000  0.61574000  1.0 -0.2023702456
N  N9  1  0.16548000  0.61574000  0.81432000  1.0 -0.2094510272
N  N10  1  0.81432000  0.40446000  0.16548000  1.0 -0.2094510272
N  N11  1  0.40446000  0.81432000  0.61574000  1.0 -0.2023702456
N  N12  1  0.61574000  0.16548000  0.40446000  1.0 -0.2023702456
N  N13  1  0.43568000  0.08452000  0.84554000  1.0 -0.2023702456
N  N14  1  0.08452000  0.43568000  0.63426000  1.0 -0.2094510272
N  N15  1  0.63426000  0.84554000  0.08452000  1.0 -0.2023702456
N  N16  1  0.84554000  0.63426000  0.43568000  1.0 -0.2023702456
N  N17  1  0.63426000  0.43568000  0.84554000  1.0 -0.2094510272
N  N18  1  0.84554000  0.08452000  0.63426000  1.0 -0.2023702456
N  N19  1  0.43568000  0.63426000  0.08452000  1.0 -0.2023702456
N  N20  1  0.08452000  0.84554000  0.43568000  1.0 -0.2023702456
N  N21  1  0.08452000  0.63426000  0.84554000  1.0 -0.2023702456
N  N22  1  0.43568000  0.84554000  0.63426000  1.0 -0.2023702456
N  N23  1  0.84554000  0.43568000  0.08452000  1.0 -0.2023702456
N  N24  1  0.63426000  0.08452000  0.43568000  1.0 -0.2023702456
N  N25  1  0.93568000  0.58452000  0.13426000  1.0 -0.2023702456
N  N26  1  0.58452000  0.93568000  0.34554000  1.0 -0.2023702456
N  N27  1  0.13426000  0.34554000  0.93568000  1.0 -0.2094510272
N  N28  1  0.34554000  0.13426000  0.58452000  1.0 -0.2094510272
N  N29  1  0.13426000  0.93568000  0.58452000  1.0 -0.2094510272
N  N30  1  0.34554000  0.58452000  0.93568000  1.0 -0.2023702456
N  N31  1  0.93568000  0.13426000  0.34554000  1.0 -0.2023702456
N  N32  1  0.58452000  0.34554000  0.13426000  1.0 -0.2023702456
N  N33  1  0.58452000  0.13426000  0.93568000  1.0 -0.2094510272
N  N34  1  0.93568000  0.34554000  0.58452000  1.0 -0.2023702456
N  N35  1  0.34554000  0.93568000  0.13426000  1.0 -0.2023702456
N  N36  1  0.13426000  0.58452000  0.34554000  1.0 -0.2023702456
N  N37  1  0.31432000  0.66548000  0.90446000  1.0 -0.2094510272
N  N38  1  0.66548000  0.31432000  0.11574000  1.0 -0.2094510272
N  N39  1  0.11574000  0.90446000  0.66548000  1.0 -0.2094510272
N  N40  1  0.90446000  0.11574000  0.31432000  1.0 -0.2023702456
N  N41  1  0.11574000  0.31432000  0.90446000  1.0 -0.2094510272
N  N42  1  0.90446000  0.66548000  0.11574000  1.0 -0.2094510272
N  N43  1  0.31432000  0.11574000  0.66548000  1.0 -0.2094510272
N  N44  1  0.66548000  0.90446000  0.31432000  1.0 -0.2023702456
N  N45  1  0.66548000  0.11574000  0.90446000  1.0 -0.2094510272
N  N46  1  0.31432000  0.90446000  0.11574000  1.0 -0.2094510272
N  N47  1  0.90446000  0.31432000  0.66548000  1.0 -0.2094510272
N  N48  1  0.11574000  0.66548000  0.31432000  1.0 -0.2023702456
N  N49  1  0.63401000  0.06981000  0.90669000  1.0 -0.4678912977
N  N50  1  0.06981000  0.63401000  0.38949000  1.0 -0.4678912977
N  N51  1  0.90669000  0.38949000  0.63401000  1.0 -0.4678912977
N  N52  1  0.38949000  0.90669000  0.06981000  1.0 -0.4678912977
N  N53  1  0.90669000  0.63401000  0.06981000  1.0 -0.4678912977
N  N54  1  0.38949000  0.06981000  0.63401000  1.0 -0.4678912977
N  N55  1  0.63401000  0.90669000  0.38949000  1.0 -0.4678912977
N  N56  1  0.06981000  0.38949000  0.90669000  1.0 -0.4678912977
N  N57  1  0.06981000  0.90669000  0.63401000  1.0 -0.4678912977
N  N58  1  0.63401000  0.38949000  0.06981000  1.0 -0.4678912977
N  N59  1  0.38949000  0.63401000  0.90669000  1.0 -0.4678912977
N  N60  1  0.90669000  0.06981000  0.38949000  1.0 -0.4678912977
N  N61  1  0.61599000  0.18019000  0.86051000  1.0 -0.4678912977
N  N62  1  0.18019000  0.61599000  0.34331000  1.0 -0.4678912977
N  N63  1  0.34331000  0.86051000  0.18019000  1.0 -0.4678912977
N  N64  1  0.86051000  0.34331000  0.61599000  1.0 -0.4678912977
N  N65  1  0.34331000  0.61599000  0.86051000  1.0 -0.4678912977
N  N66  1  0.86051000  0.18019000  0.34331000  1.0 -0.4678912977
N  N67  1  0.61599000  0.34331000  0.18019000  1.0 -0.4678912977
N  N68  1  0.18019000  0.86051000  0.61599000  1.0 -0.4678912977
N  N69  1  0.18019000  0.34331000  0.86051000  1.0 -0.4678912977
N  N70  1  0.61599000  0.86051000  0.34331000  1.0 -0.4678912977
N  N71  1  0.86051000  0.61599000  0.18019000  1.0 -0.4678912977
N  N72  1  0.34331000  0.18019000  0.61599000  1.0 -0.4678912977
N  N73  1  0.11599000  0.68019000  0.84331000  1.0 -0.4678912977
N  N74  1  0.68019000  0.11599000  0.36051000  1.0 -0.4678912977
N  N75  1  0.84331000  0.36051000  0.11599000  1.0 -0.4678912977
N  N76  1  0.36051000  0.84331000  0.68019000  1.0 -0.4678912977
N  N77  1  0.84331000  0.11599000  0.68019000  1.0 -0.4678912977
N  N78  1  0.36051000  0.68019000  0.11599000  1.0 -0.4678912977
N  N79  1  0.11599000  0.84331000  0.36051000  1.0 -0.4678912977
N  N80  1  0.68019000  0.36051000  0.84331000  1.0 -0.4678912977
N  N81  1  0.68019000  0.84331000  0.11599000  1.0 -0.4678912977
N  N82  1  0.11599000  0.36051000  0.68019000  1.0 -0.4678912977
N  N83  1  0.36051000  0.11599000  0.84331000  1.0 -0.4678912977
N  N84  1  0.84331000  0.68019000  0.36051000  1.0 -0.4678912977
N  N85  1  0.13401000  0.56981000  0.88949000  1.0 -0.4678912977
N  N86  1  0.56981000  0.13401000  0.40669000  1.0 -0.4678912977
N  N87  1  0.40669000  0.88949000  0.56981000  1.0 -0.4678912977
N  N88  1  0.88949000  0.40669000  0.13401000  1.0 -0.4678912977
N  N89  1  0.40669000  0.13401000  0.88949000  1.0 -0.4678912977
N  N90  1  0.88949000  0.56981000  0.40669000  1.0 -0.4678912977
N  N91  1  0.13401000  0.40669000  0.56981000  1.0 -0.4678912977
N  N92  1  0.56981000  0.88949000  0.13401000  1.0 -0.4678912977
N  N93  1  0.56981000  0.40669000  0.88949000  1.0 -0.4678912977
N  N94  1  0.13401000  0.88949000  0.40669000  1.0 -0.4678912977
N  N95  1  0.88949000  0.13401000  0.56981000  1.0 -0.4678912977
N  N96  1  0.40669000  0.56981000  0.13401000  1.0 -0.4678912977
N  N97  1  0.66861000  0.11653000  0.83483000  1.0 -0.2023702456
N  N98  1  0.11653000  0.66861000  0.38003000  1.0 -0.2023702456
N  N99  1  0.83483000  0.38003000  0.66861000  1.0 -0.2023702456
N  N100  1  0.38003000  0.83483000  0.11653000  1.0 -0.2023702456
N  N101  1  0.83483000  0.66861000  0.11653000  1.0 -0.2023702456
N  N102  1  0.38003000  0.11653000  0.66861000  1.0 -0.2023702456
N  N103  1  0.66861000  0.83483000  0.38003000  1.0 -0.2023702456
N  N104  1  0.11653000  0.38003000  0.83483000  1.0 -0.2023702456
N  N105  1  0.11653000  0.83483000  0.66861000  1.0 -0.2023702456
N  N106  1  0.66861000  0.38003000  0.11653000  1.0 -0.2023702456
N  N107  1  0.38003000  0.66861000  0.83483000  1.0 -0.2023702456
N  N108  1  0.83483000  0.11653000  0.38003000  1.0 -0.2023702456
N  N109  1  0.58139000  0.13347000  0.86997000  1.0 -0.2023702456
N  N110  1  0.13347000  0.58139000  0.41517000  1.0 -0.2023702456
N  N111  1  0.41517000  0.86997000  0.13347000  1.0 -0.2023702456
N  N112  1  0.86997000  0.41517000  0.58139000  1.0 -0.2023702456
N  N113  1  0.41517000  0.58139000  0.86997000  1.0 -0.2023702456
N  N114  1  0.86997000  0.13347000  0.41517000  1.0 -0.2023702456
N  N115  1  0.58139000  0.41517000  0.13347000  1.0 -0.2023702456
N  N116  1  0.13347000  0.86997000  0.58139000  1.0 -0.2023702456
N  N117  1  0.13347000  0.41517000  0.86997000  1.0 -0.2023702456
N  N118  1  0.58139000  0.86997000  0.41517000  1.0 -0.2023702456
N  N119  1  0.86997000  0.58139000  0.13347000  1.0 -0.2023702456
N  N120  1  0.41517000  0.13347000  0.58139000  1.0 -0.2023702456
N  N121  1  0.08139000  0.63347000  0.91517000  1.0 -0.2023702456
N  N122  1  0.63347000  0.08139000  0.36997000  1.0 -0.2023702456
N  N123  1  0.91517000  0.36997000  0.08139000  1.0 -0.2023702456
N  N124  1  0.36997000  0.91517000  0.63347000  1.0 -0.2023702456
N  N125  1  0.91517000  0.08139000  0.63347000  1.0 -0.2023702456
N  N126  1  0.36997000  0.63347000  0.08139000  1.0 -0.2023702456
N  N127  1  0.08139000  0.91517000  0.36997000  1.0 -0.2023702456
N  N128  1  0.63347000  0.36997000  0.91517000  1.0 -0.2023702456
N  N129  1  0.63347000  0.91517000  0.08139000  1.0 -0.2023702456
N  N130  1  0.08139000  0.36997000  0.63347000  1.0 -0.2023702456
N  N131  1  0.36997000  0.08139000  0.91517000  1.0 -0.2023702456
N  N132  1  0.91517000  0.63347000  0.36997000  1.0 -0.2023702456
N  N133  1  0.16861000  0.61653000  0.88003000  1.0 -0.2023702456
N  N134  1  0.61653000  0.16861000  0.33483000  1.0 -0.2023702456
N  N135  1  0.33483000  0.88003000  0.61653000  1.0 -0.2023702456
N  N136  1  0.88003000  0.33483000  0.16861000  1.0 -0.2023702456
N  N137  1  0.33483000  0.16861000  0.88003000  1.0 -0.2023702456
N  N138  1  0.88003000  0.61653000  0.33483000  1.0 -0.2023702456
N  N139  1  0.16861000  0.33483000  0.61653000  1.0 -0.2023702456
N  N140  1  0.61653000  0.88003000  0.16861000  1.0 -0.2023702456
N  N141  1  0.61653000  0.33483000  0.88003000  1.0 -0.2023702456
N  N142  1  0.16861000  0.88003000  0.33483000  1.0 -0.2023702456
N  N143  1  0.88003000  0.16861000  0.61653000  1.0 -0.2023702456
N  N144  1  0.33483000  0.61653000  0.16861000  1.0 -0.2023702456
N  N145  1  0.72340000  0.16844000  0.70774000  1.0 -0.4021158055
N  N146  1  0.16844000  0.72340000  0.40042000  1.0 -0.4021158055
N  N147  1  0.70774000  0.40042000  0.72340000  1.0 -0.4021158055
N  N148  1  0.40042000  0.70774000  0.16844000  1.0 -0.4021158055
N  N149  1  0.70774000  0.72340000  0.16844000  1.0 -0.4021158055
N  N150  1  0.40042000  0.16844000  0.72340000  1.0 -0.4021158055
N  N151  1  0.72340000  0.70774000  0.40042000  1.0 -0.4021158055
N  N152  1  0.16844000  0.40042000  0.70774000  1.0 -0.4021158055
N  N153  1  0.16844000  0.70774000  0.72340000  1.0 -0.4021158055
N  N154  1  0.72340000  0.40042000  0.16844000  1.0 -0.4021158055
N  N155  1  0.40042000  0.72340000  0.70774000  1.0 -0.4021158055
N  N156  1  0.70774000  0.16844000  0.40042000  1.0 -0.4021158055
N  N157  1  0.52660000  0.08156000  0.84958000  1.0 -0.4021158055
N  N158  1  0.08156000  0.52660000  0.54226000  1.0 -0.4021158055
N  N159  1  0.54226000  0.84958000  0.08156000  1.0 -0.4021158055
N  N160  1  0.84958000  0.54226000  0.52660000  1.0 -0.4021158055
N  N161  1  0.54226000  0.52660000  0.84958000  1.0 -0.4021158055
N  N162  1  0.84958000  0.08156000  0.54226000  1.0 -0.4021158055
N  N163  1  0.52660000  0.54226000  0.08156000  1.0 -0.4021158055
N  N164  1  0.08156000  0.84958000  0.52660000  1.0 -0.4021158055
N  N165  1  0.08156000  0.54226000  0.84958000  1.0 -0.4021158055
N  N166  1  0.52660000  0.84958000  0.54226000  1.0 -0.4021158055
N  N167  1  0.84958000  0.52660000  0.08156000  1.0 -0.4021158055
N  N168  1  0.54226000  0.08156000  0.52660000  1.0 -0.4021158055
N  N169  1  0.02660000  0.58156000  0.04226000  1.0 -0.4021158055
N  N170  1  0.58156000  0.02660000  0.34958000  1.0 -0.4021158055
N  N171  1  0.04226000  0.34958000  0.02660000  1.0 -0.4021158055
N  N172  1  0.34958000  0.04226000  0.58156000  1.0 -0.4021158055
N  N173  1  0.04226000  0.02660000  0.58156000  1.0 -0.4021158055
N  N174  1  0.34958000  0.58156000  0.02660000  1.0 -0.4021158055
N  N175  1  0.02660000  0.04226000  0.34958000  1.0 -0.4021158055
N  N176  1  0.58156000  0.34958000  0.04226000  1.0 -0.4021158055
N  N177  1  0.58156000  0.04226000  0.02660000  1.0 -0.4021158055
N  N178  1  0.02660000  0.34958000  0.58156000  1.0 -0.4021158055
N  N179  1  0.34958000  0.02660000  0.04226000  1.0 -0.4021158055
N  N180  1  0.04226000  0.58156000  0.34958000  1.0 -0.4021158055
N  N181  1  0.22340000  0.66844000  0.90042000  1.0 -0.4021158055
N  N182  1  0.66844000  0.22340000  0.20774000  1.0 -0.4021158055
N  N183  1  0.20774000  0.90042000  0.66844000  1.0 -0.4021158055
N  N184  1  0.90042000  0.20774000  0.22340000  1.0 -0.4021158055
N  N185  1  0.20774000  0.22340000  0.90042000  1.0 -0.4021158055
N  N186  1  0.90042000  0.66844000  0.20774000  1.0 -0.4021158055
N  N187  1  0.22340000  0.20774000  0.66844000  1.0 -0.4021158055
N  N188  1  0.66844000  0.90042000  0.22340000  1.0 -0.4021158055
N  N189  1  0.66844000  0.20774000  0.90042000  1.0 -0.4021158055
N  N190  1  0.22340000  0.90042000  0.20774000  1.0 -0.4021158055
N  N191  1  0.90042000  0.22340000  0.66844000  1.0 -0.4021158055
N  N192  1  0.20774000  0.66844000  0.22340000  1.0 -0.4081731515
N  N193  1  0.66961000  0.20323000  0.73993000  1.0 -0.4021158055
N  N194  1  0.20323000  0.66961000  0.38723000  1.0 -0.4021158055
N  N195  1  0.73993000  0.38723000  0.66961000  1.0 -0.4021158055
N  N196  1  0.38723000  0.73993000  0.20323000  1.0 -0.4081731515
N  N197  1  0.73993000  0.66961000  0.20323000  1.0 -0.4021158055
N  N198  1  0.38723000  0.20323000  0.66961000  1.0 -0.4021158055
N  N199  1  0.66961000  0.73993000  0.38723000  1.0 -0.4021158055
N  N200  1  0.20323000  0.38723000  0.73993000  1.0 -0.4021158055
N  N201  1  0.20323000  0.73993000  0.66961000  1.0 -0.4021158055
N  N202  1  0.66961000  0.38723000  0.20323000  1.0 -0.4081731515
N  N203  1  0.38723000  0.66961000  0.73993000  1.0 -0.4021158055
N  N204  1  0.73993000  0.20323000  0.38723000  1.0 -0.4021158055
N  N205  1  0.58039000  0.04677000  0.86277000  1.0 -0.4021158055
N  N206  1  0.04677000  0.58039000  0.51007000  1.0 -0.4021158055
N  N207  1  0.51007000  0.86277000  0.04677000  1.0 -0.4021158055
N  N208  1  0.86277000  0.51007000  0.58039000  1.0 -0.4021158055
N  N209  1  0.51007000  0.58039000  0.86277000  1.0 -0.4021158055
N  N210  1  0.86277000  0.04677000  0.51007000  1.0 -0.4021158055
N  N211  1  0.58039000  0.51007000  0.04677000  1.0 -0.4021158055
N  N212  1  0.04677000  0.86277000  0.58039000  1.0 -0.4021158055
N  N213  1  0.04677000  0.51007000  0.86277000  1.0 -0.4021158055
N  N214  1  0.58039000  0.86277000  0.51007000  1.0 -0.4021158055
N  N215  1  0.86277000  0.58039000  0.04677000  1.0 -0.4021158055
N  N216  1  0.51007000  0.04677000  0.58039000  1.0 -0.4081731515
N  N217  1  0.08039000  0.54677000  0.01007000  1.0 -0.4021158055
N  N218  1  0.54677000  0.08039000  0.36277000  1.0 -0.4021158055
N  N219  1  0.01007000  0.36277000  0.08039000  1.0 -0.4021158055
N  N220  1  0.36277000  0.01007000  0.54677000  1.0 -0.4021158055
N  N221  1  0.01007000  0.08039000  0.54677000  1.0 -0.4021158055
N  N222  1  0.36277000  0.54677000  0.08039000  1.0 -0.4021158055
N  N223  1  0.08039000  0.01007000  0.36277000  1.0 -0.4021158055
N  N224  1  0.54677000  0.36277000  0.01007000  1.0 -0.4081731515
N  N225  1  0.54677000  0.01007000  0.08039000  1.0 -0.4021158055
N  N226  1  0.08039000  0.36277000  0.54677000  1.0 -0.4021158055
N  N227  1  0.36277000  0.08039000  0.01007000  1.0 -0.4081731515
N  N228  1  0.01007000  0.54677000  0.36277000  1.0 -0.4021158055
N  N229  1  0.16961000  0.70323000  0.88723000  1.0 -0.4021158055
N  N230  1  0.70323000  0.16961000  0.23993000  1.0 -0.4081731515
N  N231  1  0.23993000  0.88723000  0.70323000  1.0 -0.4021158055
N  N232  1  0.88723000  0.23993000  0.16961000  1.0 -0.4081731515
N  N233  1  0.23993000  0.16961000  0.88723000  1.0 -0.4021158055
N  N234  1  0.88723000  0.70323000  0.23993000  1.0 -0.4021158055
N  N235  1  0.16961000  0.23993000  0.70323000  1.0 -0.4021158055
N  N236  1  0.70323000  0.88723000  0.16961000  1.0 -0.4081731515
N  N237  1  0.70323000  0.23993000  0.88723000  1.0 -0.4021158055
N  N238  1  0.16961000  0.88723000  0.23993000  1.0 -0.4021158055
N  N239  1  0.88723000  0.16961000  0.70323000  1.0 -0.4021158055
N  N240  1  0.23993000  0.70323000  0.16961000  1.0 -0.4021158055
N  N241  1  0.69631000  0.22877000  0.67671000  1.0 -0.4081731515
N  N242  1  0.22877000  0.69631000  0.39821000  1.0 -0.4081731515
N  N243  1  0.67671000  0.39821000  0.69631000  1.0 -0.4081731515
N  N244  1  0.39821000  0.67671000  0.22877000  1.0 -0.4081731515
N  N245  1  0.67671000  0.69631000  0.22877000  1.0 -0.4081731515
N  N246  1  0.39821000  0.22877000  0.69631000  1.0 -0.4081731515
N  N247  1  0.69631000  0.67671000  0.39821000  1.0 -0.4081731515
N  N248  1  0.22877000  0.39821000  0.67671000  1.0 -0.4081731515
N  N249  1  0.22877000  0.67671000  0.69631000  1.0 -0.4081731515
N  N250  1  0.69631000  0.39821000  0.22877000  1.0 -0.4081731515
N  N251  1  0.39821000  0.69631000  0.67671000  1.0 -0.4021158055
N  N252  1  0.67671000  0.22877000  0.39821000  1.0 -0.4081731515
N  N253  1  0.55369000  0.02123000  0.85179000  1.0 -0.4081731515
N  N254  1  0.02123000  0.55369000  0.57329000  1.0 -0.4021158055
N  N255  1  0.57329000  0.85179000  0.02123000  1.0 -0.4021158055
N  N256  1  0.85179000  0.57329000  0.55369000  1.0 -0.4081731515
N  N257  1  0.57329000  0.55369000  0.85179000  1.0 -0.4021158055
N  N258  1  0.85179000  0.02123000  0.57329000  1.0 -0.4081731515
N  N259  1  0.55369000  0.57329000  0.02123000  1.0 -0.4081731515
N  N260  1  0.02123000  0.85179000  0.55369000  1.0 -0.4081731515
N  N261  1  0.02123000  0.57329000  0.85179000  1.0 -0.4021158055
N  N262  1  0.55369000  0.85179000  0.57329000  1.0 -0.4081731515
N  N263  1  0.85179000  0.55369000  0.02123000  1.0 -0.4081731515
N  N264  1  0.57329000  0.02123000  0.55369000  1.0 -0.4081731515
N  N265  1  0.05369000  0.52123000  0.07329000  1.0 -0.4081731515
N  N266  1  0.52123000  0.05369000  0.35179000  1.0 -0.4081731515
N  N267  1  0.07329000  0.35179000  0.05369000  1.0 -0.4081731515
N  N268  1  0.35179000  0.07329000  0.52123000  1.0 -0.4081731515
N  N269  1  0.07329000  0.05369000  0.52123000  1.0 -0.4081731515
N  N270  1  0.35179000  0.52123000  0.05369000  1.0 -0.4081731515
N  N271  1  0.05369000  0.07329000  0.35179000  1.0 -0.4021158055
N  N272  1  0.52123000  0.35179000  0.07329000  1.0 -0.4081731515
N  N273  1  0.52123000  0.07329000  0.05369000  1.0 -0.4081731515
N  N274  1  0.05369000  0.35179000  0.52123000  1.0 -0.4081731515
N  N275  1  0.35179000  0.05369000  0.07329000  1.0 -0.4081731515
N  N276  1  0.07329000  0.52123000  0.35179000  1.0 -0.4021158055
N  N277  1  0.19631000  0.72877000  0.89821000  1.0 -0.4081731515
N  N278  1  0.72877000  0.19631000  0.17671000  1.0 -0.4081731515
N  N279  1  0.17671000  0.89821000  0.72877000  1.0 -0.4081731515
N  N280  1  0.89821000  0.17671000  0.19631000  1.0 -0.4081731515
N  N281  1  0.17671000  0.19631000  0.89821000  1.0 -0.4081731515
N  N282  1  0.89821000  0.72877000  0.17671000  1.0 -0.4081731515
N  N283  1  0.19631000  0.17671000  0.72877000  1.0 -0.4081731515
N  N284  1  0.72877000  0.89821000  0.19631000  1.0 -0.4081731515
N  N285  1  0.72877000  0.17671000  0.89821000  1.0 -0.4081731515
N  N286  1  0.19631000  0.89821000  0.17671000  1.0 -0.4081731515
N  N287  1  0.89821000  0.19631000  0.72877000  1.0 -0.4081731515
N  N288  1  0.17671000  0.72877000  0.19631000  1.0 -0.4081731515
N  N289  1  0.62235000  0.32913000  0.67741000  1.0 -0.2023702456
N  N290  1  0.32913000  0.62235000  0.37111000  1.0 -0.2023702456
N  N291  1  0.67741000  0.37111000  0.62235000  1.0 -0.2023702456
N  N292  1  0.37111000  0.67741000  0.32913000  1.0 -0.2023702456
N  N293  1  0.67741000  0.62235000  0.32913000  1.0 -0.2023702456
N  N294  1  0.37111000  0.32913000  0.62235000  1.0 -0.2023702456
N  N295  1  0.62235000  0.67741000  0.37111000  1.0 -0.2023702456
N  N296  1  0.32913000  0.37111000  0.67741000  1.0 -0.2023702456
N  N297  1  0.32913000  0.67741000  0.62235000  1.0 -0.2023702456
N  N298  1  0.62235000  0.37111000  0.32913000  1.0 -0.2023702456
N  N299  1  0.37111000  0.62235000  0.67741000  1.0 -0.2023702456
N  N300  1  0.67741000  0.32913000  0.37111000  1.0 -0.2023702456
N  N301  1  0.62765000  0.92087000  0.87889000  1.0 -0.2023702456
N  N302  1  0.92087000  0.62765000  0.57259000  1.0 -0.2023702456
N  N303  1  0.57259000  0.87889000  0.92087000  1.0 -0.2023702456
N  N304  1  0.87889000  0.57259000  0.62765000  1.0 -0.2023702456
N  N305  1  0.57259000  0.62765000  0.87889000  1.0 -0.2023702456
N  N306  1  0.87889000  0.92087000  0.57259000  1.0 -0.2023702456
N  N307  1  0.62765000  0.57259000  0.92087000  1.0 -0.2023702456
N  N308  1  0.92087000  0.87889000  0.62765000  1.0 -0.2023702456
N  N309  1  0.92087000  0.57259000  0.87889000  1.0 -0.2023702456
N  N310  1  0.62765000  0.87889000  0.57259000  1.0 -0.2023702456
N  N311  1  0.87889000  0.62765000  0.92087000  1.0 -0.2023702456
N  N312  1  0.57259000  0.92087000  0.62765000  1.0 -0.2023702456
N  N313  1  0.12765000  0.42087000  0.07259000  1.0 -0.2023702456
N  N314  1  0.42087000  0.12765000  0.37889000  1.0 -0.2023702456
N  N315  1  0.07259000  0.37889000  0.12765000  1.0 -0.2023702456
N  N316  1  0.37889000  0.07259000  0.42087000  1.0 -0.2023702456
N  N317  1  0.07259000  0.12765000  0.42087000  1.0 -0.2023702456
N  N318  1  0.37889000  0.42087000  0.12765000  1.0 -0.2023702456
N  N319  1  0.12765000  0.07259000  0.37889000  1.0 -0.2023702456
N  N320  1  0.42087000  0.37889000  0.07259000  1.0 -0.2023702456
N  N321  1  0.42087000  0.07259000  0.12765000  1.0 -0.2023702456
N  N322  1  0.12765000  0.37889000  0.42087000  1.0 -0.2023702456
N  N323  1  0.37889000  0.12765000  0.07259000  1.0 -0.2023702456
N  N324  1  0.07259000  0.42087000  0.37889000  1.0 -0.2023702456
N  N325  1  0.12235000  0.82913000  0.87111000  1.0 -0.2023702456
N  N326  1  0.82913000  0.12235000  0.17741000  1.0 -0.2023702456
N  N327  1  0.17741000  0.87111000  0.82913000  1.0 -0.2023702456
N  N328  1  0.87111000  0.17741000  0.12235000  1.0 -0.2023702456
N  N329  1  0.17741000  0.12235000  0.87111000  1.0 -0.2023702456
N  N330  1  0.87111000  0.82913000  0.17741000  1.0 -0.2023702456
N  N331  1  0.12235000  0.17741000  0.82913000  1.0 -0.2023702456
N  N332  1  0.82913000  0.87111000  0.12235000  1.0 -0.2023702456
N  N333  1  0.82913000  0.17741000  0.87111000  1.0 -0.2023702456
N  N334  1  0.12235000  0.87111000  0.17741000  1.0 -0.2023702456
N  N335  1  0.87111000  0.12235000  0.82913000  1.0 -0.2023702456
N  N336  1  0.17741000  0.82913000  0.12235000  1.0 -0.2023702456
N  N337  1  0.63099000  0.42069000  0.57835000  1.0 -0.2094510272
N  N338  1  0.42069000  0.63099000  0.36997000  1.0 -0.2094510272
N  N339  1  0.57835000  0.36997000  0.63099000  1.0 -0.2094510272
N  N340  1  0.36997000  0.57835000  0.42069000  1.0 -0.2094510272
N  N341  1  0.57835000  0.63099000  0.42069000  1.0 -0.2094510272
N  N342  1  0.36997000  0.42069000  0.63099000  1.0 -0.2094510272
N  N343  1  0.63099000  0.57835000  0.36997000  1.0 -0.2094510272
N  N344  1  0.42069000  0.36997000  0.57835000  1.0 -0.2094510272
N  N345  1  0.42069000  0.57835000  0.63099000  1.0 -0.2094510272
N  N346  1  0.63099000  0.36997000  0.42069000  1.0 -0.2094510272
N  N347  1  0.36997000  0.63099000  0.57835000  1.0 -0.2094510272
N  N348  1  0.57835000  0.42069000  0.36997000  1.0 -0.2094510272
N  N349  1  0.61901000  0.82931000  0.88003000  1.0 -0.2094510272
N  N350  1  0.82931000  0.61901000  0.67165000  1.0 -0.2094510272
N  N351  1  0.67165000  0.88003000  0.82931000  1.0 -0.2094510272
N  N352  1  0.88003000  0.67165000  0.61901000  1.0 -0.2094510272
N  N353  1  0.67165000  0.61901000  0.88003000  1.0 -0.2094510272
N  N354  1  0.88003000  0.82931000  0.67165000  1.0 -0.2094510272
N  N355  1  0.61901000  0.67165000  0.82931000  1.0 -0.2094510272
N  N356  1  0.82931000  0.88003000  0.61901000  1.0 -0.2094510272
N  N357  1  0.82931000  0.67165000  0.88003000  1.0 -0.2094510272
N  N358  1  0.61901000  0.88003000  0.67165000  1.0 -0.2094510272
N  N359  1  0.88003000  0.61901000  0.82931000  1.0 -0.2094510272
N  N360  1  0.67165000  0.82931000  0.61901000  1.0 -0.2094510272
N  N361  1  0.11901000  0.32931000  0.17165000  1.0 -0.2094510272
N  N362  1  0.32931000  0.11901000  0.38003000  1.0 -0.2094510272
N  N363  1  0.17165000  0.38003000  0.11901000  1.0 -0.2094510272
N  N364  1  0.38003000  0.17165000  0.32931000  1.0 -0.2094510272
N  N365  1  0.17165000  0.11901000  0.32931000  1.0 -0.2094510272
N  N366  1  0.38003000  0.32931000  0.11901000  1.0 -0.2094510272
N  N367  1  0.11901000  0.17165000  0.38003000  1.0 -0.2094510272
N  N368  1  0.32931000  0.38003000  0.17165000  1.0 -0.2094510272
N  N369  1  0.32931000  0.17165000  0.11901000  1.0 -0.2094510272
N  N370  1  0.11901000  0.38003000  0.32931000  1.0 -0.2094510272
N  N371  1  0.38003000  0.11901000  0.17165000  1.0 -0.2094510272
N  N372  1  0.17165000  0.32931000  0.38003000  1.0 -0.2094510272
N  N373  1  0.13099000  0.92069000  0.86997000  1.0 -0.2094510272
N  N374  1  0.92069000  0.13099000  0.07835000  1.0 -0.2094510272
N  N375  1  0.07835000  0.86997000  0.92069000  1.0 -0.2094510272
N  N376  1  0.86997000  0.07835000  0.13099000  1.0 -0.2094510272
N  N377  1  0.07835000  0.13099000  0.86997000  1.0 -0.2094510272
N  N378  1  0.86997000  0.92069000  0.07835000  1.0 -0.2094510272
N  N379  1  0.13099000  0.07835000  0.92069000  1.0 -0.2094510272
N  N380  1  0.92069000  0.86997000  0.13099000  1.0 -0.2094510272
N  N381  1  0.92069000  0.07835000  0.86997000  1.0 -0.2094510272
N  N382  1  0.13099000  0.86997000  0.07835000  1.0 -0.2094510272
N  N383  1  0.86997000  0.13099000  0.92069000  1.0 -0.2094510272
N  N384  1  0.07835000  0.92069000  0.13099000  1.0 -0.2094510272
N  N385  1  0.65598000  0.33988000  0.59606000  1.0 -0.4678912977
N  N386  1  0.33988000  0.65598000  0.40808000  1.0 -0.4632764183
N  N387  1  0.59606000  0.40808000  0.65598000  1.0 -0.4678912977
N  N388  1  0.40808000  0.59606000  0.33988000  1.0 -0.4632764183
N  N389  1  0.59606000  0.65598000  0.33988000  1.0 -0.4678912977
N  N390  1  0.40808000  0.33988000  0.65598000  1.0 -0.4678912977
N  N391  1  0.65598000  0.59606000  0.40808000  1.0 -0.4632764183
N  N392  1  0.33988000  0.40808000  0.59606000  1.0 -0.4632764183
N  N393  1  0.33988000  0.59606000  0.65598000  1.0 -0.4632764183
N  N394  1  0.65598000  0.40808000  0.33988000  1.0 -0.4678912977
N  N395  1  0.40808000  0.65598000  0.59606000  1.0 -0.4632764183
N  N396  1  0.59606000  0.33988000  0.40808000  1.0 -0.4632764183
N  N397  1  0.59402000  0.91012000  0.84192000  1.0 -0.4632764183
N  N398  1  0.91012000  0.59402000  0.65394000  1.0 -0.4678912977
N  N399  1  0.65394000  0.84192000  0.91012000  1.0 -0.4632764183
N  N400  1  0.84192000  0.65394000  0.59402000  1.0 -0.4678912977
N  N401  1  0.65394000  0.59402000  0.84192000  1.0 -0.4632764183
N  N402  1  0.84192000  0.91012000  0.65394000  1.0 -0.4678912977
N  N403  1  0.59402000  0.65394000  0.91012000  1.0 -0.4632764183
N  N404  1  0.91012000  0.84192000  0.59402000  1.0 -0.4632764183
N  N405  1  0.91012000  0.65394000  0.84192000  1.0 -0.4632764183
N  N406  1  0.59402000  0.84192000  0.65394000  1.0 -0.4678912977
N  N407  1  0.84192000  0.59402000  0.91012000  1.0 -0.4632764183
N  N408  1  0.65394000  0.91012000  0.59402000  1.0 -0.4632764183
N  N409  1  0.09402000  0.41012000  0.15394000  1.0 -0.4632764183
N  N410  1  0.41012000  0.09402000  0.34192000  1.0 -0.4678912977
N  N411  1  0.15394000  0.34192000  0.09402000  1.0 -0.4632764183
N  N412  1  0.34192000  0.15394000  0.41012000  1.0 -0.4678912977
N  N413  1  0.15394000  0.09402000  0.41012000  1.0 -0.4632764183
N  N414  1  0.34192000  0.41012000  0.09402000  1.0 -0.4678912977
N  N415  1  0.09402000  0.15394000  0.34192000  1.0 -0.4678912977
N  N416  1  0.41012000  0.34192000  0.15394000  1.0 -0.4678912977
N  N417  1  0.41012000  0.15394000  0.09402000  1.0 -0.4678912977
N  N418  1  0.09402000  0.34192000  0.41012000  1.0 -0.4678912977
N  N419  1  0.34192000  0.09402000  0.15394000  1.0 -0.4678912977
N  N420  1  0.15394000  0.41012000  0.34192000  1.0 -0.4678912977
N  N421  1  0.15598000  0.83988000  0.90808000  1.0 -0.4632764183
N  N422  1  0.83988000  0.15598000  0.09606000  1.0 -0.4678912977
N  N423  1  0.09606000  0.90808000  0.83988000  1.0 -0.4678912977
N  N424  1  0.90808000  0.09606000  0.15598000  1.0 -0.4678912977
N  N425  1  0.09606000  0.15598000  0.90808000  1.0 -0.4632764183
N  N426  1  0.90808000  0.83988000  0.09606000  1.0 -0.4678912977
N  N427  1  0.15598000  0.09606000  0.83988000  1.0 -0.4678912977
N  N428  1  0.83988000  0.90808000  0.15598000  1.0 -0.4678912977
N  N429  1  0.83988000  0.09606000  0.90808000  1.0 -0.4632764183
N  N430  1  0.15598000  0.90808000  0.09606000  1.0 -0.4678912977
N  N431  1  0.90808000  0.15598000  0.83988000  1.0 -0.4678912977
N  N432  1  0.09606000  0.83988000  0.15598000  1.0 -0.4678912977
N  N433  1  0.64093000  0.42221000  0.48281000  1.0 -0.4081731515
N  N434  1  0.42221000  0.64093000  0.45405000  1.0 -0.4081731515
N  N435  1  0.48281000  0.45405000  0.64093000  1.0 -0.4081731515
N  N436  1  0.45405000  0.48281000  0.42221000  1.0 -0.4081731515
N  N437  1  0.48281000  0.64093000  0.42221000  1.0 -0.4081731515
N  N438  1  0.45405000  0.42221000  0.64093000  1.0 -0.4081731515
N  N439  1  0.64093000  0.48281000  0.45405000  1.0 -0.4081731515
N  N440  1  0.42221000  0.45405000  0.48281000  1.0 -0.4081731515
N  N441  1  0.42221000  0.48281000  0.64093000  1.0 -0.4081731515
N  N442  1  0.64093000  0.45405000  0.42221000  1.0 -0.4081731515
N  N443  1  0.45405000  0.64093000  0.48281000  1.0 -0.4081731515
N  N444  1  0.48281000  0.42221000  0.45405000  1.0 -0.4081731515
N  N445  1  0.60907000  0.82779000  0.79595000  1.0 -0.4081731515
N  N446  1  0.82779000  0.60907000  0.76719000  1.0 -0.4081731515
N  N447  1  0.76719000  0.79595000  0.82779000  1.0 -0.4081731515
N  N448  1  0.79595000  0.76719000  0.60907000  1.0 -0.4081731515
N  N449  1  0.76719000  0.60907000  0.79595000  1.0 -0.4081731515
N  N450  1  0.79595000  0.82779000  0.76719000  1.0 -0.4081731515
N  N451  1  0.60907000  0.76719000  0.82779000  1.0 -0.4081731515
N  N452  1  0.82779000  0.79595000  0.60907000  1.0 -0.4081731515
N  N453  1  0.82779000  0.76719000  0.79595000  1.0 -0.4081731515
N  N454  1  0.60907000  0.79595000  0.76719000  1.0 -0.4081731515
N  N455  1  0.79595000  0.60907000  0.82779000  1.0 -0.4081731515
N  N456  1  0.76719000  0.82779000  0.60907000  1.0 -0.4081731515
N  N457  1  0.10907000  0.32779000  0.26719000  1.0 -0.4081731515
N  N458  1  0.32779000  0.10907000  0.29595000  1.0 -0.4081731515
N  N459  1  0.26719000  0.29595000  0.10907000  1.0 -0.4081731515
N  N460  1  0.29595000  0.26719000  0.32779000  1.0 -0.4081731515
N  N461  1  0.26719000  0.10907000  0.32779000  1.0 -0.4081731515
N  N462  1  0.29595000  0.32779000  0.10907000  1.0 -0.4081731515
N  N463  1  0.10907000  0.26719000  0.29595000  1.0 -0.4081731515
N  N464  1  0.32779000  0.29595000  0.26719000  1.0 -0.4081731515
N  N465  1  0.32779000  0.26719000  0.10907000  1.0 -0.4081731515
N  N466  1  0.10907000  0.29595000  0.32779000  1.0 -0.4081731515
N  N467  1  0.29595000  0.10907000  0.26719000  1.0 -0.4081731515
N  N468  1  0.26719000  0.32779000  0.29595000  1.0 -0.4081731515
N  N469  1  0.14093000  0.92221000  0.95405000  1.0 -0.4081731515
N  N470  1  0.92221000  0.14093000  0.98281000  1.0 -0.4081731515
N  N471  1  0.98281000  0.95405000  0.92221000  1.0 -0.4081731515
N  N472  1  0.95405000  0.98281000  0.14093000  1.0 -0.4081731515
N  N473  1  0.98281000  0.14093000  0.95405000  1.0 -0.4081731515
N  N474  1  0.95405000  0.92221000  0.98281000  1.0 -0.4081731515
N  N475  1  0.14093000  0.98281000  0.92221000  1.0 -0.4081731515
N  N476  1  0.92221000  0.95405000  0.14093000  1.0 -0.4081731515
N  N477  1  0.92221000  0.98281000  0.95405000  1.0 -0.4081731515
N  N478  1  0.14093000  0.95405000  0.98281000  1.0 -0.4081731515
N  N479  1  0.95405000  0.14093000  0.92221000  1.0 -0.4081731515
N  N480  1  0.98281000  0.92221000  0.14093000  1.0 -0.4081731515
