# DDEC6 charges by PACMAN v1.1 (https://github.com/mtap-research/PACMAN-charge/)
data_RIVDEH_ASR_pacman
_symmetry_space_group_name_H-M   'P 1'
_cell_length_a   45.18200000
_cell_length_b   45.18200000
_cell_length_c   45.18200000
_cell_angle_alpha   60.00000000
_cell_angle_beta   60.00000000
_cell_angle_gamma   60.00000000
_symmetry_Int_Tables_number   1
_chemical_formula_structural   CoH16C26(SN5)2
_chemical_formula_sum   'Co48 H768 C1248 S96 N480'
_cell_volume   65220.08430876
_cell_formula_units_Z   48
loop_
 _symmetry_equiv_pos_site_id
 _symmetry_equiv_pos_as_xyz
  1  'x, y, z'
loop_
 _atom_site_type_symbol
 _atom_site_label
 _atom_site_symmetry_multiplicity
 _atom_site_fract_x
 _atom_site_fract_y
 _atom_site_fract_z
 _atom_site_occupancy
 _atom_site_charge
Co  Co1  1  0.62500000  0.12500000  0.36404000  1.0 0.6602146621
Co  Co2  1  0.12500000  0.62500000  0.88596000  1.0 0.6665250042
Co  Co3  1  0.36404000  0.88596000  0.62500000  1.0 0.6602146621
Co  Co4  1  0.88596000  0.36404000  0.12500000  1.0 0.6665250042
Co  Co5  1  0.36404000  0.62500000  0.12500000  1.0 0.6602146621
Co  Co6  1  0.88596000  0.12500000  0.62500000  1.0 0.6602146621
Co  Co7  1  0.62500000  0.36404000  0.88596000  1.0 0.6602146621
Co  Co8  1  0.12500000  0.88596000  0.36404000  1.0 0.6602146621
Co  Co9  1  0.12500000  0.36404000  0.62500000  1.0 0.6602146621
Co  Co10  1  0.62500000  0.88596000  0.12500000  1.0 0.6602146621
Co  Co11  1  0.88596000  0.62500000  0.36404000  1.0 0.6602146621
Co  Co12  1  0.36404000  0.12500000  0.88596000  1.0 0.6602146621
Co  Co13  1  0.12500000  0.62500000  0.38596000  1.0 0.6602146621
Co  Co14  1  0.62500000  0.12500000  0.86404000  1.0 0.6602146621
Co  Co15  1  0.38596000  0.86404000  0.12500000  1.0 0.6602146621
Co  Co16  1  0.86404000  0.38596000  0.62500000  1.0 0.6602146621
Co  Co17  1  0.38596000  0.12500000  0.62500000  1.0 0.6602146621
Co  Co18  1  0.86404000  0.62500000  0.12500000  1.0 0.6602146621
Co  Co19  1  0.12500000  0.38596000  0.86404000  1.0 0.6665250042
Co  Co20  1  0.62500000  0.86404000  0.38596000  1.0 0.6602146621
Co  Co21  1  0.62500000  0.38596000  0.12500000  1.0 0.6665250042
Co  Co22  1  0.12500000  0.86404000  0.62500000  1.0 0.6602146621
Co  Co23  1  0.86404000  0.12500000  0.38596000  1.0 0.6602146621
Co  Co24  1  0.38596000  0.62500000  0.86404000  1.0 0.6665250042
Co  Co25  1  0.62719000  0.37281000  0.37281000  1.0 0.6602146621
Co  Co26  1  0.37281000  0.62719000  0.62719000  1.0 0.6602146621
Co  Co27  1  0.37281000  0.62719000  0.37281000  1.0 0.6602146621
Co  Co28  1  0.62719000  0.37281000  0.62719000  1.0 0.6602146621
Co  Co29  1  0.37281000  0.37281000  0.62719000  1.0 0.6602146621
Co  Co30  1  0.62719000  0.62719000  0.37281000  1.0 0.6602146621
Co  Co31  1  0.62281000  0.87719000  0.62281000  1.0 0.6602146621
Co  Co32  1  0.87719000  0.62281000  0.87719000  1.0 0.6602146621
Co  Co33  1  0.87719000  0.62281000  0.62281000  1.0 0.6602146621
Co  Co34  1  0.62281000  0.87719000  0.87719000  1.0 0.6602146621
Co  Co35  1  0.87719000  0.87719000  0.62281000  1.0 0.6602146621
Co  Co36  1  0.62281000  0.62281000  0.87719000  1.0 0.6602146621
Co  Co37  1  0.12281000  0.37719000  0.37719000  1.0 0.6602146621
Co  Co38  1  0.37719000  0.12281000  0.12281000  1.0 0.6602146621
Co  Co39  1  0.37719000  0.12281000  0.37719000  1.0 0.6602146621
Co  Co40  1  0.12281000  0.37719000  0.12281000  1.0 0.6602146621
Co  Co41  1  0.37719000  0.37719000  0.12281000  1.0 0.6602146621
Co  Co42  1  0.12281000  0.12281000  0.37719000  1.0 0.6602146621
Co  Co43  1  0.12719000  0.87281000  0.12719000  1.0 0.6602146621
Co  Co44  1  0.87281000  0.12719000  0.87281000  1.0 0.6602146621
Co  Co45  1  0.87281000  0.12719000  0.12719000  1.0 0.6602146621
Co  Co46  1  0.12719000  0.87281000  0.87281000  1.0 0.6602146621
Co  Co47  1  0.87281000  0.87281000  0.12719000  1.0 0.6602146621
Co  Co48  1  0.12719000  0.12719000  0.87281000  1.0 0.6602146621
H  H1  1  0.78610000  0.15190000  0.39470000  1.0 0.1074859123
H  H2  1  0.15190000  0.78610000  0.66730000  1.0 0.1074859123
H  H3  1  0.39470000  0.66730000  0.78610000  1.0 0.1074859123
H  H4  1  0.66730000  0.39470000  0.15190000  1.0 0.1074859123
H  H5  1  0.39470000  0.78610000  0.15190000  1.0 0.1074859123
H  H6  1  0.66730000  0.15190000  0.78610000  1.0 0.1074859123
H  H7  1  0.78610000  0.39470000  0.66730000  1.0 0.1074859123
H  H8  1  0.15190000  0.66730000  0.39470000  1.0 0.1074859123
H  H9  1  0.15190000  0.39470000  0.78610000  1.0 0.1074859123
H  H10  1  0.78610000  0.66730000  0.15190000  1.0 0.1074859123
H  H11  1  0.66730000  0.78610000  0.39470000  1.0 0.1074859123
H  H12  1  0.39470000  0.15190000  0.66730000  1.0 0.1074859123
H  H13  1  0.46390000  0.09810000  0.58270000  1.0 0.1074859123
H  H14  1  0.09810000  0.46390000  0.85530000  1.0 0.1074859123
H  H15  1  0.85530000  0.58270000  0.09810000  1.0 0.1074859123
H  H16  1  0.58270000  0.85530000  0.46390000  1.0 0.1074859123
H  H17  1  0.85530000  0.46390000  0.58270000  1.0 0.1074859123
H  H18  1  0.58270000  0.09810000  0.85530000  1.0 0.1074859123
H  H19  1  0.46390000  0.85530000  0.09810000  1.0 0.1074859123
H  H20  1  0.09810000  0.58270000  0.46390000  1.0 0.1074859123
H  H21  1  0.09810000  0.85530000  0.58270000  1.0 0.1074859123
H  H22  1  0.46390000  0.58270000  0.85530000  1.0 0.1074859123
H  H23  1  0.58270000  0.46390000  0.09810000  1.0 0.1074859123
H  H24  1  0.85530000  0.09810000  0.46390000  1.0 0.1074859123
H  H25  1  0.96390000  0.59810000  0.35530000  1.0 0.1074859123
H  H26  1  0.59810000  0.96390000  0.08270000  1.0 0.1074859123
H  H27  1  0.35530000  0.08270000  0.96390000  1.0 0.1074859123
H  H28  1  0.08270000  0.35530000  0.59810000  1.0 0.1074859123
H  H29  1  0.35530000  0.96390000  0.59810000  1.0 0.1074859123
H  H30  1  0.08270000  0.59810000  0.96390000  1.0 0.1074859123
H  H31  1  0.96390000  0.35530000  0.08270000  1.0 0.1074859123
H  H32  1  0.59810000  0.08270000  0.35530000  1.0 0.1074859123
H  H33  1  0.59810000  0.35530000  0.96390000  1.0 0.1074859123
H  H34  1  0.96390000  0.08270000  0.59810000  1.0 0.1074859123
H  H35  1  0.08270000  0.96390000  0.35530000  1.0 0.1074859123
H  H36  1  0.35530000  0.59810000  0.08270000  1.0 0.1074859123
H  H37  1  0.28610000  0.65190000  0.16730000  1.0 0.1074859123
H  H38  1  0.65190000  0.28610000  0.89470000  1.0 0.1074859123
H  H39  1  0.89470000  0.16730000  0.65190000  1.0 0.1074859123
H  H40  1  0.16730000  0.89470000  0.28610000  1.0 0.1074859123
H  H41  1  0.89470000  0.28610000  0.16730000  1.0 0.1074859123
H  H42  1  0.16730000  0.65190000  0.89470000  1.0 0.1074859123
H  H43  1  0.28610000  0.89470000  0.65190000  1.0 0.1074859123
H  H44  1  0.65190000  0.16730000  0.28610000  1.0 0.1074859123
H  H45  1  0.65190000  0.89470000  0.16730000  1.0 0.1074859123
H  H46  1  0.28610000  0.16730000  0.89470000  1.0 0.1074859123
H  H47  1  0.16730000  0.28610000  0.65190000  1.0 0.1074859123
H  H48  1  0.89470000  0.65190000  0.28610000  1.0 0.1074859123
H  H49  1  0.72280000  0.23400000  0.43520000  1.0 0.1233444614
H  H50  1  0.23400000  0.72280000  0.60800000  1.0 0.1233444614
H  H51  1  0.43520000  0.60800000  0.72280000  1.0 0.1233444614
H  H52  1  0.60800000  0.43520000  0.23400000  1.0 0.1233444614
H  H53  1  0.43520000  0.72280000  0.23400000  1.0 0.1233444614
H  H54  1  0.60800000  0.23400000  0.72280000  1.0 0.1233444614
H  H55  1  0.72280000  0.43520000  0.60800000  1.0 0.1233444614
H  H56  1  0.23400000  0.60800000  0.43520000  1.0 0.1233444614
H  H57  1  0.23400000  0.43520000  0.72280000  1.0 0.1233444614
H  H58  1  0.72280000  0.60800000  0.23400000  1.0 0.1233444614
H  H59  1  0.60800000  0.72280000  0.43520000  1.0 0.1233444614
H  H60  1  0.43520000  0.23400000  0.60800000  1.0 0.1233444614
H  H61  1  0.52720000  0.01600000  0.64200000  1.0 0.1233444614
H  H62  1  0.01600000  0.52720000  0.81480000  1.0 0.1233444614
H  H63  1  0.81480000  0.64200000  0.01600000  1.0 0.1233444614
H  H64  1  0.64200000  0.81480000  0.52720000  1.0 0.1233444614
H  H65  1  0.81480000  0.52720000  0.64200000  1.0 0.1233444614
H  H66  1  0.64200000  0.01600000  0.81480000  1.0 0.1233444614
H  H67  1  0.52720000  0.81480000  0.01600000  1.0 0.1233444614
H  H68  1  0.01600000  0.64200000  0.52720000  1.0 0.1233444614
H  H69  1  0.01600000  0.81480000  0.64200000  1.0 0.1233444614
H  H70  1  0.52720000  0.64200000  0.81480000  1.0 0.1233444614
H  H71  1  0.64200000  0.52720000  0.01600000  1.0 0.1233444614
H  H72  1  0.81480000  0.01600000  0.52720000  1.0 0.1233444614
H  H73  1  0.02720000  0.51600000  0.31480000  1.0 0.1233444614
H  H74  1  0.51600000  0.02720000  0.14200000  1.0 0.1233444614
H  H75  1  0.31480000  0.14200000  0.02720000  1.0 0.1233444614
H  H76  1  0.14200000  0.31480000  0.51600000  1.0 0.1233444614
H  H77  1  0.31480000  0.02720000  0.51600000  1.0 0.1233444614
H  H78  1  0.14200000  0.51600000  0.02720000  1.0 0.1233444614
H  H79  1  0.02720000  0.31480000  0.14200000  1.0 0.1233444614
H  H80  1  0.51600000  0.14200000  0.31480000  1.0 0.1233444614
H  H81  1  0.51600000  0.31480000  0.02720000  1.0 0.1233444614
H  H82  1  0.02720000  0.14200000  0.51600000  1.0 0.1233444614
H  H83  1  0.14200000  0.02720000  0.31480000  1.0 0.1233444614
H  H84  1  0.31480000  0.51600000  0.14200000  1.0 0.1233444614
H  H85  1  0.22280000  0.73400000  0.10800000  1.0 0.1233444614
H  H86  1  0.73400000  0.22280000  0.93520000  1.0 0.1233444614
H  H87  1  0.93520000  0.10800000  0.73400000  1.0 0.1233444614
H  H88  1  0.10800000  0.93520000  0.22280000  1.0 0.1233444614
H  H89  1  0.93520000  0.22280000  0.10800000  1.0 0.1233444614
H  H90  1  0.10800000  0.73400000  0.93520000  1.0 0.1233444614
H  H91  1  0.22280000  0.93520000  0.73400000  1.0 0.1233444614
H  H92  1  0.73400000  0.10800000  0.22280000  1.0 0.1233444614
H  H93  1  0.73400000  0.93520000  0.10800000  1.0 0.1233444614
H  H94  1  0.22280000  0.10800000  0.93520000  1.0 0.1233444614
H  H95  1  0.10800000  0.22280000  0.73400000  1.0 0.1233444614
H  H96  1  0.93520000  0.73400000  0.22280000  1.0 0.1233444614
H  H97  1  0.77380000  0.22840000  0.44200000  1.0 0.1385509707
H  H98  1  0.22840000  0.77380000  0.55580000  1.0 0.1385509707
H  H99  1  0.44200000  0.55580000  0.77380000  1.0 0.1385509707
H  H100  1  0.55580000  0.44200000  0.22840000  1.0 0.1385509707
H  H101  1  0.44200000  0.77380000  0.22840000  1.0 0.1385509707
H  H102  1  0.55580000  0.22840000  0.77380000  1.0 0.1385509707
H  H103  1  0.77380000  0.44200000  0.55580000  1.0 0.1385509707
H  H104  1  0.22840000  0.55580000  0.44200000  1.0 0.1385509707
H  H105  1  0.22840000  0.44200000  0.77380000  1.0 0.1385509707
H  H106  1  0.77380000  0.55580000  0.22840000  1.0 0.1385509707
H  H107  1  0.55580000  0.77380000  0.44200000  1.0 0.1385509707
H  H108  1  0.44200000  0.22840000  0.55580000  1.0 0.1385509707
H  H109  1  0.47620000  0.02160000  0.69420000  1.0 0.1385509707
H  H110  1  0.02160000  0.47620000  0.80800000  1.0 0.1385509707
H  H111  1  0.80800000  0.69420000  0.02160000  1.0 0.1385509707
H  H112  1  0.69420000  0.80800000  0.47620000  1.0 0.1385509707
H  H113  1  0.80800000  0.47620000  0.69420000  1.0 0.1385509707
H  H114  1  0.69420000  0.02160000  0.80800000  1.0 0.1385509707
H  H115  1  0.47620000  0.80800000  0.02160000  1.0 0.1385509707
H  H116  1  0.02160000  0.69420000  0.47620000  1.0 0.1385509707
H  H117  1  0.02160000  0.80800000  0.69420000  1.0 0.1385509707
H  H118  1  0.47620000  0.69420000  0.80800000  1.0 0.1385509707
H  H119  1  0.69420000  0.47620000  0.02160000  1.0 0.1385509707
H  H120  1  0.80800000  0.02160000  0.47620000  1.0 0.1385509707
H  H121  1  0.97620000  0.52160000  0.30800000  1.0 0.1385509707
H  H122  1  0.52160000  0.97620000  0.19420000  1.0 0.1385509707
H  H123  1  0.30800000  0.19420000  0.97620000  1.0 0.1385509707
H  H124  1  0.19420000  0.30800000  0.52160000  1.0 0.1385509707
H  H125  1  0.30800000  0.97620000  0.52160000  1.0 0.1385509707
H  H126  1  0.19420000  0.52160000  0.97620000  1.0 0.1385509707
H  H127  1  0.97620000  0.30800000  0.19420000  1.0 0.1385509707
H  H128  1  0.52160000  0.19420000  0.30800000  1.0 0.1385509707
H  H129  1  0.52160000  0.30800000  0.97620000  1.0 0.1385509707
H  H130  1  0.97620000  0.19420000  0.52160000  1.0 0.1385509707
H  H131  1  0.19420000  0.97620000  0.30800000  1.0 0.1385509707
H  H132  1  0.30800000  0.52160000  0.19420000  1.0 0.1385509707
H  H133  1  0.27380000  0.72840000  0.05580000  1.0 0.1385509707
H  H134  1  0.72840000  0.27380000  0.94200000  1.0 0.1385509707
H  H135  1  0.94200000  0.05580000  0.72840000  1.0 0.1385509707
H  H136  1  0.05580000  0.94200000  0.27380000  1.0 0.1385509707
H  H137  1  0.94200000  0.27380000  0.05580000  1.0 0.1385509707
H  H138  1  0.05580000  0.72840000  0.94200000  1.0 0.1385509707
H  H139  1  0.27380000  0.94200000  0.72840000  1.0 0.1385509707
H  H140  1  0.72840000  0.05580000  0.27380000  1.0 0.1385509707
H  H141  1  0.72840000  0.94200000  0.05580000  1.0 0.1385509707
H  H142  1  0.27380000  0.05580000  0.94200000  1.0 0.1385509707
H  H143  1  0.05580000  0.27380000  0.72840000  1.0 0.1385509707
H  H144  1  0.94200000  0.72840000  0.27380000  1.0 0.1385509707
H  H145  1  0.82920000  0.18540000  0.42380000  1.0 0.1003082807
H  H146  1  0.18540000  0.82920000  0.56160000  1.0 0.1003082807
H  H147  1  0.42380000  0.56160000  0.82920000  1.0 0.1003082807
H  H148  1  0.56160000  0.42380000  0.18540000  1.0 0.1003082807
H  H149  1  0.42380000  0.82920000  0.18540000  1.0 0.1003082807
H  H150  1  0.56160000  0.18540000  0.82920000  1.0 0.1003082807
H  H151  1  0.82920000  0.42380000  0.56160000  1.0 0.1003082807
H  H152  1  0.18540000  0.56160000  0.42380000  1.0 0.1003082807
H  H153  1  0.18540000  0.42380000  0.82920000  1.0 0.1003082807
H  H154  1  0.82920000  0.56160000  0.18540000  1.0 0.1003082807
H  H155  1  0.56160000  0.82920000  0.42380000  1.0 0.1003082807
H  H156  1  0.42380000  0.18540000  0.56160000  1.0 0.1003082807
H  H157  1  0.42080000  0.06460000  0.68840000  1.0 0.1003082807
H  H158  1  0.06460000  0.42080000  0.82620000  1.0 0.1003082807
H  H159  1  0.82620000  0.68840000  0.06460000  1.0 0.1003082807
H  H160  1  0.68840000  0.82620000  0.42080000  1.0 0.1003082807
H  H161  1  0.82620000  0.42080000  0.68840000  1.0 0.1003082807
H  H162  1  0.68840000  0.06460000  0.82620000  1.0 0.1003082807
H  H163  1  0.42080000  0.82620000  0.06460000  1.0 0.1003082807
H  H164  1  0.06460000  0.68840000  0.42080000  1.0 0.1003082807
H  H165  1  0.06460000  0.82620000  0.68840000  1.0 0.1003082807
H  H166  1  0.42080000  0.68840000  0.82620000  1.0 0.1003082807
H  H167  1  0.68840000  0.42080000  0.06460000  1.0 0.1003082807
H  H168  1  0.82620000  0.06460000  0.42080000  1.0 0.1003082807
H  H169  1  0.92080000  0.56460000  0.32620000  1.0 0.1003082807
H  H170  1  0.56460000  0.92080000  0.18840000  1.0 0.1003082807
H  H171  1  0.32620000  0.18840000  0.92080000  1.0 0.1003082807
H  H172  1  0.18840000  0.32620000  0.56460000  1.0 0.1003082807
H  H173  1  0.32620000  0.92080000  0.56460000  1.0 0.1003082807
H  H174  1  0.18840000  0.56460000  0.92080000  1.0 0.1003082807
H  H175  1  0.92080000  0.32620000  0.18840000  1.0 0.1003082807
H  H176  1  0.56460000  0.18840000  0.32620000  1.0 0.1003082807
H  H177  1  0.56460000  0.32620000  0.92080000  1.0 0.1003082807
H  H178  1  0.92080000  0.18840000  0.56460000  1.0 0.1003082807
H  H179  1  0.18840000  0.92080000  0.32620000  1.0 0.1003082807
H  H180  1  0.32620000  0.56460000  0.18840000  1.0 0.1003082807
H  H181  1  0.32920000  0.68540000  0.06160000  1.0 0.1003082807
H  H182  1  0.68540000  0.32920000  0.92380000  1.0 0.1003082807
H  H183  1  0.92380000  0.06160000  0.68540000  1.0 0.1003082807
H  H184  1  0.06160000  0.92380000  0.32920000  1.0 0.1003082807
H  H185  1  0.92380000  0.32920000  0.06160000  1.0 0.1003082807
H  H186  1  0.06160000  0.68540000  0.92380000  1.0 0.1003082807
H  H187  1  0.32920000  0.92380000  0.68540000  1.0 0.1003082807
H  H188  1  0.68540000  0.06160000  0.32920000  1.0 0.1003082807
H  H189  1  0.68540000  0.92380000  0.06160000  1.0 0.1003082807
H  H190  1  0.32920000  0.06160000  0.92380000  1.0 0.1003082807
H  H191  1  0.06160000  0.32920000  0.68540000  1.0 0.1003082807
H  H192  1  0.92380000  0.68540000  0.32920000  1.0 0.1003082807
H  H193  1  0.69620000  0.06440000  0.38100000  1.0 0.1003082807
H  H194  1  0.06440000  0.69620000  0.85840000  1.0 0.1003082807
H  H195  1  0.38100000  0.85840000  0.69620000  1.0 0.1003082807
H  H196  1  0.85840000  0.38100000  0.06440000  1.0 0.1003082807
H  H197  1  0.38100000  0.69620000  0.06440000  1.0 0.1003082807
H  H198  1  0.85840000  0.06440000  0.69620000  1.0 0.1003082807
H  H199  1  0.69620000  0.38100000  0.85840000  1.0 0.1003082807
H  H200  1  0.06440000  0.85840000  0.38100000  1.0 0.1003082807
H  H201  1  0.06440000  0.38100000  0.69620000  1.0 0.1003082807
H  H202  1  0.69620000  0.85840000  0.06440000  1.0 0.1003082807
H  H203  1  0.85840000  0.69620000  0.38100000  1.0 0.1003082807
H  H204  1  0.38100000  0.06440000  0.85840000  1.0 0.1003082807
H  H205  1  0.55380000  0.18560000  0.39160000  1.0 0.1003082807
H  H206  1  0.18560000  0.55380000  0.86900000  1.0 0.1003082807
H  H207  1  0.86900000  0.39160000  0.18560000  1.0 0.1003082807
H  H208  1  0.39160000  0.86900000  0.55380000  1.0 0.1003082807
H  H209  1  0.86900000  0.55380000  0.39160000  1.0 0.1003082807
H  H210  1  0.39160000  0.18560000  0.86900000  1.0 0.1003082807
H  H211  1  0.55380000  0.86900000  0.18560000  1.0 0.1003082807
H  H212  1  0.18560000  0.39160000  0.55380000  1.0 0.1003082807
H  H213  1  0.18560000  0.86900000  0.39160000  1.0 0.1003082807
H  H214  1  0.55380000  0.39160000  0.86900000  1.0 0.1003082807
H  H215  1  0.39160000  0.55380000  0.18560000  1.0 0.1003082807
H  H216  1  0.86900000  0.18560000  0.55380000  1.0 0.1003082807
H  H217  1  0.05380000  0.68560000  0.36900000  1.0 0.1003082807
H  H218  1  0.68560000  0.05380000  0.89160000  1.0 0.1003082807
H  H219  1  0.36900000  0.89160000  0.05380000  1.0 0.1003082807
H  H220  1  0.89160000  0.36900000  0.68560000  1.0 0.1003082807
H  H221  1  0.36900000  0.05380000  0.68560000  1.0 0.1003082807
H  H222  1  0.89160000  0.68560000  0.05380000  1.0 0.1003082807
H  H223  1  0.05380000  0.36900000  0.89160000  1.0 0.1003082807
H  H224  1  0.68560000  0.89160000  0.36900000  1.0 0.1003082807
H  H225  1  0.68560000  0.36900000  0.05380000  1.0 0.1003082807
H  H226  1  0.05380000  0.89160000  0.68560000  1.0 0.1003082807
H  H227  1  0.89160000  0.05380000  0.36900000  1.0 0.1003082807
H  H228  1  0.36900000  0.68560000  0.89160000  1.0 0.1003082807
H  H229  1  0.19620000  0.56440000  0.35840000  1.0 0.1003082807
H  H230  1  0.56440000  0.19620000  0.88100000  1.0 0.1003082807
H  H231  1  0.88100000  0.35840000  0.56440000  1.0 0.1003082807
H  H232  1  0.35840000  0.88100000  0.19620000  1.0 0.1003082807
H  H233  1  0.88100000  0.19620000  0.35840000  1.0 0.1003082807
H  H234  1  0.35840000  0.56440000  0.88100000  1.0 0.1003082807
H  H235  1  0.19620000  0.88100000  0.56440000  1.0 0.1003082807
H  H236  1  0.56440000  0.35840000  0.19620000  1.0 0.1003082807
H  H237  1  0.56440000  0.88100000  0.35840000  1.0 0.1003082807
H  H238  1  0.19620000  0.35840000  0.88100000  1.0 0.1003082807
H  H239  1  0.35840000  0.19620000  0.56440000  1.0 0.1003082807
H  H240  1  0.88100000  0.56440000  0.19620000  1.0 0.1003082807
H  H241  1  0.74600000  0.05780000  0.39000000  1.0 0.1385509707
H  H242  1  0.05780000  0.74600000  0.80620000  1.0 0.1385509707
H  H243  1  0.39000000  0.80620000  0.74600000  1.0 0.1385509707
H  H244  1  0.80620000  0.39000000  0.05780000  1.0 0.1385509707
H  H245  1  0.39000000  0.74600000  0.05780000  1.0 0.1385509707
H  H246  1  0.80620000  0.05780000  0.74600000  1.0 0.1385509707
H  H247  1  0.74600000  0.39000000  0.80620000  1.0 0.1385509707
H  H248  1  0.05780000  0.80620000  0.39000000  1.0 0.1385509707
H  H249  1  0.05780000  0.39000000  0.74600000  1.0 0.1385509707
H  H250  1  0.74600000  0.80620000  0.05780000  1.0 0.1385509707
H  H251  1  0.80620000  0.74600000  0.39000000  1.0 0.1385509707
H  H252  1  0.39000000  0.05780000  0.80620000  1.0 0.1385509707
H  H253  1  0.50400000  0.19220000  0.44380000  1.0 0.1385509707
H  H254  1  0.19220000  0.50400000  0.86000000  1.0 0.1385509707
H  H255  1  0.86000000  0.44380000  0.19220000  1.0 0.1385509707
H  H256  1  0.44380000  0.86000000  0.50400000  1.0 0.1385509707
H  H257  1  0.86000000  0.50400000  0.44380000  1.0 0.1385509707
H  H258  1  0.44380000  0.19220000  0.86000000  1.0 0.1385509707
H  H259  1  0.50400000  0.86000000  0.19220000  1.0 0.1385509707
H  H260  1  0.19220000  0.44380000  0.50400000  1.0 0.1385509707
H  H261  1  0.19220000  0.86000000  0.44380000  1.0 0.1385509707
H  H262  1  0.50400000  0.44380000  0.86000000  1.0 0.1385509707
H  H263  1  0.44380000  0.50400000  0.19220000  1.0 0.1385509707
H  H264  1  0.86000000  0.19220000  0.50400000  1.0 0.1385509707
H  H265  1  0.00400000  0.69220000  0.36000000  1.0 0.1385509707
H  H266  1  0.69220000  0.00400000  0.94380000  1.0 0.1385509707
H  H267  1  0.36000000  0.94380000  0.00400000  1.0 0.1385509707
H  H268  1  0.94380000  0.36000000  0.69220000  1.0 0.1385509707
H  H269  1  0.36000000  0.00400000  0.69220000  1.0 0.1385509707
H  H270  1  0.94380000  0.69220000  0.00400000  1.0 0.1385509707
H  H271  1  0.00400000  0.36000000  0.94380000  1.0 0.1385509707
H  H272  1  0.69220000  0.94380000  0.36000000  1.0 0.1385509707
H  H273  1  0.69220000  0.36000000  0.00400000  1.0 0.1385509707
H  H274  1  0.00400000  0.94380000  0.69220000  1.0 0.1385509707
H  H275  1  0.94380000  0.00400000  0.36000000  1.0 0.1385509707
H  H276  1  0.36000000  0.69220000  0.94380000  1.0 0.1385509707
H  H277  1  0.24600000  0.55780000  0.30620000  1.0 0.1385509707
H  H278  1  0.55780000  0.24600000  0.89000000  1.0 0.1385509707
H  H279  1  0.89000000  0.30620000  0.55780000  1.0 0.1385509707
H  H280  1  0.30620000  0.89000000  0.24600000  1.0 0.1385509707
H  H281  1  0.89000000  0.24600000  0.30620000  1.0 0.1385509707
H  H282  1  0.30620000  0.55780000  0.89000000  1.0 0.1385509707
H  H283  1  0.24600000  0.89000000  0.55780000  1.0 0.1385509707
H  H284  1  0.55780000  0.30620000  0.24600000  1.0 0.1385509707
H  H285  1  0.55780000  0.89000000  0.30620000  1.0 0.1385509707
H  H286  1  0.24600000  0.30620000  0.89000000  1.0 0.1385509707
H  H287  1  0.30620000  0.24600000  0.55780000  1.0 0.1385509707
H  H288  1  0.89000000  0.55780000  0.24600000  1.0 0.1385509707
H  H289  1  0.74590000  0.10450000  0.39850000  1.0 0.1233444614
H  H290  1  0.10450000  0.74590000  0.75110000  1.0 0.1233444614
H  H291  1  0.39850000  0.75110000  0.74590000  1.0 0.1233444614
H  H292  1  0.75110000  0.39850000  0.10450000  1.0 0.1233444614
H  H293  1  0.39850000  0.74590000  0.10450000  1.0 0.1233444614
H  H294  1  0.75110000  0.10450000  0.74590000  1.0 0.1233444614
H  H295  1  0.74590000  0.39850000  0.75110000  1.0 0.1233444614
H  H296  1  0.10450000  0.75110000  0.39850000  1.0 0.1233444614
H  H297  1  0.10450000  0.39850000  0.74590000  1.0 0.1233444614
H  H298  1  0.74590000  0.75110000  0.10450000  1.0 0.1233444614
H  H299  1  0.75110000  0.74590000  0.39850000  1.0 0.1233444614
H  H300  1  0.39850000  0.10450000  0.75110000  1.0 0.1233444614
H  H301  1  0.50410000  0.14550000  0.49890000  1.0 0.1233444614
H  H302  1  0.14550000  0.50410000  0.85150000  1.0 0.1233444614
H  H303  1  0.85150000  0.49890000  0.14550000  1.0 0.1233444614
H  H304  1  0.49890000  0.85150000  0.50410000  1.0 0.1233444614
H  H305  1  0.85150000  0.50410000  0.49890000  1.0 0.1233444614
H  H306  1  0.49890000  0.14550000  0.85150000  1.0 0.1233444614
H  H307  1  0.50410000  0.85150000  0.14550000  1.0 0.1233444614
H  H308  1  0.14550000  0.49890000  0.50410000  1.0 0.1233444614
H  H309  1  0.14550000  0.85150000  0.49890000  1.0 0.1233444614
H  H310  1  0.50410000  0.49890000  0.85150000  1.0 0.1233444614
H  H311  1  0.49890000  0.50410000  0.14550000  1.0 0.1233444614
H  H312  1  0.85150000  0.14550000  0.50410000  1.0 0.1233444614
H  H313  1  0.00410000  0.64550000  0.35150000  1.0 0.1233444614
H  H314  1  0.64550000  0.00410000  0.99890000  1.0 0.1233444614
H  H315  1  0.35150000  0.99890000  0.00410000  1.0 0.1233444614
H  H316  1  0.99890000  0.35150000  0.64550000  1.0 0.1233444614
H  H317  1  0.35150000  0.00410000  0.64550000  1.0 0.1233444614
H  H318  1  0.99890000  0.64550000  0.00410000  1.0 0.1233444614
H  H319  1  0.00410000  0.35150000  0.99890000  1.0 0.1233444614
H  H320  1  0.64550000  0.99890000  0.35150000  1.0 0.1233444614
H  H321  1  0.64550000  0.35150000  0.00410000  1.0 0.1233444614
H  H322  1  0.00410000  0.99890000  0.64550000  1.0 0.1233444614
H  H323  1  0.99890000  0.00410000  0.35150000  1.0 0.1233444614
H  H324  1  0.35150000  0.64550000  0.99890000  1.0 0.1233444614
H  H325  1  0.24590000  0.60450000  0.25110000  1.0 0.1233444614
H  H326  1  0.60450000  0.24590000  0.89850000  1.0 0.1233444614
H  H327  1  0.89850000  0.25110000  0.60450000  1.0 0.1233444614
H  H328  1  0.25110000  0.89850000  0.24590000  1.0 0.1233444614
H  H329  1  0.89850000  0.24590000  0.25110000  1.0 0.1233444614
H  H330  1  0.25110000  0.60450000  0.89850000  1.0 0.1233444614
H  H331  1  0.24590000  0.89850000  0.60450000  1.0 0.1233444614
H  H332  1  0.60450000  0.25110000  0.24590000  1.0 0.1233444614
H  H333  1  0.60450000  0.89850000  0.25110000  1.0 0.1233444614
H  H334  1  0.24590000  0.25110000  0.89850000  1.0 0.1233444614
H  H335  1  0.25110000  0.24590000  0.60450000  1.0 0.1233444614
H  H336  1  0.89850000  0.60450000  0.24590000  1.0 0.1233444614
H  H337  1  0.64930000  0.16430000  0.38230000  1.0 0.1074859123
H  H338  1  0.16430000  0.64930000  0.80410000  1.0 0.1074859123
H  H339  1  0.38230000  0.80410000  0.64930000  1.0 0.1074859123
H  H340  1  0.80410000  0.38230000  0.16430000  1.0 0.1074859123
H  H341  1  0.38230000  0.64930000  0.16430000  1.0 0.1074859123
H  H342  1  0.80410000  0.16430000  0.64930000  1.0 0.1074859123
H  H343  1  0.64930000  0.38230000  0.80410000  1.0 0.1074859123
H  H344  1  0.16430000  0.80410000  0.38230000  1.0 0.1074859123
H  H345  1  0.16430000  0.38230000  0.64930000  1.0 0.1074859123
H  H346  1  0.64930000  0.80410000  0.16430000  1.0 0.1074859123
H  H347  1  0.80410000  0.64930000  0.38230000  1.0 0.1074859123
H  H348  1  0.38230000  0.16430000  0.80410000  1.0 0.1074859123
H  H349  1  0.60070000  0.08570000  0.44590000  1.0 0.1074859123
H  H350  1  0.08570000  0.60070000  0.86770000  1.0 0.1074859123
H  H351  1  0.86770000  0.44590000  0.08570000  1.0 0.1074859123
H  H352  1  0.44590000  0.86770000  0.60070000  1.0 0.1074859123
H  H353  1  0.86770000  0.60070000  0.44590000  1.0 0.1074859123
H  H354  1  0.44590000  0.08570000  0.86770000  1.0 0.1074859123
H  H355  1  0.60070000  0.86770000  0.08570000  1.0 0.1074859123
H  H356  1  0.08570000  0.44590000  0.60070000  1.0 0.1074859123
H  H357  1  0.08570000  0.86770000  0.44590000  1.0 0.1074859123
H  H358  1  0.60070000  0.44590000  0.86770000  1.0 0.1074859123
H  H359  1  0.44590000  0.60070000  0.08570000  1.0 0.1074859123
H  H360  1  0.86770000  0.08570000  0.60070000  1.0 0.1074859123
H  H361  1  0.10070000  0.58570000  0.36770000  1.0 0.1074859123
H  H362  1  0.58570000  0.10070000  0.94590000  1.0 0.1074859123
H  H363  1  0.36770000  0.94590000  0.10070000  1.0 0.1074859123
H  H364  1  0.94590000  0.36770000  0.58570000  1.0 0.1074859123
H  H365  1  0.36770000  0.10070000  0.58570000  1.0 0.1074859123
H  H366  1  0.94590000  0.58570000  0.10070000  1.0 0.1074859123
H  H367  1  0.10070000  0.36770000  0.94590000  1.0 0.1074859123
H  H368  1  0.58570000  0.94590000  0.36770000  1.0 0.1074859123
H  H369  1  0.58570000  0.36770000  0.10070000  1.0 0.1074859123
H  H370  1  0.10070000  0.94590000  0.58570000  1.0 0.1074859123
H  H371  1  0.94590000  0.10070000  0.36770000  1.0 0.1074859123
H  H372  1  0.36770000  0.58570000  0.94590000  1.0 0.1074859123
H  H373  1  0.14930000  0.66430000  0.30410000  1.0 0.1074859123
H  H374  1  0.66430000  0.14930000  0.88230000  1.0 0.1074859123
H  H375  1  0.88230000  0.30410000  0.66430000  1.0 0.1074859123
H  H376  1  0.30410000  0.88230000  0.14930000  1.0 0.1074859123
H  H377  1  0.88230000  0.14930000  0.30410000  1.0 0.1074859123
H  H378  1  0.30410000  0.66430000  0.88230000  1.0 0.1074859123
H  H379  1  0.14930000  0.88230000  0.66430000  1.0 0.1074859123
H  H380  1  0.66430000  0.30410000  0.14930000  1.0 0.1074859123
H  H381  1  0.66430000  0.88230000  0.30410000  1.0 0.1074859123
H  H382  1  0.14930000  0.30410000  0.88230000  1.0 0.1074859123
H  H383  1  0.30410000  0.14930000  0.66430000  1.0 0.1074859123
H  H384  1  0.88230000  0.66430000  0.14930000  1.0 0.1074859123
H  H385  1  0.66590000  0.29290000  0.38270000  1.0 0.1003082807
H  H386  1  0.29290000  0.66590000  0.65850000  1.0 0.1003082807
H  H387  1  0.38270000  0.65850000  0.66590000  1.0 0.1003082807
H  H388  1  0.65850000  0.38270000  0.29290000  1.0 0.1003082807
H  H389  1  0.38270000  0.66590000  0.29290000  1.0 0.1003082807
H  H390  1  0.65850000  0.29290000  0.66590000  1.0 0.1003082807
H  H391  1  0.66590000  0.38270000  0.65850000  1.0 0.1003082807
H  H392  1  0.29290000  0.65850000  0.38270000  1.0 0.1003082807
H  H393  1  0.29290000  0.38270000  0.66590000  1.0 0.1003082807
H  H394  1  0.66590000  0.65850000  0.29290000  1.0 0.1003082807
H  H395  1  0.65850000  0.66590000  0.38270000  1.0 0.1003082807
H  H396  1  0.38270000  0.29290000  0.65850000  1.0 0.1003082807
H  H397  1  0.58410000  0.95710000  0.59150000  1.0 0.1003082807
H  H398  1  0.95710000  0.58410000  0.86730000  1.0 0.1003082807
H  H399  1  0.86730000  0.59150000  0.95710000  1.0 0.1003082807
H  H400  1  0.59150000  0.86730000  0.58410000  1.0 0.1003082807
H  H401  1  0.86730000  0.58410000  0.59150000  1.0 0.1003082807
H  H402  1  0.59150000  0.95710000  0.86730000  1.0 0.1003082807
H  H403  1  0.58410000  0.86730000  0.95710000  1.0 0.1003082807
H  H404  1  0.95710000  0.59150000  0.58410000  1.0 0.1003082807
H  H405  1  0.95710000  0.86730000  0.59150000  1.0 0.1003082807
H  H406  1  0.58410000  0.59150000  0.86730000  1.0 0.1003082807
H  H407  1  0.59150000  0.58410000  0.95710000  1.0 0.1003082807
H  H408  1  0.86730000  0.95710000  0.58410000  1.0 0.1003082807
H  H409  1  0.08410000  0.45710000  0.36730000  1.0 0.1003082807
H  H410  1  0.45710000  0.08410000  0.09150000  1.0 0.1003082807
H  H411  1  0.36730000  0.09150000  0.08410000  1.0 0.1003082807
H  H412  1  0.09150000  0.36730000  0.45710000  1.0 0.1003082807
H  H413  1  0.36730000  0.08410000  0.45710000  1.0 0.1003082807
H  H414  1  0.09150000  0.45710000  0.08410000  1.0 0.1003082807
H  H415  1  0.08410000  0.36730000  0.09150000  1.0 0.1003082807
H  H416  1  0.45710000  0.09150000  0.36730000  1.0 0.1003082807
H  H417  1  0.45710000  0.36730000  0.08410000  1.0 0.1003082807
H  H418  1  0.08410000  0.09150000  0.45710000  1.0 0.1003082807
H  H419  1  0.09150000  0.08410000  0.36730000  1.0 0.1003082807
H  H420  1  0.36730000  0.45710000  0.09150000  1.0 0.1003082807
H  H421  1  0.16590000  0.79290000  0.15850000  1.0 0.1003082807
H  H422  1  0.79290000  0.16590000  0.88270000  1.0 0.1003082807
H  H423  1  0.88270000  0.15850000  0.79290000  1.0 0.1003082807
H  H424  1  0.15850000  0.88270000  0.16590000  1.0 0.1003082807
H  H425  1  0.88270000  0.16590000  0.15850000  1.0 0.1003082807
H  H426  1  0.15850000  0.79290000  0.88270000  1.0 0.1003082807
H  H427  1  0.16590000  0.88270000  0.79290000  1.0 0.1003082807
H  H428  1  0.79290000  0.15850000  0.16590000  1.0 0.1003082807
H  H429  1  0.79290000  0.88270000  0.15850000  1.0 0.1003082807
H  H430  1  0.16590000  0.15850000  0.88270000  1.0 0.1003082807
H  H431  1  0.15850000  0.16590000  0.79290000  1.0 0.1003082807
H  H432  1  0.88270000  0.79290000  0.16590000  1.0 0.1003082807
H  H433  1  0.60900000  0.24960000  0.37800000  1.0 0.1233444614
H  H434  1  0.24960000  0.60900000  0.76340000  1.0 0.1233444614
H  H435  1  0.37800000  0.76340000  0.60900000  1.0 0.1233444614
H  H436  1  0.76340000  0.37800000  0.24960000  1.0 0.1233444614
H  H437  1  0.37800000  0.60900000  0.24960000  1.0 0.1233444614
H  H438  1  0.76340000  0.24960000  0.60900000  1.0 0.1233444614
H  H439  1  0.60900000  0.37800000  0.76340000  1.0 0.1233444614
H  H440  1  0.24960000  0.76340000  0.37800000  1.0 0.1233444614
H  H441  1  0.24960000  0.37800000  0.60900000  1.0 0.1233444614
H  H442  1  0.60900000  0.76340000  0.24960000  1.0 0.1233444614
H  H443  1  0.76340000  0.60900000  0.37800000  1.0 0.1233444614
H  H444  1  0.37800000  0.24960000  0.76340000  1.0 0.1233444614
H  H445  1  0.64100000  0.00040000  0.48660000  1.0 0.1233444614
H  H446  1  0.00040000  0.64100000  0.87200000  1.0 0.1233444614
H  H447  1  0.87200000  0.48660000  0.00040000  1.0 0.1233444614
H  H448  1  0.48660000  0.87200000  0.64100000  1.0 0.1233444614
H  H449  1  0.87200000  0.64100000  0.48660000  1.0 0.1233444614
H  H450  1  0.48660000  0.00040000  0.87200000  1.0 0.1233444614
H  H451  1  0.64100000  0.87200000  0.00040000  1.0 0.1233444614
H  H452  1  0.00040000  0.48660000  0.64100000  1.0 0.1233444614
H  H453  1  0.00040000  0.87200000  0.48660000  1.0 0.1233444614
H  H454  1  0.64100000  0.48660000  0.87200000  1.0 0.1233444614
H  H455  1  0.48660000  0.64100000  0.00040000  1.0 0.1233444614
H  H456  1  0.87200000  0.00040000  0.64100000  1.0 0.1233444614
H  H457  1  0.14100000  0.50040000  0.37200000  1.0 0.1233444614
H  H458  1  0.50040000  0.14100000  0.98660000  1.0 0.1233444614
H  H459  1  0.37200000  0.98660000  0.14100000  1.0 0.1233444614
H  H460  1  0.98660000  0.37200000  0.50040000  1.0 0.1233444614
H  H461  1  0.37200000  0.14100000  0.50040000  1.0 0.1233444614
H  H462  1  0.98660000  0.50040000  0.14100000  1.0 0.1233444614
H  H463  1  0.14100000  0.37200000  0.98660000  1.0 0.1233444614
H  H464  1  0.50040000  0.98660000  0.37200000  1.0 0.1233444614
H  H465  1  0.50040000  0.37200000  0.14100000  1.0 0.1233444614
H  H466  1  0.14100000  0.98660000  0.50040000  1.0 0.1233444614
H  H467  1  0.98660000  0.14100000  0.37200000  1.0 0.1233444614
H  H468  1  0.37200000  0.50040000  0.98660000  1.0 0.1233444614
H  H469  1  0.10900000  0.74960000  0.26340000  1.0 0.1233444614
H  H470  1  0.74960000  0.10900000  0.87800000  1.0 0.1233444614
H  H471  1  0.87800000  0.26340000  0.74960000  1.0 0.1233444614
H  H472  1  0.26340000  0.87800000  0.10900000  1.0 0.1233444614
H  H473  1  0.87800000  0.10900000  0.26340000  1.0 0.1233444614
H  H474  1  0.26340000  0.74960000  0.87800000  1.0 0.1233444614
H  H475  1  0.10900000  0.87800000  0.74960000  1.0 0.1233444614
H  H476  1  0.74960000  0.26340000  0.10900000  1.0 0.1233444614
H  H477  1  0.74960000  0.87800000  0.26340000  1.0 0.1233444614
H  H478  1  0.10900000  0.26340000  0.87800000  1.0 0.1233444614
H  H479  1  0.26340000  0.10900000  0.74960000  1.0 0.1233444614
H  H480  1  0.87800000  0.74960000  0.10900000  1.0 0.1233444614
H  H481  1  0.56810000  0.30870000  0.36190000  1.0 0.1385509707
H  H482  1  0.30870000  0.56810000  0.76130000  1.0 0.1385509707
H  H483  1  0.36190000  0.76130000  0.56810000  1.0 0.1385509707
H  H484  1  0.76130000  0.36190000  0.30870000  1.0 0.1385509707
H  H485  1  0.36190000  0.56810000  0.30870000  1.0 0.1385509707
H  H486  1  0.76130000  0.30870000  0.56810000  1.0 0.1385509707
H  H487  1  0.56810000  0.36190000  0.76130000  1.0 0.1385509707
H  H488  1  0.30870000  0.76130000  0.36190000  1.0 0.1385509707
H  H489  1  0.30870000  0.36190000  0.56810000  1.0 0.1385509707
H  H490  1  0.56810000  0.76130000  0.30870000  1.0 0.1385509707
H  H491  1  0.76130000  0.56810000  0.36190000  1.0 0.1385509707
H  H492  1  0.36190000  0.30870000  0.76130000  1.0 0.1385509707
H  H493  1  0.68190000  0.94130000  0.48870000  1.0 0.1385509707
H  H494  1  0.94130000  0.68190000  0.88810000  1.0 0.1385509707
H  H495  1  0.88810000  0.48870000  0.94130000  1.0 0.1385509707
H  H496  1  0.48870000  0.88810000  0.68190000  1.0 0.1385509707
H  H497  1  0.88810000  0.68190000  0.48870000  1.0 0.1385509707
H  H498  1  0.48870000  0.94130000  0.88810000  1.0 0.1385509707
H  H499  1  0.68190000  0.88810000  0.94130000  1.0 0.1385509707
H  H500  1  0.94130000  0.48870000  0.68190000  1.0 0.1385509707
H  H501  1  0.94130000  0.88810000  0.48870000  1.0 0.1385509707
H  H502  1  0.68190000  0.48870000  0.88810000  1.0 0.1385509707
H  H503  1  0.48870000  0.68190000  0.94130000  1.0 0.1385509707
H  H504  1  0.88810000  0.94130000  0.68190000  1.0 0.1385509707
H  H505  1  0.18190000  0.44130000  0.38810000  1.0 0.1385509707
H  H506  1  0.44130000  0.18190000  0.98870000  1.0 0.1385509707
H  H507  1  0.38810000  0.98870000  0.18190000  1.0 0.1385509707
H  H508  1  0.98870000  0.38810000  0.44130000  1.0 0.1385509707
H  H509  1  0.38810000  0.18190000  0.44130000  1.0 0.1385509707
H  H510  1  0.98870000  0.44130000  0.18190000  1.0 0.1385509707
H  H511  1  0.18190000  0.38810000  0.98870000  1.0 0.1385509707
H  H512  1  0.44130000  0.98870000  0.38810000  1.0 0.1385509707
H  H513  1  0.44130000  0.38810000  0.18190000  1.0 0.1385509707
H  H514  1  0.18190000  0.98870000  0.44130000  1.0 0.1385509707
H  H515  1  0.98870000  0.18190000  0.38810000  1.0 0.1385509707
H  H516  1  0.38810000  0.44130000  0.98870000  1.0 0.1385509707
H  H517  1  0.06810000  0.80870000  0.26130000  1.0 0.1385509707
H  H518  1  0.80870000  0.06810000  0.86190000  1.0 0.1385509707
H  H519  1  0.86190000  0.26130000  0.80870000  1.0 0.1385509707
H  H520  1  0.26130000  0.86190000  0.06810000  1.0 0.1385509707
H  H521  1  0.86190000  0.06810000  0.26130000  1.0 0.1385509707
H  H522  1  0.26130000  0.80870000  0.86190000  1.0 0.1385509707
H  H523  1  0.06810000  0.86190000  0.80870000  1.0 0.1385509707
H  H524  1  0.80870000  0.26130000  0.06810000  1.0 0.1385509707
H  H525  1  0.80870000  0.86190000  0.26130000  1.0 0.1385509707
H  H526  1  0.06810000  0.26130000  0.86190000  1.0 0.1385509707
H  H527  1  0.26130000  0.06810000  0.80870000  1.0 0.1385509707
H  H528  1  0.86190000  0.80870000  0.06810000  1.0 0.1385509707
H  H529  1  0.57690000  0.35670000  0.35830000  1.0 0.1074859123
H  H530  1  0.35670000  0.57690000  0.70810000  1.0 0.1074859123
H  H531  1  0.35830000  0.70810000  0.57690000  1.0 0.1074859123
H  H532  1  0.70810000  0.35830000  0.35670000  1.0 0.1074859123
H  H533  1  0.35830000  0.57690000  0.35670000  1.0 0.1074859123
H  H534  1  0.70810000  0.35670000  0.57690000  1.0 0.1074859123
H  H535  1  0.57690000  0.35830000  0.70810000  1.0 0.1074859123
H  H536  1  0.35670000  0.70810000  0.35830000  1.0 0.1074859123
H  H537  1  0.35670000  0.35830000  0.57690000  1.0 0.1074859123
H  H538  1  0.57690000  0.70810000  0.35670000  1.0 0.1074859123
H  H539  1  0.70810000  0.57690000  0.35830000  1.0 0.1074859123
H  H540  1  0.35830000  0.35670000  0.70810000  1.0 0.1074859123
H  H541  1  0.67310000  0.89330000  0.54190000  1.0 0.1074859123
H  H542  1  0.89330000  0.67310000  0.89170000  1.0 0.1074859123
H  H543  1  0.89170000  0.54190000  0.89330000  1.0 0.1074859123
H  H544  1  0.54190000  0.89170000  0.67310000  1.0 0.1074859123
H  H545  1  0.89170000  0.67310000  0.54190000  1.0 0.1074859123
H  H546  1  0.54190000  0.89330000  0.89170000  1.0 0.1074859123
H  H547  1  0.67310000  0.89170000  0.89330000  1.0 0.1074859123
H  H548  1  0.89330000  0.54190000  0.67310000  1.0 0.1074859123
H  H549  1  0.89330000  0.89170000  0.54190000  1.0 0.1074859123
H  H550  1  0.67310000  0.54190000  0.89170000  1.0 0.1074859123
H  H551  1  0.54190000  0.67310000  0.89330000  1.0 0.1074859123
H  H552  1  0.89170000  0.89330000  0.67310000  1.0 0.1074859123
H  H553  1  0.17310000  0.39330000  0.39170000  1.0 0.1074859123
H  H554  1  0.39330000  0.17310000  0.04190000  1.0 0.1074859123
H  H555  1  0.39170000  0.04190000  0.17310000  1.0 0.1074859123
H  H556  1  0.04190000  0.39170000  0.39330000  1.0 0.1074859123
H  H557  1  0.39170000  0.17310000  0.39330000  1.0 0.1074859123
H  H558  1  0.04190000  0.39330000  0.17310000  1.0 0.1074859123
H  H559  1  0.17310000  0.39170000  0.04190000  1.0 0.1074859123
H  H560  1  0.39330000  0.04190000  0.39170000  1.0 0.1074859123
H  H561  1  0.39330000  0.39170000  0.17310000  1.0 0.1074859123
H  H562  1  0.17310000  0.04190000  0.39330000  1.0 0.1074859123
H  H563  1  0.04190000  0.17310000  0.39170000  1.0 0.1074859123
H  H564  1  0.39170000  0.39330000  0.04190000  1.0 0.1074859123
H  H565  1  0.07690000  0.85670000  0.20810000  1.0 0.1074859123
H  H566  1  0.85670000  0.07690000  0.85830000  1.0 0.1074859123
H  H567  1  0.85830000  0.20810000  0.85670000  1.0 0.1074859123
H  H568  1  0.20810000  0.85830000  0.07690000  1.0 0.1074859123
H  H569  1  0.85830000  0.07690000  0.20810000  1.0 0.1074859123
H  H570  1  0.20810000  0.85670000  0.85830000  1.0 0.1074859123
H  H571  1  0.07690000  0.85830000  0.85670000  1.0 0.1074859123
H  H572  1  0.85670000  0.20810000  0.07690000  1.0 0.1074859123
H  H573  1  0.85670000  0.85830000  0.20810000  1.0 0.1074859123
H  H574  1  0.07690000  0.20810000  0.85830000  1.0 0.1074859123
H  H575  1  0.20810000  0.07690000  0.85670000  1.0 0.1074859123
H  H576  1  0.85830000  0.85670000  0.07690000  1.0 0.1074859123
H  H577  1  0.63430000  0.44750000  0.31710000  1.0 0.1003082807
H  H578  1  0.44750000  0.63430000  0.60110000  1.0 0.1003082807
H  H579  1  0.31710000  0.60110000  0.63430000  1.0 0.1003082807
H  H580  1  0.60110000  0.31710000  0.44750000  1.0 0.1003082807
H  H581  1  0.31710000  0.63430000  0.44750000  1.0 0.1003082807
H  H582  1  0.60110000  0.44750000  0.63430000  1.0 0.1003082807
H  H583  1  0.63430000  0.31710000  0.60110000  1.0 0.1003082807
H  H584  1  0.44750000  0.60110000  0.31710000  1.0 0.1003082807
H  H585  1  0.44750000  0.31710000  0.63430000  1.0 0.1003082807
H  H586  1  0.63430000  0.60110000  0.44750000  1.0 0.1003082807
H  H587  1  0.60110000  0.63430000  0.31710000  1.0 0.1003082807
H  H588  1  0.31710000  0.44750000  0.60110000  1.0 0.1003082807
H  H589  1  0.61570000  0.80250000  0.64890000  1.0 0.1003082807
H  H590  1  0.80250000  0.61570000  0.93290000  1.0 0.1003082807
H  H591  1  0.93290000  0.64890000  0.80250000  1.0 0.1003082807
H  H592  1  0.64890000  0.93290000  0.61570000  1.0 0.1003082807
H  H593  1  0.93290000  0.61570000  0.64890000  1.0 0.1003082807
H  H594  1  0.64890000  0.80250000  0.93290000  1.0 0.1003082807
H  H595  1  0.61570000  0.93290000  0.80250000  1.0 0.1003082807
H  H596  1  0.80250000  0.64890000  0.61570000  1.0 0.1003082807
H  H597  1  0.80250000  0.93290000  0.64890000  1.0 0.1003082807
H  H598  1  0.61570000  0.64890000  0.93290000  1.0 0.1003082807
H  H599  1  0.64890000  0.61570000  0.80250000  1.0 0.1003082807
H  H600  1  0.93290000  0.80250000  0.61570000  1.0 0.1003082807
H  H601  1  0.11570000  0.30250000  0.43290000  1.0 0.1003082807
H  H602  1  0.30250000  0.11570000  0.14890000  1.0 0.1003082807
H  H603  1  0.43290000  0.14890000  0.11570000  1.0 0.1003082807
H  H604  1  0.14890000  0.43290000  0.30250000  1.0 0.1003082807
H  H605  1  0.43290000  0.11570000  0.30250000  1.0 0.1003082807
H  H606  1  0.14890000  0.30250000  0.11570000  1.0 0.1003082807
H  H607  1  0.11570000  0.43290000  0.14890000  1.0 0.1003082807
H  H608  1  0.30250000  0.14890000  0.43290000  1.0 0.1003082807
H  H609  1  0.30250000  0.43290000  0.11570000  1.0 0.1003082807
H  H610  1  0.11570000  0.14890000  0.30250000  1.0 0.1003082807
H  H611  1  0.14890000  0.11570000  0.43290000  1.0 0.1003082807
H  H612  1  0.43290000  0.30250000  0.14890000  1.0 0.1003082807
H  H613  1  0.13430000  0.94750000  0.10110000  1.0 0.1003082807
H  H614  1  0.94750000  0.13430000  0.81710000  1.0 0.1003082807
H  H615  1  0.81710000  0.10110000  0.94750000  1.0 0.1003082807
H  H616  1  0.10110000  0.81710000  0.13430000  1.0 0.1003082807
H  H617  1  0.81710000  0.13430000  0.10110000  1.0 0.1003082807
H  H618  1  0.10110000  0.94750000  0.81710000  1.0 0.1003082807
H  H619  1  0.13430000  0.81710000  0.94750000  1.0 0.1003082807
H  H620  1  0.94750000  0.10110000  0.13430000  1.0 0.1003082807
H  H621  1  0.94750000  0.81710000  0.10110000  1.0 0.1003082807
H  H622  1  0.13430000  0.10110000  0.81710000  1.0 0.1003082807
H  H623  1  0.10110000  0.13430000  0.94750000  1.0 0.1003082807
H  H624  1  0.81710000  0.94750000  0.13430000  1.0 0.1003082807
H  H625  1  0.64700000  0.49480000  0.30840000  1.0 0.1385509707
H  H626  1  0.49480000  0.64700000  0.54980000  1.0 0.1385509707
H  H627  1  0.30840000  0.54980000  0.64700000  1.0 0.1385509707
H  H628  1  0.54980000  0.30840000  0.49480000  1.0 0.1385509707
H  H629  1  0.30840000  0.64700000  0.49480000  1.0 0.1385509707
H  H630  1  0.54980000  0.49480000  0.64700000  1.0 0.1385509707
H  H631  1  0.64700000  0.30840000  0.54980000  1.0 0.1385509707
H  H632  1  0.49480000  0.54980000  0.30840000  1.0 0.1385509707
H  H633  1  0.49480000  0.30840000  0.64700000  1.0 0.1385509707
H  H634  1  0.64700000  0.54980000  0.49480000  1.0 0.1385509707
H  H635  1  0.54980000  0.64700000  0.30840000  1.0 0.1385509707
H  H636  1  0.30840000  0.49480000  0.54980000  1.0 0.1385509707
H  H637  1  0.60300000  0.75520000  0.70020000  1.0 0.1385509707
H  H638  1  0.75520000  0.60300000  0.94160000  1.0 0.1385509707
H  H639  1  0.94160000  0.70020000  0.75520000  1.0 0.1385509707
H  H640  1  0.70020000  0.94160000  0.60300000  1.0 0.1385509707
H  H641  1  0.94160000  0.60300000  0.70020000  1.0 0.1385509707
H  H642  1  0.70020000  0.75520000  0.94160000  1.0 0.1385509707
H  H643  1  0.60300000  0.94160000  0.75520000  1.0 0.1385509707
H  H644  1  0.75520000  0.70020000  0.60300000  1.0 0.1385509707
H  H645  1  0.75520000  0.94160000  0.70020000  1.0 0.1385509707
H  H646  1  0.60300000  0.70020000  0.94160000  1.0 0.1385509707
H  H647  1  0.70020000  0.60300000  0.75520000  1.0 0.1385509707
H  H648  1  0.94160000  0.75520000  0.60300000  1.0 0.1385509707
H  H649  1  0.10300000  0.25520000  0.44160000  1.0 0.1385509707
H  H650  1  0.25520000  0.10300000  0.20020000  1.0 0.1385509707
H  H651  1  0.44160000  0.20020000  0.10300000  1.0 0.1385509707
H  H652  1  0.20020000  0.44160000  0.25520000  1.0 0.1385509707
H  H653  1  0.44160000  0.10300000  0.25520000  1.0 0.1385509707
H  H654  1  0.20020000  0.25520000  0.10300000  1.0 0.1385509707
H  H655  1  0.10300000  0.44160000  0.20020000  1.0 0.1385509707
H  H656  1  0.25520000  0.20020000  0.44160000  1.0 0.1385509707
H  H657  1  0.25520000  0.44160000  0.10300000  1.0 0.1385509707
H  H658  1  0.10300000  0.20020000  0.25520000  1.0 0.1385509707
H  H659  1  0.20020000  0.10300000  0.44160000  1.0 0.1385509707
H  H660  1  0.44160000  0.25520000  0.20020000  1.0 0.1385509707
H  H661  1  0.14700000  0.99480000  0.04980000  1.0 0.1385509707
H  H662  1  0.99480000  0.14700000  0.80840000  1.0 0.1385509707
H  H663  1  0.80840000  0.04980000  0.99480000  1.0 0.1385509707
H  H664  1  0.04980000  0.80840000  0.14700000  1.0 0.1385509707
H  H665  1  0.80840000  0.14700000  0.04980000  1.0 0.1385509707
H  H666  1  0.04980000  0.99480000  0.80840000  1.0 0.1385509707
H  H667  1  0.14700000  0.80840000  0.99480000  1.0 0.1385509707
H  H668  1  0.99480000  0.04980000  0.14700000  1.0 0.1385509707
H  H669  1  0.99480000  0.80840000  0.04980000  1.0 0.1385509707
H  H670  1  0.14700000  0.04980000  0.80840000  1.0 0.1385509707
H  H671  1  0.04980000  0.14700000  0.99480000  1.0 0.1385509707
H  H672  1  0.80840000  0.99480000  0.14700000  1.0 0.1385509707
H  H673  1  0.64770000  0.49950000  0.35790000  1.0 0.1233444614
H  H674  1  0.49950000  0.64770000  0.49490000  1.0 0.1233444614
H  H675  1  0.35790000  0.49490000  0.64770000  1.0 0.1233444614
H  H676  1  0.49490000  0.35790000  0.49950000  1.0 0.1233444614
H  H677  1  0.35790000  0.64770000  0.49950000  1.0 0.1233444614
H  H678  1  0.49490000  0.49950000  0.64770000  1.0 0.1233444614
H  H679  1  0.64770000  0.35790000  0.49490000  1.0 0.1233444614
H  H680  1  0.49950000  0.49490000  0.35790000  1.0 0.1233444614
H  H681  1  0.49950000  0.35790000  0.64770000  1.0 0.1233444614
H  H682  1  0.64770000  0.49490000  0.49950000  1.0 0.1233444614
H  H683  1  0.49490000  0.64770000  0.35790000  1.0 0.1233444614
H  H684  1  0.35790000  0.49950000  0.49490000  1.0 0.1233444614
H  H685  1  0.60230000  0.75050000  0.75510000  1.0 0.1233444614
H  H686  1  0.75050000  0.60230000  0.89210000  1.0 0.1233444614
H  H687  1  0.89210000  0.75510000  0.75050000  1.0 0.1233444614
H  H688  1  0.75510000  0.89210000  0.60230000  1.0 0.1233444614
H  H689  1  0.89210000  0.60230000  0.75510000  1.0 0.1233444614
H  H690  1  0.75510000  0.75050000  0.89210000  1.0 0.1233444614
H  H691  1  0.60230000  0.89210000  0.75050000  1.0 0.1233444614
H  H692  1  0.75050000  0.75510000  0.60230000  1.0 0.1233444614
H  H693  1  0.75050000  0.89210000  0.75510000  1.0 0.1233444614
H  H694  1  0.60230000  0.75510000  0.89210000  1.0 0.1233444614
H  H695  1  0.75510000  0.60230000  0.75050000  1.0 0.1233444614
H  H696  1  0.89210000  0.75050000  0.60230000  1.0 0.1233444614
H  H697  1  0.10230000  0.25050000  0.39210000  1.0 0.1233444614
H  H698  1  0.25050000  0.10230000  0.25510000  1.0 0.1233444614
H  H699  1  0.39210000  0.25510000  0.10230000  1.0 0.1233444614
H  H700  1  0.25510000  0.39210000  0.25050000  1.0 0.1233444614
H  H701  1  0.39210000  0.10230000  0.25050000  1.0 0.1233444614
H  H702  1  0.25510000  0.25050000  0.10230000  1.0 0.1233444614
H  H703  1  0.10230000  0.39210000  0.25510000  1.0 0.1233444614
H  H704  1  0.25050000  0.25510000  0.39210000  1.0 0.1233444614
H  H705  1  0.25050000  0.39210000  0.10230000  1.0 0.1233444614
H  H706  1  0.10230000  0.25510000  0.25050000  1.0 0.1233444614
H  H707  1  0.25510000  0.10230000  0.39210000  1.0 0.1233444614
H  H708  1  0.39210000  0.25050000  0.25510000  1.0 0.1233444614
H  H709  1  0.14770000  0.99950000  0.99490000  1.0 0.1233444614
H  H710  1  0.99950000  0.14770000  0.85790000  1.0 0.1233444614
H  H711  1  0.85790000  0.99490000  0.99950000  1.0 0.1233444614
H  H712  1  0.99490000  0.85790000  0.14770000  1.0 0.1233444614
H  H713  1  0.85790000  0.14770000  0.99490000  1.0 0.1233444614
H  H714  1  0.99490000  0.99950000  0.85790000  1.0 0.1233444614
H  H715  1  0.14770000  0.85790000  0.99950000  1.0 0.1233444614
H  H716  1  0.99950000  0.99490000  0.14770000  1.0 0.1233444614
H  H717  1  0.99950000  0.85790000  0.99490000  1.0 0.1233444614
H  H718  1  0.14770000  0.99490000  0.85790000  1.0 0.1233444614
H  H719  1  0.99490000  0.14770000  0.99950000  1.0 0.1233444614
H  H720  1  0.85790000  0.99950000  0.14770000  1.0 0.1233444614
H  H721  1  0.62860000  0.40420000  0.41920000  1.0 0.1074859123
H  H722  1  0.40420000  0.62860000  0.54800000  1.0 0.1074859123
H  H723  1  0.41920000  0.54800000  0.62860000  1.0 0.1074859123
H  H724  1  0.54800000  0.41920000  0.40420000  1.0 0.1074859123
H  H725  1  0.41920000  0.62860000  0.40420000  1.0 0.1074859123
H  H726  1  0.54800000  0.40420000  0.62860000  1.0 0.1074859123
H  H727  1  0.62860000  0.41920000  0.54800000  1.0 0.1074859123
H  H728  1  0.40420000  0.54800000  0.41920000  1.0 0.1074859123
H  H729  1  0.40420000  0.41920000  0.62860000  1.0 0.1074859123
H  H730  1  0.62860000  0.54800000  0.40420000  1.0 0.1074859123
H  H731  1  0.54800000  0.62860000  0.41920000  1.0 0.1074859123
H  H732  1  0.41920000  0.40420000  0.54800000  1.0 0.1074859123
H  H733  1  0.62140000  0.84580000  0.70200000  1.0 0.1074859123
H  H734  1  0.84580000  0.62140000  0.83080000  1.0 0.1074859123
H  H735  1  0.83080000  0.70200000  0.84580000  1.0 0.1074859123
H  H736  1  0.70200000  0.83080000  0.62140000  1.0 0.1074859123
H  H737  1  0.83080000  0.62140000  0.70200000  1.0 0.1074859123
H  H738  1  0.70200000  0.84580000  0.83080000  1.0 0.1074859123
H  H739  1  0.62140000  0.83080000  0.84580000  1.0 0.1074859123
H  H740  1  0.84580000  0.70200000  0.62140000  1.0 0.1074859123
H  H741  1  0.84580000  0.83080000  0.70200000  1.0 0.1074859123
H  H742  1  0.62140000  0.70200000  0.83080000  1.0 0.1074859123
H  H743  1  0.70200000  0.62140000  0.84580000  1.0 0.1074859123
H  H744  1  0.83080000  0.84580000  0.62140000  1.0 0.1074859123
H  H745  1  0.12140000  0.34580000  0.33080000  1.0 0.1074859123
H  H746  1  0.34580000  0.12140000  0.20200000  1.0 0.1074859123
H  H747  1  0.33080000  0.20200000  0.12140000  1.0 0.1074859123
H  H748  1  0.20200000  0.33080000  0.34580000  1.0 0.1074859123
H  H749  1  0.33080000  0.12140000  0.34580000  1.0 0.1074859123
H  H750  1  0.20200000  0.34580000  0.12140000  1.0 0.1074859123
H  H751  1  0.12140000  0.33080000  0.20200000  1.0 0.1074859123
H  H752  1  0.34580000  0.20200000  0.33080000  1.0 0.1074859123
H  H753  1  0.34580000  0.33080000  0.12140000  1.0 0.1074859123
H  H754  1  0.12140000  0.20200000  0.34580000  1.0 0.1074859123
H  H755  1  0.20200000  0.12140000  0.33080000  1.0 0.1074859123
H  H756  1  0.33080000  0.34580000  0.20200000  1.0 0.1074859123
H  H757  1  0.12860000  0.90420000  0.04800000  1.0 0.1074859123
H  H758  1  0.90420000  0.12860000  0.91920000  1.0 0.1074859123
H  H759  1  0.91920000  0.04800000  0.90420000  1.0 0.1074859123
H  H760  1  0.04800000  0.91920000  0.12860000  1.0 0.1074859123
H  H761  1  0.91920000  0.12860000  0.04800000  1.0 0.1074859123
H  H762  1  0.04800000  0.90420000  0.91920000  1.0 0.1074859123
H  H763  1  0.12860000  0.91920000  0.90420000  1.0 0.1074859123
H  H764  1  0.90420000  0.04800000  0.12860000  1.0 0.1074859123
H  H765  1  0.90420000  0.91920000  0.04800000  1.0 0.1074859123
H  H766  1  0.12860000  0.04800000  0.91920000  1.0 0.1074859123
H  H767  1  0.04800000  0.12860000  0.90420000  1.0 0.1074859123
H  H768  1  0.91920000  0.90420000  0.12860000  1.0 0.1074859123
C  C1  1  0.78357000  0.16811000  0.40399000  1.0 0.0630745106
C  C2  1  0.16811000  0.78357000  0.64433000  1.0 0.0630745106
C  C3  1  0.40399000  0.64433000  0.78357000  1.0 0.0630745106
C  C4  1  0.64433000  0.40399000  0.16811000  1.0 0.0630745106
C  C5  1  0.40399000  0.78357000  0.16811000  1.0 0.0630745106
C  C6  1  0.64433000  0.16811000  0.78357000  1.0 0.0630745106
C  C7  1  0.78357000  0.40399000  0.64433000  1.0 0.0630745106
C  C8  1  0.16811000  0.64433000  0.40399000  1.0 0.0630745106
C  C9  1  0.16811000  0.40399000  0.78357000  1.0 0.0630745106
C  C10  1  0.78357000  0.64433000  0.16811000  1.0 0.0630745106
C  C11  1  0.64433000  0.78357000  0.40399000  1.0 0.0630745106
C  C12  1  0.40399000  0.16811000  0.64433000  1.0 0.0630745106
C  C13  1  0.46643000  0.08189000  0.60567000  1.0 0.0630745106
C  C14  1  0.08189000  0.46643000  0.84601000  1.0 0.0630745106
C  C15  1  0.84601000  0.60567000  0.08189000  1.0 0.0630745106
C  C16  1  0.60567000  0.84601000  0.46643000  1.0 0.0630745106
C  C17  1  0.84601000  0.46643000  0.60567000  1.0 0.0630745106
C  C18  1  0.60567000  0.08189000  0.84601000  1.0 0.0630745106
C  C19  1  0.46643000  0.84601000  0.08189000  1.0 0.0630745106
C  C20  1  0.08189000  0.60567000  0.46643000  1.0 0.0630745106
C  C21  1  0.08189000  0.84601000  0.60567000  1.0 0.0630745106
C  C22  1  0.46643000  0.60567000  0.84601000  1.0 0.0630745106
C  C23  1  0.60567000  0.46643000  0.08189000  1.0 0.0630745106
C  C24  1  0.84601000  0.08189000  0.46643000  1.0 0.0630745106
C  C25  1  0.96643000  0.58189000  0.34601000  1.0 0.0630745106
C  C26  1  0.58189000  0.96643000  0.10567000  1.0 0.0630745106
C  C27  1  0.34601000  0.10567000  0.96643000  1.0 0.0630745106
C  C28  1  0.10567000  0.34601000  0.58189000  1.0 0.0630745106
C  C29  1  0.34601000  0.96643000  0.58189000  1.0 0.0630745106
C  C30  1  0.10567000  0.58189000  0.96643000  1.0 0.0630745106
C  C31  1  0.96643000  0.34601000  0.10567000  1.0 0.0630745106
C  C32  1  0.58189000  0.10567000  0.34601000  1.0 0.0630745106
C  C33  1  0.58189000  0.34601000  0.96643000  1.0 0.0630745106
C  C34  1  0.96643000  0.10567000  0.58189000  1.0 0.0630745106
C  C35  1  0.10567000  0.96643000  0.34601000  1.0 0.0630745106
C  C36  1  0.34601000  0.58189000  0.10567000  1.0 0.0630745106
C  C37  1  0.28357000  0.66811000  0.14433000  1.0 0.0630745106
C  C38  1  0.66811000  0.28357000  0.90399000  1.0 0.0630745106
C  C39  1  0.90399000  0.14433000  0.66811000  1.0 0.0630745106
C  C40  1  0.14433000  0.90399000  0.28357000  1.0 0.0630745106
C  C41  1  0.90399000  0.28357000  0.14433000  1.0 0.0630745106
C  C42  1  0.14433000  0.66811000  0.90399000  1.0 0.0630745106
C  C43  1  0.28357000  0.90399000  0.66811000  1.0 0.0630745106
C  C44  1  0.66811000  0.14433000  0.28357000  1.0 0.0630745106
C  C45  1  0.66811000  0.90399000  0.14433000  1.0 0.0630745106
C  C46  1  0.28357000  0.14433000  0.90399000  1.0 0.0630745106
C  C47  1  0.14433000  0.28357000  0.66811000  1.0 0.0630745106
C  C48  1  0.90399000  0.66811000  0.28357000  1.0 0.0630745106
C  C49  1  0.74972000  0.19294000  0.41396000  1.0 -0.0238886042
C  C50  1  0.19294000  0.74972000  0.64338000  1.0 -0.0238886042
C  C51  1  0.41396000  0.64338000  0.74972000  1.0 -0.0238886042
C  C52  1  0.64338000  0.41396000  0.19294000  1.0 -0.0238886042
C  C53  1  0.41396000  0.74972000  0.19294000  1.0 -0.0238886042
C  C54  1  0.64338000  0.19294000  0.74972000  1.0 -0.0238886042
C  C55  1  0.74972000  0.41396000  0.64338000  1.0 -0.0238886042
C  C56  1  0.19294000  0.64338000  0.41396000  1.0 -0.0238886042
C  C57  1  0.19294000  0.41396000  0.74972000  1.0 -0.0238886042
C  C58  1  0.74972000  0.64338000  0.19294000  1.0 -0.0238886042
C  C59  1  0.64338000  0.74972000  0.41396000  1.0 -0.0238886042
C  C60  1  0.41396000  0.19294000  0.64338000  1.0 -0.0238886042
C  C61  1  0.50028000  0.05706000  0.60662000  1.0 -0.0238886042
C  C62  1  0.05706000  0.50028000  0.83604000  1.0 -0.0238886042
C  C63  1  0.83604000  0.60662000  0.05706000  1.0 -0.0238886042
C  C64  1  0.60662000  0.83604000  0.50028000  1.0 -0.0238886042
C  C65  1  0.83604000  0.50028000  0.60662000  1.0 -0.0238886042
C  C66  1  0.60662000  0.05706000  0.83604000  1.0 -0.0238886042
C  C67  1  0.50028000  0.83604000  0.05706000  1.0 -0.0238886042
C  C68  1  0.05706000  0.60662000  0.50028000  1.0 -0.0238886042
C  C69  1  0.05706000  0.83604000  0.60662000  1.0 -0.0238886042
C  C70  1  0.50028000  0.60662000  0.83604000  1.0 -0.0238886042
C  C71  1  0.60662000  0.50028000  0.05706000  1.0 -0.0238886042
C  C72  1  0.83604000  0.05706000  0.50028000  1.0 -0.0238886042
C  C73  1  0.00028000  0.55706000  0.33604000  1.0 -0.0238886042
C  C74  1  0.55706000  0.00028000  0.10662000  1.0 -0.0238886042
C  C75  1  0.33604000  0.10662000  0.00028000  1.0 -0.0238886042
C  C76  1  0.10662000  0.33604000  0.55706000  1.0 -0.0238886042
C  C77  1  0.33604000  0.00028000  0.55706000  1.0 -0.0238886042
C  C78  1  0.10662000  0.55706000  0.00028000  1.0 -0.0238886042
C  C79  1  0.00028000  0.33604000  0.10662000  1.0 -0.0238886042
C  C80  1  0.55706000  0.10662000  0.33604000  1.0 -0.0238886042
C  C81  1  0.55706000  0.33604000  0.00028000  1.0 -0.0238886042
C  C82  1  0.00028000  0.10662000  0.55706000  1.0 -0.0238886042
C  C83  1  0.10662000  0.00028000  0.33604000  1.0 -0.0238886042
C  C84  1  0.33604000  0.55706000  0.10662000  1.0 -0.0238886042
C  C85  1  0.24972000  0.69294000  0.14338000  1.0 -0.0238886042
C  C86  1  0.69294000  0.24972000  0.91396000  1.0 -0.0238886042
C  C87  1  0.91396000  0.14338000  0.69294000  1.0 -0.0238886042
C  C88  1  0.14338000  0.91396000  0.24972000  1.0 -0.0238886042
C  C89  1  0.91396000  0.24972000  0.14338000  1.0 -0.0238886042
C  C90  1  0.14338000  0.69294000  0.91396000  1.0 -0.0238886042
C  C91  1  0.24972000  0.91396000  0.69294000  1.0 -0.0238886042
C  C92  1  0.69294000  0.14338000  0.24972000  1.0 -0.0238886042
C  C93  1  0.69294000  0.91396000  0.14338000  1.0 -0.0238886042
C  C94  1  0.24972000  0.14338000  0.91396000  1.0 -0.0238886042
C  C95  1  0.14338000  0.24972000  0.69294000  1.0 -0.0238886042
C  C96  1  0.91396000  0.69294000  0.24972000  1.0 -0.0238886042
C  C97  1  0.74561000  0.21639000  0.42827000  1.0 -0.0576891099
C  C98  1  0.21639000  0.74561000  0.60973000  1.0 -0.0576891099
C  C99  1  0.42827000  0.60973000  0.74561000  1.0 -0.0576891099
C  C100  1  0.60973000  0.42827000  0.21639000  1.0 -0.0576891099
C  C101  1  0.42827000  0.74561000  0.21639000  1.0 -0.0576891099
C  C102  1  0.60973000  0.21639000  0.74561000  1.0 -0.0576891099
C  C103  1  0.74561000  0.42827000  0.60973000  1.0 -0.0576891099
C  C104  1  0.21639000  0.60973000  0.42827000  1.0 -0.0576891099
C  C105  1  0.21639000  0.42827000  0.74561000  1.0 -0.0576891099
C  C106  1  0.74561000  0.60973000  0.21639000  1.0 -0.0576891099
C  C107  1  0.60973000  0.74561000  0.42827000  1.0 -0.0576891099
C  C108  1  0.42827000  0.21639000  0.60973000  1.0 -0.0576891099
C  C109  1  0.50439000  0.03361000  0.64027000  1.0 -0.0576891099
C  C110  1  0.03361000  0.50439000  0.82173000  1.0 -0.0576891099
C  C111  1  0.82173000  0.64027000  0.03361000  1.0 -0.0576891099
C  C112  1  0.64027000  0.82173000  0.50439000  1.0 -0.0576891099
C  C113  1  0.82173000  0.50439000  0.64027000  1.0 -0.0576891099
C  C114  1  0.64027000  0.03361000  0.82173000  1.0 -0.0576891099
C  C115  1  0.50439000  0.82173000  0.03361000  1.0 -0.0576891099
C  C116  1  0.03361000  0.64027000  0.50439000  1.0 -0.0576891099
C  C117  1  0.03361000  0.82173000  0.64027000  1.0 -0.0576891099
C  C118  1  0.50439000  0.64027000  0.82173000  1.0 -0.0576891099
C  C119  1  0.64027000  0.50439000  0.03361000  1.0 -0.0576891099
C  C120  1  0.82173000  0.03361000  0.50439000  1.0 -0.0576891099
C  C121  1  0.00439000  0.53361000  0.32173000  1.0 -0.0576891099
C  C122  1  0.53361000  0.00439000  0.14027000  1.0 -0.0576891099
C  C123  1  0.32173000  0.14027000  0.00439000  1.0 -0.0576891099
C  C124  1  0.14027000  0.32173000  0.53361000  1.0 -0.0576891099
C  C125  1  0.32173000  0.00439000  0.53361000  1.0 -0.0576891099
C  C126  1  0.14027000  0.53361000  0.00439000  1.0 -0.0576891099
C  C127  1  0.00439000  0.32173000  0.14027000  1.0 -0.0576891099
C  C128  1  0.53361000  0.14027000  0.32173000  1.0 -0.0576891099
C  C129  1  0.53361000  0.32173000  0.00439000  1.0 -0.0576891099
C  C130  1  0.00439000  0.14027000  0.53361000  1.0 -0.0576891099
C  C131  1  0.14027000  0.00439000  0.32173000  1.0 -0.0576891099
C  C132  1  0.32173000  0.53361000  0.14027000  1.0 -0.0576891099
C  C133  1  0.24561000  0.71639000  0.10973000  1.0 -0.0576891099
C  C134  1  0.71639000  0.24561000  0.92827000  1.0 -0.0576891099
C  C135  1  0.92827000  0.10973000  0.71639000  1.0 -0.0576891099
C  C136  1  0.10973000  0.92827000  0.24561000  1.0 -0.0576891099
C  C137  1  0.92827000  0.24561000  0.10973000  1.0 -0.0576891099
C  C138  1  0.10973000  0.71639000  0.92827000  1.0 -0.0576891099
C  C139  1  0.24561000  0.92827000  0.71639000  1.0 -0.0576891099
C  C140  1  0.71639000  0.10973000  0.24561000  1.0 -0.0576891099
C  C141  1  0.71639000  0.92827000  0.10973000  1.0 -0.0576891099
C  C142  1  0.24561000  0.10973000  0.92827000  1.0 -0.0576891099
C  C143  1  0.10973000  0.24561000  0.71639000  1.0 -0.0576891099
C  C144  1  0.92827000  0.71639000  0.24561000  1.0 -0.0576891099
C  C145  1  0.77568000  0.21320000  0.43200000  1.0 -0.1291432441
C  C146  1  0.21320000  0.77568000  0.57912000  1.0 -0.1291432441
C  C147  1  0.43200000  0.57912000  0.77568000  1.0 -0.1291432441
C  C148  1  0.57912000  0.43200000  0.21320000  1.0 -0.1291432441
C  C149  1  0.43200000  0.77568000  0.21320000  1.0 -0.1291432441
C  C150  1  0.57912000  0.21320000  0.77568000  1.0 -0.1291432441
C  C151  1  0.77568000  0.43200000  0.57912000  1.0 -0.1291432441
C  C152  1  0.21320000  0.57912000  0.43200000  1.0 -0.1291432441
C  C153  1  0.21320000  0.43200000  0.77568000  1.0 -0.1291432441
C  C154  1  0.77568000  0.57912000  0.21320000  1.0 -0.1291432441
C  C155  1  0.57912000  0.77568000  0.43200000  1.0 -0.1291432441
C  C156  1  0.43200000  0.21320000  0.57912000  1.0 -0.1291432441
C  C157  1  0.47432000  0.03680000  0.67088000  1.0 -0.1291432441
C  C158  1  0.03680000  0.47432000  0.81800000  1.0 -0.1291432441
C  C159  1  0.81800000  0.67088000  0.03680000  1.0 -0.1291432441
C  C160  1  0.67088000  0.81800000  0.47432000  1.0 -0.1291432441
C  C161  1  0.81800000  0.47432000  0.67088000  1.0 -0.1291432441
C  C162  1  0.67088000  0.03680000  0.81800000  1.0 -0.1291432441
C  C163  1  0.47432000  0.81800000  0.03680000  1.0 -0.1291432441
C  C164  1  0.03680000  0.67088000  0.47432000  1.0 -0.1291432441
C  C165  1  0.03680000  0.81800000  0.67088000  1.0 -0.1291432441
C  C166  1  0.47432000  0.67088000  0.81800000  1.0 -0.1291432441
C  C167  1  0.67088000  0.47432000  0.03680000  1.0 -0.1291432441
C  C168  1  0.81800000  0.03680000  0.47432000  1.0 -0.1291432441
C  C169  1  0.97432000  0.53680000  0.31800000  1.0 -0.1291432441
C  C170  1  0.53680000  0.97432000  0.17088000  1.0 -0.1291432441
C  C171  1  0.31800000  0.17088000  0.97432000  1.0 -0.1291432441
C  C172  1  0.17088000  0.31800000  0.53680000  1.0 -0.1291432441
C  C173  1  0.31800000  0.97432000  0.53680000  1.0 -0.1291432441
C  C174  1  0.17088000  0.53680000  0.97432000  1.0 -0.1291432441
C  C175  1  0.97432000  0.31800000  0.17088000  1.0 -0.1291432441
C  C176  1  0.53680000  0.17088000  0.31800000  1.0 -0.1291432441
C  C177  1  0.53680000  0.31800000  0.97432000  1.0 -0.1291432441
C  C178  1  0.97432000  0.17088000  0.53680000  1.0 -0.1291432441
C  C179  1  0.17088000  0.97432000  0.31800000  1.0 -0.1291432441
C  C180  1  0.31800000  0.53680000  0.17088000  1.0 -0.1291432441
C  C181  1  0.27568000  0.71320000  0.07912000  1.0 -0.1291432441
C  C182  1  0.71320000  0.27568000  0.93200000  1.0 -0.1291432441
C  C183  1  0.93200000  0.07912000  0.71320000  1.0 -0.1291432441
C  C184  1  0.07912000  0.93200000  0.27568000  1.0 -0.1291432441
C  C185  1  0.93200000  0.27568000  0.07912000  1.0 -0.1291432441
C  C186  1  0.07912000  0.71320000  0.93200000  1.0 -0.1291432441
C  C187  1  0.27568000  0.93200000  0.71320000  1.0 -0.1291432441
C  C188  1  0.71320000  0.07912000  0.27568000  1.0 -0.1291432441
C  C189  1  0.71320000  0.93200000  0.07912000  1.0 -0.1291432441
C  C190  1  0.27568000  0.07912000  0.93200000  1.0 -0.1291432441
C  C191  1  0.07912000  0.27568000  0.71320000  1.0 -0.1291432441
C  C192  1  0.93200000  0.71320000  0.27568000  1.0 -0.1291432441
C  C193  1  0.80871000  0.18749000  0.42099000  1.0 0.0701335564
C  C194  1  0.18749000  0.80871000  0.58281000  1.0 0.0701335564
C  C195  1  0.42099000  0.58281000  0.80871000  1.0 0.0701335564
C  C196  1  0.58281000  0.42099000  0.18749000  1.0 0.0701335564
C  C197  1  0.42099000  0.80871000  0.18749000  1.0 0.0701335564
C  C198  1  0.58281000  0.18749000  0.80871000  1.0 0.0701335564
C  C199  1  0.80871000  0.42099000  0.58281000  1.0 0.0701335564
C  C200  1  0.18749000  0.58281000  0.42099000  1.0 0.0701335564
C  C201  1  0.18749000  0.42099000  0.80871000  1.0 0.0701335564
C  C202  1  0.80871000  0.58281000  0.18749000  1.0 0.0701335564
C  C203  1  0.58281000  0.80871000  0.42099000  1.0 0.0701335564
C  C204  1  0.42099000  0.18749000  0.58281000  1.0 0.0701335564
C  C205  1  0.44129000  0.06251000  0.66719000  1.0 0.0701335564
C  C206  1  0.06251000  0.44129000  0.82901000  1.0 0.0701335564
C  C207  1  0.82901000  0.66719000  0.06251000  1.0 0.0701335564
C  C208  1  0.66719000  0.82901000  0.44129000  1.0 0.0701335564
C  C209  1  0.82901000  0.44129000  0.66719000  1.0 0.0701335564
C  C210  1  0.66719000  0.06251000  0.82901000  1.0 0.0701335564
C  C211  1  0.44129000  0.82901000  0.06251000  1.0 0.0701335564
C  C212  1  0.06251000  0.66719000  0.44129000  1.0 0.0701335564
C  C213  1  0.06251000  0.82901000  0.66719000  1.0 0.0701335564
C  C214  1  0.44129000  0.66719000  0.82901000  1.0 0.0701335564
C  C215  1  0.66719000  0.44129000  0.06251000  1.0 0.0701335564
C  C216  1  0.82901000  0.06251000  0.44129000  1.0 0.0701335564
C  C217  1  0.94129000  0.56251000  0.32901000  1.0 0.0701335564
C  C218  1  0.56251000  0.94129000  0.16719000  1.0 0.0701335564
C  C219  1  0.32901000  0.16719000  0.94129000  1.0 0.0701335564
C  C220  1  0.16719000  0.32901000  0.56251000  1.0 0.0701335564
C  C221  1  0.32901000  0.94129000  0.56251000  1.0 0.0701335564
C  C222  1  0.16719000  0.56251000  0.94129000  1.0 0.0701335564
C  C223  1  0.94129000  0.32901000  0.16719000  1.0 0.0701335564
C  C224  1  0.56251000  0.16719000  0.32901000  1.0 0.0701335564
C  C225  1  0.56251000  0.32901000  0.94129000  1.0 0.0701335564
C  C226  1  0.94129000  0.16719000  0.56251000  1.0 0.0701335564
C  C227  1  0.16719000  0.94129000  0.32901000  1.0 0.0701335564
C  C228  1  0.32901000  0.56251000  0.16719000  1.0 0.0701335564
C  C229  1  0.30871000  0.68749000  0.08281000  1.0 0.0701335564
C  C230  1  0.68749000  0.30871000  0.92099000  1.0 0.0701335564
C  C231  1  0.92099000  0.08281000  0.68749000  1.0 0.0701335564
C  C232  1  0.08281000  0.92099000  0.30871000  1.0 0.0701335564
C  C233  1  0.92099000  0.30871000  0.08281000  1.0 0.0701335564
C  C234  1  0.08281000  0.68749000  0.92099000  1.0 0.0701335564
C  C235  1  0.30871000  0.92099000  0.68749000  1.0 0.0701335564
C  C236  1  0.68749000  0.08281000  0.30871000  1.0 0.0701335564
C  C237  1  0.68749000  0.92099000  0.08281000  1.0 0.0701335564
C  C238  1  0.30871000  0.08281000  0.92099000  1.0 0.0701335564
C  C239  1  0.08281000  0.30871000  0.68749000  1.0 0.0701335564
C  C240  1  0.92099000  0.68749000  0.30871000  1.0 0.0701335564
C  C241  1  0.64905000  0.03853000  0.39751000  1.0 0.2409072584
C  C242  1  0.03853000  0.64905000  0.91491000  1.0 0.2409072584
C  C243  1  0.39751000  0.91491000  0.64905000  1.0 0.2409072584
C  C244  1  0.91491000  0.39751000  0.03853000  1.0 0.2409072584
C  C245  1  0.39751000  0.64905000  0.03853000  1.0 0.2409072584
C  C246  1  0.91491000  0.03853000  0.64905000  1.0 0.2409072584
C  C247  1  0.64905000  0.39751000  0.91491000  1.0 0.2409072584
C  C248  1  0.03853000  0.91491000  0.39751000  1.0 0.2409072584
C  C249  1  0.03853000  0.39751000  0.64905000  1.0 0.2409072584
C  C250  1  0.64905000  0.91491000  0.03853000  1.0 0.2409072584
C  C251  1  0.91491000  0.64905000  0.39751000  1.0 0.2409072584
C  C252  1  0.39751000  0.03853000  0.91491000  1.0 0.2409072584
C  C253  1  0.60095000  0.21147000  0.33509000  1.0 0.2409072584
C  C254  1  0.21147000  0.60095000  0.85249000  1.0 0.2409072584
C  C255  1  0.85249000  0.33509000  0.21147000  1.0 0.2409072584
C  C256  1  0.33509000  0.85249000  0.60095000  1.0 0.2409072584
C  C257  1  0.85249000  0.60095000  0.33509000  1.0 0.2409072584
C  C258  1  0.33509000  0.21147000  0.85249000  1.0 0.2409072584
C  C259  1  0.60095000  0.85249000  0.21147000  1.0 0.2409072584
C  C260  1  0.21147000  0.33509000  0.60095000  1.0 0.2409072584
C  C261  1  0.21147000  0.85249000  0.33509000  1.0 0.2409072584
C  C262  1  0.60095000  0.33509000  0.85249000  1.0 0.2409072584
C  C263  1  0.33509000  0.60095000  0.21147000  1.0 0.2409072584
C  C264  1  0.85249000  0.21147000  0.60095000  1.0 0.2409072584
C  C265  1  0.10095000  0.71147000  0.35249000  1.0 0.2409072584
C  C266  1  0.71147000  0.10095000  0.83509000  1.0 0.2409072584
C  C267  1  0.35249000  0.83509000  0.10095000  1.0 0.2409072584
C  C268  1  0.83509000  0.35249000  0.71147000  1.0 0.2409072584
C  C269  1  0.35249000  0.10095000  0.71147000  1.0 0.2409072584
C  C270  1  0.83509000  0.71147000  0.10095000  1.0 0.2409072584
C  C271  1  0.10095000  0.35249000  0.83509000  1.0 0.2409072584
C  C272  1  0.71147000  0.83509000  0.35249000  1.0 0.2409072584
C  C273  1  0.71147000  0.35249000  0.10095000  1.0 0.2409072584
C  C274  1  0.10095000  0.83509000  0.71147000  1.0 0.2409072584
C  C275  1  0.83509000  0.10095000  0.35249000  1.0 0.2409072584
C  C276  1  0.35249000  0.71147000  0.83509000  1.0 0.2409072584
C  C277  1  0.14905000  0.53853000  0.41491000  1.0 0.2409072584
C  C278  1  0.53853000  0.14905000  0.89751000  1.0 0.2409072584
C  C279  1  0.89751000  0.41491000  0.53853000  1.0 0.2409072584
C  C280  1  0.41491000  0.89751000  0.14905000  1.0 0.2409072584
C  C281  1  0.89751000  0.14905000  0.41491000  1.0 0.2409072584
C  C282  1  0.41491000  0.53853000  0.89751000  1.0 0.2409072584
C  C283  1  0.14905000  0.89751000  0.53853000  1.0 0.2409072584
C  C284  1  0.53853000  0.41491000  0.14905000  1.0 0.2409072584
C  C285  1  0.53853000  0.89751000  0.41491000  1.0 0.2409072584
C  C286  1  0.14905000  0.41491000  0.89751000  1.0 0.2409072584
C  C287  1  0.41491000  0.14905000  0.53853000  1.0 0.2409072584
C  C288  1  0.89751000  0.53853000  0.14905000  1.0 0.2409072584
C  C289  1  0.69653000  0.08415000  0.38311000  1.0 0.0838185298
C  C290  1  0.08415000  0.69653000  0.83621000  1.0 0.0838185298
C  C291  1  0.38311000  0.83621000  0.69653000  1.0 0.0838185298
C  C292  1  0.83621000  0.38311000  0.08415000  1.0 0.0838185298
C  C293  1  0.38311000  0.69653000  0.08415000  1.0 0.0838185298
C  C294  1  0.83621000  0.08415000  0.69653000  1.0 0.0838185298
C  C295  1  0.69653000  0.38311000  0.83621000  1.0 0.0838185298
C  C296  1  0.08415000  0.83621000  0.38311000  1.0 0.0838185298
C  C297  1  0.08415000  0.38311000  0.69653000  1.0 0.0838185298
C  C298  1  0.69653000  0.83621000  0.08415000  1.0 0.0838185298
C  C299  1  0.83621000  0.69653000  0.38311000  1.0 0.0838185298
C  C300  1  0.38311000  0.08415000  0.83621000  1.0 0.0838185298
C  C301  1  0.55347000  0.16585000  0.41379000  1.0 0.0838185298
C  C302  1  0.16585000  0.55347000  0.86689000  1.0 0.0838185298
C  C303  1  0.86689000  0.41379000  0.16585000  1.0 0.0838185298
C  C304  1  0.41379000  0.86689000  0.55347000  1.0 0.0838185298
C  C305  1  0.86689000  0.55347000  0.41379000  1.0 0.0838185298
C  C306  1  0.41379000  0.16585000  0.86689000  1.0 0.0838185298
C  C307  1  0.55347000  0.86689000  0.16585000  1.0 0.0838185298
C  C308  1  0.16585000  0.41379000  0.55347000  1.0 0.0838185298
C  C309  1  0.16585000  0.86689000  0.41379000  1.0 0.0838185298
C  C310  1  0.55347000  0.41379000  0.86689000  1.0 0.0838185298
C  C311  1  0.41379000  0.55347000  0.16585000  1.0 0.0838185298
C  C312  1  0.86689000  0.16585000  0.55347000  1.0 0.0838185298
C  C313  1  0.05347000  0.66585000  0.36689000  1.0 0.0838185298
C  C314  1  0.66585000  0.05347000  0.91379000  1.0 0.0838185298
C  C315  1  0.36689000  0.91379000  0.05347000  1.0 0.0838185298
C  C316  1  0.91379000  0.36689000  0.66585000  1.0 0.0838185298
C  C317  1  0.36689000  0.05347000  0.66585000  1.0 0.0838185298
C  C318  1  0.91379000  0.66585000  0.05347000  1.0 0.0838185298
C  C319  1  0.05347000  0.36689000  0.91379000  1.0 0.0838185298
C  C320  1  0.66585000  0.91379000  0.36689000  1.0 0.0838185298
C  C321  1  0.66585000  0.36689000  0.05347000  1.0 0.0838185298
C  C322  1  0.05347000  0.91379000  0.66585000  1.0 0.0838185298
C  C323  1  0.91379000  0.05347000  0.36689000  1.0 0.0838185298
C  C324  1  0.36689000  0.66585000  0.91379000  1.0 0.0838185298
C  C325  1  0.19653000  0.58415000  0.33621000  1.0 0.0838185298
C  C326  1  0.58415000  0.19653000  0.88311000  1.0 0.0838185298
C  C327  1  0.88311000  0.33621000  0.58415000  1.0 0.0838185298
C  C328  1  0.33621000  0.88311000  0.19653000  1.0 0.0838185298
C  C329  1  0.88311000  0.19653000  0.33621000  1.0 0.0838185298
C  C330  1  0.33621000  0.58415000  0.88311000  1.0 0.0838185298
C  C331  1  0.19653000  0.88311000  0.58415000  1.0 0.0838185298
C  C332  1  0.58415000  0.33621000  0.19653000  1.0 0.0838185298
C  C333  1  0.58415000  0.88311000  0.33621000  1.0 0.0838185298
C  C334  1  0.19653000  0.33621000  0.88311000  1.0 0.0838185298
C  C335  1  0.33621000  0.19653000  0.58415000  1.0 0.0838185298
C  C336  1  0.88311000  0.58415000  0.19653000  1.0 0.0838185298
C  C337  1  0.72615000  0.07975000  0.38913000  1.0 -0.1291432441
C  C338  1  0.07975000  0.72615000  0.80497000  1.0 -0.1291432441
C  C339  1  0.38913000  0.80497000  0.72615000  1.0 -0.1291432441
C  C340  1  0.80497000  0.38913000  0.07975000  1.0 -0.1291432441
C  C341  1  0.38913000  0.72615000  0.07975000  1.0 -0.1291432441
C  C342  1  0.80497000  0.07975000  0.72615000  1.0 -0.1291432441
C  C343  1  0.72615000  0.38913000  0.80497000  1.0 -0.1291432441
C  C344  1  0.07975000  0.80497000  0.38913000  1.0 -0.1291432441
C  C345  1  0.07975000  0.38913000  0.72615000  1.0 -0.1291432441
C  C346  1  0.72615000  0.80497000  0.07975000  1.0 -0.1291432441
C  C347  1  0.80497000  0.72615000  0.38913000  1.0 -0.1291432441
C  C348  1  0.38913000  0.07975000  0.80497000  1.0 -0.1291432441
C  C349  1  0.52385000  0.17025000  0.44503000  1.0 -0.1291432441
C  C350  1  0.17025000  0.52385000  0.86087000  1.0 -0.1291432441
C  C351  1  0.86087000  0.44503000  0.17025000  1.0 -0.1291432441
C  C352  1  0.44503000  0.86087000  0.52385000  1.0 -0.1291432441
C  C353  1  0.86087000  0.52385000  0.44503000  1.0 -0.1291432441
C  C354  1  0.44503000  0.17025000  0.86087000  1.0 -0.1291432441
C  C355  1  0.52385000  0.86087000  0.17025000  1.0 -0.1291432441
C  C356  1  0.17025000  0.44503000  0.52385000  1.0 -0.1291432441
C  C357  1  0.17025000  0.86087000  0.44503000  1.0 -0.1291432441
C  C358  1  0.52385000  0.44503000  0.86087000  1.0 -0.1291432441
C  C359  1  0.44503000  0.52385000  0.17025000  1.0 -0.1291432441
C  C360  1  0.86087000  0.17025000  0.52385000  1.0 -0.1291432441
C  C361  1  0.02385000  0.67025000  0.36087000  1.0 -0.1291432441
C  C362  1  0.67025000  0.02385000  0.94503000  1.0 -0.1291432441
C  C363  1  0.36087000  0.94503000  0.02385000  1.0 -0.1291432441
C  C364  1  0.94503000  0.36087000  0.67025000  1.0 -0.1291432441
C  C365  1  0.36087000  0.02385000  0.67025000  1.0 -0.1291432441
C  C366  1  0.94503000  0.67025000  0.02385000  1.0 -0.1291432441
C  C367  1  0.02385000  0.36087000  0.94503000  1.0 -0.1291432441
C  C368  1  0.67025000  0.94503000  0.36087000  1.0 -0.1291432441
C  C369  1  0.67025000  0.36087000  0.02385000  1.0 -0.1291432441
C  C370  1  0.02385000  0.94503000  0.67025000  1.0 -0.1291432441
C  C371  1  0.94503000  0.02385000  0.36087000  1.0 -0.1291432441
C  C372  1  0.36087000  0.67025000  0.94503000  1.0 -0.1291432441
C  C373  1  0.22615000  0.57975000  0.30497000  1.0 -0.1291432441
C  C374  1  0.57975000  0.22615000  0.88913000  1.0 -0.1291432441
C  C375  1  0.88913000  0.30497000  0.57975000  1.0 -0.1291432441
C  C376  1  0.30497000  0.88913000  0.22615000  1.0 -0.1291432441
C  C377  1  0.88913000  0.22615000  0.30497000  1.0 -0.1291432441
C  C378  1  0.30497000  0.57975000  0.88913000  1.0 -0.1291432441
C  C379  1  0.22615000  0.88913000  0.57975000  1.0 -0.1291432441
C  C380  1  0.57975000  0.30497000  0.22615000  1.0 -0.1291432441
C  C381  1  0.57975000  0.88913000  0.30497000  1.0 -0.1291432441
C  C382  1  0.22615000  0.30497000  0.88913000  1.0 -0.1291432441
C  C383  1  0.30497000  0.22615000  0.57975000  1.0 -0.1291432441
C  C384  1  0.88913000  0.57975000  0.22615000  1.0 -0.1291432441
C  C385  1  0.72627000  0.10727000  0.39375000  1.0 -0.0576891099
C  C386  1  0.10727000  0.72627000  0.77271000  1.0 -0.0576891099
C  C387  1  0.39375000  0.77271000  0.72627000  1.0 -0.0576891099
C  C388  1  0.77271000  0.39375000  0.10727000  1.0 -0.0576891099
C  C389  1  0.39375000  0.72627000  0.10727000  1.0 -0.0576891099
C  C390  1  0.77271000  0.10727000  0.72627000  1.0 -0.0576891099
C  C391  1  0.72627000  0.39375000  0.77271000  1.0 -0.0576891099
C  C392  1  0.10727000  0.77271000  0.39375000  1.0 -0.0576891099
C  C393  1  0.10727000  0.39375000  0.72627000  1.0 -0.0576891099
C  C394  1  0.72627000  0.77271000  0.10727000  1.0 -0.0576891099
C  C395  1  0.77271000  0.72627000  0.39375000  1.0 -0.0576891099
C  C396  1  0.39375000  0.10727000  0.77271000  1.0 -0.0576891099
C  C397  1  0.52373000  0.14273000  0.47729000  1.0 -0.0576891099
C  C398  1  0.14273000  0.52373000  0.85625000  1.0 -0.0576891099
C  C399  1  0.85625000  0.47729000  0.14273000  1.0 -0.0576891099
C  C400  1  0.47729000  0.85625000  0.52373000  1.0 -0.0576891099
C  C401  1  0.85625000  0.52373000  0.47729000  1.0 -0.0576891099
C  C402  1  0.47729000  0.14273000  0.85625000  1.0 -0.0576891099
C  C403  1  0.52373000  0.85625000  0.14273000  1.0 -0.0576891099
C  C404  1  0.14273000  0.47729000  0.52373000  1.0 -0.0576891099
C  C405  1  0.14273000  0.85625000  0.47729000  1.0 -0.0576891099
C  C406  1  0.52373000  0.47729000  0.85625000  1.0 -0.0576891099
C  C407  1  0.47729000  0.52373000  0.14273000  1.0 -0.0576891099
C  C408  1  0.85625000  0.14273000  0.52373000  1.0 -0.0576891099
C  C409  1  0.02373000  0.64273000  0.35625000  1.0 -0.0576891099
C  C410  1  0.64273000  0.02373000  0.97729000  1.0 -0.0576891099
C  C411  1  0.35625000  0.97729000  0.02373000  1.0 -0.0576891099
C  C412  1  0.97729000  0.35625000  0.64273000  1.0 -0.0576891099
C  C413  1  0.35625000  0.02373000  0.64273000  1.0 -0.0576891099
C  C414  1  0.97729000  0.64273000  0.02373000  1.0 -0.0576891099
C  C415  1  0.02373000  0.35625000  0.97729000  1.0 -0.0576891099
C  C416  1  0.64273000  0.97729000  0.35625000  1.0 -0.0576891099
C  C417  1  0.64273000  0.35625000  0.02373000  1.0 -0.0576891099
C  C418  1  0.02373000  0.97729000  0.64273000  1.0 -0.0576891099
C  C419  1  0.97729000  0.02373000  0.35625000  1.0 -0.0576891099
C  C420  1  0.35625000  0.64273000  0.97729000  1.0 -0.0576891099
C  C421  1  0.22627000  0.60727000  0.27271000  1.0 -0.0576891099
C  C422  1  0.60727000  0.22627000  0.89375000  1.0 -0.0576891099
C  C423  1  0.89375000  0.27271000  0.60727000  1.0 -0.0576891099
C  C424  1  0.27271000  0.89375000  0.22627000  1.0 -0.0576891099
C  C425  1  0.89375000  0.22627000  0.27271000  1.0 -0.0576891099
C  C426  1  0.27271000  0.60727000  0.89375000  1.0 -0.0576891099
C  C427  1  0.22627000  0.89375000  0.60727000  1.0 -0.0576891099
C  C428  1  0.60727000  0.27271000  0.22627000  1.0 -0.0576891099
C  C429  1  0.60727000  0.89375000  0.27271000  1.0 -0.0576891099
C  C430  1  0.22627000  0.27271000  0.89375000  1.0 -0.0576891099
C  C431  1  0.27271000  0.22627000  0.60727000  1.0 -0.0576891099
C  C432  1  0.89375000  0.60727000  0.22627000  1.0 -0.0576891099
C  C433  1  0.69682000  0.13984000  0.39130000  1.0 -0.0238886042
C  C434  1  0.13984000  0.69682000  0.77204000  1.0 -0.0238886042
C  C435  1  0.39130000  0.77204000  0.69682000  1.0 -0.0238886042
C  C436  1  0.77204000  0.39130000  0.13984000  1.0 -0.0238886042
C  C437  1  0.39130000  0.69682000  0.13984000  1.0 -0.0264629153
C  C438  1  0.77204000  0.13984000  0.69682000  1.0 -0.0238886042
C  C439  1  0.69682000  0.39130000  0.77204000  1.0 -0.0238886042
C  C440  1  0.13984000  0.77204000  0.39130000  1.0 -0.0238886042
C  C441  1  0.13984000  0.39130000  0.69682000  1.0 -0.0238886042
C  C442  1  0.69682000  0.77204000  0.13984000  1.0 -0.0238886042
C  C443  1  0.77204000  0.69682000  0.39130000  1.0 -0.0238886042
C  C444  1  0.39130000  0.13984000  0.77204000  1.0 -0.0238886042
C  C445  1  0.55318000  0.11016000  0.47796000  1.0 -0.0238886042
C  C446  1  0.11016000  0.55318000  0.85870000  1.0 -0.0238886042
C  C447  1  0.85870000  0.47796000  0.11016000  1.0 -0.0238886042
C  C448  1  0.47796000  0.85870000  0.55318000  1.0 -0.0238886042
C  C449  1  0.85870000  0.55318000  0.47796000  1.0 -0.0238886042
C  C450  1  0.47796000  0.11016000  0.85870000  1.0 -0.0238886042
C  C451  1  0.55318000  0.85870000  0.11016000  1.0 -0.0238886042
C  C452  1  0.11016000  0.47796000  0.55318000  1.0 -0.0264629153
C  C453  1  0.11016000  0.85870000  0.47796000  1.0 -0.0238886042
C  C454  1  0.55318000  0.47796000  0.85870000  1.0 -0.0238886042
C  C455  1  0.47796000  0.55318000  0.11016000  1.0 -0.0238886042
C  C456  1  0.85870000  0.11016000  0.55318000  1.0 -0.0238886042
C  C457  1  0.05318000  0.61016000  0.35870000  1.0 -0.0238886042
C  C458  1  0.61016000  0.05318000  0.97796000  1.0 -0.0238886042
C  C459  1  0.35870000  0.97796000  0.05318000  1.0 -0.0238886042
C  C460  1  0.97796000  0.35870000  0.61016000  1.0 -0.0238886042
C  C461  1  0.35870000  0.05318000  0.61016000  1.0 -0.0238886042
C  C462  1  0.97796000  0.61016000  0.05318000  1.0 -0.0238886042
C  C463  1  0.05318000  0.35870000  0.97796000  1.0 -0.0238886042
C  C464  1  0.61016000  0.97796000  0.35870000  1.0 -0.0264629153
C  C465  1  0.61016000  0.35870000  0.05318000  1.0 -0.0238886042
C  C466  1  0.05318000  0.97796000  0.61016000  1.0 -0.0264629153
C  C467  1  0.97796000  0.05318000  0.35870000  1.0 -0.0238886042
C  C468  1  0.35870000  0.61016000  0.97796000  1.0 -0.0238886042
C  C469  1  0.19682000  0.63984000  0.27204000  1.0 -0.0264629153
C  C470  1  0.63984000  0.19682000  0.89130000  1.0 -0.0238886042
C  C471  1  0.89130000  0.27204000  0.63984000  1.0 -0.0238886042
C  C472  1  0.27204000  0.89130000  0.19682000  1.0 -0.0264629153
C  C473  1  0.89130000  0.19682000  0.27204000  1.0 -0.0238886042
C  C474  1  0.27204000  0.63984000  0.89130000  1.0 -0.0238886042
C  C475  1  0.19682000  0.89130000  0.63984000  1.0 -0.0264629153
C  C476  1  0.63984000  0.27204000  0.19682000  1.0 -0.0238886042
C  C477  1  0.63984000  0.89130000  0.27204000  1.0 -0.0264629153
C  C478  1  0.19682000  0.27204000  0.89130000  1.0 -0.0238886042
C  C479  1  0.27204000  0.19682000  0.63984000  1.0 -0.0264629153
C  C480  1  0.89130000  0.63984000  0.19682000  1.0 -0.0238886042
C  C481  1  0.66908000  0.14222000  0.38430000  1.0 0.0630745106
C  C482  1  0.14222000  0.66908000  0.80440000  1.0 0.0630745106
C  C483  1  0.38430000  0.80440000  0.66908000  1.0 0.0630745106
C  C484  1  0.80440000  0.38430000  0.14222000  1.0 0.0630745106
C  C485  1  0.38430000  0.66908000  0.14222000  1.0 0.0630745106
C  C486  1  0.80440000  0.14222000  0.66908000  1.0 0.0630745106
C  C487  1  0.66908000  0.38430000  0.80440000  1.0 0.0630745106
C  C488  1  0.14222000  0.80440000  0.38430000  1.0 0.0630745106
C  C489  1  0.14222000  0.38430000  0.66908000  1.0 0.0630745106
C  C490  1  0.66908000  0.80440000  0.14222000  1.0 0.0630745106
C  C491  1  0.80440000  0.66908000  0.38430000  1.0 0.0630745106
C  C492  1  0.38430000  0.14222000  0.80440000  1.0 0.0630745106
C  C493  1  0.58092000  0.10778000  0.44560000  1.0 0.0630745106
C  C494  1  0.10778000  0.58092000  0.86570000  1.0 0.0630745106
C  C495  1  0.86570000  0.44560000  0.10778000  1.0 0.0630745106
C  C496  1  0.44560000  0.86570000  0.58092000  1.0 0.0630745106
C  C497  1  0.86570000  0.58092000  0.44560000  1.0 0.0630745106
C  C498  1  0.44560000  0.10778000  0.86570000  1.0 0.0630745106
C  C499  1  0.58092000  0.86570000  0.10778000  1.0 0.0630745106
C  C500  1  0.10778000  0.44560000  0.58092000  1.0 0.0630745106
C  C501  1  0.10778000  0.86570000  0.44560000  1.0 0.0630745106
C  C502  1  0.58092000  0.44560000  0.86570000  1.0 0.0630745106
C  C503  1  0.44560000  0.58092000  0.10778000  1.0 0.0630745106
C  C504  1  0.86570000  0.10778000  0.58092000  1.0 0.0630745106
C  C505  1  0.08092000  0.60778000  0.36570000  1.0 0.0630745106
C  C506  1  0.60778000  0.08092000  0.94560000  1.0 0.0630745106
C  C507  1  0.36570000  0.94560000  0.08092000  1.0 0.0630745106
C  C508  1  0.94560000  0.36570000  0.60778000  1.0 0.0630745106
C  C509  1  0.36570000  0.08092000  0.60778000  1.0 0.0630745106
C  C510  1  0.94560000  0.60778000  0.08092000  1.0 0.0630745106
C  C511  1  0.08092000  0.36570000  0.94560000  1.0 0.0630745106
C  C512  1  0.60778000  0.94560000  0.36570000  1.0 0.0630745106
C  C513  1  0.60778000  0.36570000  0.08092000  1.0 0.0630745106
C  C514  1  0.08092000  0.94560000  0.60778000  1.0 0.0630745106
C  C515  1  0.94560000  0.08092000  0.36570000  1.0 0.0630745106
C  C516  1  0.36570000  0.60778000  0.94560000  1.0 0.0630745106
C  C517  1  0.16908000  0.64222000  0.30440000  1.0 0.0630745106
C  C518  1  0.64222000  0.16908000  0.88430000  1.0 0.0630745106
C  C519  1  0.88430000  0.30440000  0.64222000  1.0 0.0630745106
C  C520  1  0.30440000  0.88430000  0.16908000  1.0 0.0630745106
C  C521  1  0.88430000  0.16908000  0.30440000  1.0 0.0630745106
C  C522  1  0.30440000  0.64222000  0.88430000  1.0 0.0630745106
C  C523  1  0.16908000  0.88430000  0.64222000  1.0 0.0630745106
C  C524  1  0.64222000  0.30440000  0.16908000  1.0 0.0630745106
C  C525  1  0.64222000  0.88430000  0.30440000  1.0 0.0630745106
C  C526  1  0.16908000  0.30440000  0.88430000  1.0 0.0630745106
C  C527  1  0.30440000  0.16908000  0.64222000  1.0 0.0630745106
C  C528  1  0.88430000  0.64222000  0.16908000  1.0 0.0630745106
C  C529  1  0.69594000  0.17100000  0.39482000  1.0 0.3680450864
C  C530  1  0.17100000  0.69594000  0.73824000  1.0 0.3680450864
C  C531  1  0.39482000  0.73824000  0.69594000  1.0 0.3680450864
C  C532  1  0.73824000  0.39482000  0.17100000  1.0 0.3680450864
C  C533  1  0.39482000  0.69594000  0.17100000  1.0 0.3680450864
C  C534  1  0.73824000  0.17100000  0.69594000  1.0 0.3680450864
C  C535  1  0.69594000  0.39482000  0.73824000  1.0 0.3680450864
C  C536  1  0.17100000  0.73824000  0.39482000  1.0 0.3680450864
C  C537  1  0.17100000  0.39482000  0.69594000  1.0 0.3680450864
C  C538  1  0.69594000  0.73824000  0.17100000  1.0 0.3680450864
C  C539  1  0.73824000  0.69594000  0.39482000  1.0 0.3680450864
C  C540  1  0.39482000  0.17100000  0.73824000  1.0 0.3680450864
C  C541  1  0.55406000  0.07900000  0.51176000  1.0 0.3680450864
C  C542  1  0.07900000  0.55406000  0.85518000  1.0 0.3680450864
C  C543  1  0.85518000  0.51176000  0.07900000  1.0 0.3680450864
C  C544  1  0.51176000  0.85518000  0.55406000  1.0 0.3680450864
C  C545  1  0.85518000  0.55406000  0.51176000  1.0 0.3680450864
C  C546  1  0.51176000  0.07900000  0.85518000  1.0 0.3680450864
C  C547  1  0.55406000  0.85518000  0.07900000  1.0 0.3680450864
C  C548  1  0.07900000  0.51176000  0.55406000  1.0 0.3680450864
C  C549  1  0.07900000  0.85518000  0.51176000  1.0 0.3680450864
C  C550  1  0.55406000  0.51176000  0.85518000  1.0 0.3680450864
C  C551  1  0.51176000  0.55406000  0.07900000  1.0 0.3680450864
C  C552  1  0.85518000  0.07900000  0.55406000  1.0 0.3680450864
C  C553  1  0.05406000  0.57900000  0.35518000  1.0 0.3680450864
C  C554  1  0.57900000  0.05406000  0.01176000  1.0 0.3680450864
C  C555  1  0.35518000  0.01176000  0.05406000  1.0 0.3680450864
C  C556  1  0.01176000  0.35518000  0.57900000  1.0 0.3680450864
C  C557  1  0.35518000  0.05406000  0.57900000  1.0 0.3680450864
C  C558  1  0.01176000  0.57900000  0.05406000  1.0 0.3680450864
C  C559  1  0.05406000  0.35518000  0.01176000  1.0 0.3680450864
C  C560  1  0.57900000  0.01176000  0.35518000  1.0 0.3680450864
C  C561  1  0.57900000  0.35518000  0.05406000  1.0 0.3680450864
C  C562  1  0.05406000  0.01176000  0.57900000  1.0 0.3680450864
C  C563  1  0.01176000  0.05406000  0.35518000  1.0 0.3680450864
C  C564  1  0.35518000  0.57900000  0.01176000  1.0 0.3680450864
C  C565  1  0.19594000  0.67100000  0.23824000  1.0 0.3680450864
C  C566  1  0.67100000  0.19594000  0.89482000  1.0 0.3680450864
C  C567  1  0.89482000  0.23824000  0.67100000  1.0 0.3680450864
C  C568  1  0.23824000  0.89482000  0.19594000  1.0 0.3680450864
C  C569  1  0.89482000  0.19594000  0.23824000  1.0 0.3680450864
C  C570  1  0.23824000  0.67100000  0.89482000  1.0 0.3680450864
C  C571  1  0.19594000  0.89482000  0.67100000  1.0 0.3680450864
C  C572  1  0.67100000  0.23824000  0.19594000  1.0 0.3680450864
C  C573  1  0.67100000  0.89482000  0.23824000  1.0 0.3680450864
C  C574  1  0.19594000  0.23824000  0.89482000  1.0 0.3680450864
C  C575  1  0.23824000  0.19594000  0.67100000  1.0 0.3680450864
C  C576  1  0.89482000  0.67100000  0.19594000  1.0 0.3680450864
C  C577  1  0.71974000  0.19566000  0.40672000  1.0 0.3680450864
C  C578  1  0.19566000  0.71974000  0.67788000  1.0 0.3680450864
C  C579  1  0.40672000  0.67788000  0.71974000  1.0 0.3680450864
C  C580  1  0.67788000  0.40672000  0.19566000  1.0 0.3680450864
C  C581  1  0.40672000  0.71974000  0.19566000  1.0 0.3680450864
C  C582  1  0.67788000  0.19566000  0.71974000  1.0 0.3680450864
C  C583  1  0.71974000  0.40672000  0.67788000  1.0 0.3680450864
C  C584  1  0.19566000  0.67788000  0.40672000  1.0 0.3680450864
C  C585  1  0.19566000  0.40672000  0.71974000  1.0 0.3680450864
C  C586  1  0.71974000  0.67788000  0.19566000  1.0 0.3680450864
C  C587  1  0.67788000  0.71974000  0.40672000  1.0 0.3680450864
C  C588  1  0.40672000  0.19566000  0.67788000  1.0 0.3680450864
C  C589  1  0.53026000  0.05434000  0.57212000  1.0 0.3680450864
C  C590  1  0.05434000  0.53026000  0.84328000  1.0 0.3680450864
C  C591  1  0.84328000  0.57212000  0.05434000  1.0 0.3680450864
C  C592  1  0.57212000  0.84328000  0.53026000  1.0 0.3680450864
C  C593  1  0.84328000  0.53026000  0.57212000  1.0 0.3680450864
C  C594  1  0.57212000  0.05434000  0.84328000  1.0 0.3680450864
C  C595  1  0.53026000  0.84328000  0.05434000  1.0 0.3680450864
C  C596  1  0.05434000  0.57212000  0.53026000  1.0 0.3680450864
C  C597  1  0.05434000  0.84328000  0.57212000  1.0 0.3680450864
C  C598  1  0.53026000  0.57212000  0.84328000  1.0 0.3680450864
C  C599  1  0.57212000  0.53026000  0.05434000  1.0 0.3680450864
C  C600  1  0.84328000  0.05434000  0.53026000  1.0 0.3680450864
C  C601  1  0.03026000  0.55434000  0.34328000  1.0 0.3680450864
C  C602  1  0.55434000  0.03026000  0.07212000  1.0 0.3680450864
C  C603  1  0.34328000  0.07212000  0.03026000  1.0 0.3680450864
C  C604  1  0.07212000  0.34328000  0.55434000  1.0 0.3680450864
C  C605  1  0.34328000  0.03026000  0.55434000  1.0 0.3680450864
C  C606  1  0.07212000  0.55434000  0.03026000  1.0 0.3680450864
C  C607  1  0.03026000  0.34328000  0.07212000  1.0 0.3680450864
C  C608  1  0.55434000  0.07212000  0.34328000  1.0 0.3680450864
C  C609  1  0.55434000  0.34328000  0.03026000  1.0 0.3680450864
C  C610  1  0.03026000  0.07212000  0.55434000  1.0 0.3680450864
C  C611  1  0.07212000  0.03026000  0.34328000  1.0 0.3680450864
C  C612  1  0.34328000  0.55434000  0.07212000  1.0 0.3680450864
C  C613  1  0.21974000  0.69566000  0.17788000  1.0 0.3680450864
C  C614  1  0.69566000  0.21974000  0.90672000  1.0 0.3680450864
C  C615  1  0.90672000  0.17788000  0.69566000  1.0 0.3680450864
C  C616  1  0.17788000  0.90672000  0.21974000  1.0 0.3680450864
C  C617  1  0.90672000  0.21974000  0.17788000  1.0 0.3680450864
C  C618  1  0.17788000  0.69566000  0.90672000  1.0 0.3680450864
C  C619  1  0.21974000  0.90672000  0.69566000  1.0 0.3680450864
C  C620  1  0.69566000  0.17788000  0.21974000  1.0 0.3680450864
C  C621  1  0.69566000  0.90672000  0.17788000  1.0 0.3680450864
C  C622  1  0.21974000  0.17788000  0.90672000  1.0 0.3680450864
C  C623  1  0.17788000  0.21974000  0.69566000  1.0 0.3680450864
C  C624  1  0.90672000  0.69566000  0.21974000  1.0 0.3680450864
C  C625  1  0.66939000  0.22905000  0.39201000  1.0 0.3605006805
C  C626  1  0.22905000  0.66939000  0.70955000  1.0 0.3605006805
C  C627  1  0.39201000  0.70955000  0.66939000  1.0 0.3605006805
C  C628  1  0.70955000  0.39201000  0.22905000  1.0 0.3605006805
C  C629  1  0.39201000  0.66939000  0.22905000  1.0 0.3605006805
C  C630  1  0.70955000  0.22905000  0.66939000  1.0 0.3605006805
C  C631  1  0.66939000  0.39201000  0.70955000  1.0 0.3605006805
C  C632  1  0.22905000  0.70955000  0.39201000  1.0 0.3605006805
C  C633  1  0.22905000  0.39201000  0.66939000  1.0 0.3605006805
C  C634  1  0.66939000  0.70955000  0.22905000  1.0 0.3605006805
C  C635  1  0.70955000  0.66939000  0.39201000  1.0 0.3605006805
C  C636  1  0.39201000  0.22905000  0.70955000  1.0 0.3605006805
C  C637  1  0.58061000  0.02095000  0.54045000  1.0 0.3605006805
C  C638  1  0.02095000  0.58061000  0.85799000  1.0 0.3605006805
C  C639  1  0.85799000  0.54045000  0.02095000  1.0 0.3605006805
C  C640  1  0.54045000  0.85799000  0.58061000  1.0 0.3605006805
C  C641  1  0.85799000  0.58061000  0.54045000  1.0 0.3605006805
C  C642  1  0.54045000  0.02095000  0.85799000  1.0 0.3605006805
C  C643  1  0.58061000  0.85799000  0.02095000  1.0 0.3605006805
C  C644  1  0.02095000  0.54045000  0.58061000  1.0 0.3605006805
C  C645  1  0.02095000  0.85799000  0.54045000  1.0 0.3605006805
C  C646  1  0.58061000  0.54045000  0.85799000  1.0 0.3605006805
C  C647  1  0.54045000  0.58061000  0.02095000  1.0 0.3605006805
C  C648  1  0.85799000  0.02095000  0.58061000  1.0 0.3605006805
C  C649  1  0.08061000  0.52095000  0.35799000  1.0 0.3605006805
C  C650  1  0.52095000  0.08061000  0.04045000  1.0 0.3605006805
C  C651  1  0.35799000  0.04045000  0.08061000  1.0 0.3605006805
C  C652  1  0.04045000  0.35799000  0.52095000  1.0 0.3605006805
C  C653  1  0.35799000  0.08061000  0.52095000  1.0 0.3605006805
C  C654  1  0.04045000  0.52095000  0.08061000  1.0 0.3605006805
C  C655  1  0.08061000  0.35799000  0.04045000  1.0 0.3605006805
C  C656  1  0.52095000  0.04045000  0.35799000  1.0 0.3605006805
C  C657  1  0.52095000  0.35799000  0.08061000  1.0 0.3605006805
C  C658  1  0.08061000  0.04045000  0.52095000  1.0 0.3605006805
C  C659  1  0.04045000  0.08061000  0.35799000  1.0 0.3605006805
C  C660  1  0.35799000  0.52095000  0.04045000  1.0 0.3605006805
C  C661  1  0.16939000  0.72905000  0.20955000  1.0 0.3605006805
C  C662  1  0.72905000  0.16939000  0.89201000  1.0 0.3605006805
C  C663  1  0.89201000  0.20955000  0.72905000  1.0 0.3605006805
C  C664  1  0.20955000  0.89201000  0.16939000  1.0 0.3605006805
C  C665  1  0.89201000  0.16939000  0.20955000  1.0 0.3605006805
C  C666  1  0.20955000  0.72905000  0.89201000  1.0 0.3605006805
C  C667  1  0.16939000  0.89201000  0.72905000  1.0 0.3605006805
C  C668  1  0.72905000  0.20955000  0.16939000  1.0 0.3605006805
C  C669  1  0.72905000  0.89201000  0.20955000  1.0 0.3605006805
C  C670  1  0.16939000  0.20955000  0.89201000  1.0 0.3605006805
C  C671  1  0.20955000  0.16939000  0.72905000  1.0 0.3605006805
C  C672  1  0.89201000  0.72905000  0.16939000  1.0 0.3605006805
C  C673  1  0.64548000  0.29582000  0.37902000  1.0 0.0701335564
C  C674  1  0.29582000  0.64548000  0.67968000  1.0 0.0701335564
C  C675  1  0.37902000  0.67968000  0.64548000  1.0 0.0630745106
C  C676  1  0.67968000  0.37902000  0.29582000  1.0 0.0701335564
C  C677  1  0.37902000  0.64548000  0.29582000  1.0 0.0701335564
C  C678  1  0.67968000  0.29582000  0.64548000  1.0 0.0701335564
C  C679  1  0.64548000  0.37902000  0.67968000  1.0 0.0701335564
C  C680  1  0.29582000  0.67968000  0.37902000  1.0 0.0630745106
C  C681  1  0.29582000  0.37902000  0.64548000  1.0 0.0701335564
C  C682  1  0.64548000  0.67968000  0.29582000  1.0 0.0701335564
C  C683  1  0.67968000  0.64548000  0.37902000  1.0 0.0701335564
C  C684  1  0.37902000  0.29582000  0.67968000  1.0 0.0701335564
C  C685  1  0.60452000  0.95418000  0.57032000  1.0 0.0701335564
C  C686  1  0.95418000  0.60452000  0.87098000  1.0 0.0701335564
C  C687  1  0.87098000  0.57032000  0.95418000  1.0 0.0630745106
C  C688  1  0.57032000  0.87098000  0.60452000  1.0 0.0630745106
C  C689  1  0.87098000  0.60452000  0.57032000  1.0 0.0701335564
C  C690  1  0.57032000  0.95418000  0.87098000  1.0 0.0701335564
C  C691  1  0.60452000  0.87098000  0.95418000  1.0 0.0701335564
C  C692  1  0.95418000  0.57032000  0.60452000  1.0 0.0630745106
C  C693  1  0.95418000  0.87098000  0.57032000  1.0 0.0701335564
C  C694  1  0.60452000  0.57032000  0.87098000  1.0 0.0701335564
C  C695  1  0.57032000  0.60452000  0.95418000  1.0 0.0701335564
C  C696  1  0.87098000  0.95418000  0.60452000  1.0 0.0630745106
C  C697  1  0.10452000  0.45418000  0.37098000  1.0 0.0630745106
C  C698  1  0.45418000  0.10452000  0.07032000  1.0 0.0701335564
C  C699  1  0.37098000  0.07032000  0.10452000  1.0 0.0701335564
C  C700  1  0.07032000  0.37098000  0.45418000  1.0 0.0630745106
C  C701  1  0.37098000  0.10452000  0.45418000  1.0 0.0701335564
C  C702  1  0.07032000  0.45418000  0.10452000  1.0 0.0630745106
C  C703  1  0.10452000  0.37098000  0.07032000  1.0 0.0630745106
C  C704  1  0.45418000  0.07032000  0.37098000  1.0 0.0701335564
C  C705  1  0.45418000  0.37098000  0.10452000  1.0 0.0630745106
C  C706  1  0.10452000  0.07032000  0.45418000  1.0 0.0701335564
C  C707  1  0.07032000  0.10452000  0.37098000  1.0 0.0630745106
C  C708  1  0.37098000  0.45418000  0.07032000  1.0 0.0701335564
C  C709  1  0.14548000  0.79582000  0.17968000  1.0 0.0630745106
C  C710  1  0.79582000  0.14548000  0.87902000  1.0 0.0701335564
C  C711  1  0.87902000  0.17968000  0.79582000  1.0 0.0701335564
C  C712  1  0.17968000  0.87902000  0.14548000  1.0 0.0630745106
C  C713  1  0.87902000  0.14548000  0.17968000  1.0 0.0701335564
C  C714  1  0.17968000  0.79582000  0.87902000  1.0 0.0701335564
C  C715  1  0.14548000  0.87902000  0.79582000  1.0 0.0630745106
C  C716  1  0.79582000  0.17968000  0.14548000  1.0 0.0701335564
C  C717  1  0.79582000  0.87902000  0.17968000  1.0 0.0630745106
C  C718  1  0.14548000  0.17968000  0.87902000  1.0 0.0701335564
C  C719  1  0.17968000  0.14548000  0.79582000  1.0 0.0701335564
C  C720  1  0.87902000  0.79582000  0.14548000  1.0 0.0701335564
C  C721  1  0.64187000  0.26485000  0.38271000  1.0 -0.0238886042
C  C722  1  0.26485000  0.64187000  0.71057000  1.0 -0.0238886042
C  C723  1  0.38271000  0.71057000  0.64187000  1.0 -0.0238886042
C  C724  1  0.71057000  0.38271000  0.26485000  1.0 -0.0238886042
C  C725  1  0.38271000  0.64187000  0.26485000  1.0 -0.0238886042
C  C726  1  0.71057000  0.26485000  0.64187000  1.0 -0.0238886042
C  C727  1  0.64187000  0.38271000  0.71057000  1.0 -0.0238886042
C  C728  1  0.26485000  0.71057000  0.38271000  1.0 -0.0238886042
C  C729  1  0.26485000  0.38271000  0.64187000  1.0 -0.0238886042
C  C730  1  0.64187000  0.71057000  0.26485000  1.0 -0.0238886042
C  C731  1  0.71057000  0.64187000  0.38271000  1.0 -0.0238886042
C  C732  1  0.38271000  0.26485000  0.71057000  1.0 -0.0238886042
C  C733  1  0.60813000  0.98515000  0.53943000  1.0 -0.0264629153
C  C734  1  0.98515000  0.60813000  0.86729000  1.0 -0.0238886042
C  C735  1  0.86729000  0.53943000  0.98515000  1.0 -0.0238886042
C  C736  1  0.53943000  0.86729000  0.60813000  1.0 -0.0238886042
C  C737  1  0.86729000  0.60813000  0.53943000  1.0 -0.0264629153
C  C738  1  0.53943000  0.98515000  0.86729000  1.0 -0.0238886042
C  C739  1  0.60813000  0.86729000  0.98515000  1.0 -0.0238886042
C  C740  1  0.98515000  0.53943000  0.60813000  1.0 -0.0238886042
C  C741  1  0.98515000  0.86729000  0.53943000  1.0 -0.0238886042
C  C742  1  0.60813000  0.53943000  0.86729000  1.0 -0.0238886042
C  C743  1  0.53943000  0.60813000  0.98515000  1.0 -0.0238886042
C  C744  1  0.86729000  0.98515000  0.60813000  1.0 -0.0238886042
C  C745  1  0.10813000  0.48515000  0.36729000  1.0 -0.0238886042
C  C746  1  0.48515000  0.10813000  0.03943000  1.0 -0.0238886042
C  C747  1  0.36729000  0.03943000  0.10813000  1.0 -0.0238886042
C  C748  1  0.03943000  0.36729000  0.48515000  1.0 -0.0238886042
C  C749  1  0.36729000  0.10813000  0.48515000  1.0 -0.0238886042
C  C750  1  0.03943000  0.48515000  0.10813000  1.0 -0.0238886042
C  C751  1  0.10813000  0.36729000  0.03943000  1.0 -0.0238886042
C  C752  1  0.48515000  0.03943000  0.36729000  1.0 -0.0238886042
C  C753  1  0.48515000  0.36729000  0.10813000  1.0 -0.0238886042
C  C754  1  0.10813000  0.03943000  0.48515000  1.0 -0.0238886042
C  C755  1  0.03943000  0.10813000  0.36729000  1.0 -0.0238886042
C  C756  1  0.36729000  0.48515000  0.03943000  1.0 -0.0238886042
C  C757  1  0.14187000  0.76485000  0.21057000  1.0 -0.0238886042
C  C758  1  0.76485000  0.14187000  0.88271000  1.0 -0.0238886042
C  C759  1  0.88271000  0.21057000  0.76485000  1.0 -0.0238886042
C  C760  1  0.21057000  0.88271000  0.14187000  1.0 -0.0238886042
C  C761  1  0.88271000  0.14187000  0.21057000  1.0 -0.0238886042
C  C762  1  0.21057000  0.76485000  0.88271000  1.0 -0.0238886042
C  C763  1  0.14187000  0.88271000  0.76485000  1.0 -0.0238886042
C  C764  1  0.76485000  0.21057000  0.14187000  1.0 -0.0238886042
C  C765  1  0.76485000  0.88271000  0.21057000  1.0 -0.0238886042
C  C766  1  0.14187000  0.21057000  0.88271000  1.0 -0.0238886042
C  C767  1  0.21057000  0.14187000  0.76485000  1.0 -0.0238886042
C  C768  1  0.88271000  0.76485000  0.14187000  1.0 -0.0238886042
C  C769  1  0.61239000  0.26963000  0.37617000  1.0 -0.0576891099
C  C770  1  0.26963000  0.61239000  0.74181000  1.0 -0.0576891099
C  C771  1  0.37617000  0.74181000  0.61239000  1.0 -0.0576891099
C  C772  1  0.74181000  0.37617000  0.26963000  1.0 -0.0576891099
C  C773  1  0.37617000  0.61239000  0.26963000  1.0 -0.0576891099
C  C774  1  0.74181000  0.26963000  0.61239000  1.0 -0.0576891099
C  C775  1  0.61239000  0.37617000  0.74181000  1.0 -0.0576891099
C  C776  1  0.26963000  0.74181000  0.37617000  1.0 -0.0576891099
C  C777  1  0.26963000  0.37617000  0.61239000  1.0 -0.0576891099
C  C778  1  0.61239000  0.74181000  0.26963000  1.0 -0.0576891099
C  C779  1  0.74181000  0.61239000  0.37617000  1.0 -0.0576891099
C  C780  1  0.37617000  0.26963000  0.74181000  1.0 -0.0576891099
C  C781  1  0.63761000  0.98037000  0.50819000  1.0 -0.0576891099
C  C782  1  0.98037000  0.63761000  0.87383000  1.0 -0.0576891099
C  C783  1  0.87383000  0.50819000  0.98037000  1.0 -0.0576891099
C  C784  1  0.50819000  0.87383000  0.63761000  1.0 -0.0576891099
C  C785  1  0.87383000  0.63761000  0.50819000  1.0 -0.0576891099
C  C786  1  0.50819000  0.98037000  0.87383000  1.0 -0.0576891099
C  C787  1  0.63761000  0.87383000  0.98037000  1.0 -0.0576891099
C  C788  1  0.98037000  0.50819000  0.63761000  1.0 -0.0576891099
C  C789  1  0.98037000  0.87383000  0.50819000  1.0 -0.0576891099
C  C790  1  0.63761000  0.50819000  0.87383000  1.0 -0.0576891099
C  C791  1  0.50819000  0.63761000  0.98037000  1.0 -0.0576891099
C  C792  1  0.87383000  0.98037000  0.63761000  1.0 -0.0576891099
C  C793  1  0.13761000  0.48037000  0.37383000  1.0 -0.0576891099
C  C794  1  0.48037000  0.13761000  0.00819000  1.0 -0.0576891099
C  C795  1  0.37383000  0.00819000  0.13761000  1.0 -0.0576891099
C  C796  1  0.00819000  0.37383000  0.48037000  1.0 -0.0576891099
C  C797  1  0.37383000  0.13761000  0.48037000  1.0 -0.0576891099
C  C798  1  0.00819000  0.48037000  0.13761000  1.0 -0.0576891099
C  C799  1  0.13761000  0.37383000  0.00819000  1.0 -0.0576891099
C  C800  1  0.48037000  0.00819000  0.37383000  1.0 -0.0576891099
C  C801  1  0.48037000  0.37383000  0.13761000  1.0 -0.0576891099
C  C802  1  0.13761000  0.00819000  0.48037000  1.0 -0.0576891099
C  C803  1  0.00819000  0.13761000  0.37383000  1.0 -0.0576891099
C  C804  1  0.37383000  0.48037000  0.00819000  1.0 -0.0576891099
C  C805  1  0.11239000  0.76963000  0.24181000  1.0 -0.0576891099
C  C806  1  0.76963000  0.11239000  0.87617000  1.0 -0.0576891099
C  C807  1  0.87617000  0.24181000  0.76963000  1.0 -0.0576891099
C  C808  1  0.24181000  0.87617000  0.11239000  1.0 -0.0576891099
C  C809  1  0.87617000  0.11239000  0.24181000  1.0 -0.0576891099
C  C810  1  0.24181000  0.76963000  0.87617000  1.0 -0.0576891099
C  C811  1  0.11239000  0.87617000  0.76963000  1.0 -0.0576891099
C  C812  1  0.76963000  0.24181000  0.11239000  1.0 -0.0576891099
C  C813  1  0.76963000  0.87617000  0.24181000  1.0 -0.0576891099
C  C814  1  0.11239000  0.24181000  0.87617000  1.0 -0.0576891099
C  C815  1  0.24181000  0.11239000  0.76963000  1.0 -0.0576891099
C  C816  1  0.87617000  0.76963000  0.11239000  1.0 -0.0576891099
C  C817  1  0.58834000  0.30448000  0.36678000  1.0 -0.1291432441
C  C818  1  0.30448000  0.58834000  0.74040000  1.0 -0.1291432441
C  C819  1  0.36678000  0.74040000  0.58834000  1.0 -0.1291432441
C  C820  1  0.74040000  0.36678000  0.30448000  1.0 -0.1291432441
C  C821  1  0.36678000  0.58834000  0.30448000  1.0 -0.1291432441
C  C822  1  0.74040000  0.30448000  0.58834000  1.0 -0.1291432441
C  C823  1  0.58834000  0.36678000  0.74040000  1.0 -0.1291432441
C  C824  1  0.30448000  0.74040000  0.36678000  1.0 -0.1291432441
C  C825  1  0.30448000  0.36678000  0.58834000  1.0 -0.1291432441
C  C826  1  0.58834000  0.74040000  0.30448000  1.0 -0.1291432441
C  C827  1  0.74040000  0.58834000  0.36678000  1.0 -0.1291432441
C  C828  1  0.36678000  0.30448000  0.74040000  1.0 -0.1291432441
C  C829  1  0.66166000  0.94552000  0.50960000  1.0 -0.1291432441
C  C830  1  0.94552000  0.66166000  0.88322000  1.0 -0.1291432441
C  C831  1  0.88322000  0.50960000  0.94552000  1.0 -0.1291432441
C  C832  1  0.50960000  0.88322000  0.66166000  1.0 -0.1291432441
C  C833  1  0.88322000  0.66166000  0.50960000  1.0 -0.1291432441
C  C834  1  0.50960000  0.94552000  0.88322000  1.0 -0.1291432441
C  C835  1  0.66166000  0.88322000  0.94552000  1.0 -0.1291432441
C  C836  1  0.94552000  0.50960000  0.66166000  1.0 -0.1291432441
C  C837  1  0.94552000  0.88322000  0.50960000  1.0 -0.1291432441
C  C838  1  0.66166000  0.50960000  0.88322000  1.0 -0.1291432441
C  C839  1  0.50960000  0.66166000  0.94552000  1.0 -0.1291432441
C  C840  1  0.88322000  0.94552000  0.66166000  1.0 -0.1291432441
C  C841  1  0.16166000  0.44552000  0.38322000  1.0 -0.1291432441
C  C842  1  0.44552000  0.16166000  0.00960000  1.0 -0.1291432441
C  C843  1  0.38322000  0.00960000  0.16166000  1.0 -0.1291432441
C  C844  1  0.00960000  0.38322000  0.44552000  1.0 -0.1291432441
C  C845  1  0.38322000  0.16166000  0.44552000  1.0 -0.1291432441
C  C846  1  0.00960000  0.44552000  0.16166000  1.0 -0.1291432441
C  C847  1  0.16166000  0.38322000  0.00960000  1.0 -0.1291432441
C  C848  1  0.44552000  0.00960000  0.38322000  1.0 -0.1291432441
C  C849  1  0.44552000  0.38322000  0.16166000  1.0 -0.1291432441
C  C850  1  0.16166000  0.00960000  0.44552000  1.0 -0.1291432441
C  C851  1  0.00960000  0.16166000  0.38322000  1.0 -0.1291432441
C  C852  1  0.38322000  0.44552000  0.00960000  1.0 -0.1291432441
C  C853  1  0.08834000  0.80448000  0.24040000  1.0 -0.1291432441
C  C854  1  0.80448000  0.08834000  0.86678000  1.0 -0.1291432441
C  C855  1  0.86678000  0.24040000  0.80448000  1.0 -0.1291432441
C  C856  1  0.24040000  0.86678000  0.08834000  1.0 -0.1291432441
C  C857  1  0.86678000  0.08834000  0.24040000  1.0 -0.1291432441
C  C858  1  0.24040000  0.80448000  0.86678000  1.0 -0.1291432441
C  C859  1  0.08834000  0.86678000  0.80448000  1.0 -0.1291432441
C  C860  1  0.80448000  0.24040000  0.08834000  1.0 -0.1291432441
C  C861  1  0.80448000  0.86678000  0.24040000  1.0 -0.1291432441
C  C862  1  0.08834000  0.24040000  0.86678000  1.0 -0.1291432441
C  C863  1  0.24040000  0.08834000  0.80448000  1.0 -0.1291432441
C  C864  1  0.86678000  0.80448000  0.08834000  1.0 -0.1291432441
C  C865  1  0.59380000  0.33304000  0.36450000  1.0 0.0701335564
C  C866  1  0.33304000  0.59380000  0.70866000  1.0 0.0701335564
C  C867  1  0.36450000  0.70866000  0.59380000  1.0 0.0701335564
C  C868  1  0.70866000  0.36450000  0.33304000  1.0 0.0701335564
C  C869  1  0.36450000  0.59380000  0.33304000  1.0 0.0701335564
C  C870  1  0.70866000  0.33304000  0.59380000  1.0 0.0701335564
C  C871  1  0.59380000  0.36450000  0.70866000  1.0 0.0701335564
C  C872  1  0.33304000  0.70866000  0.36450000  1.0 0.0701335564
C  C873  1  0.33304000  0.36450000  0.59380000  1.0 0.0701335564
C  C874  1  0.59380000  0.70866000  0.33304000  1.0 0.0701335564
C  C875  1  0.70866000  0.59380000  0.36450000  1.0 0.0701335564
C  C876  1  0.36450000  0.33304000  0.70866000  1.0 0.0701335564
C  C877  1  0.65620000  0.91696000  0.54134000  1.0 0.0701335564
C  C878  1  0.91696000  0.65620000  0.88550000  1.0 0.0701335564
C  C879  1  0.88550000  0.54134000  0.91696000  1.0 0.0701335564
C  C880  1  0.54134000  0.88550000  0.65620000  1.0 0.0701335564
C  C881  1  0.88550000  0.65620000  0.54134000  1.0 0.0701335564
C  C882  1  0.54134000  0.91696000  0.88550000  1.0 0.0701335564
C  C883  1  0.65620000  0.88550000  0.91696000  1.0 0.0701335564
C  C884  1  0.91696000  0.54134000  0.65620000  1.0 0.0701335564
C  C885  1  0.91696000  0.88550000  0.54134000  1.0 0.0701335564
C  C886  1  0.65620000  0.54134000  0.88550000  1.0 0.0701335564
C  C887  1  0.54134000  0.65620000  0.91696000  1.0 0.0701335564
C  C888  1  0.88550000  0.91696000  0.65620000  1.0 0.0701335564
C  C889  1  0.15620000  0.41696000  0.38550000  1.0 0.0701335564
C  C890  1  0.41696000  0.15620000  0.04134000  1.0 0.0701335564
C  C891  1  0.38550000  0.04134000  0.15620000  1.0 0.0701335564
C  C892  1  0.04134000  0.38550000  0.41696000  1.0 0.0701335564
C  C893  1  0.38550000  0.15620000  0.41696000  1.0 0.0701335564
C  C894  1  0.04134000  0.41696000  0.15620000  1.0 0.0701335564
C  C895  1  0.15620000  0.38550000  0.04134000  1.0 0.0701335564
C  C896  1  0.41696000  0.04134000  0.38550000  1.0 0.0701335564
C  C897  1  0.41696000  0.38550000  0.15620000  1.0 0.0701335564
C  C898  1  0.15620000  0.04134000  0.41696000  1.0 0.0701335564
C  C899  1  0.04134000  0.15620000  0.38550000  1.0 0.0701335564
C  C900  1  0.38550000  0.41696000  0.04134000  1.0 0.0701335564
C  C901  1  0.09380000  0.83304000  0.20866000  1.0 0.0701335564
C  C902  1  0.83304000  0.09380000  0.86450000  1.0 0.0701335564
C  C903  1  0.86450000  0.20866000  0.83304000  1.0 0.0701335564
C  C904  1  0.20866000  0.86450000  0.09380000  1.0 0.0701335564
C  C905  1  0.86450000  0.09380000  0.20866000  1.0 0.0701335564
C  C906  1  0.20866000  0.83304000  0.86450000  1.0 0.0701335564
C  C907  1  0.09380000  0.86450000  0.83304000  1.0 0.0701335564
C  C908  1  0.83304000  0.20866000  0.09380000  1.0 0.0701335564
C  C909  1  0.83304000  0.86450000  0.20866000  1.0 0.0701335564
C  C910  1  0.09380000  0.20866000  0.86450000  1.0 0.0701335564
C  C911  1  0.20866000  0.09380000  0.83304000  1.0 0.0701335564
C  C912  1  0.86450000  0.83304000  0.09380000  1.0 0.0701335564
C  C913  1  0.57879000  0.43139000  0.32113000  1.0 0.2409072584
C  C914  1  0.43139000  0.57879000  0.66869000  1.0 0.2409072584
C  C915  1  0.32113000  0.66869000  0.57879000  1.0 0.2409072584
C  C916  1  0.66869000  0.32113000  0.43139000  1.0 0.2409072584
C  C917  1  0.32113000  0.57879000  0.43139000  1.0 0.2409072584
C  C918  1  0.66869000  0.43139000  0.57879000  1.0 0.2409072584
C  C919  1  0.57879000  0.32113000  0.66869000  1.0 0.2409072584
C  C920  1  0.43139000  0.66869000  0.32113000  1.0 0.2409072584
C  C921  1  0.43139000  0.32113000  0.57879000  1.0 0.2409072584
C  C922  1  0.57879000  0.66869000  0.43139000  1.0 0.2409072584
C  C923  1  0.66869000  0.57879000  0.32113000  1.0 0.2409072584
C  C924  1  0.32113000  0.43139000  0.66869000  1.0 0.2409072584
C  C925  1  0.67121000  0.81861000  0.58131000  1.0 0.2409072584
C  C926  1  0.81861000  0.67121000  0.92887000  1.0 0.2409072584
C  C927  1  0.92887000  0.58131000  0.81861000  1.0 0.2409072584
C  C928  1  0.58131000  0.92887000  0.67121000  1.0 0.2409072584
C  C929  1  0.92887000  0.67121000  0.58131000  1.0 0.2409072584
C  C930  1  0.58131000  0.81861000  0.92887000  1.0 0.2409072584
C  C931  1  0.67121000  0.92887000  0.81861000  1.0 0.2409072584
C  C932  1  0.81861000  0.58131000  0.67121000  1.0 0.2409072584
C  C933  1  0.81861000  0.92887000  0.58131000  1.0 0.2409072584
C  C934  1  0.67121000  0.58131000  0.92887000  1.0 0.2409072584
C  C935  1  0.58131000  0.67121000  0.81861000  1.0 0.2409072584
C  C936  1  0.92887000  0.81861000  0.67121000  1.0 0.2409072584
C  C937  1  0.17121000  0.31861000  0.42887000  1.0 0.2409072584
C  C938  1  0.31861000  0.17121000  0.08131000  1.0 0.2409072584
C  C939  1  0.42887000  0.08131000  0.17121000  1.0 0.2409072584
C  C940  1  0.08131000  0.42887000  0.31861000  1.0 0.2409072584
C  C941  1  0.42887000  0.17121000  0.31861000  1.0 0.2409072584
C  C942  1  0.08131000  0.31861000  0.17121000  1.0 0.2409072584
C  C943  1  0.17121000  0.42887000  0.08131000  1.0 0.2409072584
C  C944  1  0.31861000  0.08131000  0.42887000  1.0 0.2409072584
C  C945  1  0.31861000  0.42887000  0.17121000  1.0 0.2409072584
C  C946  1  0.17121000  0.08131000  0.31861000  1.0 0.2409072584
C  C947  1  0.08131000  0.17121000  0.42887000  1.0 0.2409072584
C  C948  1  0.42887000  0.31861000  0.08131000  1.0 0.2409072584
C  C949  1  0.07879000  0.93139000  0.16869000  1.0 0.2409072584
C  C950  1  0.93139000  0.07879000  0.82113000  1.0 0.2409072584
C  C951  1  0.82113000  0.16869000  0.93139000  1.0 0.2409072584
C  C952  1  0.16869000  0.82113000  0.07879000  1.0 0.2409072584
C  C953  1  0.82113000  0.07879000  0.16869000  1.0 0.2409072584
C  C954  1  0.16869000  0.93139000  0.82113000  1.0 0.2409072584
C  C955  1  0.07879000  0.82113000  0.93139000  1.0 0.2409072584
C  C956  1  0.93139000  0.16869000  0.07879000  1.0 0.2409072584
C  C957  1  0.93139000  0.82113000  0.16869000  1.0 0.2409072584
C  C958  1  0.07879000  0.16869000  0.82113000  1.0 0.2409072584
C  C959  1  0.16869000  0.07879000  0.93139000  1.0 0.2409072584
C  C960  1  0.82113000  0.93139000  0.07879000  1.0 0.2409072584
C  C961  1  0.63583000  0.44831000  0.33689000  1.0 0.0701335564
C  C962  1  0.44831000  0.63583000  0.57897000  1.0 0.0701335564
C  C963  1  0.33689000  0.57897000  0.63583000  1.0 0.0701335564
C  C964  1  0.57897000  0.33689000  0.44831000  1.0 0.0701335564
C  C965  1  0.33689000  0.63583000  0.44831000  1.0 0.0701335564
C  C966  1  0.57897000  0.44831000  0.63583000  1.0 0.0701335564
C  C967  1  0.63583000  0.33689000  0.57897000  1.0 0.0701335564
C  C968  1  0.44831000  0.57897000  0.33689000  1.0 0.0701335564
C  C969  1  0.44831000  0.33689000  0.63583000  1.0 0.0701335564
C  C970  1  0.63583000  0.57897000  0.44831000  1.0 0.0701335564
C  C971  1  0.57897000  0.63583000  0.33689000  1.0 0.0701335564
C  C972  1  0.33689000  0.44831000  0.57897000  1.0 0.0701335564
C  C973  1  0.61417000  0.80169000  0.67103000  1.0 0.0701335564
C  C974  1  0.80169000  0.61417000  0.91311000  1.0 0.0701335564
C  C975  1  0.91311000  0.67103000  0.80169000  1.0 0.0701335564
C  C976  1  0.67103000  0.91311000  0.61417000  1.0 0.0701335564
C  C977  1  0.91311000  0.61417000  0.67103000  1.0 0.0701335564
C  C978  1  0.67103000  0.80169000  0.91311000  1.0 0.0701335564
C  C979  1  0.61417000  0.91311000  0.80169000  1.0 0.0701335564
C  C980  1  0.80169000  0.67103000  0.61417000  1.0 0.0701335564
C  C981  1  0.80169000  0.91311000  0.67103000  1.0 0.0701335564
C  C982  1  0.61417000  0.67103000  0.91311000  1.0 0.0701335564
C  C983  1  0.67103000  0.61417000  0.80169000  1.0 0.0701335564
C  C984  1  0.91311000  0.80169000  0.61417000  1.0 0.0701335564
C  C985  1  0.11417000  0.30169000  0.41311000  1.0 0.0701335564
C  C986  1  0.30169000  0.11417000  0.17103000  1.0 0.0701335564
C  C987  1  0.41311000  0.17103000  0.11417000  1.0 0.0701335564
C  C988  1  0.17103000  0.41311000  0.30169000  1.0 0.0701335564
C  C989  1  0.41311000  0.11417000  0.30169000  1.0 0.0701335564
C  C990  1  0.17103000  0.30169000  0.11417000  1.0 0.0701335564
C  C991  1  0.11417000  0.41311000  0.17103000  1.0 0.0701335564
C  C992  1  0.30169000  0.17103000  0.41311000  1.0 0.0701335564
C  C993  1  0.30169000  0.41311000  0.11417000  1.0 0.0701335564
C  C994  1  0.11417000  0.17103000  0.30169000  1.0 0.0701335564
C  C995  1  0.17103000  0.11417000  0.41311000  1.0 0.0701335564
C  C996  1  0.41311000  0.30169000  0.17103000  1.0 0.0701335564
C  C997  1  0.13583000  0.94831000  0.07897000  1.0 0.0701335564
C  C998  1  0.94831000  0.13583000  0.83689000  1.0 0.0701335564
C  C999  1  0.83689000  0.07897000  0.94831000  1.0 0.0701335564
C  C1000  1  0.07897000  0.83689000  0.13583000  1.0 0.0701335564
C  C1001  1  0.83689000  0.13583000  0.07897000  1.0 0.0701335564
C  C1002  1  0.07897000  0.94831000  0.83689000  1.0 0.0701335564
C  C1003  1  0.13583000  0.83689000  0.94831000  1.0 0.0701335564
C  C1004  1  0.94831000  0.07897000  0.13583000  1.0 0.0701335564
C  C1005  1  0.94831000  0.83689000  0.07897000  1.0 0.0701335564
C  C1006  1  0.13583000  0.07897000  0.83689000  1.0 0.0701335564
C  C1007  1  0.07897000  0.13583000  0.94831000  1.0 0.0701335564
C  C1008  1  0.83689000  0.94831000  0.13583000  1.0 0.0701335564
C  C1009  1  0.64262000  0.47684000  0.33166000  1.0 -0.1291432441
C  C1010  1  0.47684000  0.64262000  0.54888000  1.0 -0.1291432441
C  C1011  1  0.33166000  0.54888000  0.64262000  1.0 -0.1291432441
C  C1012  1  0.54888000  0.33166000  0.47684000  1.0 -0.1291432441
C  C1013  1  0.33166000  0.64262000  0.47684000  1.0 -0.1291432441
C  C1014  1  0.54888000  0.47684000  0.64262000  1.0 -0.1291432441
C  C1015  1  0.64262000  0.33166000  0.54888000  1.0 -0.1291432441
C  C1016  1  0.47684000  0.54888000  0.33166000  1.0 -0.1291432441
C  C1017  1  0.47684000  0.33166000  0.64262000  1.0 -0.1291432441
C  C1018  1  0.64262000  0.54888000  0.47684000  1.0 -0.1291432441
C  C1019  1  0.54888000  0.64262000  0.33166000  1.0 -0.1291432441
C  C1020  1  0.33166000  0.47684000  0.54888000  1.0 -0.1291432441
C  C1021  1  0.60738000  0.77316000  0.70112000  1.0 -0.1291432441
C  C1022  1  0.77316000  0.60738000  0.91834000  1.0 -0.1291432441
C  C1023  1  0.91834000  0.70112000  0.77316000  1.0 -0.1291432441
C  C1024  1  0.70112000  0.91834000  0.60738000  1.0 -0.1291432441
C  C1025  1  0.91834000  0.60738000  0.70112000  1.0 -0.1291432441
C  C1026  1  0.70112000  0.77316000  0.91834000  1.0 -0.1291432441
C  C1027  1  0.60738000  0.91834000  0.77316000  1.0 -0.1291432441
C  C1028  1  0.77316000  0.70112000  0.60738000  1.0 -0.1291432441
C  C1029  1  0.77316000  0.91834000  0.70112000  1.0 -0.1291432441
C  C1030  1  0.60738000  0.70112000  0.91834000  1.0 -0.1291432441
C  C1031  1  0.70112000  0.60738000  0.77316000  1.0 -0.1291432441
C  C1032  1  0.91834000  0.77316000  0.60738000  1.0 -0.1291432441
C  C1033  1  0.10738000  0.27316000  0.41834000  1.0 -0.1291432441
C  C1034  1  0.27316000  0.10738000  0.20112000  1.0 -0.1291432441
C  C1035  1  0.41834000  0.20112000  0.10738000  1.0 -0.1291432441
C  C1036  1  0.20112000  0.41834000  0.27316000  1.0 -0.1291432441
C  C1037  1  0.41834000  0.10738000  0.27316000  1.0 -0.1291432441
C  C1038  1  0.20112000  0.27316000  0.10738000  1.0 -0.1291432441
C  C1039  1  0.10738000  0.41834000  0.20112000  1.0 -0.1291432441
C  C1040  1  0.27316000  0.20112000  0.41834000  1.0 -0.1291432441
C  C1041  1  0.27316000  0.41834000  0.10738000  1.0 -0.1291432441
C  C1042  1  0.10738000  0.20112000  0.27316000  1.0 -0.1291432441
C  C1043  1  0.20112000  0.10738000  0.41834000  1.0 -0.1291432441
C  C1044  1  0.41834000  0.27316000  0.20112000  1.0 -0.1291432441
C  C1045  1  0.14262000  0.97684000  0.04888000  1.0 -0.1291432441
C  C1046  1  0.97684000  0.14262000  0.83166000  1.0 -0.1291432441
C  C1047  1  0.83166000  0.04888000  0.97684000  1.0 -0.1291432441
C  C1048  1  0.04888000  0.83166000  0.14262000  1.0 -0.1291432441
C  C1049  1  0.83166000  0.14262000  0.04888000  1.0 -0.1291432441
C  C1050  1  0.04888000  0.97684000  0.83166000  1.0 -0.1291432441
C  C1051  1  0.14262000  0.83166000  0.97684000  1.0 -0.1291432441
C  C1052  1  0.97684000  0.04888000  0.14262000  1.0 -0.1291432441
C  C1053  1  0.97684000  0.83166000  0.04888000  1.0 -0.1291432441
C  C1054  1  0.14262000  0.04888000  0.83166000  1.0 -0.1291432441
C  C1055  1  0.04888000  0.14262000  0.97684000  1.0 -0.1291432441
C  C1056  1  0.83166000  0.97684000  0.14262000  1.0 -0.1291432441
C  C1057  1  0.64328000  0.47962000  0.36076000  1.0 -0.0521640108
C  C1058  1  0.47962000  0.64328000  0.51634000  1.0 -0.0521640108
C  C1059  1  0.36076000  0.51634000  0.64328000  1.0 -0.0521640108
C  C1060  1  0.51634000  0.36076000  0.47962000  1.0 -0.0521640108
C  C1061  1  0.36076000  0.64328000  0.47962000  1.0 -0.0521640108
C  C1062  1  0.51634000  0.47962000  0.64328000  1.0 -0.0521640108
C  C1063  1  0.64328000  0.36076000  0.51634000  1.0 -0.0521640108
C  C1064  1  0.47962000  0.51634000  0.36076000  1.0 -0.0521640108
C  C1065  1  0.47962000  0.36076000  0.64328000  1.0 -0.0521640108
C  C1066  1  0.64328000  0.51634000  0.47962000  1.0 -0.0521640108
C  C1067  1  0.51634000  0.64328000  0.36076000  1.0 -0.0521640108
C  C1068  1  0.36076000  0.47962000  0.51634000  1.0 -0.0521640108
C  C1069  1  0.60672000  0.77038000  0.73366000  1.0 -0.0521640108
C  C1070  1  0.77038000  0.60672000  0.88924000  1.0 -0.0521640108
C  C1071  1  0.88924000  0.73366000  0.77038000  1.0 -0.0521640108
C  C1072  1  0.73366000  0.88924000  0.60672000  1.0 -0.0521640108
C  C1073  1  0.88924000  0.60672000  0.73366000  1.0 -0.0521640108
C  C1074  1  0.73366000  0.77038000  0.88924000  1.0 -0.0521640108
C  C1075  1  0.60672000  0.88924000  0.77038000  1.0 -0.0521640108
C  C1076  1  0.77038000  0.73366000  0.60672000  1.0 -0.0521640108
C  C1077  1  0.77038000  0.88924000  0.73366000  1.0 -0.0521640108
C  C1078  1  0.60672000  0.73366000  0.88924000  1.0 -0.0521640108
C  C1079  1  0.73366000  0.60672000  0.77038000  1.0 -0.0521640108
C  C1080  1  0.88924000  0.77038000  0.60672000  1.0 -0.0521640108
C  C1081  1  0.10672000  0.27038000  0.38924000  1.0 -0.0521640108
C  C1082  1  0.27038000  0.10672000  0.23366000  1.0 -0.0521640108
C  C1083  1  0.38924000  0.23366000  0.10672000  1.0 -0.0521640108
C  C1084  1  0.23366000  0.38924000  0.27038000  1.0 -0.0521640108
C  C1085  1  0.38924000  0.10672000  0.27038000  1.0 -0.0521640108
C  C1086  1  0.23366000  0.27038000  0.10672000  1.0 -0.0521640108
C  C1087  1  0.10672000  0.38924000  0.23366000  1.0 -0.0521640108
C  C1088  1  0.27038000  0.23366000  0.38924000  1.0 -0.0521640108
C  C1089  1  0.27038000  0.38924000  0.10672000  1.0 -0.0521640108
C  C1090  1  0.10672000  0.23366000  0.27038000  1.0 -0.0521640108
C  C1091  1  0.23366000  0.10672000  0.38924000  1.0 -0.0521640108
C  C1092  1  0.38924000  0.27038000  0.23366000  1.0 -0.0521640108
C  C1093  1  0.14328000  0.97962000  0.01634000  1.0 -0.0521640108
C  C1094  1  0.97962000  0.14328000  0.86076000  1.0 -0.0521640108
C  C1095  1  0.86076000  0.01634000  0.97962000  1.0 -0.0521640108
C  C1096  1  0.01634000  0.86076000  0.14328000  1.0 -0.0521640108
C  C1097  1  0.86076000  0.14328000  0.01634000  1.0 -0.0521640108
C  C1098  1  0.01634000  0.97962000  0.86076000  1.0 -0.0521640108
C  C1099  1  0.14328000  0.86076000  0.97962000  1.0 -0.0521640108
C  C1100  1  0.97962000  0.01634000  0.14328000  1.0 -0.0521640108
C  C1101  1  0.97962000  0.86076000  0.01634000  1.0 -0.0521640108
C  C1102  1  0.14328000  0.01634000  0.86076000  1.0 -0.0521640108
C  C1103  1  0.01634000  0.14328000  0.97962000  1.0 -0.0521640108
C  C1104  1  0.86076000  0.97962000  0.14328000  1.0 -0.0521640108
C  C1105  1  0.63734000  0.45244000  0.39400000  1.0 -0.0264629153
C  C1106  1  0.45244000  0.63734000  0.51622000  1.0 -0.0264629153
C  C1107  1  0.39400000  0.51622000  0.63734000  1.0 -0.0264629153
C  C1108  1  0.51622000  0.39400000  0.45244000  1.0 -0.0264629153
C  C1109  1  0.39400000  0.63734000  0.45244000  1.0 -0.0264629153
C  C1110  1  0.51622000  0.45244000  0.63734000  1.0 -0.0264629153
C  C1111  1  0.63734000  0.39400000  0.51622000  1.0 -0.0264629153
C  C1112  1  0.45244000  0.51622000  0.39400000  1.0 -0.0264629153
C  C1113  1  0.45244000  0.39400000  0.63734000  1.0 -0.0264629153
C  C1114  1  0.63734000  0.51622000  0.45244000  1.0 -0.0264629153
C  C1115  1  0.51622000  0.63734000  0.39400000  1.0 -0.0264629153
C  C1116  1  0.39400000  0.45244000  0.51622000  1.0 -0.0264629153
C  C1117  1  0.61266000  0.79756000  0.73378000  1.0 -0.0264629153
C  C1118  1  0.79756000  0.61266000  0.85600000  1.0 -0.0264629153
C  C1119  1  0.85600000  0.73378000  0.79756000  1.0 -0.0264629153
C  C1120  1  0.73378000  0.85600000  0.61266000  1.0 -0.0264629153
C  C1121  1  0.85600000  0.61266000  0.73378000  1.0 -0.0238886042
C  C1122  1  0.73378000  0.79756000  0.85600000  1.0 -0.0264629153
C  C1123  1  0.61266000  0.85600000  0.79756000  1.0 -0.0264629153
C  C1124  1  0.79756000  0.73378000  0.61266000  1.0 -0.0264629153
C  C1125  1  0.79756000  0.85600000  0.73378000  1.0 -0.0264629153
C  C1126  1  0.61266000  0.73378000  0.85600000  1.0 -0.0264629153
C  C1127  1  0.73378000  0.61266000  0.79756000  1.0 -0.0264629153
C  C1128  1  0.85600000  0.79756000  0.61266000  1.0 -0.0264629153
C  C1129  1  0.11266000  0.29756000  0.35600000  1.0 -0.0264629153
C  C1130  1  0.29756000  0.11266000  0.23378000  1.0 -0.0264629153
C  C1131  1  0.35600000  0.23378000  0.11266000  1.0 -0.0264629153
C  C1132  1  0.23378000  0.35600000  0.29756000  1.0 -0.0264629153
C  C1133  1  0.35600000  0.11266000  0.29756000  1.0 -0.0264629153
C  C1134  1  0.23378000  0.29756000  0.11266000  1.0 -0.0264629153
C  C1135  1  0.11266000  0.35600000  0.23378000  1.0 -0.0264629153
C  C1136  1  0.29756000  0.23378000  0.35600000  1.0 -0.0264629153
C  C1137  1  0.29756000  0.35600000  0.11266000  1.0 -0.0264629153
C  C1138  1  0.11266000  0.23378000  0.29756000  1.0 -0.0264629153
C  C1139  1  0.23378000  0.11266000  0.35600000  1.0 -0.0264629153
C  C1140  1  0.35600000  0.29756000  0.23378000  1.0 -0.0264629153
C  C1141  1  0.13734000  0.95244000  0.01622000  1.0 -0.0264629153
C  C1142  1  0.95244000  0.13734000  0.89400000  1.0 -0.0264629153
C  C1143  1  0.89400000  0.01622000  0.95244000  1.0 -0.0264629153
C  C1144  1  0.01622000  0.89400000  0.13734000  1.0 -0.0264629153
C  C1145  1  0.89400000  0.13734000  0.01622000  1.0 -0.0238886042
C  C1146  1  0.01622000  0.95244000  0.89400000  1.0 -0.0264629153
C  C1147  1  0.13734000  0.89400000  0.95244000  1.0 -0.0264629153
C  C1148  1  0.95244000  0.01622000  0.13734000  1.0 -0.0264629153
C  C1149  1  0.95244000  0.89400000  0.01622000  1.0 -0.0264629153
C  C1150  1  0.13734000  0.01622000  0.89400000  1.0 -0.0264629153
C  C1151  1  0.01622000  0.13734000  0.95244000  1.0 -0.0264629153
C  C1152  1  0.89400000  0.95244000  0.13734000  1.0 -0.0264629153
C  C1153  1  0.63186000  0.42332000  0.39660000  1.0 0.0701335564
C  C1154  1  0.42332000  0.63186000  0.54822000  1.0 0.0701335564
C  C1155  1  0.39660000  0.54822000  0.63186000  1.0 0.0701335564
C  C1156  1  0.54822000  0.39660000  0.42332000  1.0 0.0701335564
C  C1157  1  0.39660000  0.63186000  0.42332000  1.0 0.0701335564
C  C1158  1  0.54822000  0.42332000  0.63186000  1.0 0.0701335564
C  C1159  1  0.63186000  0.39660000  0.54822000  1.0 0.0701335564
C  C1160  1  0.42332000  0.54822000  0.39660000  1.0 0.0701335564
C  C1161  1  0.42332000  0.39660000  0.63186000  1.0 0.0701335564
C  C1162  1  0.63186000  0.54822000  0.42332000  1.0 0.0701335564
C  C1163  1  0.54822000  0.63186000  0.39660000  1.0 0.0701335564
C  C1164  1  0.39660000  0.42332000  0.54822000  1.0 0.0701335564
C  C1165  1  0.61814000  0.82668000  0.70178000  1.0 0.0701335564
C  C1166  1  0.82668000  0.61814000  0.85340000  1.0 0.0701335564
C  C1167  1  0.85340000  0.70178000  0.82668000  1.0 0.0701335564
C  C1168  1  0.70178000  0.85340000  0.61814000  1.0 0.0701335564
C  C1169  1  0.85340000  0.61814000  0.70178000  1.0 0.0701335564
C  C1170  1  0.70178000  0.82668000  0.85340000  1.0 0.0701335564
C  C1171  1  0.61814000  0.85340000  0.82668000  1.0 0.0701335564
C  C1172  1  0.82668000  0.70178000  0.61814000  1.0 0.0701335564
C  C1173  1  0.82668000  0.85340000  0.70178000  1.0 0.0701335564
C  C1174  1  0.61814000  0.70178000  0.85340000  1.0 0.0701335564
C  C1175  1  0.70178000  0.61814000  0.82668000  1.0 0.0701335564
C  C1176  1  0.85340000  0.82668000  0.61814000  1.0 0.0701335564
C  C1177  1  0.11814000  0.32668000  0.35340000  1.0 0.0701335564
C  C1178  1  0.32668000  0.11814000  0.20178000  1.0 0.0701335564
C  C1179  1  0.35340000  0.20178000  0.11814000  1.0 0.0701335564
C  C1180  1  0.20178000  0.35340000  0.32668000  1.0 0.0701335564
C  C1181  1  0.35340000  0.11814000  0.32668000  1.0 0.0701335564
C  C1182  1  0.20178000  0.32668000  0.11814000  1.0 0.0701335564
C  C1183  1  0.11814000  0.35340000  0.20178000  1.0 0.0701335564
C  C1184  1  0.32668000  0.20178000  0.35340000  1.0 0.0701335564
C  C1185  1  0.32668000  0.35340000  0.11814000  1.0 0.0701335564
C  C1186  1  0.11814000  0.20178000  0.32668000  1.0 0.0701335564
C  C1187  1  0.20178000  0.11814000  0.35340000  1.0 0.0701335564
C  C1188  1  0.35340000  0.32668000  0.20178000  1.0 0.0701335564
C  C1189  1  0.13186000  0.92332000  0.04822000  1.0 0.0701335564
C  C1190  1  0.92332000  0.13186000  0.89660000  1.0 0.0701335564
C  C1191  1  0.89660000  0.04822000  0.92332000  1.0 0.0701335564
C  C1192  1  0.04822000  0.89660000  0.13186000  1.0 0.0701335564
C  C1193  1  0.89660000  0.13186000  0.04822000  1.0 0.0701335564
C  C1194  1  0.04822000  0.92332000  0.89660000  1.0 0.0701335564
C  C1195  1  0.13186000  0.89660000  0.92332000  1.0 0.0701335564
C  C1196  1  0.92332000  0.04822000  0.13186000  1.0 0.0701335564
C  C1197  1  0.92332000  0.89660000  0.04822000  1.0 0.0701335564
C  C1198  1  0.13186000  0.04822000  0.89660000  1.0 0.0701335564
C  C1199  1  0.04822000  0.13186000  0.92332000  1.0 0.0701335564
C  C1200  1  0.89660000  0.92332000  0.13186000  1.0 0.0701335564
C  C1201  1  0.63824000  0.45298000  0.42568000  1.0 0.3605006805
C  C1202  1  0.45298000  0.63824000  0.48310000  1.0 0.3605006805
C  C1203  1  0.42568000  0.48310000  0.63824000  1.0 0.3605006805
C  C1204  1  0.48310000  0.42568000  0.45298000  1.0 0.3680450864
C  C1205  1  0.42568000  0.63824000  0.45298000  1.0 0.3680450864
C  C1206  1  0.48310000  0.45298000  0.63824000  1.0 0.3605006805
C  C1207  1  0.63824000  0.42568000  0.48310000  1.0 0.3605006805
C  C1208  1  0.45298000  0.48310000  0.42568000  1.0 0.3680450864
C  C1209  1  0.45298000  0.42568000  0.63824000  1.0 0.3605006805
C  C1210  1  0.63824000  0.48310000  0.45298000  1.0 0.3680450864
C  C1211  1  0.48310000  0.63824000  0.42568000  1.0 0.3605006805
C  C1212  1  0.42568000  0.45298000  0.48310000  1.0 0.3605006805
C  C1213  1  0.61176000  0.79702000  0.76690000  1.0 0.3605006805
C  C1214  1  0.79702000  0.61176000  0.82432000  1.0 0.3680450864
C  C1215  1  0.82432000  0.76690000  0.79702000  1.0 0.3680450864
C  C1216  1  0.76690000  0.82432000  0.61176000  1.0 0.3680450864
C  C1217  1  0.82432000  0.61176000  0.76690000  1.0 0.3605006805
C  C1218  1  0.76690000  0.79702000  0.82432000  1.0 0.3680450864
C  C1219  1  0.61176000  0.82432000  0.79702000  1.0 0.3605006805
C  C1220  1  0.79702000  0.76690000  0.61176000  1.0 0.3605006805
C  C1221  1  0.79702000  0.82432000  0.76690000  1.0 0.3605006805
C  C1222  1  0.61176000  0.76690000  0.82432000  1.0 0.3605006805
C  C1223  1  0.76690000  0.61176000  0.79702000  1.0 0.3605006805
C  C1224  1  0.82432000  0.79702000  0.61176000  1.0 0.3680450864
C  C1225  1  0.11176000  0.29702000  0.32432000  1.0 0.3680450864
C  C1226  1  0.29702000  0.11176000  0.26690000  1.0 0.3605006805
C  C1227  1  0.32432000  0.26690000  0.11176000  1.0 0.3680450864
C  C1228  1  0.26690000  0.32432000  0.29702000  1.0 0.3605006805
C  C1229  1  0.32432000  0.11176000  0.29702000  1.0 0.3680450864
C  C1230  1  0.26690000  0.29702000  0.11176000  1.0 0.3605006805
C  C1231  1  0.11176000  0.32432000  0.26690000  1.0 0.3680450864
C  C1232  1  0.29702000  0.26690000  0.32432000  1.0 0.3605006805
C  C1233  1  0.29702000  0.32432000  0.11176000  1.0 0.3605006805
C  C1234  1  0.11176000  0.26690000  0.29702000  1.0 0.3680450864
C  C1235  1  0.26690000  0.11176000  0.32432000  1.0 0.3605006805
C  C1236  1  0.32432000  0.29702000  0.26690000  1.0 0.3680450864
C  C1237  1  0.13824000  0.95298000  0.98310000  1.0 0.3605006805
C  C1238  1  0.95298000  0.13824000  0.92568000  1.0 0.3680450864
C  C1239  1  0.92568000  0.98310000  0.95298000  1.0 0.3680450864
C  C1240  1  0.98310000  0.92568000  0.13824000  1.0 0.3680450864
C  C1241  1  0.92568000  0.13824000  0.98310000  1.0 0.3605006805
C  C1242  1  0.98310000  0.95298000  0.92568000  1.0 0.3680450864
C  C1243  1  0.13824000  0.92568000  0.95298000  1.0 0.3605006805
C  C1244  1  0.95298000  0.98310000  0.13824000  1.0 0.3680450864
C  C1245  1  0.95298000  0.92568000  0.98310000  1.0 0.3680450864
C  C1246  1  0.13824000  0.98310000  0.92568000  1.0 0.3605006805
C  C1247  1  0.98310000  0.13824000  0.95298000  1.0 0.3605006805
C  C1248  1  0.92568000  0.95298000  0.13824000  1.0 0.3605006805
S  S1  1  0.67224000  0.99552000  0.40826000  1.0 -0.4016661203
S  S2  1  0.99552000  0.67224000  0.92398000  1.0 -0.3910244203
S  S3  1  0.40826000  0.92398000  0.67224000  1.0 -0.3910244203
S  S4  1  0.92398000  0.40826000  0.99552000  1.0 -0.3910244203
S  S5  1  0.40826000  0.67224000  0.99552000  1.0 -0.3910244203
S  S6  1  0.92398000  0.99552000  0.67224000  1.0 -0.4016661203
S  S7  1  0.67224000  0.40826000  0.92398000  1.0 -0.4016661203
S  S8  1  0.99552000  0.92398000  0.40826000  1.0 -0.3910244203
S  S9  1  0.99552000  0.40826000  0.67224000  1.0 -0.4016661203
S  S10  1  0.67224000  0.92398000  0.99552000  1.0 -0.4016661203
S  S11  1  0.92398000  0.67224000  0.40826000  1.0 -0.4016661203
S  S12  1  0.40826000  0.99552000  0.92398000  1.0 -0.3910244203
S  S13  1  0.57776000  0.25448000  0.32602000  1.0 -0.4016661203
S  S14  1  0.25448000  0.57776000  0.84174000  1.0 -0.3910244203
S  S15  1  0.84174000  0.32602000  0.25448000  1.0 -0.4016661203
S  S16  1  0.32602000  0.84174000  0.57776000  1.0 -0.3910244203
S  S17  1  0.84174000  0.57776000  0.32602000  1.0 -0.3910244203
S  S18  1  0.32602000  0.25448000  0.84174000  1.0 -0.3910244203
S  S19  1  0.57776000  0.84174000  0.25448000  1.0 -0.3910244203
S  S20  1  0.25448000  0.32602000  0.57776000  1.0 -0.3910244203
S  S21  1  0.25448000  0.84174000  0.32602000  1.0 -0.3910244203
S  S22  1  0.57776000  0.32602000  0.84174000  1.0 -0.3910244203
S  S23  1  0.32602000  0.57776000  0.25448000  1.0 -0.3910244203
S  S24  1  0.84174000  0.25448000  0.57776000  1.0 -0.3910244203
S  S25  1  0.07776000  0.75448000  0.34174000  1.0 -0.3910244203
S  S26  1  0.75448000  0.07776000  0.82602000  1.0 -0.3910244203
S  S27  1  0.34174000  0.82602000  0.07776000  1.0 -0.3910244203
S  S28  1  0.82602000  0.34174000  0.75448000  1.0 -0.3910244203
S  S29  1  0.34174000  0.07776000  0.75448000  1.0 -0.3910244203
S  S30  1  0.82602000  0.75448000  0.07776000  1.0 -0.3910244203
S  S31  1  0.07776000  0.34174000  0.82602000  1.0 -0.3910244203
S  S32  1  0.75448000  0.82602000  0.34174000  1.0 -0.3910244203
S  S33  1  0.75448000  0.34174000  0.07776000  1.0 -0.3910244203
S  S34  1  0.07776000  0.82602000  0.75448000  1.0 -0.3910244203
S  S35  1  0.82602000  0.07776000  0.34174000  1.0 -0.3910244203
S  S36  1  0.34174000  0.75448000  0.82602000  1.0 -0.3910244203
S  S37  1  0.17224000  0.49552000  0.42398000  1.0 -0.3910244203
S  S38  1  0.49552000  0.17224000  0.90826000  1.0 -0.3910244203
S  S39  1  0.90826000  0.42398000  0.49552000  1.0 -0.3910244203
S  S40  1  0.42398000  0.90826000  0.17224000  1.0 -0.3910244203
S  S41  1  0.90826000  0.17224000  0.42398000  1.0 -0.3910244203
S  S42  1  0.42398000  0.49552000  0.90826000  1.0 -0.3910244203
S  S43  1  0.17224000  0.90826000  0.49552000  1.0 -0.3910244203
S  S44  1  0.49552000  0.42398000  0.17224000  1.0 -0.3910244203
S  S45  1  0.49552000  0.90826000  0.42398000  1.0 -0.3910244203
S  S46  1  0.17224000  0.42398000  0.90826000  1.0 -0.3910244203
S  S47  1  0.42398000  0.17224000  0.49552000  1.0 -0.3910244203
S  S48  1  0.90826000  0.49552000  0.17224000  1.0 -0.4016661203
S  S49  1  0.55455000  0.46405000  0.29577000  1.0 -0.4084578081
S  S50  1  0.46405000  0.55455000  0.68563000  1.0 -0.4084578081
S  S51  1  0.29577000  0.68563000  0.55455000  1.0 -0.4084578081
S  S52  1  0.68563000  0.29577000  0.46405000  1.0 -0.4084578081
S  S53  1  0.29577000  0.55455000  0.46405000  1.0 -0.4084578081
S  S54  1  0.68563000  0.46405000  0.55455000  1.0 -0.4084578081
S  S55  1  0.55455000  0.29577000  0.68563000  1.0 -0.4084578081
S  S56  1  0.46405000  0.68563000  0.29577000  1.0 -0.4084578081
S  S57  1  0.46405000  0.29577000  0.55455000  1.0 -0.4084578081
S  S58  1  0.55455000  0.68563000  0.46405000  1.0 -0.4084578081
S  S59  1  0.68563000  0.55455000  0.29577000  1.0 -0.4084578081
S  S60  1  0.29577000  0.46405000  0.68563000  1.0 -0.4084578081
S  S61  1  0.69545000  0.78595000  0.56437000  1.0 -0.4084578081
S  S62  1  0.78595000  0.69545000  0.95423000  1.0 -0.4084578081
S  S63  1  0.95423000  0.56437000  0.78595000  1.0 -0.4084578081
S  S64  1  0.56437000  0.95423000  0.69545000  1.0 -0.4084578081
S  S65  1  0.95423000  0.69545000  0.56437000  1.0 -0.4084578081
S  S66  1  0.56437000  0.78595000  0.95423000  1.0 -0.4084578081
S  S67  1  0.69545000  0.95423000  0.78595000  1.0 -0.4084578081
S  S68  1  0.78595000  0.56437000  0.69545000  1.0 -0.4084578081
S  S69  1  0.78595000  0.95423000  0.56437000  1.0 -0.4084578081
S  S70  1  0.69545000  0.56437000  0.95423000  1.0 -0.4084578081
S  S71  1  0.56437000  0.69545000  0.78595000  1.0 -0.4084578081
S  S72  1  0.95423000  0.78595000  0.69545000  1.0 -0.4084578081
S  S73  1  0.19545000  0.28595000  0.45423000  1.0 -0.4084578081
S  S74  1  0.28595000  0.19545000  0.06437000  1.0 -0.4084578081
S  S75  1  0.45423000  0.06437000  0.19545000  1.0 -0.4084578081
S  S76  1  0.06437000  0.45423000  0.28595000  1.0 -0.4084578081
S  S77  1  0.45423000  0.19545000  0.28595000  1.0 -0.4084578081
S  S78  1  0.06437000  0.28595000  0.19545000  1.0 -0.4084578081
S  S79  1  0.19545000  0.45423000  0.06437000  1.0 -0.4084578081
S  S80  1  0.28595000  0.06437000  0.45423000  1.0 -0.4084578081
S  S81  1  0.28595000  0.45423000  0.19545000  1.0 -0.4084578081
S  S82  1  0.19545000  0.06437000  0.28595000  1.0 -0.4084578081
S  S83  1  0.06437000  0.19545000  0.45423000  1.0 -0.4084578081
S  S84  1  0.45423000  0.28595000  0.06437000  1.0 -0.4084578081
S  S85  1  0.05455000  0.96405000  0.18563000  1.0 -0.4084578081
S  S86  1  0.96405000  0.05455000  0.79577000  1.0 -0.4084578081
S  S87  1  0.79577000  0.18563000  0.96405000  1.0 -0.4084578081
S  S88  1  0.18563000  0.79577000  0.05455000  1.0 -0.4084578081
S  S89  1  0.79577000  0.05455000  0.18563000  1.0 -0.4084578081
S  S90  1  0.18563000  0.96405000  0.79577000  1.0 -0.4084578081
S  S91  1  0.05455000  0.79577000  0.96405000  1.0 -0.4084578081
S  S92  1  0.96405000  0.18563000  0.05455000  1.0 -0.4084578081
S  S93  1  0.96405000  0.79577000  0.18563000  1.0 -0.4084578081
S  S94  1  0.05455000  0.18563000  0.79577000  1.0 -0.4084578081
S  S95  1  0.18563000  0.05455000  0.96405000  1.0 -0.4084578081
S  S96  1  0.79577000  0.96405000  0.05455000  1.0 -0.4084578081
N  N1  1  0.81293000  0.16533000  0.40653000  1.0 -0.2054044475
N  N2  1  0.16533000  0.81293000  0.61521000  1.0 -0.2054044475
N  N3  1  0.40653000  0.61521000  0.81293000  1.0 -0.2054044475
N  N4  1  0.61521000  0.40653000  0.16533000  1.0 -0.2054044475
N  N5  1  0.40653000  0.81293000  0.16533000  1.0 -0.2054044475
N  N6  1  0.61521000  0.16533000  0.81293000  1.0 -0.2054044475
N  N7  1  0.81293000  0.40653000  0.61521000  1.0 -0.2054044475
N  N8  1  0.16533000  0.61521000  0.40653000  1.0 -0.2054044475
N  N9  1  0.16533000  0.40653000  0.81293000  1.0 -0.2054044475
N  N10  1  0.81293000  0.61521000  0.16533000  1.0 -0.2054044475
N  N11  1  0.61521000  0.81293000  0.40653000  1.0 -0.2054044475
N  N12  1  0.40653000  0.16533000  0.61521000  1.0 -0.2054044475
N  N13  1  0.43707000  0.08467000  0.63479000  1.0 -0.2054044475
N  N14  1  0.08467000  0.43707000  0.84347000  1.0 -0.2054044475
N  N15  1  0.84347000  0.63479000  0.08467000  1.0 -0.2054044475
N  N16  1  0.63479000  0.84347000  0.43707000  1.0 -0.2054044475
N  N17  1  0.84347000  0.43707000  0.63479000  1.0 -0.2054044475
N  N18  1  0.63479000  0.08467000  0.84347000  1.0 -0.2054044475
N  N19  1  0.43707000  0.84347000  0.08467000  1.0 -0.2054044475
N  N20  1  0.08467000  0.63479000  0.43707000  1.0 -0.2054044475
N  N21  1  0.08467000  0.84347000  0.63479000  1.0 -0.2054044475
N  N22  1  0.43707000  0.63479000  0.84347000  1.0 -0.2054044475
N  N23  1  0.63479000  0.43707000  0.08467000  1.0 -0.2054044475
N  N24  1  0.84347000  0.08467000  0.43707000  1.0 -0.2054044475
N  N25  1  0.93707000  0.58467000  0.34347000  1.0 -0.2054044475
N  N26  1  0.58467000  0.93707000  0.13479000  1.0 -0.2054044475
N  N27  1  0.34347000  0.13479000  0.93707000  1.0 -0.2054044475
N  N28  1  0.13479000  0.34347000  0.58467000  1.0 -0.2054044475
N  N29  1  0.34347000  0.93707000  0.58467000  1.0 -0.2054044475
N  N30  1  0.13479000  0.58467000  0.93707000  1.0 -0.2054044475
N  N31  1  0.93707000  0.34347000  0.13479000  1.0 -0.2054044475
N  N32  1  0.58467000  0.13479000  0.34347000  1.0 -0.2054044475
N  N33  1  0.58467000  0.34347000  0.93707000  1.0 -0.2054044475
N  N34  1  0.93707000  0.13479000  0.58467000  1.0 -0.2054044475
N  N35  1  0.13479000  0.93707000  0.34347000  1.0 -0.2054044475
N  N36  1  0.34347000  0.58467000  0.13479000  1.0 -0.2054044475
N  N37  1  0.31293000  0.66533000  0.11521000  1.0 -0.2054044475
N  N38  1  0.66533000  0.31293000  0.90653000  1.0 -0.2054044475
N  N39  1  0.90653000  0.11521000  0.66533000  1.0 -0.2054044475
N  N40  1  0.11521000  0.90653000  0.31293000  1.0 -0.2054044475
N  N41  1  0.90653000  0.31293000  0.11521000  1.0 -0.2054044475
N  N42  1  0.11521000  0.66533000  0.90653000  1.0 -0.2054044475
N  N43  1  0.31293000  0.90653000  0.66533000  1.0 -0.2054044475
N  N44  1  0.66533000  0.11521000  0.31293000  1.0 -0.2054044475
N  N45  1  0.66533000  0.90653000  0.11521000  1.0 -0.2054044475
N  N46  1  0.31293000  0.11521000  0.90653000  1.0 -0.2054044475
N  N47  1  0.11521000  0.31293000  0.66533000  1.0 -0.2054044475
N  N48  1  0.90653000  0.66533000  0.31293000  1.0 -0.2054044475
N  N49  1  0.63338000  0.06954000  0.38908000  1.0 -0.4784465072
N  N50  1  0.06954000  0.63338000  0.90800000  1.0 -0.4784465072
N  N51  1  0.38908000  0.90800000  0.63338000  1.0 -0.4784465072
N  N52  1  0.90800000  0.38908000  0.06954000  1.0 -0.4784465072
N  N53  1  0.38908000  0.63338000  0.06954000  1.0 -0.4784465072
N  N54  1  0.90800000  0.06954000  0.63338000  1.0 -0.4784465072
N  N55  1  0.63338000  0.38908000  0.90800000  1.0 -0.4784465072
N  N56  1  0.06954000  0.90800000  0.38908000  1.0 -0.4784465072
N  N57  1  0.06954000  0.38908000  0.63338000  1.0 -0.4784465072
N  N58  1  0.63338000  0.90800000  0.06954000  1.0 -0.4784465072
N  N59  1  0.90800000  0.63338000  0.38908000  1.0 -0.4784465072
N  N60  1  0.38908000  0.06954000  0.90800000  1.0 -0.4784465072
N  N61  1  0.61662000  0.18046000  0.34200000  1.0 -0.4784465072
N  N62  1  0.18046000  0.61662000  0.86092000  1.0 -0.4784465072
N  N63  1  0.86092000  0.34200000  0.18046000  1.0 -0.4784465072
N  N64  1  0.34200000  0.86092000  0.61662000  1.0 -0.4784465072
N  N65  1  0.86092000  0.61662000  0.34200000  1.0 -0.4784465072
N  N66  1  0.34200000  0.18046000  0.86092000  1.0 -0.4784465072
N  N67  1  0.61662000  0.86092000  0.18046000  1.0 -0.4784465072
N  N68  1  0.18046000  0.34200000  0.61662000  1.0 -0.4784465072
N  N69  1  0.18046000  0.86092000  0.34200000  1.0 -0.4784465072
N  N70  1  0.61662000  0.34200000  0.86092000  1.0 -0.4784465072
N  N71  1  0.34200000  0.61662000  0.18046000  1.0 -0.4784465072
N  N72  1  0.86092000  0.18046000  0.61662000  1.0 -0.4784465072
N  N73  1  0.11662000  0.68046000  0.36092000  1.0 -0.4784465072
N  N74  1  0.68046000  0.11662000  0.84200000  1.0 -0.4784465072
N  N75  1  0.36092000  0.84200000  0.11662000  1.0 -0.4784465072
N  N76  1  0.84200000  0.36092000  0.68046000  1.0 -0.4784465072
N  N77  1  0.36092000  0.11662000  0.68046000  1.0 -0.4784465072
N  N78  1  0.84200000  0.68046000  0.11662000  1.0 -0.4784465072
N  N79  1  0.11662000  0.36092000  0.84200000  1.0 -0.4784465072
N  N80  1  0.68046000  0.84200000  0.36092000  1.0 -0.4784465072
N  N81  1  0.68046000  0.36092000  0.11662000  1.0 -0.4784465072
N  N82  1  0.11662000  0.84200000  0.68046000  1.0 -0.4784465072
N  N83  1  0.84200000  0.11662000  0.36092000  1.0 -0.4784465072
N  N84  1  0.36092000  0.68046000  0.84200000  1.0 -0.4784465072
N  N85  1  0.13338000  0.56954000  0.40800000  1.0 -0.4784465072
N  N86  1  0.56954000  0.13338000  0.88908000  1.0 -0.4784465072
N  N87  1  0.88908000  0.40800000  0.56954000  1.0 -0.4784465072
N  N88  1  0.40800000  0.88908000  0.13338000  1.0 -0.4784465072
N  N89  1  0.88908000  0.13338000  0.40800000  1.0 -0.4784465072
N  N90  1  0.40800000  0.56954000  0.88908000  1.0 -0.4784465072
N  N91  1  0.13338000  0.88908000  0.56954000  1.0 -0.4784465072
N  N92  1  0.56954000  0.40800000  0.13338000  1.0 -0.4784465072
N  N93  1  0.56954000  0.88908000  0.40800000  1.0 -0.4784465072
N  N94  1  0.13338000  0.40800000  0.88908000  1.0 -0.4784465072
N  N95  1  0.40800000  0.13338000  0.56954000  1.0 -0.4784465072
N  N96  1  0.88908000  0.56954000  0.13338000  1.0 -0.4784465072
N  N97  1  0.66841000  0.11521000  0.38025000  1.0 -0.200673288
N  N98  1  0.11521000  0.66841000  0.83613000  1.0 -0.2054044475
N  N99  1  0.38025000  0.83613000  0.66841000  1.0 -0.2054044475
N  N100  1  0.83613000  0.38025000  0.11521000  1.0 -0.200673288
N  N101  1  0.38025000  0.66841000  0.11521000  1.0 -0.2054044475
N  N102  1  0.83613000  0.11521000  0.66841000  1.0 -0.2054044475
N  N103  1  0.66841000  0.38025000  0.83613000  1.0 -0.2054044475
N  N104  1  0.11521000  0.83613000  0.38025000  1.0 -0.2054044475
N  N105  1  0.11521000  0.38025000  0.66841000  1.0 -0.2054044475
N  N106  1  0.66841000  0.83613000  0.11521000  1.0 -0.2054044475
N  N107  1  0.83613000  0.66841000  0.38025000  1.0 -0.2054044475
N  N108  1  0.38025000  0.11521000  0.83613000  1.0 -0.2054044475
N  N109  1  0.58159000  0.13479000  0.41387000  1.0 -0.2054044475
N  N110  1  0.13479000  0.58159000  0.86975000  1.0 -0.2054044475
N  N111  1  0.86975000  0.41387000  0.13479000  1.0 -0.200673288
N  N112  1  0.41387000  0.86975000  0.58159000  1.0 -0.2054044475
N  N113  1  0.86975000  0.58159000  0.41387000  1.0 -0.2054044475
N  N114  1  0.41387000  0.13479000  0.86975000  1.0 -0.2054044475
N  N115  1  0.58159000  0.86975000  0.13479000  1.0 -0.200673288
N  N116  1  0.13479000  0.41387000  0.58159000  1.0 -0.2054044475
N  N117  1  0.13479000  0.86975000  0.41387000  1.0 -0.2054044475
N  N118  1  0.58159000  0.41387000  0.86975000  1.0 -0.2054044475
N  N119  1  0.41387000  0.58159000  0.13479000  1.0 -0.2054044475
N  N120  1  0.86975000  0.13479000  0.58159000  1.0 -0.2054044475
N  N121  1  0.08159000  0.63479000  0.36975000  1.0 -0.2054044475
N  N122  1  0.63479000  0.08159000  0.91387000  1.0 -0.2054044475
N  N123  1  0.36975000  0.91387000  0.08159000  1.0 -0.2054044475
N  N124  1  0.91387000  0.36975000  0.63479000  1.0 -0.2054044475
N  N125  1  0.36975000  0.08159000  0.63479000  1.0 -0.2054044475
N  N126  1  0.91387000  0.63479000  0.08159000  1.0 -0.2054044475
N  N127  1  0.08159000  0.36975000  0.91387000  1.0 -0.2054044475
N  N128  1  0.63479000  0.91387000  0.36975000  1.0 -0.2054044475
N  N129  1  0.63479000  0.36975000  0.08159000  1.0 -0.200673288
N  N130  1  0.08159000  0.91387000  0.63479000  1.0 -0.2054044475
N  N131  1  0.91387000  0.08159000  0.36975000  1.0 -0.2054044475
N  N132  1  0.36975000  0.63479000  0.91387000  1.0 -0.2054044475
N  N133  1  0.16841000  0.61521000  0.33613000  1.0 -0.200673288
N  N134  1  0.61521000  0.16841000  0.88025000  1.0 -0.2054044475
N  N135  1  0.88025000  0.33613000  0.61521000  1.0 -0.2054044475
N  N136  1  0.33613000  0.88025000  0.16841000  1.0 -0.2054044475
N  N137  1  0.88025000  0.16841000  0.33613000  1.0 -0.2054044475
N  N138  1  0.33613000  0.61521000  0.88025000  1.0 -0.2054044475
N  N139  1  0.16841000  0.88025000  0.61521000  1.0 -0.2054044475
N  N140  1  0.61521000  0.33613000  0.16841000  1.0 -0.2054044475
N  N141  1  0.61521000  0.88025000  0.33613000  1.0 -0.2054044475
N  N142  1  0.16841000  0.33613000  0.88025000  1.0 -0.2054044475
N  N143  1  0.33613000  0.16841000  0.61521000  1.0 -0.2054044475
N  N144  1  0.88025000  0.61521000  0.16841000  1.0 -0.2054044475
N  N145  1  0.66886000  0.20218000  0.38842000  1.0 -0.4016661203
N  N146  1  0.20218000  0.66886000  0.74054000  1.0 -0.4016661203
N  N147  1  0.38842000  0.74054000  0.66886000  1.0 -0.4016661203
N  N148  1  0.74054000  0.38842000  0.20218000  1.0 -0.4084578081
N  N149  1  0.38842000  0.66886000  0.20218000  1.0 -0.4016661203
N  N150  1  0.74054000  0.20218000  0.66886000  1.0 -0.4016661203
N  N151  1  0.66886000  0.38842000  0.74054000  1.0 -0.4016661203
N  N152  1  0.20218000  0.74054000  0.38842000  1.0 -0.4016661203
N  N153  1  0.20218000  0.38842000  0.66886000  1.0 -0.4016661203
N  N154  1  0.66886000  0.74054000  0.20218000  1.0 -0.4016661203
N  N155  1  0.74054000  0.66886000  0.38842000  1.0 -0.4016661203
N  N156  1  0.38842000  0.20218000  0.74054000  1.0 -0.4016661203
N  N157  1  0.58114000  0.04782000  0.50946000  1.0 -0.4016661203
N  N158  1  0.04782000  0.58114000  0.86158000  1.0 -0.4016661203
N  N159  1  0.86158000  0.50946000  0.04782000  1.0 -0.4016661203
N  N160  1  0.50946000  0.86158000  0.58114000  1.0 -0.4016661203
N  N161  1  0.86158000  0.58114000  0.50946000  1.0 -0.4016661203
N  N162  1  0.50946000  0.04782000  0.86158000  1.0 -0.4016661203
N  N163  1  0.58114000  0.86158000  0.04782000  1.0 -0.4016661203
N  N164  1  0.04782000  0.50946000  0.58114000  1.0 -0.4016661203
N  N165  1  0.04782000  0.86158000  0.50946000  1.0 -0.4016661203
N  N166  1  0.58114000  0.50946000  0.86158000  1.0 -0.4016661203
N  N167  1  0.50946000  0.58114000  0.04782000  1.0 -0.4016661203
N  N168  1  0.86158000  0.04782000  0.58114000  1.0 -0.4016661203
N  N169  1  0.08114000  0.54782000  0.36158000  1.0 -0.4016661203
N  N170  1  0.54782000  0.08114000  0.00946000  1.0 -0.4016661203
N  N171  1  0.36158000  0.00946000  0.08114000  1.0 -0.4016661203
N  N172  1  0.00946000  0.36158000  0.54782000  1.0 -0.4016661203
N  N173  1  0.36158000  0.08114000  0.54782000  1.0 -0.4016661203
N  N174  1  0.00946000  0.54782000  0.08114000  1.0 -0.4016661203
N  N175  1  0.08114000  0.36158000  0.00946000  1.0 -0.4016661203
N  N176  1  0.54782000  0.00946000  0.36158000  1.0 -0.4016661203
N  N177  1  0.54782000  0.36158000  0.08114000  1.0 -0.4016661203
N  N178  1  0.08114000  0.00946000  0.54782000  1.0 -0.4016661203
N  N179  1  0.00946000  0.08114000  0.36158000  1.0 -0.4016661203
N  N180  1  0.36158000  0.54782000  0.00946000  1.0 -0.4016661203
N  N181  1  0.16886000  0.70218000  0.24054000  1.0 -0.4016661203
N  N182  1  0.70218000  0.16886000  0.88842000  1.0 -0.4016661203
N  N183  1  0.88842000  0.24054000  0.70218000  1.0 -0.4016661203
N  N184  1  0.24054000  0.88842000  0.16886000  1.0 -0.4016661203
N  N185  1  0.88842000  0.16886000  0.24054000  1.0 -0.4016661203
N  N186  1  0.24054000  0.70218000  0.88842000  1.0 -0.4016661203
N  N187  1  0.16886000  0.88842000  0.70218000  1.0 -0.4016661203
N  N188  1  0.70218000  0.24054000  0.16886000  1.0 -0.4016661203
N  N189  1  0.70218000  0.88842000  0.24054000  1.0 -0.4016661203
N  N190  1  0.16886000  0.24054000  0.88842000  1.0 -0.4016661203
N  N191  1  0.24054000  0.16886000  0.70218000  1.0 -0.4016661203
N  N192  1  0.88842000  0.70218000  0.16886000  1.0 -0.4016661203
N  N193  1  0.72278000  0.16644000  0.40336000  1.0 -0.4084578081
N  N194  1  0.16644000  0.72278000  0.70742000  1.0 -0.4084578081
N  N195  1  0.40336000  0.70742000  0.72278000  1.0 -0.4084578081
N  N196  1  0.70742000  0.40336000  0.16644000  1.0 -0.4084578081
N  N197  1  0.40336000  0.72278000  0.16644000  1.0 -0.4084578081
N  N198  1  0.70742000  0.16644000  0.72278000  1.0 -0.4084578081
N  N199  1  0.72278000  0.40336000  0.70742000  1.0 -0.4084578081
N  N200  1  0.16644000  0.70742000  0.40336000  1.0 -0.4084578081
N  N201  1  0.16644000  0.40336000  0.72278000  1.0 -0.4084578081
N  N202  1  0.72278000  0.70742000  0.16644000  1.0 -0.4084578081
N  N203  1  0.70742000  0.72278000  0.40336000  1.0 -0.4084578081
N  N204  1  0.40336000  0.16644000  0.70742000  1.0 -0.4084578081
N  N205  1  0.52722000  0.08356000  0.54258000  1.0 -0.4084578081
N  N206  1  0.08356000  0.52722000  0.84664000  1.0 -0.4084578081
N  N207  1  0.84664000  0.54258000  0.08356000  1.0 -0.4084578081
N  N208  1  0.54258000  0.84664000  0.52722000  1.0 -0.4084578081
N  N209  1  0.84664000  0.52722000  0.54258000  1.0 -0.4084578081
N  N210  1  0.54258000  0.08356000  0.84664000  1.0 -0.4084578081
N  N211  1  0.52722000  0.84664000  0.08356000  1.0 -0.4084578081
N  N212  1  0.08356000  0.54258000  0.52722000  1.0 -0.4084578081
N  N213  1  0.08356000  0.84664000  0.54258000  1.0 -0.4084578081
N  N214  1  0.52722000  0.54258000  0.84664000  1.0 -0.4084578081
N  N215  1  0.54258000  0.52722000  0.08356000  1.0 -0.4084578081
N  N216  1  0.84664000  0.08356000  0.52722000  1.0 -0.4084578081
N  N217  1  0.02722000  0.58356000  0.34664000  1.0 -0.4084578081
N  N218  1  0.58356000  0.02722000  0.04258000  1.0 -0.4084578081
N  N219  1  0.34664000  0.04258000  0.02722000  1.0 -0.4084578081
N  N220  1  0.04258000  0.34664000  0.58356000  1.0 -0.4084578081
N  N221  1  0.34664000  0.02722000  0.58356000  1.0 -0.4084578081
N  N222  1  0.04258000  0.58356000  0.02722000  1.0 -0.4084578081
N  N223  1  0.02722000  0.34664000  0.04258000  1.0 -0.4084578081
N  N224  1  0.58356000  0.04258000  0.34664000  1.0 -0.4084578081
N  N225  1  0.58356000  0.34664000  0.02722000  1.0 -0.4084578081
N  N226  1  0.02722000  0.04258000  0.58356000  1.0 -0.4084578081
N  N227  1  0.04258000  0.02722000  0.34664000  1.0 -0.4084578081
N  N228  1  0.34664000  0.58356000  0.04258000  1.0 -0.4084578081
N  N229  1  0.22278000  0.66644000  0.20742000  1.0 -0.4084578081
N  N230  1  0.66644000  0.22278000  0.90336000  1.0 -0.4084578081
N  N231  1  0.90336000  0.20742000  0.66644000  1.0 -0.4084578081
N  N232  1  0.20742000  0.90336000  0.22278000  1.0 -0.4084578081
N  N233  1  0.90336000  0.22278000  0.20742000  1.0 -0.4084578081
N  N234  1  0.20742000  0.66644000  0.90336000  1.0 -0.4084578081
N  N235  1  0.22278000  0.90336000  0.66644000  1.0 -0.4084578081
N  N236  1  0.66644000  0.20742000  0.22278000  1.0 -0.4084578081
N  N237  1  0.66644000  0.90336000  0.20742000  1.0 -0.4084578081
N  N238  1  0.22278000  0.20742000  0.90336000  1.0 -0.4084578081
N  N239  1  0.20742000  0.22278000  0.66644000  1.0 -0.4084578081
N  N240  1  0.90336000  0.66644000  0.22278000  1.0 -0.4084578081
N  N241  1  0.69338000  0.22708000  0.40232000  1.0 -0.4084578081
N  N242  1  0.22708000  0.69338000  0.67722000  1.0 -0.4084578081
N  N243  1  0.40232000  0.67722000  0.69338000  1.0 -0.4084578081
N  N244  1  0.67722000  0.40232000  0.22708000  1.0 -0.4084578081
N  N245  1  0.40232000  0.69338000  0.22708000  1.0 -0.4084578081
N  N246  1  0.67722000  0.22708000  0.69338000  1.0 -0.4084578081
N  N247  1  0.69338000  0.40232000  0.67722000  1.0 -0.4084578081
N  N248  1  0.22708000  0.67722000  0.40232000  1.0 -0.4084578081
N  N249  1  0.22708000  0.40232000  0.69338000  1.0 -0.4084578081
N  N250  1  0.69338000  0.67722000  0.22708000  1.0 -0.4084578081
N  N251  1  0.67722000  0.69338000  0.40232000  1.0 -0.4084578081
N  N252  1  0.40232000  0.22708000  0.67722000  1.0 -0.4084578081
N  N253  1  0.55662000  0.02292000  0.57278000  1.0 -0.4084578081
N  N254  1  0.02292000  0.55662000  0.84768000  1.0 -0.4016661203
N  N255  1  0.84768000  0.57278000  0.02292000  1.0 -0.4084578081
N  N256  1  0.57278000  0.84768000  0.55662000  1.0 -0.4084578081
N  N257  1  0.84768000  0.55662000  0.57278000  1.0 -0.4084578081
N  N258  1  0.57278000  0.02292000  0.84768000  1.0 -0.4084578081
N  N259  1  0.55662000  0.84768000  0.02292000  1.0 -0.4084578081
N  N260  1  0.02292000  0.57278000  0.55662000  1.0 -0.4084578081
N  N261  1  0.02292000  0.84768000  0.57278000  1.0 -0.4084578081
N  N262  1  0.55662000  0.57278000  0.84768000  1.0 -0.4016661203
N  N263  1  0.57278000  0.55662000  0.02292000  1.0 -0.4084578081
N  N264  1  0.84768000  0.02292000  0.55662000  1.0 -0.4084578081
N  N265  1  0.05662000  0.52292000  0.34768000  1.0 -0.4084578081
N  N266  1  0.52292000  0.05662000  0.07278000  1.0 -0.4084578081
N  N267  1  0.34768000  0.07278000  0.05662000  1.0 -0.4084578081
N  N268  1  0.07278000  0.34768000  0.52292000  1.0 -0.4084578081
N  N269  1  0.34768000  0.05662000  0.52292000  1.0 -0.4016661203
N  N270  1  0.07278000  0.52292000  0.05662000  1.0 -0.4084578081
N  N271  1  0.05662000  0.34768000  0.07278000  1.0 -0.4084578081
N  N272  1  0.52292000  0.07278000  0.34768000  1.0 -0.4084578081
N  N273  1  0.52292000  0.34768000  0.05662000  1.0 -0.4084578081
N  N274  1  0.05662000  0.07278000  0.52292000  1.0 -0.4084578081
N  N275  1  0.07278000  0.05662000  0.34768000  1.0 -0.4084578081
N  N276  1  0.34768000  0.52292000  0.07278000  1.0 -0.4084578081
N  N277  1  0.19338000  0.72708000  0.17722000  1.0 -0.4084578081
N  N278  1  0.72708000  0.19338000  0.90232000  1.0 -0.4084578081
N  N279  1  0.90232000  0.17722000  0.72708000  1.0 -0.4084578081
N  N280  1  0.17722000  0.90232000  0.19338000  1.0 -0.4084578081
N  N281  1  0.90232000  0.19338000  0.17722000  1.0 -0.4084578081
N  N282  1  0.17722000  0.72708000  0.90232000  1.0 -0.4084578081
N  N283  1  0.19338000  0.90232000  0.72708000  1.0 -0.4084578081
N  N284  1  0.72708000  0.17722000  0.19338000  1.0 -0.4084578081
N  N285  1  0.72708000  0.90232000  0.17722000  1.0 -0.4084578081
N  N286  1  0.19338000  0.17722000  0.90232000  1.0 -0.4084578081
N  N287  1  0.17722000  0.19338000  0.72708000  1.0 -0.4016661203
N  N288  1  0.90232000  0.72708000  0.19338000  1.0 -0.4084578081
N  N289  1  0.62213000  0.32867000  0.37065000  1.0 -0.200673288
N  N290  1  0.32867000  0.62213000  0.67855000  1.0 -0.200673288
N  N291  1  0.37065000  0.67855000  0.62213000  1.0 -0.2054044475
N  N292  1  0.67855000  0.37065000  0.32867000  1.0 -0.2054044475
N  N293  1  0.37065000  0.62213000  0.32867000  1.0 -0.2054044475
N  N294  1  0.67855000  0.32867000  0.62213000  1.0 -0.2054044475
N  N295  1  0.62213000  0.37065000  0.67855000  1.0 -0.2054044475
N  N296  1  0.32867000  0.67855000  0.37065000  1.0 -0.200673288
N  N297  1  0.32867000  0.37065000  0.62213000  1.0 -0.2054044475
N  N298  1  0.62213000  0.67855000  0.32867000  1.0 -0.2054044475
N  N299  1  0.67855000  0.62213000  0.37065000  1.0 -0.200673288
N  N300  1  0.37065000  0.32867000  0.67855000  1.0 -0.2054044475
N  N301  1  0.62787000  0.92133000  0.57145000  1.0 -0.2054044475
N  N302  1  0.92133000  0.62787000  0.87935000  1.0 -0.2054044475
N  N303  1  0.87935000  0.57145000  0.92133000  1.0 -0.2054044475
N  N304  1  0.57145000  0.87935000  0.62787000  1.0 -0.2054044475
N  N305  1  0.87935000  0.62787000  0.57145000  1.0 -0.2054044475
N  N306  1  0.57145000  0.92133000  0.87935000  1.0 -0.2054044475
N  N307  1  0.62787000  0.87935000  0.92133000  1.0 -0.2054044475
N  N308  1  0.92133000  0.57145000  0.62787000  1.0 -0.200673288
N  N309  1  0.92133000  0.87935000  0.57145000  1.0 -0.2054044475
N  N310  1  0.62787000  0.57145000  0.87935000  1.0 -0.2054044475
N  N311  1  0.57145000  0.62787000  0.92133000  1.0 -0.2054044475
N  N312  1  0.87935000  0.92133000  0.62787000  1.0 -0.200673288
N  N313  1  0.12787000  0.42133000  0.37935000  1.0 -0.2054044475
N  N314  1  0.42133000  0.12787000  0.07145000  1.0 -0.2054044475
N  N315  1  0.37935000  0.07145000  0.12787000  1.0 -0.2054044475
N  N316  1  0.07145000  0.37935000  0.42133000  1.0 -0.200673288
N  N317  1  0.37935000  0.12787000  0.42133000  1.0 -0.2054044475
N  N318  1  0.07145000  0.42133000  0.12787000  1.0 -0.200673288
N  N319  1  0.12787000  0.37935000  0.07145000  1.0 -0.2054044475
N  N320  1  0.42133000  0.07145000  0.37935000  1.0 -0.2054044475
N  N321  1  0.42133000  0.37935000  0.12787000  1.0 -0.200673288
N  N322  1  0.12787000  0.07145000  0.42133000  1.0 -0.2054044475
N  N323  1  0.07145000  0.12787000  0.37935000  1.0 -0.200673288
N  N324  1  0.37935000  0.42133000  0.07145000  1.0 -0.200673288
N  N325  1  0.12213000  0.82867000  0.17855000  1.0 -0.200673288
N  N326  1  0.82867000  0.12213000  0.87065000  1.0 -0.2054044475
N  N327  1  0.87065000  0.17855000  0.82867000  1.0 -0.2054044475
N  N328  1  0.17855000  0.87065000  0.12213000  1.0 -0.200673288
N  N329  1  0.87065000  0.12213000  0.17855000  1.0 -0.200673288
N  N330  1  0.17855000  0.82867000  0.87065000  1.0 -0.2054044475
N  N331  1  0.12213000  0.87065000  0.82867000  1.0 -0.2054044475
N  N332  1  0.82867000  0.17855000  0.12213000  1.0 -0.2054044475
N  N333  1  0.82867000  0.87065000  0.17855000  1.0 -0.200673288
N  N334  1  0.12213000  0.17855000  0.87065000  1.0 -0.2054044475
N  N335  1  0.17855000  0.12213000  0.82867000  1.0 -0.2054044475
N  N336  1  0.87065000  0.82867000  0.12213000  1.0 -0.200673288
N  N337  1  0.59598000  0.40846000  0.33902000  1.0 -0.4784465072
N  N338  1  0.40846000  0.59598000  0.65654000  1.0 -0.4784465072
N  N339  1  0.33902000  0.65654000  0.59598000  1.0 -0.4784465072
N  N340  1  0.65654000  0.33902000  0.40846000  1.0 -0.4784465072
N  N341  1  0.33902000  0.59598000  0.40846000  1.0 -0.4784465072
N  N342  1  0.65654000  0.40846000  0.59598000  1.0 -0.4784465072
N  N343  1  0.59598000  0.33902000  0.65654000  1.0 -0.4784465072
N  N344  1  0.40846000  0.65654000  0.33902000  1.0 -0.4784465072
N  N345  1  0.40846000  0.33902000  0.59598000  1.0 -0.4784465072
N  N346  1  0.59598000  0.65654000  0.40846000  1.0 -0.4784465072
N  N347  1  0.65654000  0.59598000  0.33902000  1.0 -0.4784465072
N  N348  1  0.33902000  0.40846000  0.65654000  1.0 -0.4784465072
N  N349  1  0.65402000  0.84154000  0.59346000  1.0 -0.4784465072
N  N350  1  0.84154000  0.65402000  0.91098000  1.0 -0.4784465072
N  N351  1  0.91098000  0.59346000  0.84154000  1.0 -0.4784465072
N  N352  1  0.59346000  0.91098000  0.65402000  1.0 -0.4784465072
N  N353  1  0.91098000  0.65402000  0.59346000  1.0 -0.4784465072
N  N354  1  0.59346000  0.84154000  0.91098000  1.0 -0.4784465072
N  N355  1  0.65402000  0.91098000  0.84154000  1.0 -0.4784465072
N  N356  1  0.84154000  0.59346000  0.65402000  1.0 -0.4784465072
N  N357  1  0.84154000  0.91098000  0.59346000  1.0 -0.4784465072
N  N358  1  0.65402000  0.59346000  0.91098000  1.0 -0.4784465072
N  N359  1  0.59346000  0.65402000  0.84154000  1.0 -0.4784465072
N  N360  1  0.91098000  0.84154000  0.65402000  1.0 -0.4784465072
N  N361  1  0.15402000  0.34154000  0.41098000  1.0 -0.4784465072
N  N362  1  0.34154000  0.15402000  0.09346000  1.0 -0.4784465072
N  N363  1  0.41098000  0.09346000  0.15402000  1.0 -0.4784465072
N  N364  1  0.09346000  0.41098000  0.34154000  1.0 -0.4784465072
N  N365  1  0.41098000  0.15402000  0.34154000  1.0 -0.4784465072
N  N366  1  0.09346000  0.34154000  0.15402000  1.0 -0.4784465072
N  N367  1  0.15402000  0.41098000  0.09346000  1.0 -0.4784465072
N  N368  1  0.34154000  0.09346000  0.41098000  1.0 -0.4784465072
N  N369  1  0.34154000  0.41098000  0.15402000  1.0 -0.4784465072
N  N370  1  0.15402000  0.09346000  0.34154000  1.0 -0.4784465072
N  N371  1  0.09346000  0.15402000  0.41098000  1.0 -0.4784465072
N  N372  1  0.41098000  0.34154000  0.09346000  1.0 -0.4784465072
N  N373  1  0.09598000  0.90846000  0.15654000  1.0 -0.4784465072
N  N374  1  0.90846000  0.09598000  0.83902000  1.0 -0.4784465072
N  N375  1  0.83902000  0.15654000  0.90846000  1.0 -0.4784465072
N  N376  1  0.15654000  0.83902000  0.09598000  1.0 -0.4784465072
N  N377  1  0.83902000  0.09598000  0.15654000  1.0 -0.4784465072
N  N378  1  0.15654000  0.90846000  0.83902000  1.0 -0.4784465072
N  N379  1  0.09598000  0.83902000  0.90846000  1.0 -0.4784465072
N  N380  1  0.90846000  0.15654000  0.09598000  1.0 -0.4784465072
N  N381  1  0.90846000  0.83902000  0.15654000  1.0 -0.4784465072
N  N382  1  0.09598000  0.15654000  0.83902000  1.0 -0.4784465072
N  N383  1  0.15654000  0.09598000  0.90846000  1.0 -0.4784465072
N  N384  1  0.83902000  0.90846000  0.09598000  1.0 -0.4784465072
N  N385  1  0.63107000  0.42121000  0.36881000  1.0 -0.200673288
N  N386  1  0.42121000  0.63107000  0.57891000  1.0 -0.200673288
N  N387  1  0.36881000  0.57891000  0.63107000  1.0 -0.200673288
N  N388  1  0.57891000  0.36881000  0.42121000  1.0 -0.200673288
N  N389  1  0.36881000  0.63107000  0.42121000  1.0 -0.200673288
N  N390  1  0.57891000  0.42121000  0.63107000  1.0 -0.200673288
N  N391  1  0.63107000  0.36881000  0.57891000  1.0 -0.200673288
N  N392  1  0.42121000  0.57891000  0.36881000  1.0 -0.200673288
N  N393  1  0.42121000  0.36881000  0.63107000  1.0 -0.200673288
N  N394  1  0.63107000  0.57891000  0.42121000  1.0 -0.200673288
N  N395  1  0.57891000  0.63107000  0.36881000  1.0 -0.200673288
N  N396  1  0.36881000  0.42121000  0.57891000  1.0 -0.200673288
N  N397  1  0.61893000  0.82879000  0.67109000  1.0 -0.200673288
N  N398  1  0.82879000  0.61893000  0.88119000  1.0 -0.200673288
N  N399  1  0.88119000  0.67109000  0.82879000  1.0 -0.200673288
N  N400  1  0.67109000  0.88119000  0.61893000  1.0 -0.200673288
N  N401  1  0.88119000  0.61893000  0.67109000  1.0 -0.200673288
N  N402  1  0.67109000  0.82879000  0.88119000  1.0 -0.200673288
N  N403  1  0.61893000  0.88119000  0.82879000  1.0 -0.200673288
N  N404  1  0.82879000  0.67109000  0.61893000  1.0 -0.200673288
N  N405  1  0.82879000  0.88119000  0.67109000  1.0 -0.200673288
N  N406  1  0.61893000  0.67109000  0.88119000  1.0 -0.200673288
N  N407  1  0.67109000  0.61893000  0.82879000  1.0 -0.200673288
N  N408  1  0.88119000  0.82879000  0.61893000  1.0 -0.200673288
N  N409  1  0.11893000  0.32879000  0.38119000  1.0 -0.200673288
N  N410  1  0.32879000  0.11893000  0.17109000  1.0 -0.200673288
N  N411  1  0.38119000  0.17109000  0.11893000  1.0 -0.200673288
N  N412  1  0.17109000  0.38119000  0.32879000  1.0 -0.200673288
N  N413  1  0.38119000  0.11893000  0.32879000  1.0 -0.200673288
N  N414  1  0.17109000  0.32879000  0.11893000  1.0 -0.200673288
N  N415  1  0.11893000  0.38119000  0.17109000  1.0 -0.200673288
N  N416  1  0.32879000  0.17109000  0.38119000  1.0 -0.200673288
N  N417  1  0.32879000  0.38119000  0.11893000  1.0 -0.200673288
N  N418  1  0.11893000  0.17109000  0.32879000  1.0 -0.200673288
N  N419  1  0.17109000  0.11893000  0.38119000  1.0 -0.200673288
N  N420  1  0.38119000  0.32879000  0.17109000  1.0 -0.200673288
N  N421  1  0.13107000  0.92121000  0.07891000  1.0 -0.200673288
N  N422  1  0.92121000  0.13107000  0.86881000  1.0 -0.200673288
N  N423  1  0.86881000  0.07891000  0.92121000  1.0 -0.200673288
N  N424  1  0.07891000  0.86881000  0.13107000  1.0 -0.200673288
N  N425  1  0.86881000  0.13107000  0.07891000  1.0 -0.200673288
N  N426  1  0.07891000  0.92121000  0.86881000  1.0 -0.200673288
N  N427  1  0.13107000  0.86881000  0.92121000  1.0 -0.200673288
N  N428  1  0.92121000  0.07891000  0.13107000  1.0 -0.200673288
N  N429  1  0.92121000  0.86881000  0.07891000  1.0 -0.200673288
N  N430  1  0.13107000  0.07891000  0.86881000  1.0 -0.200673288
N  N431  1  0.07891000  0.13107000  0.92121000  1.0 -0.200673288
N  N432  1  0.86881000  0.92121000  0.13107000  1.0 -0.200673288
N  N433  1  0.63800000  0.42320000  0.45474000  1.0 -0.4084578081
N  N434  1  0.42320000  0.63800000  0.48406000  1.0 -0.4084578081
N  N435  1  0.45474000  0.48406000  0.63800000  1.0 -0.4084578081
N  N436  1  0.48406000  0.45474000  0.42320000  1.0 -0.4084578081
N  N437  1  0.45474000  0.63800000  0.42320000  1.0 -0.4084578081
N  N438  1  0.48406000  0.42320000  0.63800000  1.0 -0.4084578081
N  N439  1  0.63800000  0.45474000  0.48406000  1.0 -0.4084578081
N  N440  1  0.42320000  0.48406000  0.45474000  1.0 -0.4084578081
N  N441  1  0.42320000  0.45474000  0.63800000  1.0 -0.4084578081
N  N442  1  0.63800000  0.48406000  0.42320000  1.0 -0.4084578081
N  N443  1  0.48406000  0.63800000  0.45474000  1.0 -0.4084578081
N  N444  1  0.45474000  0.42320000  0.48406000  1.0 -0.4084578081
N  N445  1  0.61200000  0.82680000  0.76594000  1.0 -0.4084578081
N  N446  1  0.82680000  0.61200000  0.79526000  1.0 -0.4084578081
N  N447  1  0.79526000  0.76594000  0.82680000  1.0 -0.4084578081
N  N448  1  0.76594000  0.79526000  0.61200000  1.0 -0.4084578081
N  N449  1  0.79526000  0.61200000  0.76594000  1.0 -0.4084578081
N  N450  1  0.76594000  0.82680000  0.79526000  1.0 -0.4084578081
N  N451  1  0.61200000  0.79526000  0.82680000  1.0 -0.4084578081
N  N452  1  0.82680000  0.76594000  0.61200000  1.0 -0.4084578081
N  N453  1  0.82680000  0.79526000  0.76594000  1.0 -0.4084578081
N  N454  1  0.61200000  0.76594000  0.79526000  1.0 -0.4084578081
N  N455  1  0.76594000  0.61200000  0.82680000  1.0 -0.4084578081
N  N456  1  0.79526000  0.82680000  0.61200000  1.0 -0.4084578081
N  N457  1  0.11200000  0.32680000  0.29526000  1.0 -0.4084578081
N  N458  1  0.32680000  0.11200000  0.26594000  1.0 -0.4084578081
N  N459  1  0.29526000  0.26594000  0.11200000  1.0 -0.4084578081
N  N460  1  0.26594000  0.29526000  0.32680000  1.0 -0.4084578081
N  N461  1  0.29526000  0.11200000  0.32680000  1.0 -0.4084578081
N  N462  1  0.26594000  0.32680000  0.11200000  1.0 -0.4084578081
N  N463  1  0.11200000  0.29526000  0.26594000  1.0 -0.4084578081
N  N464  1  0.32680000  0.26594000  0.29526000  1.0 -0.4084578081
N  N465  1  0.32680000  0.29526000  0.11200000  1.0 -0.4084578081
N  N466  1  0.11200000  0.26594000  0.32680000  1.0 -0.4084578081
N  N467  1  0.26594000  0.11200000  0.29526000  1.0 -0.4084578081
N  N468  1  0.29526000  0.32680000  0.26594000  1.0 -0.4084578081
N  N469  1  0.13800000  0.92320000  0.98406000  1.0 -0.4084578081
N  N470  1  0.92320000  0.13800000  0.95474000  1.0 -0.4084578081
N  N471  1  0.95474000  0.98406000  0.92320000  1.0 -0.4084578081
N  N472  1  0.98406000  0.95474000  0.13800000  1.0 -0.4084578081
N  N473  1  0.95474000  0.13800000  0.98406000  1.0 -0.4084578081
N  N474  1  0.98406000  0.92320000  0.95474000  1.0 -0.4084578081
N  N475  1  0.13800000  0.95474000  0.92320000  1.0 -0.4084578081
N  N476  1  0.92320000  0.98406000  0.13800000  1.0 -0.4084578081
N  N477  1  0.92320000  0.95474000  0.98406000  1.0 -0.4084578081
N  N478  1  0.13800000  0.98406000  0.95474000  1.0 -0.4084578081
N  N479  1  0.98406000  0.13800000  0.92320000  1.0 -0.4084578081
N  N480  1  0.95474000  0.92320000  0.13800000  1.0 -0.4084578081
