# DDEC6 charges by PACMAN v1.1 (https://github.com/mtap-research/PACMAN-charge/)
data_RIWMUH_ASR_pacman
_symmetry_space_group_name_H-M   'P 1'
_cell_length_a   27.08600000
_cell_length_b   27.08600000
_cell_length_c   6.70520000
_cell_angle_alpha   90.00000000
_cell_angle_beta   90.00000000
_cell_angle_gamma   90.00000000
_symmetry_Int_Tables_number   1
_chemical_formula_structural   CuH12(C8O3)2
_chemical_formula_sum   'Cu8 H96 C128 O48'
_cell_volume   4919.27934046
_cell_formula_units_Z   8
loop_
 _symmetry_equiv_pos_site_id
 _symmetry_equiv_pos_as_xyz
  1  'x, y, z'
loop_
 _atom_site_type_symbol
 _atom_site_label
 _atom_site_symmetry_multiplicity
 _atom_site_fract_x
 _atom_site_fract_y
 _atom_site_fract_z
 _atom_site_occupancy
 _atom_site_charge
Cu  Cu1  1  0.77097000  0.27097000  0.15159000  1.0 0.7904014645
Cu  Cu2  1  0.22903000  0.72903000  0.15159000  1.0 0.7904014645
Cu  Cu3  1  0.27097000  0.22903000  0.15159000  1.0 0.7904014645
Cu  Cu4  1  0.72903000  0.77097000  0.15159000  1.0 0.7904014645
Cu  Cu5  1  0.77097000  0.72903000  0.84841000  1.0 0.7904014645
Cu  Cu6  1  0.22903000  0.27097000  0.84841000  1.0 0.7904014645
Cu  Cu7  1  0.27097000  0.77097000  0.84841000  1.0 0.7904014645
Cu  Cu8  1  0.72903000  0.22903000  0.84841000  1.0 0.7904014645
H  H1  1  0.85980000  0.20280000  0.49170000  1.0 0.1278363003
H  H2  1  0.14020000  0.79720000  0.49170000  1.0 0.1278363003
H  H3  1  0.20280000  0.14020000  0.49170000  1.0 0.1278363003
H  H4  1  0.79720000  0.85980000  0.49170000  1.0 0.1278363003
H  H5  1  0.85980000  0.79720000  0.50830000  1.0 0.1278363003
H  H6  1  0.14020000  0.20280000  0.50830000  1.0 0.1278363003
H  H7  1  0.20280000  0.85980000  0.50830000  1.0 0.1278363003
H  H8  1  0.79720000  0.14020000  0.50830000  1.0 0.1278363003
H  H9  1  0.64020000  0.29720000  0.50830000  1.0 0.1278363003
H  H10  1  0.35980000  0.70280000  0.50830000  1.0 0.1278363003
H  H11  1  0.29720000  0.35980000  0.50830000  1.0 0.1278363003
H  H12  1  0.70280000  0.64020000  0.50830000  1.0 0.1278363003
H  H13  1  0.64020000  0.70280000  0.49170000  1.0 0.1278363003
H  H14  1  0.35980000  0.29720000  0.49170000  1.0 0.1278363003
H  H15  1  0.29720000  0.64020000  0.49170000  1.0 0.1278363003
H  H16  1  0.70280000  0.35980000  0.49170000  1.0 0.1278363003
H  H17  1  0.99840000  0.26660000  0.79960000  1.0 0.1192933828
H  H18  1  0.00160000  0.73340000  0.79960000  1.0 0.1192933828
H  H19  1  0.26660000  0.00160000  0.79960000  1.0 0.1192933828
H  H20  1  0.73340000  0.99840000  0.79960000  1.0 0.1192933828
H  H21  1  0.99840000  0.73340000  0.20040000  1.0 0.1192933828
H  H22  1  0.00160000  0.26660000  0.20040000  1.0 0.1192933828
H  H23  1  0.26660000  0.99840000  0.20040000  1.0 0.1192933828
H  H24  1  0.73340000  0.00160000  0.20040000  1.0 0.1192933828
H  H25  1  0.50160000  0.23340000  0.20040000  1.0 0.1192933828
H  H26  1  0.49840000  0.76660000  0.20040000  1.0 0.1192933828
H  H27  1  0.23340000  0.49840000  0.20040000  1.0 0.1192933828
H  H28  1  0.76660000  0.50160000  0.20040000  1.0 0.1192933828
H  H29  1  0.50160000  0.76660000  0.79960000  1.0 0.1192933828
H  H30  1  0.49840000  0.23340000  0.79960000  1.0 0.1192933828
H  H31  1  0.23340000  0.50160000  0.79960000  1.0 0.1192933828
H  H32  1  0.76660000  0.49840000  0.79960000  1.0 0.1192933828
H  H33  1  0.92280000  0.27090000  0.95520000  1.0 0.1192933828
H  H34  1  0.07720000  0.72910000  0.95520000  1.0 0.1192933828
H  H35  1  0.27090000  0.07720000  0.95520000  1.0 0.1192933828
H  H36  1  0.72910000  0.92280000  0.95520000  1.0 0.1192933828
H  H37  1  0.92280000  0.72910000  0.04480000  1.0 0.1192933828
H  H38  1  0.07720000  0.27090000  0.04480000  1.0 0.1192933828
H  H39  1  0.27090000  0.92280000  0.04480000  1.0 0.1192933828
H  H40  1  0.72910000  0.07720000  0.04480000  1.0 0.1192933828
H  H41  1  0.57720000  0.22910000  0.04480000  1.0 0.1192933828
H  H42  1  0.42280000  0.77090000  0.04480000  1.0 0.1192933828
H  H43  1  0.22910000  0.42280000  0.04480000  1.0 0.1192933828
H  H44  1  0.77090000  0.57720000  0.04480000  1.0 0.1192933828
H  H45  1  0.57720000  0.77090000  0.95520000  1.0 0.1192933828
H  H46  1  0.42280000  0.22910000  0.95520000  1.0 0.1192933828
H  H47  1  0.22910000  0.57720000  0.95520000  1.0 0.1192933828
H  H48  1  0.77090000  0.42280000  0.95520000  1.0 0.1192933828
H  H49  1  0.91200000  0.14850000  0.07810000  1.0 0.1278363003
H  H50  1  0.08800000  0.85150000  0.07810000  1.0 0.1278363003
H  H51  1  0.14850000  0.08800000  0.07810000  1.0 0.1278363003
H  H52  1  0.85150000  0.91200000  0.07810000  1.0 0.1278363003
H  H53  1  0.91200000  0.85150000  0.92190000  1.0 0.1278363003
H  H54  1  0.08800000  0.14850000  0.92190000  1.0 0.1278363003
H  H55  1  0.14850000  0.91200000  0.92190000  1.0 0.1278363003
H  H56  1  0.85150000  0.08800000  0.92190000  1.0 0.1278363003
H  H57  1  0.58800000  0.35150000  0.92190000  1.0 0.1278363003
H  H58  1  0.41200000  0.64850000  0.92190000  1.0 0.1278363003
H  H59  1  0.35150000  0.41200000  0.92190000  1.0 0.1278363003
H  H60  1  0.64850000  0.58800000  0.92190000  1.0 0.1278363003
H  H61  1  0.58800000  0.64850000  0.07810000  1.0 0.1278363003
H  H62  1  0.41200000  0.35150000  0.07810000  1.0 0.1278363003
H  H63  1  0.35150000  0.58800000  0.07810000  1.0 0.1278363003
H  H64  1  0.64850000  0.41200000  0.07810000  1.0 0.1278363003
H  H65  1  0.89310000  0.13630000  0.29350000  1.0 0.1192933828
H  H66  1  0.10690000  0.86370000  0.29350000  1.0 0.1192933828
H  H67  1  0.13630000  0.10690000  0.29350000  1.0 0.1192933828
H  H68  1  0.86370000  0.89310000  0.29350000  1.0 0.1192933828
H  H69  1  0.89310000  0.86370000  0.70650000  1.0 0.1192933828
H  H70  1  0.10690000  0.13630000  0.70650000  1.0 0.1192933828
H  H71  1  0.13630000  0.89310000  0.70650000  1.0 0.1192933828
H  H72  1  0.86370000  0.10690000  0.70650000  1.0 0.1192933828
H  H73  1  0.60690000  0.36370000  0.70650000  1.0 0.1192933828
H  H74  1  0.39310000  0.63630000  0.70650000  1.0 0.1192933828
H  H75  1  0.36370000  0.39310000  0.70650000  1.0 0.1192933828
H  H76  1  0.63630000  0.60690000  0.70650000  1.0 0.1192933828
H  H77  1  0.60690000  0.63630000  0.29350000  1.0 0.1192933828
H  H78  1  0.39310000  0.36370000  0.29350000  1.0 0.1192933828
H  H79  1  0.36370000  0.60690000  0.29350000  1.0 0.1192933828
H  H80  1  0.63630000  0.39310000  0.29350000  1.0 0.1192933828
H  H81  1  0.87380000  0.18350000  0.18230000  1.0 0.1192933828
H  H82  1  0.12620000  0.81650000  0.18230000  1.0 0.1192933828
H  H83  1  0.18350000  0.12620000  0.18230000  1.0 0.1192933828
H  H84  1  0.81650000  0.87380000  0.18230000  1.0 0.1192933828
H  H85  1  0.87380000  0.81650000  0.81770000  1.0 0.1192933828
H  H86  1  0.12620000  0.18350000  0.81770000  1.0 0.1192933828
H  H87  1  0.18350000  0.87380000  0.81770000  1.0 0.1192933828
H  H88  1  0.81650000  0.12620000  0.81770000  1.0 0.1192933828
H  H89  1  0.62620000  0.31650000  0.81770000  1.0 0.1192933828
H  H90  1  0.37380000  0.68350000  0.81770000  1.0 0.1192933828
H  H91  1  0.31650000  0.37380000  0.81770000  1.0 0.1192933828
H  H92  1  0.68350000  0.62620000  0.81770000  1.0 0.1192933828
H  H93  1  0.62620000  0.68350000  0.18230000  1.0 0.1192933828
H  H94  1  0.37380000  0.31650000  0.18230000  1.0 0.1192933828
H  H95  1  0.31650000  0.62620000  0.18230000  1.0 0.1192933828
H  H96  1  0.68350000  0.37380000  0.18230000  1.0 0.1192933828
C  C1  1  0.83374000  0.24113000  0.83620000  1.0 0.5551013259
C  C2  1  0.16626000  0.75887000  0.83620000  1.0 0.5551013259
C  C3  1  0.24113000  0.16626000  0.83620000  1.0 0.5551013259
C  C4  1  0.75887000  0.83374000  0.83620000  1.0 0.5551013259
C  C5  1  0.83374000  0.75887000  0.16380000  1.0 0.5551013259
C  C6  1  0.16626000  0.24113000  0.16380000  1.0 0.5551013259
C  C7  1  0.24113000  0.83374000  0.16380000  1.0 0.5551013259
C  C8  1  0.75887000  0.16626000  0.16380000  1.0 0.5551013259
C  C9  1  0.66626000  0.25887000  0.16380000  1.0 0.5551013259
C  C10  1  0.33374000  0.74113000  0.16380000  1.0 0.5551013259
C  C11  1  0.25887000  0.33374000  0.16380000  1.0 0.5551013259
C  C12  1  0.74113000  0.66626000  0.16380000  1.0 0.5551013259
C  C13  1  0.66626000  0.74113000  0.83620000  1.0 0.5551013259
C  C14  1  0.33374000  0.25887000  0.83620000  1.0 0.5551013259
C  C15  1  0.25887000  0.66626000  0.83620000  1.0 0.5551013259
C  C16  1  0.74113000  0.33374000  0.83620000  1.0 0.5551013259
C  C17  1  0.88355000  0.23770000  0.73890000  1.0 -0.0125621872
C  C18  1  0.11645000  0.76230000  0.73890000  1.0 -0.0125621872
C  C19  1  0.23770000  0.11645000  0.73890000  1.0 -0.0125621872
C  C20  1  0.76230000  0.88355000  0.73890000  1.0 -0.0125621872
C  C21  1  0.88355000  0.76230000  0.26110000  1.0 -0.0125621872
C  C22  1  0.11645000  0.23770000  0.26110000  1.0 -0.0125621872
C  C23  1  0.23770000  0.88355000  0.26110000  1.0 -0.0125621872
C  C24  1  0.76230000  0.11645000  0.26110000  1.0 -0.0125621872
C  C25  1  0.61645000  0.26230000  0.26110000  1.0 -0.0125621872
C  C26  1  0.38355000  0.73770000  0.26110000  1.0 -0.0125621872
C  C27  1  0.26230000  0.38355000  0.26110000  1.0 -0.0125621872
C  C28  1  0.73770000  0.61645000  0.26110000  1.0 -0.0125621872
C  C29  1  0.61645000  0.73770000  0.73890000  1.0 -0.0125621872
C  C30  1  0.38355000  0.26230000  0.73890000  1.0 -0.0125621872
C  C31  1  0.26230000  0.61645000  0.73890000  1.0 -0.0125621872
C  C32  1  0.73770000  0.38355000  0.73890000  1.0 -0.0125621872
C  C33  1  0.88756000  0.21563000  0.55450000  1.0 -0.2318431798
C  C34  1  0.11244000  0.78437000  0.55450000  1.0 -0.2318431798
C  C35  1  0.21563000  0.11244000  0.55450000  1.0 -0.2318431798
C  C36  1  0.78437000  0.88756000  0.55450000  1.0 -0.2318431798
C  C37  1  0.88756000  0.78437000  0.44550000  1.0 -0.2318431798
C  C38  1  0.11244000  0.21563000  0.44550000  1.0 -0.2318431798
C  C39  1  0.21563000  0.88756000  0.44550000  1.0 -0.2318431798
C  C40  1  0.78437000  0.11244000  0.44550000  1.0 -0.2318431798
C  C41  1  0.61244000  0.28437000  0.44550000  1.0 -0.2318431798
C  C42  1  0.38756000  0.71563000  0.44550000  1.0 -0.2318431798
C  C43  1  0.28437000  0.38756000  0.44550000  1.0 -0.2318431798
C  C44  1  0.71563000  0.61244000  0.44550000  1.0 -0.2318431798
C  C45  1  0.61244000  0.71563000  0.55450000  1.0 -0.2318431798
C  C46  1  0.38756000  0.28437000  0.55450000  1.0 -0.2318431798
C  C47  1  0.28437000  0.61244000  0.55450000  1.0 -0.2318431798
C  C48  1  0.71563000  0.38756000  0.55450000  1.0 -0.2318431798
C  C49  1  0.93349000  0.21274000  0.46340000  1.0 0.2045445947
C  C50  1  0.06651000  0.78726000  0.46340000  1.0 0.2045445947
C  C51  1  0.21274000  0.06651000  0.46340000  1.0 0.2045445947
C  C52  1  0.78726000  0.93349000  0.46340000  1.0 0.2045445947
C  C53  1  0.93349000  0.78726000  0.53660000  1.0 0.2045445947
C  C54  1  0.06651000  0.21274000  0.53660000  1.0 0.2045445947
C  C55  1  0.21274000  0.93349000  0.53660000  1.0 0.2045445947
C  C56  1  0.78726000  0.06651000  0.53660000  1.0 0.2045445947
C  C57  1  0.56651000  0.28726000  0.53660000  1.0 0.2045445947
C  C58  1  0.43349000  0.71274000  0.53660000  1.0 0.2045445947
C  C59  1  0.28726000  0.43349000  0.53660000  1.0 0.2045445947
C  C60  1  0.71274000  0.56651000  0.53660000  1.0 0.2045445947
C  C61  1  0.56651000  0.71274000  0.46340000  1.0 0.2045445947
C  C62  1  0.43349000  0.28726000  0.46340000  1.0 0.2045445947
C  C63  1  0.28726000  0.56651000  0.46340000  1.0 0.2045445947
C  C64  1  0.71274000  0.43349000  0.46340000  1.0 0.2045445947
C  C65  1  0.97561000  0.23291000  0.55130000  1.0 -0.0125621872
C  C66  1  0.02439000  0.76709000  0.55130000  1.0 -0.0125621872
C  C67  1  0.23291000  0.02439000  0.55130000  1.0 -0.0125621872
C  C68  1  0.76709000  0.97561000  0.55130000  1.0 -0.0125621872
C  C69  1  0.97561000  0.76709000  0.44870000  1.0 -0.0125621872
C  C70  1  0.02439000  0.23291000  0.44870000  1.0 -0.0125621872
C  C71  1  0.23291000  0.97561000  0.44870000  1.0 -0.0125621872
C  C72  1  0.76709000  0.02439000  0.44870000  1.0 -0.0125621872
C  C73  1  0.52439000  0.26709000  0.44870000  1.0 -0.0125621872
C  C74  1  0.47561000  0.73291000  0.44870000  1.0 -0.0125621872
C  C75  1  0.26709000  0.47561000  0.44870000  1.0 -0.0125621872
C  C76  1  0.73291000  0.52439000  0.44870000  1.0 -0.0125621872
C  C77  1  0.52439000  0.73291000  0.55130000  1.0 -0.0125621872
C  C78  1  0.47561000  0.26709000  0.55130000  1.0 -0.0125621872
C  C79  1  0.26709000  0.52439000  0.55130000  1.0 -0.0125621872
C  C80  1  0.73291000  0.47561000  0.55130000  1.0 -0.0125621872
C  C81  1  0.97068000  0.25385000  0.73590000  1.0 -0.1306904738
C  C82  1  0.02932000  0.74615000  0.73590000  1.0 -0.1306904738
C  C83  1  0.25385000  0.02932000  0.73590000  1.0 -0.1306904738
C  C84  1  0.74615000  0.97068000  0.73590000  1.0 -0.1306904738
C  C85  1  0.97068000  0.74615000  0.26410000  1.0 -0.1306904738
C  C86  1  0.02932000  0.25385000  0.26410000  1.0 -0.1306904738
C  C87  1  0.25385000  0.97068000  0.26410000  1.0 -0.1306904738
C  C88  1  0.74615000  0.02932000  0.26410000  1.0 -0.1306904738
C  C89  1  0.52932000  0.24615000  0.26410000  1.0 -0.1306904738
C  C90  1  0.47068000  0.75385000  0.26410000  1.0 -0.1306904738
C  C91  1  0.24615000  0.47068000  0.26410000  1.0 -0.1306904738
C  C92  1  0.75385000  0.52932000  0.26410000  1.0 -0.1306904738
C  C93  1  0.52932000  0.75385000  0.73590000  1.0 -0.1306904738
C  C94  1  0.47068000  0.24615000  0.73590000  1.0 -0.1306904738
C  C95  1  0.24615000  0.52932000  0.73590000  1.0 -0.1306904738
C  C96  1  0.75385000  0.47068000  0.73590000  1.0 -0.1306904738
C  C97  1  0.92522000  0.25643000  0.82980000  1.0 -0.1306904738
C  C98  1  0.07478000  0.74357000  0.82980000  1.0 -0.1306904738
C  C99  1  0.25643000  0.07478000  0.82980000  1.0 -0.1306904738
C  C100  1  0.74357000  0.92522000  0.82980000  1.0 -0.1306904738
C  C101  1  0.92522000  0.74357000  0.17020000  1.0 -0.1306904738
C  C102  1  0.07478000  0.25643000  0.17020000  1.0 -0.1306904738
C  C103  1  0.25643000  0.92522000  0.17020000  1.0 -0.1306904738
C  C104  1  0.74357000  0.07478000  0.17020000  1.0 -0.1306904738
C  C105  1  0.57478000  0.24357000  0.17020000  1.0 -0.1306904738
C  C106  1  0.42522000  0.75643000  0.17020000  1.0 -0.1306904738
C  C107  1  0.24357000  0.42522000  0.17020000  1.0 -0.1306904738
C  C108  1  0.75643000  0.57478000  0.17020000  1.0 -0.1306904738
C  C109  1  0.57478000  0.75643000  0.82980000  1.0 -0.1306904738
C  C110  1  0.42522000  0.24357000  0.82980000  1.0 -0.1306904738
C  C111  1  0.24357000  0.57478000  0.82980000  1.0 -0.1306904738
C  C112  1  0.75643000  0.42522000  0.82980000  1.0 -0.1306904738
C  C113  1  0.90184000  0.16240000  0.20320000  1.0 -0.2318431798
C  C114  1  0.09816000  0.83760000  0.20320000  1.0 -0.2318431798
C  C115  1  0.16240000  0.09816000  0.20320000  1.0 -0.2318431798
C  C116  1  0.83760000  0.90184000  0.20320000  1.0 -0.2318431798
C  C117  1  0.90184000  0.83760000  0.79680000  1.0 -0.2318431798
C  C118  1  0.09816000  0.16240000  0.79680000  1.0 -0.2318431798
C  C119  1  0.16240000  0.90184000  0.79680000  1.0 -0.2318431798
C  C120  1  0.83760000  0.09816000  0.79680000  1.0 -0.2318431798
C  C121  1  0.59816000  0.33760000  0.79680000  1.0 -0.2318431798
C  C122  1  0.40184000  0.66240000  0.79680000  1.0 -0.2318431798
C  C123  1  0.33760000  0.40184000  0.79680000  1.0 -0.2318431798
C  C124  1  0.66240000  0.59816000  0.79680000  1.0 -0.2318431798
C  C125  1  0.59816000  0.66240000  0.20320000  1.0 -0.2318431798
C  C126  1  0.40184000  0.33760000  0.20320000  1.0 -0.2318431798
C  C127  1  0.33760000  0.59816000  0.20320000  1.0 -0.2318431798
C  C128  1  0.66240000  0.40184000  0.20320000  1.0 -0.2318431798
O  O1  1  0.83266000  0.26076000  0.00480000  1.0 -0.4986423047
O  O2  1  0.16734000  0.73924000  0.00480000  1.0 -0.4986423047
O  O3  1  0.26076000  0.16734000  0.00480000  1.0 -0.4986423047
O  O4  1  0.73924000  0.83266000  0.00480000  1.0 -0.4986423047
O  O5  1  0.83266000  0.73924000  0.99520000  1.0 -0.4986423047
O  O6  1  0.16734000  0.26076000  0.99520000  1.0 -0.4986423047
O  O7  1  0.26076000  0.83266000  0.99520000  1.0 -0.4986423047
O  O8  1  0.73924000  0.16734000  0.99520000  1.0 -0.4986423047
O  O9  1  0.66734000  0.23924000  0.99520000  1.0 -0.4986423047
O  O10  1  0.33266000  0.76076000  0.99520000  1.0 -0.4986423047
O  O11  1  0.23924000  0.33266000  0.99520000  1.0 -0.4986423047
O  O12  1  0.76076000  0.66734000  0.99520000  1.0 -0.4986423047
O  O13  1  0.66734000  0.76076000  0.00480000  1.0 -0.4986423047
O  O14  1  0.33266000  0.23924000  0.00480000  1.0 -0.4986423047
O  O15  1  0.23924000  0.66734000  0.00480000  1.0 -0.4986423047
O  O16  1  0.76076000  0.33266000  0.00480000  1.0 -0.4986423047
O  O17  1  0.79689000  0.22496000  0.74550000  1.0 -0.4986423047
O  O18  1  0.20311000  0.77504000  0.74550000  1.0 -0.4986423047
O  O19  1  0.22496000  0.20311000  0.74550000  1.0 -0.4986423047
O  O20  1  0.77504000  0.79689000  0.74550000  1.0 -0.4986423047
O  O21  1  0.79689000  0.77504000  0.25450000  1.0 -0.4986423047
O  O22  1  0.20311000  0.22496000  0.25450000  1.0 -0.4986423047
O  O23  1  0.22496000  0.79689000  0.25450000  1.0 -0.4986423047
O  O24  1  0.77504000  0.20311000  0.25450000  1.0 -0.4986423047
O  O25  1  0.70311000  0.27504000  0.25450000  1.0 -0.4986423047
O  O26  1  0.29689000  0.72496000  0.25450000  1.0 -0.4986423047
O  O27  1  0.27504000  0.29689000  0.25450000  1.0 -0.4986423047
O  O28  1  0.72496000  0.70311000  0.25450000  1.0 -0.4986423047
O  O29  1  0.70311000  0.72496000  0.74550000  1.0 -0.4986423047
O  O30  1  0.29689000  0.27504000  0.74550000  1.0 -0.4986423047
O  O31  1  0.27504000  0.70311000  0.74550000  1.0 -0.4986423047
O  O32  1  0.72496000  0.29689000  0.74550000  1.0 -0.4986423047
O  O33  1  0.94096000  0.19024000  0.28500000  1.0 -0.1402164938
O  O34  1  0.05904000  0.80976000  0.28500000  1.0 -0.1402164938
O  O35  1  0.19024000  0.05904000  0.28500000  1.0 -0.1402164938
O  O36  1  0.80976000  0.94096000  0.28500000  1.0 -0.1402164938
O  O37  1  0.94096000  0.80976000  0.71500000  1.0 -0.1402164938
O  O38  1  0.05904000  0.19024000  0.71500000  1.0 -0.1402164938
O  O39  1  0.19024000  0.94096000  0.71500000  1.0 -0.1402164938
O  O40  1  0.80976000  0.05904000  0.71500000  1.0 -0.1402164938
O  O41  1  0.55904000  0.30976000  0.71500000  1.0 -0.1402164938
O  O42  1  0.44096000  0.69024000  0.71500000  1.0 -0.1402164938
O  O43  1  0.30976000  0.44096000  0.71500000  1.0 -0.1402164938
O  O44  1  0.69024000  0.55904000  0.71500000  1.0 -0.1402164938
O  O45  1  0.55904000  0.69024000  0.28500000  1.0 -0.1402164938
O  O46  1  0.44096000  0.30976000  0.28500000  1.0 -0.1402164938
O  O47  1  0.30976000  0.55904000  0.28500000  1.0 -0.1402164938
O  O48  1  0.69024000  0.44096000  0.28500000  1.0 -0.1402164938
