# DDEC6 charges by PACMAN v1.1 (https://github.com/mtap-research/PACMAN-charge/)
data_RIWNAO_ion_pacman
_symmetry_space_group_name_H-M   'P 1'
_cell_length_a   27.02520000
_cell_length_b   27.02520000
_cell_length_c   27.02520000
_cell_angle_alpha   132.49900000
_cell_angle_beta   132.49900000
_cell_angle_gamma   69.44180000
_symmetry_Int_Tables_number   1
_chemical_formula_structural   NaCd3H80C74(NO13)2
_chemical_formula_sum   'Na4 Cd12 H320 C296 N8 O104'
_cell_volume   10526.55109462
_cell_formula_units_Z   4
loop_
 _symmetry_equiv_pos_site_id
 _symmetry_equiv_pos_as_xyz
  1  'x, y, z'
loop_
 _atom_site_type_symbol
 _atom_site_label
 _atom_site_symmetry_multiplicity
 _atom_site_fract_x
 _atom_site_fract_y
 _atom_site_fract_z
 _atom_site_occupancy
 _atom_site_charge
Na  Na1  1  0.57677000  0.07677000  0.50000000  1.0 0.8669217647
Na  Na2  1  0.92323000  0.42323000  0.50000000  1.0 0.8669217647
Na  Na3  1  0.17323000  0.17323000  0.00000000  1.0 0.8669217647
Na  Na4  1  0.82677000  0.82677000  0.00000000  1.0 0.8669217647
Cd  Cd1  1  0.69425000  0.95648000  0.49867000  1.0 0.9134019137
Cd  Cd2  1  0.45781000  0.19558000  0.50133000  1.0 0.9134019137
Cd  Cd3  1  0.04352000  0.54219000  0.73777000  1.0 0.9134019137
Cd  Cd4  1  0.80442000  0.30575000  0.26223000  1.0 0.9134019137
Cd  Cd5  1  0.29219000  0.29352000  0.23777000  1.0 0.9134019137
Cd  Cd6  1  0.05575000  0.05442000  0.76223000  1.0 0.9134019137
Cd  Cd7  1  0.94558000  0.70781000  0.00133000  1.0 0.9134019137
Cd  Cd8  1  0.70648000  0.94425000  0.99867000  1.0 0.9134019137
Cd  Cd9  1  0.87500000  0.00301000  0.62801000  1.0 1.0639886083
Cd  Cd10  1  0.37500000  0.24699000  0.37199000  1.0 1.0639886083
Cd  Cd11  1  0.99699000  0.62500000  0.87199000  1.0 1.0639886083
Cd  Cd12  1  0.75301000  0.12500000  0.12801000  1.0 1.0639886083
H  H1  1  0.50530000  0.78700000  0.32550000  1.0 0.1195403731
H  H2  1  0.46150000  0.17980000  0.67450000  1.0 0.1195403731
H  H3  1  0.21300000  0.53850000  0.71830000  1.0 0.1195403731
H  H4  1  0.82020000  0.49470000  0.28170000  1.0 0.1195403731
H  H5  1  0.28850000  0.46300000  0.21830000  1.0 0.1195403731
H  H6  1  0.24470000  0.07020000  0.78170000  1.0 0.1195403731
H  H7  1  0.92980000  0.71150000  0.17450000  1.0 0.1195403731
H  H8  1  0.53700000  0.75530000  0.82550000  1.0 0.1195403731
H  H9  1  0.39690000  0.74780000  0.25310000  1.0 0.110586059
H  H10  1  0.49470000  0.14380000  0.74690000  1.0 0.110586059
H  H11  1  0.25220000  0.50530000  0.64910000  1.0 0.110586059
H  H12  1  0.85620000  0.60310000  0.35090000  1.0 0.110586059
H  H13  1  0.25530000  0.50220000  0.14910000  1.0 0.110586059
H  H14  1  0.35310000  0.10620000  0.85090000  1.0 0.110586059
H  H15  1  0.89380000  0.74470000  0.24690000  1.0 0.110586059
H  H16  1  0.49780000  0.64690000  0.75310000  1.0 0.110586059
H  H17  1  0.45910000  0.96900000  0.39210000  1.0 0.1288427589
H  H18  1  0.57690000  0.06700000  0.60790000  1.0 0.1288427589
H  H19  1  0.03100000  0.42310000  0.49010000  1.0 0.1288427589
H  H20  1  0.93300000  0.54090000  0.50990000  1.0 0.1288427589
H  H21  1  0.17310000  0.28100000  0.99010000  1.0 0.1288427589
H  H22  1  0.29090000  0.18300000  0.00990000  1.0 0.1288427589
H  H23  1  0.81700000  0.82690000  0.10790000  1.0 0.1288427589
H  H24  1  0.71900000  0.70910000  0.89210000  1.0 0.1288427589
H  H25  1  0.29000000  0.87730000  0.32830000  1.0 0.1195403731
H  H26  1  0.54900000  0.96170000  0.67170000  1.0 0.1195403731
H  H27  1  0.12270000  0.45100000  0.41270000  1.0 0.1195403731
H  H28  1  0.03830000  0.71000000  0.58730000  1.0 0.1195403731
H  H29  1  0.20100000  0.37270000  0.91270000  1.0 0.1195403731
H  H30  1  0.46000000  0.28830000  0.08730000  1.0 0.1195403731
H  H31  1  0.71170000  0.79900000  0.17170000  1.0 0.1195403731
H  H32  1  0.62730000  0.54000000  0.82830000  1.0 0.1195403731
H  H33  1  0.17700000  0.84100000  0.25500000  1.0 0.1195403731
H  H34  1  0.58600000  0.92200000  0.74500000  1.0 0.1195403731
H  H35  1  0.15900000  0.41400000  0.33600000  1.0 0.1195403731
H  H36  1  0.07800000  0.82300000  0.66400000  1.0 0.1195403731
H  H37  1  0.16400000  0.40900000  0.83600000  1.0 0.1195403731
H  H38  1  0.57300000  0.32800000  0.16400000  1.0 0.1195403731
H  H39  1  0.67200000  0.83600000  0.24500000  1.0 0.1195403731
H  H40  1  0.59100000  0.42700000  0.75500000  1.0 0.1195403731
H  H41  1  0.16110000  0.68640000  0.04350000  1.0 0.1288427589
H  H42  1  0.64290000  0.11760000  0.95650000  1.0 0.1288427589
H  H43  1  0.31360000  0.35710000  0.47470000  1.0 0.1288427589
H  H44  1  0.88240000  0.83890000  0.52530000  1.0 0.1288427589
H  H45  1  0.10710000  0.56360000  0.97470000  1.0 0.1288427589
H  H46  1  0.58890000  0.13240000  0.02530000  1.0 0.1288427589
H  H47  1  0.86760000  0.89290000  0.45650000  1.0 0.1288427589
H  H48  1  0.43640000  0.41110000  0.54350000  1.0 0.1288427589
H  H49  1  0.30210000  0.02260000  0.30570000  1.0 0.110586059
H  H50  1  0.71690000  0.99640000  0.69430000  1.0 0.110586059
H  H51  1  0.97740000  0.28310000  0.27950000  1.0 0.110586059
H  H52  1  0.00360000  0.69790000  0.72050000  1.0 0.110586059
H  H53  1  0.03310000  0.22740000  0.77950000  1.0 0.110586059
H  H54  1  0.44790000  0.25360000  0.22050000  1.0 0.110586059
H  H55  1  0.74640000  0.96690000  0.19430000  1.0 0.110586059
H  H56  1  0.77260000  0.55210000  0.80570000  1.0 0.110586059
H  H57  1  0.35860000  0.99670000  0.29530000  1.0 0.110586059
H  H58  1  0.70140000  0.06330000  0.70470000  1.0 0.110586059
H  H59  1  0.00330000  0.29860000  0.36190000  1.0 0.110586059
H  H60  1  0.93670000  0.64140000  0.63810000  1.0 0.110586059
H  H61  1  0.04860000  0.25330000  0.86190000  1.0 0.110586059
H  H62  1  0.39140000  0.18670000  0.13810000  1.0 0.110586059
H  H63  1  0.81330000  0.95140000  0.20470000  1.0 0.110586059
H  H64  1  0.74670000  0.60860000  0.79530000  1.0 0.110586059
H  H65  1  0.37790000  0.03550000  0.38460000  1.0 0.110586059
H  H66  1  0.65090000  0.99330000  0.61540000  1.0 0.110586059
H  H67  1  0.96450000  0.34910000  0.34240000  1.0 0.110586059
H  H68  1  0.00670000  0.62210000  0.65760000  1.0 0.110586059
H  H69  1  0.09910000  0.21450000  0.84240000  1.0 0.110586059
H  H70  1  0.37210000  0.25670000  0.15760000  1.0 0.110586059
H  H71  1  0.74330000  0.90090000  0.11540000  1.0 0.110586059
H  H72  1  0.78550000  0.62790000  0.88460000  1.0 0.110586059
H  H73  1  0.35220000  0.73270000  0.10270000  1.0 0.1001752726
H  H74  1  0.63000000  0.24950000  0.89730000  1.0 0.1001752726
H  H75  1  0.26730000  0.37000000  0.61950000  1.0 0.1001752726
H  H76  1  0.75050000  0.64780000  0.38050000  1.0 0.1001752726
H  H77  1  0.12000000  0.51730000  0.11950000  1.0 0.1001752726
H  H78  1  0.39780000  0.00050000  0.88050000  1.0 0.1001752726
H  H79  1  0.99950000  0.88000000  0.39730000  1.0 0.1001752726
H  H80  1  0.48270000  0.60220000  0.60270000  1.0 0.1001752726
H  H81  1  0.28230000  0.75190000  0.05340000  1.0 0.1195403731
H  H82  1  0.69850000  0.22890000  0.94660000  1.0 0.1195403731
H  H83  1  0.24810000  0.30150000  0.53040000  1.0 0.1195403731
H  H84  1  0.77110000  0.71770000  0.46960000  1.0 0.1195403731
H  H85  1  0.05150000  0.49810000  0.03040000  1.0 0.1195403731
H  H86  1  0.46770000  0.02110000  0.96960000  1.0 0.1195403731
H  H87  1  0.97890000  0.94850000  0.44660000  1.0 0.1195403731
H  H88  1  0.50190000  0.53230000  0.55340000  1.0 0.1195403731
H  H89  1  0.28840000  0.67490000  0.01010000  1.0 0.0788105025
H  H90  1  0.66480000  0.27830000  0.98990000  1.0 0.0788105025
H  H91  1  0.32510000  0.33520000  0.61350000  1.0 0.0788105025
H  H92  1  0.72170000  0.71160000  0.38650000  1.0 0.0788105025
H  H93  1  0.08520000  0.57510000  0.11350000  1.0 0.0788105025
H  H94  1  0.46160000  0.97170000  0.88650000  1.0 0.0788105025
H  H95  1  0.02830000  0.91480000  0.48990000  1.0 0.0788105025
H  H96  1  0.42490000  0.53840000  0.51010000  1.0 0.0788105025
H  H97  1  0.68230000  0.18840000  0.58510000  1.0 0.1195403731
H  H98  1  0.60330000  0.09720000  0.41490000  1.0 0.1195403731
H  H99  1  0.81160000  0.39670000  0.49390000  1.0 0.1195403731
H  H100  1  0.90280000  0.31770000  0.50610000  1.0 0.1195403731
H  H101  1  0.14670000  0.06160000  0.99390000  1.0 0.1195403731
H  H102  1  0.06770000  0.15280000  0.00610000  1.0 0.1195403731
H  H103  1  0.84720000  0.85330000  0.91490000  1.0 0.1195403731
H  H104  1  0.93840000  0.93230000  0.08510000  1.0 0.1195403731
H  H105  1  0.91460000  0.26940000  0.79200000  1.0 0.1288427589
H  H106  1  0.47740000  0.12260000  0.20800000  1.0 0.1288427589
H  H107  1  0.73060000  0.52260000  0.64520000  1.0 0.1288427589
H  H108  1  0.87740000  0.08540000  0.35480000  1.0 0.1288427589
H  H109  1  0.27260000  0.98060000  0.14520000  1.0 0.1288427589
H  H110  1  0.83540000  0.12740000  0.85480000  1.0 0.1288427589
H  H111  1  0.87260000  0.72740000  0.70800000  1.0 0.1288427589
H  H112  1  0.01940000  0.16460000  0.29200000  1.0 0.1288427589
H  H113  1  0.87360000  0.15760000  0.71520000  1.0 0.1195403731
H  H114  1  0.44240000  0.15840000  0.28480000  1.0 0.1195403731
H  H115  1  0.84240000  0.55760000  0.71600000  1.0 0.1195403731
H  H116  1  0.84160000  0.12640000  0.28400000  1.0 0.1195403731
H  H117  1  0.30760000  0.09240000  0.21600000  1.0 0.1195403731
H  H118  1  0.87640000  0.09160000  0.78400000  1.0 0.1195403731
H  H119  1  0.90840000  0.69240000  0.78480000  1.0 0.1195403731
H  H120  1  0.90760000  0.12360000  0.21520000  1.0 0.1195403731
H  H121  1  0.94660000  0.41990000  0.77450000  1.0 0.1443892987
H  H122  1  0.64540000  0.17210000  0.22550000  1.0 0.1443892987
H  H123  1  0.58010000  0.35460000  0.52670000  1.0 0.1443892987
H  H124  1  0.82790000  0.05340000  0.47330000  1.0 0.1443892987
H  H125  1  0.10460000  0.83010000  0.02670000  1.0 0.1443892987
H  H126  1  0.80340000  0.07790000  0.97330000  1.0 0.1443892987
H  H127  1  0.92210000  0.89540000  0.72550000  1.0 0.1443892987
H  H128  1  0.16990000  0.19660000  0.27450000  1.0 0.1443892987
H  H129  1  0.86700000  0.51830000  0.89470000  1.0 0.1288427589
H  H130  1  0.62360000  0.97230000  0.10530000  1.0 0.1288427589
H  H131  1  0.48170000  0.37640000  0.34870000  1.0 0.1288427589
H  H132  1  0.02770000  0.13300000  0.65130000  1.0 0.1288427589
H  H133  1  0.12640000  0.73170000  0.84870000  1.0 0.1288427589
H  H134  1  0.88300000  0.27770000  0.15130000  1.0 0.1288427589
H  H135  1  0.72230000  0.87360000  0.60530000  1.0 0.1288427589
H  H136  1  0.26830000  0.11700000  0.39470000  1.0 0.1288427589
H  H137  1  0.64150000  0.35700000  0.67910000  1.0 0.1001752726
H  H138  1  0.67790000  0.96240000  0.32090000  1.0 0.1001752726
H  H139  1  0.64300000  0.32210000  0.28450000  1.0 0.1001752726
H  H140  1  0.03760000  0.35850000  0.71550000  1.0 0.1001752726
H  H141  1  0.07210000  0.89300000  0.78450000  1.0 0.1001752726
H  H142  1  0.10850000  0.28760000  0.21550000  1.0 0.1001752726
H  H143  1  0.71240000  0.92790000  0.82090000  1.0 0.1001752726
H  H144  1  0.10700000  0.89150000  0.17910000  1.0 0.1001752726
H  H145  1  0.69500000  0.34050000  0.74250000  1.0 0.110586059
H  H146  1  0.59800000  0.95250000  0.25750000  1.0 0.110586059
H  H147  1  0.65950000  0.40200000  0.35450000  1.0 0.110586059
H  H148  1  0.04750000  0.30500000  0.64550000  1.0 0.110586059
H  H149  1  0.15200000  0.90950000  0.85450000  1.0 0.110586059
H  H150  1  0.05500000  0.29750000  0.14550000  1.0 0.110586059
H  H151  1  0.70250000  0.84800000  0.75750000  1.0 0.110586059
H  H152  1  0.09050000  0.94500000  0.24250000  1.0 0.110586059
H  H153  1  0.64260000  0.28080000  0.64240000  1.0 0.0788105025
H  H154  1  0.63840000  0.00020000  0.35760000  1.0 0.0788105025
H  H155  1  0.71920000  0.36160000  0.36180000  1.0 0.0788105025
H  H156  1  0.99980000  0.35740000  0.63820000  1.0 0.0788105025
H  H157  1  0.11160000  0.96920000  0.86180000  1.0 0.0788105025
H  H158  1  0.10740000  0.24980000  0.13820000  1.0 0.0749078364
H  H159  1  0.75020000  0.88840000  0.85760000  1.0 0.0788105025
H  H160  1  0.03080000  0.89260000  0.14240000  1.0 0.0788105025
H  H161  1  0.94400000  0.25260000  0.65440000  1.0 0.1195403731
H  H162  1  0.59820000  0.28960000  0.34560000  1.0 0.1195403731
H  H163  1  0.74740000  0.40180000  0.69140000  1.0 0.1195403731
H  H164  1  0.71040000  0.05600000  0.30860000  1.0 0.1195403731
H  H165  1  0.15180000  0.99740000  0.19140000  1.0 0.1195403731
H  H166  1  0.80600000  0.96040000  0.80860000  1.0 0.1195403731
H  H167  1  0.03960000  0.84820000  0.84560000  1.0 0.1195403731
H  H168  1  0.00260000  0.19400000  0.15440000  1.0 0.1195403731
H  H169  1  0.97010000  0.33130000  0.71800000  1.0 0.110586059
H  H170  1  0.61330000  0.25210000  0.28200000  1.0 0.110586059
H  H171  1  0.66870000  0.38670000  0.63880000  1.0 0.110586059
H  H172  1  0.74790000  0.02990000  0.36120000  1.0 0.110586059
H  H173  1  0.13670000  0.91870000  0.13880000  1.0 0.110586059
H  H174  1  0.77990000  0.99790000  0.86120000  1.0 0.110586059
H  H175  1  0.00210000  0.86330000  0.78200000  1.0 0.110586059
H  H176  1  0.08130000  0.22010000  0.21800000  1.0 0.110586059
H  H177  1  0.90840000  0.29270000  0.61890000  1.0 0.1554467053
H  H178  1  0.67380000  0.28950000  0.38110000  1.0 0.1554467053
H  H179  1  0.70730000  0.32620000  0.61570000  1.0 0.1494953252
H  H180  1  0.71050000  0.09160000  0.38430000  1.0 0.1494953252
H  H181  1  0.07620000  0.95730000  0.11570000  1.0 0.1554467053
H  H182  1  0.84160000  0.96050000  0.88430000  1.0 0.1554467053
H  H183  1  0.03950000  0.92380000  0.88110000  1.0 0.1554467053
H  H184  1  0.04270000  0.15840000  0.11890000  1.0 0.1494953252
H  H185  1  0.22150000  0.62970000  0.00900000  1.0 0.110586059
H  H186  1  0.62070000  0.21250000  0.99100000  1.0 0.110586059
H  H187  1  0.37030000  0.37930000  0.59180000  1.0 0.110586059
H  H188  1  0.78750000  0.77850000  0.40820000  1.0 0.110586059
H  H189  1  0.12930000  0.62030000  0.09180000  1.0 0.110586059
H  H190  1  0.52850000  0.03750000  0.90820000  1.0 0.110586059
H  H191  1  0.96250000  0.87070000  0.49100000  1.0 0.110586059
H  H192  1  0.37970000  0.47150000  0.50900000  1.0 0.110586059
H  H193  1  0.27250000  0.63810000  0.00440000  1.0 0.0788105025
H  H194  1  0.63370000  0.26810000  0.99560000  1.0 0.0788105025
H  H195  1  0.36190000  0.36630000  0.63440000  1.0 0.0788105025
H  H196  1  0.73190000  0.72750000  0.36560000  1.0 0.0788105025
H  H197  1  0.11630000  0.61190000  0.13440000  1.0 0.0788105025
H  H198  1  0.47750000  0.98190000  0.86560000  1.0 0.0788105025
H  H199  1  0.01810000  0.88370000  0.49560000  1.0 0.0788105025
H  H200  1  0.38810000  0.52250000  0.50440000  1.0 0.0788105025
H  H201  1  0.20820000  0.67270000  0.98270000  1.0 0.1195403731
H  H202  1  0.69000000  0.22550000  0.01730000  1.0 0.1195403731
H  H203  1  0.32730000  0.31000000  0.53550000  1.0 0.1195403731
H  H204  1  0.77450000  0.79180000  0.46450000  1.0 0.1195403731
H  H205  1  0.06000000  0.57730000  0.03550000  1.0 0.1195403731
H  H206  1  0.54180000  0.02450000  0.96450000  1.0 0.1195403731
H  H207  1  0.97550000  0.94000000  0.51730000  1.0 0.1195403731
H  H208  1  0.42270000  0.45820000  0.48270000  1.0 0.1195403731
H  H209  1  0.62780000  0.28120000  0.55840000  1.0 0.0880287596
H  H210  1  0.72280000  0.06940000  0.44160000  1.0 0.0880287596
H  H211  1  0.71880000  0.27720000  0.34660000  1.0 0.0880287596
H  H212  1  0.93060000  0.37220000  0.65340000  1.0 0.0880287596
H  H213  1  0.02720000  0.96880000  0.84660000  1.0 0.0880287596
H  H214  1  0.12220000  0.18060000  0.15340000  1.0 0.0880287596
H  H215  1  0.81940000  0.97280000  0.94160000  1.0 0.0880287596
H  H216  1  0.03120000  0.87780000  0.05840000  1.0 0.0880287596
H  H217  1  0.62550000  0.33100000  0.63510000  1.0 0.0788105025
H  H218  1  0.69590000  0.99040000  0.36490000  1.0 0.0788105025
H  H219  1  0.66900000  0.30410000  0.29450000  1.0 0.0788105025
H  H220  1  0.00960000  0.37450000  0.70550000  1.0 0.0788105025
H  H221  1  0.05410000  0.91900000  0.79450000  1.0 0.0788105025
H  H222  1  0.12450000  0.25960000  0.20550000  1.0 0.0788105025
H  H223  1  0.74040000  0.94590000  0.86490000  1.0 0.0788105025
H  H224  1  0.08100000  0.87550000  0.13510000  1.0 0.0788105025
H  H225  1  0.63920000  0.25720000  0.60400000  1.0 0.110586059
H  H226  1  0.65320000  0.03520000  0.39600000  1.0 0.110586059
H  H227  1  0.74280000  0.34680000  0.38200000  1.0 0.110586059
H  H228  1  0.96480000  0.36080000  0.61800000  1.0 0.110586059
H  H229  1  0.09680000  0.99280000  0.88200000  1.0 0.110586059
H  H230  1  0.11080000  0.21480000  0.11800000  1.0 0.110586059
H  H231  1  0.78520000  0.90320000  0.89600000  1.0 0.110586059
H  H232  1  0.00720000  0.88920000  0.10400000  1.0 0.110586059
H  H233  1  0.76590000  0.47330000  0.90040000  1.0 0.1288427589
H  H234  1  0.57290000  0.86550000  0.09960000  1.0 0.1288427589
H  H235  1  0.52670000  0.42710000  0.29260000  1.0 0.1288427589
H  H236  1  0.13450000  0.23410000  0.70740000  1.0 0.1195403731
H  H237  1  0.17710000  0.77670000  0.79260000  1.0 0.1195403731
H  H238  1  0.98410000  0.38450000  0.20740000  1.0 0.1288427589
H  H239  1  0.61550000  0.82290000  0.59960000  1.0 0.1288427589
H  H240  1  0.22330000  0.01590000  0.40040000  1.0 0.1195403731
H  H241  1  0.76850000  0.50840000  0.87390000  1.0 0.1195403731
H  H242  1  0.63450000  0.89460000  0.12610000  1.0 0.1195403731
H  H243  1  0.49160000  0.36550000  0.26010000  1.0 0.1195403731
H  H244  1  0.10540000  0.23150000  0.73990000  1.0 0.1195403731
H  H245  1  0.11550000  0.74160000  0.76010000  1.0 0.1195403731
H  H246  1  0.98150000  0.35540000  0.23990000  1.0 0.1195403731
H  H247  1  0.64460000  0.88450000  0.62610000  1.0 0.1195403731
H  H248  1  0.25840000  0.01850000  0.37390000  1.0 0.1195403731
H  H249  1  0.83540000  0.51430000  0.95470000  1.0 0.1195403731
H  H250  1  0.55960000  0.88070000  0.04530000  1.0 0.1195403731
H  H251  1  0.48570000  0.44040000  0.32110000  1.0 0.1195403731
H  H252  1  0.11930000  0.16460000  0.67890000  1.0 0.1195403731
H  H253  1  0.19040000  0.73570000  0.82110000  1.0 0.1195403731
H  H254  1  0.91460000  0.36930000  0.17890000  1.0 0.1195403731
H  H255  1  0.63070000  0.80960000  0.54530000  1.0 0.1195403731
H  H256  1  0.26430000  0.08540000  0.45470000  1.0 0.1195403731
H  H257  1  0.46510000  0.85970000  0.74900000  1.0 0.1001752726
H  H258  1  0.48610000  0.80130000  0.75540000  1.0 0.1288427589
H  H259  1  0.53210000  0.83300000  0.76350000  1.0 0.1494953252
H  H260  1  0.40450000  0.66420000  0.55330000  1.0 0.1001752726
H  H261  1  0.47080000  0.67390000  0.57210000  1.0 0.1195403731
H  H262  1  0.47660000  0.68660000  0.64180000  1.0 0.1195403731
H  H263  1  0.40150000  0.77080000  0.61270000  1.0 0.2008271235
H  H264  1  0.45970000  0.77840000  0.62410000  1.0 0.2282866546
H  H265  1  0.11070000  0.71610000  0.25100000  1.0 0.1001752726
H  H266  1  0.04590000  0.73070000  0.24460000  1.0 0.1288427589
H  H267  1  0.06950000  0.76860000  0.23650000  1.0 0.1494953252
H  H268  1  0.11090000  0.85120000  0.44670000  1.0 0.1001752726
H  H269  1  0.10180000  0.89870000  0.42790000  1.0 0.1195403731
H  H270  1  0.04480000  0.83480000  0.35820000  1.0 0.1195403731
H  H271  1  0.15810000  0.78880000  0.38730000  1.0 0.2008271235
H  H272  1  0.15430000  0.83560000  0.37590000  1.0 0.2282866546
H  H273  1  0.14030000  0.88930000  0.60540000  1.0 0.1001752726
H  H274  1  0.19870000  0.95410000  0.68480000  1.0 0.1288427589
H  H275  1  0.16700000  0.93050000  0.69910000  1.0 0.1494953252
H  H276  1  0.33580000  0.88910000  0.74030000  1.0 0.1001752726
H  H277  1  0.32610000  0.89820000  0.79690000  1.0 0.1195403731
H  H278  1  0.31340000  0.95520000  0.79000000  1.0 0.1195403731
H  H279  1  0.22920000  0.84190000  0.63070000  1.0 0.2008271235
H  H280  1  0.22160000  0.84570000  0.68130000  1.0 0.2282866546
H  H281  1  0.28390000  0.53490000  0.39460000  1.0 0.1001752726
H  H282  1  0.26930000  0.51390000  0.31520000  1.0 0.1195403731
H  H283  1  0.23140000  0.46790000  0.30090000  1.0 0.1494953252
H  H284  1  0.14880000  0.59550000  0.25970000  1.0 0.1001752726
H  H285  1  0.10130000  0.52920000  0.20310000  1.0 0.1195403731
H  H286  1  0.16520000  0.52340000  0.21000000  1.0 0.1195403731
H  H287  1  0.21120000  0.59850000  0.36930000  1.0 0.2008271235
H  H288  1  0.16440000  0.54030000  0.31870000  1.0 0.2282866546
H  H289  1  0.63930000  0.39030000  0.10540000  1.0 0.1001752726
H  H290  1  0.70410000  0.44870000  0.18480000  1.0 0.1288427589
H  H291  1  0.68050000  0.41700000  0.19910000  1.0 0.1494953252
H  H292  1  0.63910000  0.58580000  0.24030000  1.0 0.1001752726
H  H293  1  0.64820000  0.57610000  0.29690000  1.0 0.1195403731
H  H294  1  0.70520000  0.56340000  0.29000000  1.0 0.1195403731
H  H295  1  0.59190000  0.47920000  0.13070000  1.0 0.2008271235
H  H296  1  0.59570000  0.47160000  0.18130000  1.0 0.2282866546
H  H297  1  0.28490000  0.53390000  0.89460000  1.0 0.1001752726
H  H298  1  0.26390000  0.51930000  0.81520000  1.0 0.1288427589
H  H299  1  0.21790000  0.48140000  0.80090000  1.0 0.1494953252
H  H300  1  0.34550000  0.39880000  0.75970000  1.0 0.1001752726
H  H301  1  0.27920000  0.35130000  0.70310000  1.0 0.1195403731
H  H302  1  0.27340000  0.41520000  0.71000000  1.0 0.1195403731
H  H303  1  0.34850000  0.46120000  0.86930000  1.0 0.2008271235
H  H304  1  0.29030000  0.41440000  0.81870000  1.0 0.2282866546
H  H305  1  0.46610000  0.36070000  0.75100000  1.0 0.1001752726
H  H306  1  0.48070000  0.29590000  0.74460000  1.0 0.1288427589
H  H307  1  0.51860000  0.31950000  0.73650000  1.0 0.1494953252
H  H308  1  0.60120000  0.36090000  0.94670000  1.0 0.1001752726
H  H309  1  0.64870000  0.35180000  0.92790000  1.0 0.1195403731
H  H310  1  0.58480000  0.29480000  0.85820000  1.0 0.1195403731
H  H311  1  0.53880000  0.40810000  0.88730000  1.0 0.2008271235
H  H312  1  0.58560000  0.40430000  0.87590000  1.0 0.2282866546
H  H313  1  0.60970000  0.71510000  0.24900000  1.0 0.1001752726
H  H314  1  0.55130000  0.73610000  0.25540000  1.0 0.1195403731
H  H315  1  0.58300000  0.78210000  0.26350000  1.0 0.1494953252
H  H316  1  0.41420000  0.65450000  0.05330000  1.0 0.1001752726
H  H317  1  0.42390000  0.72080000  0.07210000  1.0 0.1195403731
H  H318  1  0.43660000  0.72660000  0.14180000  1.0 0.1195403731
H  H319  1  0.52080000  0.65150000  0.11270000  1.0 0.2008271235
H  H320  1  0.52840000  0.70970000  0.12410000  1.0 0.2282866546
C  C1  1  0.56758000  0.91228000  0.42050000  1.0 0.5399440945
C  C2  1  0.49178000  0.14708000  0.57950000  1.0 0.5399440945
C  C3  1  0.08772000  0.50822000  0.65530000  1.0 0.5399440945
C  C4  1  0.85292000  0.43242000  0.34470000  1.0 0.5399440945
C  C5  1  0.25822000  0.33772000  0.15530000  1.0 0.5399440945
C  C6  1  0.18242000  0.10292000  0.84470000  1.0 0.5399440945
C  C7  1  0.89708000  0.74178000  0.07950000  1.0 0.5399440945
C  C8  1  0.66228000  0.81758000  0.92050000  1.0 0.5399440945
C  C9  1  0.49637000  0.88437000  0.37380000  1.0 -0.0081498016
C  C10  1  0.51057000  0.12257000  0.62620000  1.0 -0.0081498016
C  C11  1  0.11563000  0.48943000  0.61200000  1.0 -0.0081498016
C  C12  1  0.87743000  0.50363000  0.38800000  1.0 -0.0081498016
C  C13  1  0.23943000  0.36563000  0.11200000  1.0 -0.0081498016
C  C14  1  0.25363000  0.12743000  0.88800000  1.0 -0.0081498016
C  C15  1  0.87257000  0.76057000  0.12620000  1.0 -0.0081498016
C  C16  1  0.63437000  0.74637000  0.87380000  1.0 -0.0081498016
C  C17  1  0.47494000  0.81694000  0.32720000  1.0 -0.1340862979
C  C18  1  0.48974000  0.14774000  0.67280000  1.0 -0.1340862979
C  C19  1  0.18306000  0.51026000  0.65800000  1.0 -0.1340862979
C  C20  1  0.85226000  0.52506000  0.34200000  1.0 -0.1340862979
C  C21  1  0.26026000  0.43306000  0.15800000  1.0 -0.1340862979
C  C22  1  0.27506000  0.10226000  0.84200000  1.0 -0.1340862979
C  C23  1  0.89774000  0.73974000  0.17280000  1.0 -0.1340862979
C  C24  1  0.56694000  0.72494000  0.82720000  1.0 -0.1340862979
C  C25  1  0.40957000  0.79357000  0.28340000  1.0 -0.1507616794
C  C26  1  0.51017000  0.12617000  0.71660000  1.0 -0.1507616794
C  C27  1  0.20643000  0.48983000  0.61600000  1.0 -0.1507616794
C  C28  1  0.87383000  0.59043000  0.38400000  1.0 -0.1507616794
C  C29  1  0.23983000  0.45643000  0.11600000  1.0 -0.1507616794
C  C30  1  0.34043000  0.12383000  0.88400000  1.0 -0.1507616794
C  C31  1  0.87617000  0.76017000  0.21660000  1.0 -0.1507616794
C  C32  1  0.54357000  0.65957000  0.78340000  1.0 -0.1507616794
C  C33  1  0.36205000  0.83465000  0.28240000  1.0 0.0036299305
C  C34  1  0.55225000  0.07965000  0.71760000  1.0 0.0036299305
C  C35  1  0.16535000  0.44775000  0.52740000  1.0 0.0036299305
C  C36  1  0.92035000  0.63795000  0.47260000  1.0 0.0036299305
C  C37  1  0.19775000  0.41535000  0.02740000  1.0 0.0036299305
C  C38  1  0.38795000  0.17035000  0.97260000  1.0 0.0036299305
C  C39  1  0.82965000  0.80225000  0.21760000  1.0 0.0036299305
C  C40  1  0.58465000  0.61205000  0.78240000  1.0 0.0036299305
C  C41  1  0.38324000  0.89924000  0.31540000  1.0 0.1869876766
C  C42  1  0.58384000  0.06784000  0.68460000  1.0 0.1869876766
C  C43  1  0.10076000  0.41616000  0.48400000  1.0 0.1869876766
C  C44  1  0.93216000  0.61676000  0.51600000  1.0 0.1869876766
C  C45  1  0.16616000  0.35076000  0.98400000  1.0 0.1869876766
C  C46  1  0.36676000  0.18216000  0.01600000  1.0 0.1869876766
C  C47  1  0.81784000  0.83384000  0.18460000  1.0 0.1869876766
C  C48  1  0.64924000  0.63324000  0.81540000  1.0 0.1869876766
C  C49  1  0.44687000  0.92387000  0.36380000  1.0 -0.2083845912
C  C50  1  0.56007000  0.08307000  0.63620000  1.0 -0.2083845912
C  C51  1  0.07613000  0.43993000  0.52300000  1.0 -0.2083845912
C  C52  1  0.91693000  0.55313000  0.47700000  1.0 -0.2083845912
C  C53  1  0.18993000  0.32613000  0.02300000  1.0 -0.2083845912
C  C54  1  0.30313000  0.16693000  0.97700000  1.0 -0.2083845912
C  C55  1  0.83307000  0.81007000  0.13620000  1.0 -0.2083845912
C  C56  1  0.67387000  0.69687000  0.86380000  1.0 -0.2083845912
C  C57  1  0.29149000  0.80609000  0.23140000  1.0 -0.0218142427
C  C58  1  0.57469000  0.06009000  0.76860000  1.0 -0.0218142427
C  C59  1  0.19391000  0.42531000  0.48540000  1.0 -0.0218142427
C  C60  1  0.93991000  0.70851000  0.51460000  1.0 -0.0218142427
C  C61  1  0.17531000  0.44391000  0.98540000  1.0 -0.0218142427
C  C62  1  0.45851000  0.18991000  0.01460000  1.0 -0.0218142427
C  C63  1  0.81009000  0.82469000  0.26860000  1.0 -0.0218142427
C  C64  1  0.55609000  0.54149000  0.73140000  1.0 -0.0218142427
C  C65  1  0.26342000  0.83872000  0.26990000  1.0 -0.1112915585
C  C66  1  0.56882000  0.99352000  0.73010000  1.0 -0.1112915585
C  C67  1  0.16128000  0.43118000  0.42470000  1.0 -0.1112915585
C  C68  1  0.00648000  0.73658000  0.57530000  1.0 -0.1112915585
C  C69  1  0.18118000  0.41128000  0.92470000  1.0 -0.1112915585
C  C70  1  0.48658000  0.25648000  0.07530000  1.0 -0.1112915585
C  C71  1  0.74352000  0.81882000  0.23010000  1.0 -0.1112915585
C  C72  1  0.58872000  0.51342000  0.76990000  1.0 -0.1112915585
C  C73  1  0.19434000  0.81714000  0.22560000  1.0 -0.1442241722
C  C74  1  0.59154000  0.96874000  0.77440000  1.0 -0.1507616794
C  C75  1  0.18286000  0.40846000  0.37720000  1.0 -0.1442241722
C  C76  1  0.03126000  0.80566000  0.62280000  1.0 -0.1507616794
C  C77  1  0.15846000  0.43286000  0.87720000  1.0 -0.1442241722
C  C78  1  0.55566000  0.28126000  0.12280000  1.0 -0.1442241722
C  C79  1  0.71874000  0.84154000  0.27440000  1.0 -0.1442241722
C  C80  1  0.56714000  0.44434000  0.72560000  1.0 -0.1442241722
C  C81  1  0.15415000  0.76055000  0.13880000  1.0 -0.0321837264
C  C82  1  0.62175000  0.01535000  0.86120000  1.0 -0.0321837264
C  C83  1  0.23945000  0.37825000  0.39360000  1.0 -0.0321837264
C  C84  1  0.98465000  0.84585000  0.60640000  1.0 -0.0321837264
C  C85  1  0.12825000  0.48945000  0.89360000  1.0 -0.0321837264
C  C86  1  0.59585000  0.23465000  0.10640000  1.0 -0.0321837264
C  C87  1  0.76535000  0.87175000  0.36120000  1.0 -0.0321837264
C  C88  1  0.51055000  0.40415000  0.63880000  1.0 -0.0321837264
C  C89  1  0.18543000  0.72683000  0.10060000  1.0 -0.2434131004
C  C90  1  0.62623000  0.08483000  0.89940000  1.0 -0.2434131004
C  C91  1  0.27317000  0.37377000  0.45860000  1.0 -0.2434131004
C  C92  1  0.91517000  0.81457000  0.54140000  1.0 -0.2434131004
C  C93  1  0.12377000  0.52317000  0.95860000  1.0 -0.2434131004
C  C94  1  0.56457000  0.16517000  0.04140000  1.0 -0.2434131004
C  C95  1  0.83483000  0.87623000  0.39940000  1.0 -0.2434131004
C  C96  1  0.47683000  0.43543000  0.60060000  1.0 -0.2434131004
C  C97  1  0.25209000  0.75219000  0.14590000  1.0 0.1752297254
C  C98  1  0.60629000  0.10619000  0.85410000  1.0 0.1752297254
C  C99  1  0.24781000  0.39371000  0.49990000  1.0 0.1752297254
C  C100  1  0.89381000  0.74791000  0.50010000  1.0 0.1752297254
C  C101  1  0.14371000  0.49781000  0.99990000  1.0 0.1752297254
C  C102  1  0.49791000  0.14381000  0.00010000  1.0 0.1752297254
C  C103  1  0.85619000  0.85629000  0.35410000  1.0 0.1752297254
C  C104  1  0.50219000  0.50209000  0.64590000  1.0 0.1752297254
C  C105  1  0.08210000  0.73730000  0.08760000  1.0 0.5399440945
C  C106  1  0.64970000  0.99450000  0.91240000  1.0 0.5399440945
C  C107  1  0.26270000  0.35030000  0.34480000  1.0 0.5399440945
C  C108  1  0.00550000  0.91790000  0.65520000  1.0 0.5399440945
C  C109  1  0.10030000  0.51270000  0.84480000  1.0 0.5399440945
C  C110  1  0.66790000  0.25550000  0.15520000  1.0 0.5399440945
C  C111  1  0.74450000  0.89970000  0.41240000  1.0 0.5399440945
C  C112  1  0.48730000  0.33210000  0.58760000  1.0 0.5399440945
C  C113  1  0.34310000  0.00400000  0.32270000  1.0 -0.3034058689
C  C114  1  0.68130000  0.02040000  0.67730000  1.0 -0.3034058689
C  C115  1  0.99600000  0.31870000  0.33910000  1.0 -0.3034058689
C  C116  1  0.97960000  0.65690000  0.66090000  1.0 -0.3034058689
C  C117  1  0.06870000  0.24600000  0.83910000  1.0 -0.3034058689
C  C118  1  0.40690000  0.22960000  0.16090000  1.0 -0.3034058689
C  C119  1  0.77040000  0.93130000  0.17730000  1.0 -0.3034058689
C  C120  1  0.75400000  0.59310000  0.82270000  1.0 -0.3034058689
C  C121  1  0.30340000  0.72000000  0.06400000  1.0 -0.2434131004
C  C122  1  0.65600000  0.23940000  0.93600000  1.0 -0.2434131004
C  C123  1  0.28000000  0.34400000  0.58340000  1.0 -0.2434131004
C  C124  1  0.76060000  0.69660000  0.41660000  1.0 -0.2434131004
C  C125  1  0.09400000  0.53000000  0.08340000  1.0 -0.2434131004
C  C126  1  0.44660000  0.01060000  0.91660000  1.0 -0.2434131004
C  C127  1  0.98940000  0.90600000  0.43600000  1.0 -0.2434131004
C  C128  1  0.47000000  0.55340000  0.56400000  1.0 -0.2434131004
C  C129  1  0.74708000  0.09128000  0.59680000  1.0 0.5625755572
C  C130  1  0.49448000  0.15028000  0.40320000  1.0 0.5625755572
C  C131  1  0.90872000  0.50552000  0.65580000  1.0 0.5625755572
C  C132  1  0.84972000  0.25292000  0.34420000  1.0 0.5625755572
C  C133  1  0.25552000  0.15872000  0.15580000  1.0 0.5625755572
C  C134  1  0.00292000  0.09972000  0.84420000  1.0 0.5625755572
C  C135  1  0.90028000  0.74448000  0.90320000  1.0 0.5625755572
C  C136  1  0.84128000  0.99708000  0.09680000  1.0 0.5625755572
C  C137  1  0.77443000  0.15983000  0.64140000  1.0 -0.0383040245
C  C138  1  0.51843000  0.13303000  0.35860000  1.0 -0.0383040245
C  C139  1  0.84017000  0.48157000  0.61460000  1.0 -0.0383040245
C  C140  1  0.86697000  0.22557000  0.38540000  1.0 -0.0383040245
C  C141  1  0.23157000  0.09017000  0.11460000  1.0 -0.0383040245
C  C142  1  0.97557000  0.11697000  0.88540000  1.0 -0.0383040245
C  C143  1  0.88303000  0.76843000  0.85860000  1.0 -0.0383040245
C  C144  1  0.90983000  0.02443000  0.14140000  1.0 -0.0383040245
C  C145  1  0.72957000  0.20317000  0.62600000  1.0 -0.273522812
C  C146  1  0.57717000  0.10357000  0.37400000  1.0 -0.2778741938
C  C147  1  0.79683000  0.42283000  0.52640000  1.0 -0.273522812
C  C148  1  0.89643000  0.27043000  0.47360000  1.0 -0.2778741938
C  C149  1  0.17283000  0.04683000  0.02640000  1.0 -0.2778741938
C  C150  1  0.02043000  0.14643000  0.97360000  1.0 -0.2778741938
C  C151  1  0.85357000  0.82717000  0.87400000  1.0 -0.2778741938
C  C152  1  0.95317000  0.97957000  0.12600000  1.0 -0.2778741938
C  C153  1  0.75950000  0.27000000  0.67530000  1.0 0.1288427589
C  C154  1  0.59470000  0.08420000  0.32470000  1.0 0.1288427589
C  C155  1  0.73000000  0.40530000  0.48950000  1.0 0.1288427589
C  C156  1  0.91580000  0.24050000  0.51050000  1.0 0.1288427589
C  C157  1  0.15530000  0.98000000  0.98950000  1.0 0.1288427589
C  C158  1  0.99050000  0.16580000  0.01050000  1.0 0.1288427589
C  C159  1  0.83420000  0.84470000  0.82470000  1.0 0.1288427589
C  C160  1  0.02000000  0.00950000  0.17530000  1.0 0.1288427589
C  C161  1  0.82571000  0.28801000  0.71930000  1.0 0.0036299305
C  C162  1  0.56871000  0.10641000  0.28070000  1.0 0.0036299305
C  C163  1  0.71199000  0.43129000  0.53770000  1.0 0.0036299305
C  C164  1  0.89359000  0.17429000  0.46230000  1.0 0.0036299305
C  C165  1  0.18129000  0.96199000  0.03770000  1.0 0.0036299305
C  C166  1  0.92429000  0.14359000  0.96230000  1.0 0.0036299305
C  C167  1  0.85641000  0.81871000  0.78070000  1.0 0.0036299305
C  C168  1  0.03801000  0.07571000  0.21930000  1.0 0.0036299305
C  C169  1  0.86827000  0.25067000  0.74520000  1.0 -0.1340862979
C  C170  1  0.50547000  0.12307000  0.25480000  1.0 -0.1340862979
C  C171  1  0.74933000  0.49453000  0.61760000  1.0 -0.1340862979
C  C172  1  0.87693000  0.13173000  0.38240000  1.0 -0.1340862979
C  C173  1  0.24453000  0.99933000  0.11760000  1.0 -0.1340862979
C  C174  1  0.88173000  0.12693000  0.88240000  1.0 -0.1340862979
C  C175  1  0.87307000  0.75547000  0.75480000  1.0 -0.1340862979
C  C176  1  0.00067000  0.11827000  0.24520000  1.0 -0.1340862979
C  C177  1  0.84317000  0.18447000  0.70210000  1.0 -0.0995449206
C  C178  1  0.48237000  0.14107000  0.29790000  1.0 -0.0995449206
C  C179  1  0.81553000  0.51763000  0.65870000  1.0 -0.0995449206
C  C180  1  0.85893000  0.15683000  0.34130000  1.0 -0.0995449206
C  C181  1  0.26763000  0.06553000  0.15870000  1.0 -0.0995449206
C  C182  1  0.90683000  0.10893000  0.84130000  1.0 -0.0995449206
C  C183  1  0.89107000  0.73237000  0.79790000  1.0 -0.0995449206
C  C184  1  0.93447000  0.09317000  0.20210000  1.0 -0.0995449206
C  C185  1  0.85187000  0.35637000  0.76030000  1.0 -0.1734192007
C  C186  1  0.59607000  0.09157000  0.23970000  1.0 -0.1734192007
C  C187  1  0.64363000  0.40393000  0.49550000  1.0 -0.1734192007
C  C188  1  0.90843000  0.14813000  0.50450000  1.0 -0.1734192007
C  C189  1  0.15393000  0.89363000  0.99550000  1.0 -0.1734192007
C  C190  1  0.89813000  0.15843000  0.00450000  1.0 -0.1734192007
C  C191  1  0.84157000  0.84607000  0.73970000  1.0 -0.1734192007
C  C192  1  0.10637000  0.10187000  0.26030000  1.0 -0.1734192007
C  C193  1  0.88860000  0.36020000  0.74340000  1.0 0.270431769
C  C194  1  0.61680000  0.14520000  0.25660000  1.0 0.270431769
C  C195  1  0.63980000  0.38320000  0.52840000  1.0 0.270431769
C  C196  1  0.85480000  0.11140000  0.47160000  1.0 0.270431769
C  C197  1  0.13320000  0.88980000  0.02840000  1.0 0.270431769
C  C198  1  0.86140000  0.10480000  0.97160000  1.0 0.270431769
C  C199  1  0.89520000  0.86680000  0.75660000  1.0 0.270431769
C  C200  1  0.11020000  0.13860000  0.24340000  1.0 0.270431769
C  C201  1  0.91650000  0.41920000  0.78010000  1.0 -0.3224297244
C  C202  1  0.63910000  0.13640000  0.21990000  1.0 -0.3224297244
C  C203  1  0.58080000  0.36090000  0.49730000  1.0 -0.3224297244
C  C204  1  0.86360000  0.08350000  0.50270000  1.0 -0.3224297244
C  C205  1  0.11090000  0.83080000  0.99730000  1.0 -0.3322815742
C  C206  1  0.83350000  0.11360000  0.00270000  1.0 -0.3224297244
C  C207  1  0.88640000  0.88910000  0.71990000  1.0 -0.3224297244
C  C208  1  0.16920000  0.16650000  0.28010000  1.0 -0.3224297244
C  C209  1  0.89934000  0.47984000  0.82710000  1.0 0.0263826073
C  C210  1  0.65274000  0.07224000  0.17290000  1.0 0.0263826073
C  C211  1  0.52016000  0.34726000  0.41950000  1.0 0.0263826073
C  C212  1  0.92776000  0.10066000  0.58050000  1.0 0.0263826073
C  C213  1  0.09726000  0.77016000  0.91950000  1.0 0.0263826073
C  C214  1  0.85066000  0.17776000  0.08050000  1.0 0.0263826073
C  C215  1  0.82224000  0.90274000  0.67290000  1.0 0.0263826073
C  C216  1  0.22984000  0.14934000  0.32710000  1.0 0.0263826073
C  C217  1  0.86830000  0.47780000  0.85150000  1.0 -0.2434131004
C  C218  1  0.62630000  0.01680000  0.14850000  1.0 -0.2434131004
C  C219  1  0.52220000  0.37370000  0.39050000  1.0 -0.2434131004
C  C220  1  0.98320000  0.13170000  0.60950000  1.0 -0.2434131004
C  C221  1  0.12370000  0.77220000  0.89050000  1.0 -0.2434131004
C  C222  1  0.88170000  0.23320000  0.10950000  1.0 -0.2434131004
C  C223  1  0.76680000  0.87630000  0.64850000  1.0 -0.2434131004
C  C224  1  0.22780000  0.11830000  0.35150000  1.0 -0.2434131004
C  C225  1  0.84009000  0.41659000  0.81190000  1.0 0.2008271235
C  C226  1  0.60469000  0.02819000  0.18810000  1.0 0.2008271235
C  C227  1  0.58341000  0.39531000  0.42350000  1.0 0.2008271235
C  C228  1  0.97181000  0.15991000  0.57650000  1.0 0.2008271235
C  C229  1  0.14531000  0.83341000  0.92350000  1.0 0.2008271235
C  C230  1  0.90991000  0.22181000  0.07650000  1.0 0.2008271235
C  C231  1  0.77819000  0.85469000  0.68810000  1.0 0.2008271235
C  C232  1  0.16659000  0.09009000  0.31190000  1.0 0.2008271235
C  C233  1  0.92173000  0.54703000  0.86190000  1.0 0.5625755572
C  C234  1  0.68513000  0.05983000  0.13810000  1.0 0.5625755572
C  C235  1  0.45297000  0.31487000  0.37470000  1.0 0.5625755572
C  C236  1  0.94017000  0.07827000  0.62530000  1.0 0.5625755572
C  C237  1  0.06487000  0.70297000  0.87470000  1.0 0.5625755572
C  C238  1  0.82827000  0.19017000  0.12530000  1.0 0.5625755572
C  C239  1  0.80983000  0.93513000  0.63810000  1.0 0.5625755572
C  C240  1  0.29703000  0.17173000  0.36190000  1.0 0.5625755572
C  C241  1  0.67030000  0.32530000  0.68580000  1.0 -0.1507616794
C  C242  1  0.63950000  0.98450000  0.31420000  1.0 -0.1507616794
C  C243  1  0.67470000  0.36050000  0.34500000  1.0 -0.1507616794
C  C244  1  0.01550000  0.32970000  0.65500000  1.0 -0.1507616794
C  C245  1  0.11050000  0.92470000  0.84500000  1.0 -0.1507616794
C  C246  1  0.07970000  0.26550000  0.15500000  1.0 -0.1507616794
C  C247  1  0.73450000  0.88950000  0.81420000  1.0 -0.1507616794
C  C248  1  0.07530000  0.92030000  0.18580000  1.0 -0.1507616794
C  C249  1  0.93050000  0.29530000  0.66720000  1.0 -0.2778741938
C  C250  1  0.62810000  0.26330000  0.33280000  1.0 -0.2778741938
C  C251  1  0.70470000  0.37190000  0.63520000  1.0 -0.2778741938
C  C252  1  0.73670000  0.06950000  0.36480000  1.0 -0.2778741938
C  C253  1  0.12190000  0.95470000  0.13520000  1.0 -0.2778741938
C  C254  1  0.81950000  0.98670000  0.86480000  1.0 -0.2778741938
C  C255  1  0.01330000  0.87810000  0.83280000  1.0 -0.2778741938
C  C256  1  0.04530000  0.18050000  0.16720000  1.0 -0.2778741938
C  C257  1  0.24280000  0.66030000  0.01870000  1.0 -0.1751823007
C  C258  1  0.64160000  0.22410000  0.98130000  1.0 -0.1734192007
C  C259  1  0.33970000  0.35840000  0.58250000  1.0 -0.1734192007
C  C260  1  0.77590000  0.75720000  0.41750000  1.0 -0.1734192007
C  C261  1  0.10840000  0.58970000  0.08250000  1.0 -0.1734192007
C  C262  1  0.50720000  0.02590000  0.91750000  1.0 -0.1734192007
C  C263  1  0.97410000  0.89160000  0.48130000  1.0 -0.1751823007
C  C264  1  0.41030000  0.49280000  0.51870000  1.0 -0.1734192007
C  C265  1  0.64690000  0.29540000  0.61270000  1.0 -0.1507616794
C  C266  1  0.68270000  0.03420000  0.38730000  1.0 -0.1507616794
C  C267  1  0.70460000  0.31730000  0.35150000  1.0 -0.1507616794
C  C268  1  0.96580000  0.35310000  0.64850000  1.0 -0.1507616794
C  C269  1  0.06730000  0.95460000  0.85150000  1.0 -0.1507616794
C  C270  1  0.10310000  0.21580000  0.14850000  1.0 -0.1507616794
C  C271  1  0.78420000  0.93270000  0.88730000  1.0 -0.1507616794
C  C272  1  0.04540000  0.89690000  0.11270000  1.0 -0.1507616794
C  C273  1  0.79290000  0.48510000  0.89740000  1.0 -0.3224297244
C  C274  1  0.58770000  0.89550000  0.10260000  1.0 -0.3224297244
C  C275  1  0.51490000  0.41230000  0.30780000  1.0 -0.3224297244
C  C276  1  0.10450000  0.20710000  0.69220000  1.0 -0.3224297244
C  C277  1  0.16230000  0.76490000  0.80780000  1.0 -0.3224297244
C  C278  1  0.95710000  0.35450000  0.19220000  1.0 -0.3224297244
C  C279  1  0.64550000  0.83770000  0.60260000  1.0 -0.3224297244
C  C280  1  0.23510000  0.04290000  0.39740000  1.0 -0.3224297244
C  C281  1  0.48590000  0.82010000  0.73540000  1.0 -0.3322815742
C  C282  1  0.44980000  0.69060000  0.59740000  1.0 -0.3496284811
C  C283  1  0.08470000  0.75050000  0.26460000  1.0 -0.3322815742
C  C284  1  0.09320000  0.85240000  0.40260000  1.0 -0.3496284811
C  C285  1  0.17990000  0.91530000  0.66580000  1.0 -0.3322815742
C  C286  1  0.30940000  0.90680000  0.75920000  1.0 -0.3496284811
C  C287  1  0.24950000  0.51410000  0.33420000  1.0 -0.3322815742
C  C288  1  0.14760000  0.55020000  0.24080000  1.0 -0.3496284811
C  C289  1  0.66530000  0.42990000  0.16580000  1.0 -0.3322815742
C  C290  1  0.65680000  0.55940000  0.25920000  1.0 -0.3496284811
C  C291  1  0.26410000  0.49950000  0.83420000  1.0 -0.3322815742
C  C292  1  0.30020000  0.39760000  0.74080000  1.0 -0.3496284811
C  C293  1  0.50050000  0.33470000  0.76460000  1.0 -0.3322815742
C  C294  1  0.60240000  0.34320000  0.90260000  1.0 -0.3496284811
C  C295  1  0.57010000  0.73590000  0.23540000  1.0 -0.3322815742
C  C296  1  0.44060000  0.69980000  0.09740000  1.0 -0.3496284811
N  N1  1  0.44580000  0.76730000  0.63830000  1.0 -0.0995449206
N  N2  1  0.12900000  0.80750000  0.36170000  1.0 -0.0948579936
N  N3  1  0.23270000  0.87100000  0.67850000  1.0 -0.0995449206
N  N4  1  0.19250000  0.55420000  0.32150000  1.0 -0.0995449206
N  N5  1  0.62100000  0.48270000  0.17850000  1.0 -0.0995449206
N  N6  1  0.30420000  0.44250000  0.82150000  1.0 -0.0995449206
N  N7  1  0.55750000  0.37900000  0.86170000  1.0 -0.0995449206
N  N8  1  0.51730000  0.69580000  0.13830000  1.0 -0.0995449206
O  O1  1  0.58630000  0.97121000  0.46569000  1.0 -0.5673472388
O  O2  1  0.50552000  0.12061000  0.53431000  1.0 -0.5673472388
O  O3  1  0.02879000  0.49448000  0.61509000  1.0 -0.5673472388
O  O4  1  0.87939000  0.41370000  0.38491000  1.0 -0.5673472388
O  O5  1  0.24448000  0.27879000  0.11509000  1.0 -0.5673472388
O  O6  1  0.16370000  0.12939000  0.88491000  1.0 -0.5673472388
O  O7  1  0.87061000  0.75552000  0.03431000  1.0 -0.5673472388
O  O8  1  0.72121000  0.83630000  0.96569000  1.0 -0.5673472388
O  O9  1  0.60606000  0.86616000  0.40850000  1.0 -0.5818939088
O  O10  1  0.45766000  0.19756000  0.59150000  1.0 -0.5818939088
O  O11  1  0.13384000  0.54234000  0.73990000  1.0 -0.5818939088
O  O12  1  0.80244000  0.39394000  0.26010000  1.0 -0.5818939088
O  O13  1  0.29234000  0.38384000  0.23990000  1.0 -0.5818939088
O  O14  1  0.14394000  0.05244000  0.76010000  1.0 -0.5818939088
O  O15  1  0.94756000  0.70766000  0.09150000  1.0 -0.5818939088
O  O16  1  0.61616000  0.85606000  0.90850000  1.0 -0.5818939088
O  O17  1  0.05742000  0.77389000  0.12527000  1.0 -0.5383010088
O  O18  1  0.64862000  0.93215000  0.87473000  1.0 -0.5383010088
O  O19  1  0.22611000  0.35138000  0.28353000  1.0 -0.5383010088
O  O20  1  0.06785000  0.94258000  0.71647000  1.0 -0.5383010088
O  O21  1  0.10138000  0.47611000  0.78353000  1.0 -0.5383010088
O  O22  1  0.69258000  0.31785000  0.21647000  1.0 -0.5383010088
O  O23  1  0.68215000  0.89862000  0.37473000  1.0 -0.5383010088
O  O24  1  0.52389000  0.30742000  0.62527000  1.0 -0.5383010088
O  O25  1  0.05206000  0.68084000  0.01442000  1.0 -0.5530337049
O  O26  1  0.66642000  0.03764000  0.98558000  1.0 -0.5530337049
O  O27  1  0.31916000  0.33358000  0.37122000  1.0 -0.5530337049
O  O28  1  0.96236000  0.94794000  0.62878000  1.0 -0.5530337049
O  O29  1  0.08358000  0.56916000  0.87122000  1.0 -0.5530337049
O  O30  1  0.69794000  0.21236000  0.12878000  1.0 -0.5530337049
O  O31  1  0.78764000  0.91642000  0.48558000  1.0 -0.5530337049
O  O32  1  0.43084000  0.30206000  0.51442000  1.0 -0.5530337049
O  O33  1  0.32738000  0.93238000  0.29300000  1.0 -0.233123676
O  O34  1  0.63938000  0.03438000  0.70700000  1.0 -0.233123676
O  O35  1  0.06762000  0.36062000  0.39500000  1.0 -0.233123676
O  O36  1  0.96562000  0.67262000  0.60500000  1.0 -0.233123676
O  O37  1  0.11062000  0.31762000  0.89500000  1.0 -0.233123676
O  O38  1  0.42262000  0.21562000  0.10500000  1.0 -0.233123676
O  O39  1  0.78438000  0.88938000  0.20700000  1.0 -0.233123676
O  O40  1  0.68238000  0.57738000  0.79300000  1.0 -0.233123676
O  O41  1  0.28171000  0.72051000  0.10800000  1.0 -0.0609499512
O  O42  1  0.61251000  0.17371000  0.89200000  1.0 -0.0609499512
O  O43  1  0.27949000  0.38749000  0.56120000  1.0 -0.0609499512
O  O44  1  0.82629000  0.71829000  0.43880000  1.0 -0.0609499512
O  O45  1  0.13749000  0.52949000  0.06120000  1.0 -0.0609499512
O  O46  1  0.46829000  0.07629000  0.93880000  1.0 -0.0609499512
O  O47  1  0.92371000  0.86251000  0.39200000  1.0 -0.0609499512
O  O48  1  0.47051000  0.53171000  0.60800000  1.0 -0.0609499512
O  O49  1  0.68388000  0.06448000  0.53100000  1.0 -0.6062568454
O  O50  1  0.53348000  0.15288000  0.46900000  1.0 -0.6062568454
O  O51  1  0.93552000  0.46652000  0.61940000  1.0 -0.6062568454
O  O52  1  0.84712000  0.31612000  0.38060000  1.0 -0.6062568454
O  O53  1  0.21652000  0.18552000  0.11940000  1.0 -0.6062568454
O  O54  1  0.06612000  0.09712000  0.88060000  1.0 -0.6062568454
O  O55  1  0.90288000  0.78348000  0.96900000  1.0 -0.6062568454
O  O56  1  0.81448000  0.93388000  0.03100000  1.0 -0.6062568454
O  O57  1  0.78443000  0.05680000  0.61727000  1.0 -0.5307266145
O  O58  1  0.43953000  0.16716000  0.38273000  1.0 -0.5307266145
O  O59  1  0.94320000  0.56047000  0.72763000  1.0 -0.5307266145
O  O60  1  0.83284000  0.21557000  0.27237000  1.0 -0.5307266145
O  O61  1  0.31047000  0.19320000  0.22763000  1.0 -0.5307266145
O  O62  1  0.96557000  0.08284000  0.77237000  1.0 -0.5307266145
O  O63  1  0.91716000  0.68953000  0.88273000  1.0 -0.5307266145
O  O64  1  0.80680000  0.03443000  0.11727000  1.0 -0.5307266145
O  O65  1  0.90946000  0.59770000  0.90964000  1.0 -0.5307266145
O  O66  1  0.68806000  0.99982000  0.09036000  1.0 -0.5307266145
O  O67  1  0.40230000  0.31194000  0.31176000  1.0 -0.5307266145
O  O68  1  0.00018000  0.09054000  0.68824000  1.0 -0.5307266145
O  O69  1  0.06194000  0.65230000  0.81176000  1.0 -0.5307266145
O  O70  1  0.84054000  0.25018000  0.18824000  1.0 -0.5307266145
O  O71  1  0.74982000  0.93806000  0.59036000  1.0 -0.5307266145
O  O72  1  0.34770000  0.15946000  0.40964000  1.0 -0.5307266145
O  O73  1  0.95281000  0.54458000  0.84137000  1.0 -0.5611631899
O  O74  1  0.70321000  0.11144000  0.15863000  1.0 -0.5611631899
O  O75  1  0.45542000  0.29679000  0.40823000  1.0 -0.5611631899
O  O76  1  0.88856000  0.04719000  0.59177000  1.0 -0.5611631899
O  O77  1  0.04679000  0.70542000  0.90823000  1.0 -0.5611631899
O  O78  1  0.79719000  0.13856000  0.09177000  1.0 -0.5611631899
O  O79  1  0.86144000  0.95321000  0.65863000  1.0 -0.5611631899
O  O80  1  0.29458000  0.20281000  0.34137000  1.0 -0.5611631899
O  O81  1  0.72118000  0.32148000  0.67530000  1.0 -0.0609499512
O  O82  1  0.64618000  0.04588000  0.32470000  1.0 -0.0609499512
O  O83  1  0.67852000  0.35382000  0.39970000  1.0 -0.0609499512
O  O84  1  0.95412000  0.27882000  0.60030000  1.0 -0.0609499512
O  O85  1  0.10382000  0.92852000  0.89970000  1.0 -0.0609499512
O  O86  1  0.02882000  0.20412000  0.10030000  1.0 -0.0609499512
O  O87  1  0.79588000  0.89618000  0.82470000  1.0 -0.0609499512
O  O88  1  0.07148000  0.97118000  0.17530000  1.0 -0.0609499512
O  O89  1  0.88440000  0.30880000  0.68220000  1.0 -0.0995449206
O  O90  1  0.62660000  0.20220000  0.31780000  1.0 -0.0995449206
O  O91  1  0.69120000  0.37340000  0.57560000  1.0 -0.0995449206
O  O92  1  0.79780000  0.11560000  0.42440000  1.0 -0.0995449206
O  O93  1  0.12340000  0.94120000  0.07560000  1.0 -0.0995449206
O  O94  1  0.86560000  0.04780000  0.92440000  1.0 -0.0995449206
O  O95  1  0.95220000  0.87660000  0.81780000  1.0 -0.0995449206
O  O96  1  0.05880000  0.13440000  0.18220000  1.0 -0.0995449206
O  O97  1  0.80840000  0.41470000  0.83430000  1.0 -0.1734192007
O  O98  1  0.58040000  0.97410000  0.16570000  1.0 -0.1734192007
O  O99  1  0.58530000  0.41960000  0.39370000  1.0 -0.1734192007
O  O100  1  0.02590000  0.19160000  0.60630000  1.0 -0.1734192007
O  O101  1  0.16960000  0.83530000  0.89370000  1.0 -0.1734192007
O  O102  1  0.94160000  0.27590000  0.10630000  1.0 -0.1734192007
O  O103  1  0.72410000  0.83040000  0.66570000  1.0 -0.1734192007
O  O104  1  0.16470000  0.05840000  0.33430000  1.0 -0.1734192007
