# DDEC6 charges by PACMAN v1.1 (https://github.com/mtap-research/PACMAN-charge/)
data_RIWXON_FSR_pacman
_symmetry_space_group_name_H-M   'P 1'
_cell_length_a   21.17680000
_cell_length_b   14.23080000
_cell_length_c   24.40170000
_cell_angle_alpha   90.00000000
_cell_angle_beta   98.33400000
_cell_angle_gamma   90.00000000
_symmetry_Int_Tables_number   1
_chemical_formula_structural   Ba3P3H37(C3O5)4
_chemical_formula_sum   'Ba24 P24 H296 C96 O160'
_cell_volume   7276.10866170
_cell_formula_units_Z   8
loop_
 _symmetry_equiv_pos_site_id
 _symmetry_equiv_pos_as_xyz
  1  'x, y, z'
loop_
 _atom_site_type_symbol
 _atom_site_label
 _atom_site_symmetry_multiplicity
 _atom_site_fract_x
 _atom_site_fract_y
 _atom_site_fract_z
 _atom_site_occupancy
 _atom_site_charge
Ba  Ba1  1  0.23565000  0.37010000  0.18929000  1.0 1.4190851123
Ba  Ba2  1  0.10932000  0.59125000  0.24058000  1.0 1.4190851123
Ba  Ba3  1  0.38706000  0.59820000  0.24112000  1.0 1.4093773946
Ba  Ba4  1  0.25162000  0.08292000  0.24474000  1.0 1.4593429104
Ba  Ba5  1  0.09340000  0.90085000  0.25830000  1.0 1.4093773946
Ba  Ba6  1  0.41265000  0.90091000  0.25788000  1.0 1.4190851123
Ba  Ba7  1  0.76435000  0.87010000  0.31071000  1.0 1.4190851123
Ba  Ba8  1  0.89068000  0.09125000  0.25942000  1.0 1.4251182511
Ba  Ba9  1  0.61294000  0.09820000  0.25888000  1.0 1.4093773946
Ba  Ba10  1  0.74838000  0.58292000  0.25526000  1.0 1.4593429104
Ba  Ba11  1  0.90660000  0.40085000  0.24170000  1.0 1.4093773946
Ba  Ba12  1  0.58735000  0.40091000  0.24212000  1.0 1.4190851123
Ba  Ba13  1  0.76435000  0.62990000  0.81071000  1.0 1.4190851123
Ba  Ba14  1  0.89068000  0.40875000  0.75942000  1.0 1.4190851123
Ba  Ba15  1  0.61294000  0.40180000  0.75888000  1.0 1.4093773946
Ba  Ba16  1  0.74838000  0.91708000  0.75526000  1.0 1.4593429104
Ba  Ba17  1  0.90660000  0.09915000  0.74170000  1.0 1.4093773946
Ba  Ba18  1  0.58735000  0.09909000  0.74212000  1.0 1.4190851123
Ba  Ba19  1  0.23565000  0.12990000  0.68929000  1.0 1.4190851123
Ba  Ba20  1  0.10932000  0.90875000  0.74058000  1.0 1.4190851123
Ba  Ba21  1  0.38706000  0.90180000  0.74112000  1.0 1.4093773946
Ba  Ba22  1  0.25162000  0.41708000  0.74474000  1.0 1.4593429104
Ba  Ba23  1  0.09340000  0.59915000  0.75830000  1.0 1.4093773946
Ba  Ba24  1  0.41265000  0.59909000  0.75788000  1.0 1.4190851123
P  P1  1  0.23090000  0.59100000  0.13787000  1.0 1.3212302064
P  P2  1  0.09018000  0.20531000  0.13715000  1.0 1.3212302064
P  P3  1  0.36976000  0.21037000  0.14205000  1.0 1.310854657
P  P4  1  0.26739000  0.90365000  0.33988000  1.0 1.3297806218
P  P5  1  0.11310000  0.29650000  0.36386000  1.0 1.310854657
P  P6  1  0.42474000  0.29936000  0.36951000  1.0 1.3212302064
P  P7  1  0.76910000  0.09100000  0.36213000  1.0 1.3212302064
P  P8  1  0.90982000  0.70531000  0.36285000  1.0 1.3212302064
P  P9  1  0.63024000  0.71037000  0.35795000  1.0 1.310854657
P  P10  1  0.73261000  0.40365000  0.16012000  1.0 1.3297806218
P  P11  1  0.88690000  0.79650000  0.13614000  1.0 1.310854657
P  P12  1  0.57526000  0.79936000  0.13049000  1.0 1.3212302064
P  P13  1  0.76910000  0.40900000  0.86213000  1.0 1.3212302064
P  P14  1  0.90982000  0.79469000  0.86285000  1.0 1.3212302064
P  P15  1  0.63024000  0.78963000  0.85795000  1.0 1.310854657
P  P16  1  0.73261000  0.09635000  0.66012000  1.0 1.3297806218
P  P17  1  0.88690000  0.70350000  0.63614000  1.0 1.310854657
P  P18  1  0.57526000  0.70064000  0.63049000  1.0 1.3212302064
P  P19  1  0.23090000  0.90900000  0.63787000  1.0 1.3212302064
P  P20  1  0.09018000  0.29469000  0.63715000  1.0 1.3212302064
P  P21  1  0.36976000  0.28963000  0.64205000  1.0 1.310854657
P  P22  1  0.26739000  0.59635000  0.83988000  1.0 1.3297806218
P  P23  1  0.11310000  0.20350000  0.86386000  1.0 1.310854657
P  P24  1  0.42474000  0.20064000  0.86951000  1.0 1.3212302064
H  H1  1  0.24410000  0.52080000  0.30520000  1.0 0.3576393484
H  H2  1  0.20110000  0.44860000  0.31290000  1.0 0.3576393484
H  H3  1  0.08780000  0.36310000  0.20500000  1.0 0.3510847174
H  H4  1  0.11780000  0.37690000  0.25870000  1.0 0.3391479917
H  H5  1  0.37100000  0.38270000  0.26370000  1.0 0.3510847174
H  H6  1  0.38760000  0.37500000  0.21070000  1.0 0.3576393484
H  H7  1  0.22630000  0.27700000  0.30200000  1.0 0.3576393484
H  H8  1  0.29120000  0.28040000  0.30030000  1.0 0.3576393484
H  H9  1  0.15810000  0.74140000  0.17310000  1.0 0.3510847174
H  H10  1  0.09760000  0.78120000  0.15840000  1.0 0.3391479917
H  H11  1  0.18130000  0.75150000  0.33150000  1.0 0.3576393484
H  H12  1  0.12530000  0.71090000  0.34350000  1.0 0.3286700532
H  H13  1  0.98880000  0.74050000  0.22340000  1.0 0.3510847174
H  H14  1  0.00150000  0.74120000  0.28090000  1.0 0.3510847174
H  H15  1  0.99640000  0.53980000  0.32170000  1.0 0.3576393484
H  H16  1  0.03480000  0.46090000  0.32290000  1.0 0.3510847174
H  H17  1  0.98670000  0.62410000  0.14540000  1.0 0.3391479917
H  H18  1  0.99400000  0.53350000  0.16250000  1.0 0.300065054
H  H19  1  0.17770000  0.58100000  0.04620000  1.0 0.1492882505
H  H20  1  0.25350000  0.58140000  0.04620000  1.0 0.1492882505
H  H21  1  0.50240000  0.73740000  0.21900000  1.0 0.3576393484
H  H22  1  0.51320000  0.74510000  0.27670000  1.0 0.3510847174
H  H23  1  0.42000000  0.72350000  0.34990000  1.0 0.3391479917
H  H24  1  0.35750000  0.75380000  0.33410000  1.0 0.3576393484
H  H25  1  0.37280000  0.78080000  0.15640000  1.0 0.3286700532
H  H26  1  0.31640000  0.74670000  0.17250000  1.0 0.3576393484
H  H27  1  0.26500000  0.71140000  0.28710000  1.0 0.3391479917
H  H28  1  0.24900000  0.70010000  0.23010000  1.0 0.3286700532
H  H29  1  0.47690000  0.63560000  0.13980000  1.0 0.3510847174
H  H30  1  0.41860000  0.60810000  0.11100000  1.0 0.3391479917
H  H31  1  0.52700000  0.54370000  0.31770000  1.0 0.3576393484
H  H32  1  0.48780000  0.46640000  0.32460000  1.0 0.3576393484
H  H33  1  0.34730000  0.46700000  0.33320000  1.0 0.3510847174
H  H34  1  0.35490000  0.54560000  0.36760000  1.0 0.3391479917
H  H35  1  0.10230000  0.18750000  0.04320000  1.0 0.1572948977
H  H36  1  0.06430000  0.28240000  0.05130000  1.0 0.1492882505
H  H37  1  0.37160000  0.28620000  0.05710000  1.0 0.1492882505
H  H38  1  0.33260000  0.18990000  0.04760000  1.0 0.1492882505
H  H39  1  0.16590000  0.93970000  0.15230000  1.0 0.3286700532
H  H40  1  0.12770000  0.01630000  0.15980000  1.0 0.3510847174
H  H41  1  0.12000000  0.12560000  0.29630000  1.0 0.3576393484
H  H42  1  0.10520000  0.13470000  0.24000000  1.0 0.3391479917
H  H43  1  0.01860000  0.86520000  0.35570000  1.0 0.3510847174
H  H44  1  0.07140000  0.90090000  0.38950000  1.0 0.3391479917
H  H45  1  0.40840000  0.11820000  0.29900000  1.0 0.3686355486
H  H46  1  0.38870000  0.13210000  0.24220000  1.0 0.3391479917
H  H47  1  0.30180000  0.94670000  0.15190000  1.0 0.3391479917
H  H48  1  0.34460000  0.02080000  0.16260000  1.0 0.3510847174
H  H49  1  0.51480000  0.97460000  0.36110000  1.0 0.3391479917
H  H50  1  0.52630000  0.87840000  0.35690000  1.0 0.3510847174
H  H51  1  0.07340000  0.44240000  0.02230000  1.0 0.1385222034
H  H52  1  0.10590000  0.51780000  0.06620000  1.0 0.1492882505
H  H53  1  0.07330000  0.42560000  0.08720000  1.0 0.1385222034
H  H54  1  0.36310000  0.45340000  0.09920000  1.0 0.1385222034
H  H55  1  0.32920000  0.51610000  0.04900000  1.0 0.1313257527
H  H56  1  0.36310000  0.41950000  0.03670000  1.0 0.1313257527
H  H57  1  0.26390000  0.12170000  0.07680000  1.0 0.1313257527
H  H58  1  0.19810000  0.11950000  0.03520000  1.0 0.1385222034
H  H59  1  0.19730000  0.12410000  0.10060000  1.0 0.1385222034
H  H60  1  0.24290000  0.92700000  0.42890000  1.0 0.1492882505
H  H61  1  0.31840000  0.92770000  0.42990000  1.0 0.1492882505
H  H62  1  0.15950000  0.01630000  0.44900000  1.0 0.1385222034
H  H63  1  0.15530000  0.00560000  0.38330000  1.0 0.1313257527
H  H64  1  0.12250000  0.09350000  0.40870000  1.0 0.1313257527
H  H65  1  0.43180000  0.09690000  0.41290000  1.0 0.1313257527
H  H66  1  0.39260000  0.00480000  0.39120000  1.0 0.1492882505
H  H67  1  0.40950000  0.02420000  0.45630000  1.0 0.1385222034
H  H68  1  0.17010000  0.31130000  0.45190000  1.0 0.1492882505
H  H69  1  0.13170000  0.21450000  0.44670000  1.0 0.1492882505
H  H70  1  0.43230000  0.21940000  0.45330000  1.0 0.1492882505
H  H71  1  0.39370000  0.31520000  0.45660000  1.0 0.1492882505
H  H72  1  0.28380000  0.37770000  0.46980000  1.0 0.1385222034
H  H73  1  0.23700000  0.38460000  0.41230000  1.0 0.1385222034
H  H74  1  0.31260000  0.38630000  0.41290000  1.0 0.1313257527
H  H75  1  0.75590000  0.02080000  0.19480000  1.0 0.3576393484
H  H76  1  0.79890000  0.94860000  0.18710000  1.0 0.3576393484
H  H77  1  0.91220000  0.86310000  0.29500000  1.0 0.3576393484
H  H78  1  0.88220000  0.87690000  0.24130000  1.0 0.3391479917
H  H79  1  0.62900000  0.88270000  0.23630000  1.0 0.3510847174
H  H80  1  0.61240000  0.87500000  0.28930000  1.0 0.3576393484
H  H81  1  0.77370000  0.77700000  0.19800000  1.0 0.3576393484
H  H82  1  0.70880000  0.78040000  0.19970000  1.0 0.3576393484
H  H83  1  0.84190000  0.24140000  0.32690000  1.0 0.3510847174
H  H84  1  0.90240000  0.28120000  0.34160000  1.0 0.3391479917
H  H85  1  0.81870000  0.25150000  0.16850000  1.0 0.3576393484
H  H86  1  0.87470000  0.21090000  0.15650000  1.0 0.3286700532
H  H87  1  0.01120000  0.24050000  0.27660000  1.0 0.3510847174
H  H88  1  0.99850000  0.24120000  0.21910000  1.0 0.3510847174
H  H89  1  0.00360000  0.03980000  0.17830000  1.0 0.3576393484
H  H90  1  0.96520000  0.96090000  0.17710000  1.0 0.3510847174
H  H91  1  0.01330000  0.12410000  0.35460000  1.0 0.3391479917
H  H92  1  0.00600000  0.03350000  0.33750000  1.0 0.300065054
H  H93  1  0.82230000  0.08100000  0.45380000  1.0 0.1492882505
H  H94  1  0.74650000  0.08140000  0.45380000  1.0 0.1492882505
H  H95  1  0.49760000  0.23740000  0.28100000  1.0 0.3576393484
H  H96  1  0.48680000  0.24510000  0.22330000  1.0 0.3510847174
H  H97  1  0.58000000  0.22350000  0.15010000  1.0 0.3391479917
H  H98  1  0.64250000  0.25380000  0.16590000  1.0 0.3576393484
H  H99  1  0.62720000  0.28080000  0.34360000  1.0 0.3286700532
H  H100  1  0.68360000  0.24670000  0.32750000  1.0 0.3576393484
H  H101  1  0.73500000  0.21140000  0.21290000  1.0 0.3391479917
H  H102  1  0.75100000  0.20010000  0.26990000  1.0 0.3286700532
H  H103  1  0.52310000  0.13560000  0.36020000  1.0 0.3510847174
H  H104  1  0.58140000  0.10810000  0.38900000  1.0 0.3391479917
H  H105  1  0.47300000  0.04370000  0.18230000  1.0 0.3576393484
H  H106  1  0.51220000  0.96640000  0.17540000  1.0 0.3576393484
H  H107  1  0.65270000  0.96700000  0.16680000  1.0 0.3510847174
H  H108  1  0.64510000  0.04560000  0.13240000  1.0 0.3391479917
H  H109  1  0.89770000  0.68750000  0.45680000  1.0 0.1572948977
H  H110  1  0.93570000  0.78240000  0.44870000  1.0 0.1492882505
H  H111  1  0.62840000  0.78620000  0.44290000  1.0 0.1492882505
H  H112  1  0.66740000  0.68990000  0.45240000  1.0 0.1492882505
H  H113  1  0.83410000  0.43970000  0.34770000  1.0 0.3286700532
H  H114  1  0.87230000  0.51630000  0.34020000  1.0 0.3510847174
H  H115  1  0.88000000  0.62560000  0.20370000  1.0 0.3576393484
H  H116  1  0.89480000  0.63470000  0.26000000  1.0 0.3391479917
H  H117  1  0.98140000  0.36520000  0.14430000  1.0 0.3510847174
H  H118  1  0.92860000  0.40090000  0.11050000  1.0 0.3391479917
H  H119  1  0.59160000  0.61820000  0.20100000  1.0 0.3686355486
H  H120  1  0.61130000  0.63210000  0.25780000  1.0 0.3391479917
H  H121  1  0.69820000  0.44670000  0.34810000  1.0 0.3391479917
H  H122  1  0.65540000  0.52080000  0.33740000  1.0 0.3510847174
H  H123  1  0.48520000  0.47460000  0.13890000  1.0 0.3391479917
H  H124  1  0.47370000  0.37840000  0.14310000  1.0 0.3510847174
H  H125  1  0.92660000  0.94240000  0.47770000  1.0 0.1385222034
H  H126  1  0.89410000  0.01780000  0.43380000  1.0 0.1492882505
H  H127  1  0.92670000  0.92560000  0.41280000  1.0 0.1385222034
H  H128  1  0.63690000  0.95340000  0.40080000  1.0 0.1385222034
H  H129  1  0.67080000  0.01610000  0.45100000  1.0 0.1313257527
H  H130  1  0.63690000  0.91950000  0.46330000  1.0 0.1313257527
H  H131  1  0.73610000  0.62170000  0.42320000  1.0 0.1313257527
H  H132  1  0.80190000  0.61950000  0.46480000  1.0 0.1385222034
H  H133  1  0.80270000  0.62410000  0.39940000  1.0 0.1385222034
H  H134  1  0.75710000  0.42700000  0.07110000  1.0 0.1492882505
H  H135  1  0.68160000  0.42770000  0.07010000  1.0 0.1492882505
H  H136  1  0.84050000  0.51630000  0.05100000  1.0 0.1385222034
H  H137  1  0.84470000  0.50560000  0.11670000  1.0 0.1313257527
H  H138  1  0.87750000  0.59350000  0.09130000  1.0 0.1313257527
H  H139  1  0.56820000  0.59690000  0.08710000  1.0 0.1313257527
H  H140  1  0.60740000  0.50480000  0.10880000  1.0 0.1492882505
H  H141  1  0.59050000  0.52420000  0.04370000  1.0 0.1385222034
H  H142  1  0.82990000  0.81130000  0.04810000  1.0 0.1492882505
H  H143  1  0.86830000  0.71450000  0.05330000  1.0 0.1492882505
H  H144  1  0.56770000  0.71940000  0.04670000  1.0 0.1492882505
H  H145  1  0.60630000  0.81520000  0.04340000  1.0 0.1492882505
H  H146  1  0.71620000  0.87770000  0.03020000  1.0 0.1385222034
H  H147  1  0.76300000  0.88460000  0.08770000  1.0 0.1385222034
H  H148  1  0.68740000  0.88630000  0.08710000  1.0 0.1313257527
H  H149  1  0.75590000  0.47920000  0.69480000  1.0 0.3510847174
H  H150  1  0.79890000  0.55140000  0.68710000  1.0 0.3576393484
H  H151  1  0.91220000  0.63690000  0.79500000  1.0 0.3510847174
H  H152  1  0.88220000  0.62310000  0.74130000  1.0 0.3391479917
H  H153  1  0.62900000  0.61730000  0.73630000  1.0 0.3510847174
H  H154  1  0.61240000  0.62500000  0.78930000  1.0 0.3576393484
H  H155  1  0.77370000  0.72300000  0.69800000  1.0 0.3576393484
H  H156  1  0.70880000  0.71960000  0.69970000  1.0 0.3576393484
H  H157  1  0.84190000  0.25860000  0.82690000  1.0 0.3510847174
H  H158  1  0.90240000  0.21880000  0.84160000  1.0 0.3391479917
H  H159  1  0.81870000  0.24850000  0.66850000  1.0 0.3576393484
H  H160  1  0.87470000  0.28910000  0.65650000  1.0 0.3286700532
H  H161  1  0.01120000  0.25950000  0.77660000  1.0 0.3510847174
H  H162  1  0.99850000  0.25880000  0.71910000  1.0 0.3510847174
H  H163  1  0.00360000  0.46020000  0.67830000  1.0 0.3576393484
H  H164  1  0.96520000  0.53910000  0.67710000  1.0 0.3510847174
H  H165  1  0.01330000  0.37590000  0.85460000  1.0 0.3391479917
H  H166  1  0.00600000  0.46650000  0.83750000  1.0 0.300065054
H  H167  1  0.82230000  0.41900000  0.95380000  1.0 0.1492882505
H  H168  1  0.74650000  0.41860000  0.95380000  1.0 0.1492882505
H  H169  1  0.49760000  0.26260000  0.78100000  1.0 0.3576393484
H  H170  1  0.48680000  0.25490000  0.72330000  1.0 0.3510847174
H  H171  1  0.58000000  0.27650000  0.65010000  1.0 0.3391479917
H  H172  1  0.64250000  0.24620000  0.66590000  1.0 0.3576393484
H  H173  1  0.62720000  0.21920000  0.84360000  1.0 0.3286700532
H  H174  1  0.68360000  0.25330000  0.82750000  1.0 0.3576393484
H  H175  1  0.73500000  0.28860000  0.71290000  1.0 0.3391479917
H  H176  1  0.75100000  0.29990000  0.76990000  1.0 0.3286700532
H  H177  1  0.52310000  0.36440000  0.86020000  1.0 0.3510847174
H  H178  1  0.58140000  0.39190000  0.88900000  1.0 0.3391479917
H  H179  1  0.47300000  0.45630000  0.68230000  1.0 0.3576393484
H  H180  1  0.51220000  0.53360000  0.67540000  1.0 0.3576393484
H  H181  1  0.65270000  0.53300000  0.66680000  1.0 0.3510847174
H  H182  1  0.64510000  0.45440000  0.63240000  1.0 0.3391479917
H  H183  1  0.89770000  0.81250000  0.95680000  1.0 0.1572948977
H  H184  1  0.93570000  0.71760000  0.94870000  1.0 0.1492882505
H  H185  1  0.62840000  0.71380000  0.94290000  1.0 0.1492882505
H  H186  1  0.66740000  0.81010000  0.95240000  1.0 0.1492882505
H  H187  1  0.83410000  0.06030000  0.84770000  1.0 0.3286700532
H  H188  1  0.87230000  0.98370000  0.84020000  1.0 0.3510847174
H  H189  1  0.88000000  0.87440000  0.70370000  1.0 0.3576393484
H  H190  1  0.89480000  0.86530000  0.76000000  1.0 0.3391479917
H  H191  1  0.98140000  0.13480000  0.64430000  1.0 0.3510847174
H  H192  1  0.92860000  0.09910000  0.61050000  1.0 0.3391479917
H  H193  1  0.59160000  0.88180000  0.70100000  1.0 0.3686355486
H  H194  1  0.61130000  0.86790000  0.75780000  1.0 0.3391479917
H  H195  1  0.69820000  0.05330000  0.84810000  1.0 0.3391479917
H  H196  1  0.65540000  0.97920000  0.83740000  1.0 0.3510847174
H  H197  1  0.48520000  0.02540000  0.63890000  1.0 0.3391479917
H  H198  1  0.47370000  0.12160000  0.64310000  1.0 0.3510847174
H  H199  1  0.92660000  0.55760000  0.97770000  1.0 0.1385222034
H  H200  1  0.89410000  0.48220000  0.93380000  1.0 0.1492882505
H  H201  1  0.92670000  0.57440000  0.91280000  1.0 0.1385222034
H  H202  1  0.63690000  0.54660000  0.90080000  1.0 0.1385222034
H  H203  1  0.67080000  0.48390000  0.95100000  1.0 0.1313257527
H  H204  1  0.63690000  0.58050000  0.96330000  1.0 0.1313257527
H  H205  1  0.73610000  0.87830000  0.92320000  1.0 0.1313257527
H  H206  1  0.80190000  0.88050000  0.96480000  1.0 0.1385222034
H  H207  1  0.80270000  0.87590000  0.89940000  1.0 0.1385222034
H  H208  1  0.75710000  0.07300000  0.57110000  1.0 0.1492882505
H  H209  1  0.68160000  0.07230000  0.57010000  1.0 0.1492882505
H  H210  1  0.84050000  0.98370000  0.55100000  1.0 0.1385222034
H  H211  1  0.84470000  0.99440000  0.61670000  1.0 0.1313257527
H  H212  1  0.87750000  0.90650000  0.59130000  1.0 0.1313257527
H  H213  1  0.56820000  0.90310000  0.58710000  1.0 0.1313257527
H  H214  1  0.60740000  0.99520000  0.60880000  1.0 0.1492882505
H  H215  1  0.59050000  0.97580000  0.54370000  1.0 0.1385222034
H  H216  1  0.82990000  0.68870000  0.54810000  1.0 0.1492882505
H  H217  1  0.86830000  0.78550000  0.55330000  1.0 0.1492882505
H  H218  1  0.56770000  0.78060000  0.54670000  1.0 0.1492882505
H  H219  1  0.60630000  0.68480000  0.54340000  1.0 0.1492882505
H  H220  1  0.71620000  0.62230000  0.53020000  1.0 0.1385222034
H  H221  1  0.76300000  0.61540000  0.58770000  1.0 0.1385222034
H  H222  1  0.68740000  0.61370000  0.58710000  1.0 0.1313257527
H  H223  1  0.24410000  0.97920000  0.80520000  1.0 0.3510847174
H  H224  1  0.20110000  0.05140000  0.81290000  1.0 0.3576393484
H  H225  1  0.08780000  0.13690000  0.70500000  1.0 0.3576393484
H  H226  1  0.11780000  0.12310000  0.75870000  1.0 0.3391479917
H  H227  1  0.37100000  0.11730000  0.76370000  1.0 0.3391479917
H  H228  1  0.38760000  0.12500000  0.71070000  1.0 0.3576393484
H  H229  1  0.22630000  0.22300000  0.80200000  1.0 0.3576393484
H  H230  1  0.29120000  0.21960000  0.80030000  1.0 0.3576393484
H  H231  1  0.15810000  0.75860000  0.67310000  1.0 0.3510847174
H  H232  1  0.09760000  0.71880000  0.65840000  1.0 0.3391479917
H  H233  1  0.18130000  0.74850000  0.83150000  1.0 0.3576393484
H  H234  1  0.12530000  0.78910000  0.84350000  1.0 0.3286700532
H  H235  1  0.98880000  0.75950000  0.72340000  1.0 0.3510847174
H  H236  1  0.00150000  0.75880000  0.78090000  1.0 0.3510847174
H  H237  1  0.99640000  0.96020000  0.82170000  1.0 0.3576393484
H  H238  1  0.03480000  0.03910000  0.82290000  1.0 0.3510847174
H  H239  1  0.98670000  0.87590000  0.64540000  1.0 0.3391479917
H  H240  1  0.99400000  0.96650000  0.66250000  1.0 0.300065054
H  H241  1  0.17770000  0.91900000  0.54620000  1.0 0.1492882505
H  H242  1  0.25350000  0.91860000  0.54620000  1.0 0.1492882505
H  H243  1  0.50240000  0.76260000  0.71900000  1.0 0.3576393484
H  H244  1  0.51320000  0.75490000  0.77670000  1.0 0.3510847174
H  H245  1  0.42000000  0.77650000  0.84990000  1.0 0.3391479917
H  H246  1  0.35750000  0.74620000  0.83410000  1.0 0.3576393484
H  H247  1  0.37280000  0.71920000  0.65640000  1.0 0.3286700532
H  H248  1  0.31640000  0.75330000  0.67250000  1.0 0.3576393484
H  H249  1  0.26500000  0.78860000  0.78710000  1.0 0.3391479917
H  H250  1  0.24900000  0.79990000  0.73010000  1.0 0.3286700532
H  H251  1  0.47690000  0.86440000  0.63980000  1.0 0.3510847174
H  H252  1  0.41860000  0.89190000  0.61100000  1.0 0.3391479917
H  H253  1  0.52700000  0.95630000  0.81770000  1.0 0.3576393484
H  H254  1  0.48780000  0.03360000  0.82460000  1.0 0.3576393484
H  H255  1  0.34730000  0.03300000  0.83320000  1.0 0.3510847174
H  H256  1  0.35490000  0.95440000  0.86760000  1.0 0.3391479917
H  H257  1  0.10230000  0.31250000  0.54320000  1.0 0.1572948977
H  H258  1  0.06430000  0.21760000  0.55130000  1.0 0.1492882505
H  H259  1  0.37160000  0.21380000  0.55710000  1.0 0.1492882505
H  H260  1  0.33260000  0.31010000  0.54760000  1.0 0.1492882505
H  H261  1  0.16590000  0.56030000  0.65230000  1.0 0.3286700532
H  H262  1  0.12770000  0.48370000  0.65980000  1.0 0.3510847174
H  H263  1  0.12000000  0.37440000  0.79630000  1.0 0.3510847174
H  H264  1  0.10520000  0.36530000  0.74000000  1.0 0.3391479917
H  H265  1  0.01860000  0.63480000  0.85570000  1.0 0.3510847174
H  H266  1  0.07140000  0.59910000  0.88950000  1.0 0.3391479917
H  H267  1  0.40840000  0.38180000  0.79900000  1.0 0.3686355486
H  H268  1  0.38870000  0.36790000  0.74220000  1.0 0.3391479917
H  H269  1  0.30180000  0.55330000  0.65190000  1.0 0.3391479917
H  H270  1  0.34460000  0.47920000  0.66260000  1.0 0.3510847174
H  H271  1  0.51480000  0.52540000  0.86110000  1.0 0.3391479917
H  H272  1  0.52630000  0.62160000  0.85690000  1.0 0.3510847174
H  H273  1  0.07340000  0.05760000  0.52230000  1.0 0.1385222034
H  H274  1  0.10590000  0.98220000  0.56620000  1.0 0.1492882505
H  H275  1  0.07330000  0.07440000  0.58720000  1.0 0.1385222034
H  H276  1  0.36310000  0.04660000  0.59920000  1.0 0.1385222034
H  H277  1  0.32920000  0.98390000  0.54900000  1.0 0.1313257527
H  H278  1  0.36310000  0.08050000  0.53670000  1.0 0.1313257527
H  H279  1  0.26390000  0.37830000  0.57680000  1.0 0.1313257527
H  H280  1  0.19810000  0.38050000  0.53520000  1.0 0.1385222034
H  H281  1  0.19730000  0.37590000  0.60060000  1.0 0.1385222034
H  H282  1  0.24290000  0.57300000  0.92890000  1.0 0.1492882505
H  H283  1  0.31840000  0.57230000  0.92990000  1.0 0.1492882505
H  H284  1  0.15950000  0.48370000  0.94900000  1.0 0.1385222034
H  H285  1  0.15530000  0.49440000  0.88330000  1.0 0.1313257527
H  H286  1  0.12250000  0.40650000  0.90870000  1.0 0.1313257527
H  H287  1  0.43180000  0.40310000  0.91290000  1.0 0.1313257527
H  H288  1  0.39260000  0.49520000  0.89120000  1.0 0.1492882505
H  H289  1  0.40950000  0.47580000  0.95630000  1.0 0.1385222034
H  H290  1  0.17010000  0.18870000  0.95190000  1.0 0.1492882505
H  H291  1  0.13170000  0.28550000  0.94670000  1.0 0.1492882505
H  H292  1  0.43230000  0.28060000  0.95330000  1.0 0.1492882505
H  H293  1  0.39370000  0.18480000  0.95660000  1.0 0.1492882505
H  H294  1  0.28380000  0.12230000  0.96980000  1.0 0.1385222034
H  H295  1  0.23700000  0.11540000  0.91230000  1.0 0.1385222034
H  H296  1  0.31260000  0.11370000  0.91290000  1.0 0.1313257527
C  C1  1  0.21880000  0.55590000  0.06502000  1.0 -0.5082672462
C  C2  1  0.10140000  0.24360000  0.06704000  1.0 -0.5026920379
C  C3  1  0.33920000  0.24650000  0.07139000  1.0 -0.5082672462
C  C4  1  0.21850000  0.44930000  0.06207000  1.0 -0.0038712193
C  C5  1  0.16190000  0.29970000  0.06561000  1.0 0.0030002852
C  C6  1  0.27680000  0.30090000  0.06690000  1.0 0.0073149329
C  C7  1  0.16070000  0.39900000  0.06272000  1.0 0.0401430329
C  C8  1  0.27650000  0.39980000  0.06378000  1.0 0.0401430329
C  C9  1  0.21990000  0.25050000  0.06784000  1.0 0.0605792503
C  C10  1  0.09780000  0.45080000  0.05930000  1.0 -0.4434500799
C  C11  1  0.33840000  0.45180000  0.06200000  1.0 -0.4586853053
C  C12  1  0.21980000  0.14470000  0.07033000  1.0 -0.4586853053
C  C13  1  0.27760000  0.95150000  0.40977000  1.0 -0.5082672462
C  C14  1  0.27770000  0.05690000  0.41384000  1.0 0.0303821752
C  C15  1  0.22030000  0.10610000  0.41580000  1.0 0.0605792503
C  C16  1  0.33600000  0.10710000  0.41874000  1.0 0.0605792503
C  C17  1  0.22060000  0.20330000  0.42248000  1.0 0.0303821752
C  C18  1  0.15900000  0.05040000  0.41405000  1.0 -0.4745041892
C  C19  1  0.33590000  0.20500000  0.42509000  1.0 0.0303821752
C  C20  1  0.39790000  0.05350000  0.41990000  1.0 -0.4586853053
C  C21  1  0.27820000  0.25410000  0.42560000  1.0 0.0731407538
C  C22  1  0.15920000  0.25610000  0.42772000  1.0 -0.5082672462
C  C23  1  0.39860000  0.25970000  0.43308000  1.0 -0.5082672462
C  C24  1  0.27790000  0.36000000  0.43060000  1.0 -0.4454787835
C  C25  1  0.78120000  0.05590000  0.43498000  1.0 -0.5082672462
C  C26  1  0.89860000  0.74360000  0.43296000  1.0 -0.5026920379
C  C27  1  0.66080000  0.74650000  0.42861000  1.0 -0.5082672462
C  C28  1  0.78150000  0.94930000  0.43793000  1.0 -0.0038712193
C  C29  1  0.83810000  0.79970000  0.43439000  1.0 0.0030002852
C  C30  1  0.72320000  0.80090000  0.43310000  1.0 0.0073149329
C  C31  1  0.83930000  0.89900000  0.43728000  1.0 0.0401430329
C  C32  1  0.72350000  0.89980000  0.43622000  1.0 0.0401430329
C  C33  1  0.78010000  0.75050000  0.43216000  1.0 0.0605792503
C  C34  1  0.90220000  0.95080000  0.44070000  1.0 -0.4434500799
C  C35  1  0.66160000  0.95180000  0.43800000  1.0 -0.4586853053
C  C36  1  0.78020000  0.64470000  0.42967000  1.0 -0.4586853053
C  C37  1  0.72240000  0.45150000  0.09023000  1.0 -0.5082672462
C  C38  1  0.72230000  0.55690000  0.08616000  1.0 0.0303821752
C  C39  1  0.77970000  0.60610000  0.08420000  1.0 0.0605792503
C  C40  1  0.66400000  0.60710000  0.08126000  1.0 0.0605792503
C  C41  1  0.77940000  0.70330000  0.07752000  1.0 0.0303821752
C  C42  1  0.84100000  0.55040000  0.08595000  1.0 -0.4745041892
C  C43  1  0.66410000  0.70500000  0.07491000  1.0 0.0303821752
C  C44  1  0.60210000  0.55350000  0.08010000  1.0 -0.4586853053
C  C45  1  0.72180000  0.75410000  0.07440000  1.0 0.0731407538
C  C46  1  0.84080000  0.75610000  0.07228000  1.0 -0.5082672462
C  C47  1  0.60140000  0.75970000  0.06692000  1.0 -0.5082672462
C  C48  1  0.72210000  0.86000000  0.06940000  1.0 -0.4454787835
C  C49  1  0.78120000  0.44410000  0.93498000  1.0 -0.5082672462
C  C50  1  0.89860000  0.75640000  0.93296000  1.0 -0.5026920379
C  C51  1  0.66080000  0.75350000  0.92861000  1.0 -0.5082672462
C  C52  1  0.78150000  0.55070000  0.93793000  1.0 -0.0038712193
C  C53  1  0.83810000  0.70030000  0.93439000  1.0 0.0030002852
C  C54  1  0.72320000  0.69910000  0.93310000  1.0 0.0073149329
C  C55  1  0.83930000  0.60100000  0.93728000  1.0 0.0401430329
C  C56  1  0.72350000  0.60020000  0.93622000  1.0 0.0401430329
C  C57  1  0.78010000  0.74950000  0.93216000  1.0 0.0605792503
C  C58  1  0.90220000  0.54920000  0.94070000  1.0 -0.4434500799
C  C59  1  0.66160000  0.54820000  0.93800000  1.0 -0.4586853053
C  C60  1  0.78020000  0.85530000  0.92967000  1.0 -0.4586853053
C  C61  1  0.72240000  0.04850000  0.59023000  1.0 -0.5082672462
C  C62  1  0.72230000  0.94310000  0.58616000  1.0 0.0303821752
C  C63  1  0.77970000  0.89390000  0.58420000  1.0 0.0605792503
C  C64  1  0.66400000  0.89290000  0.58126000  1.0 0.0605792503
C  C65  1  0.77940000  0.79670000  0.57752000  1.0 0.0303821752
C  C66  1  0.84100000  0.94960000  0.58595000  1.0 -0.4745041892
C  C67  1  0.66410000  0.79500000  0.57491000  1.0 0.0303821752
C  C68  1  0.60210000  0.94650000  0.58010000  1.0 -0.4586853053
C  C69  1  0.72180000  0.74590000  0.57440000  1.0 0.0731407538
C  C70  1  0.84080000  0.74390000  0.57228000  1.0 -0.5082672462
C  C71  1  0.60140000  0.74030000  0.56692000  1.0 -0.5082672462
C  C72  1  0.72210000  0.64000000  0.56940000  1.0 -0.4454787835
C  C73  1  0.21880000  0.94410000  0.56502000  1.0 -0.5082672462
C  C74  1  0.10140000  0.25640000  0.56704000  1.0 -0.5026920379
C  C75  1  0.33920000  0.25350000  0.57139000  1.0 -0.5082672462
C  C76  1  0.21850000  0.05070000  0.56207000  1.0 -0.0038712193
C  C77  1  0.16190000  0.20030000  0.56561000  1.0 0.0030002852
C  C78  1  0.27680000  0.19910000  0.56690000  1.0 0.0073149329
C  C79  1  0.16070000  0.10100000  0.56272000  1.0 0.0401430329
C  C80  1  0.27650000  0.10020000  0.56378000  1.0 0.0401430329
C  C81  1  0.21990000  0.24950000  0.56784000  1.0 0.0605792503
C  C82  1  0.09780000  0.04920000  0.55930000  1.0 -0.4434500799
C  C83  1  0.33840000  0.04820000  0.56200000  1.0 -0.4586853053
C  C84  1  0.21980000  0.35530000  0.57033000  1.0 -0.4586853053
C  C85  1  0.27760000  0.54850000  0.90977000  1.0 -0.5082672462
C  C86  1  0.27770000  0.44310000  0.91384000  1.0 0.0303821752
C  C87  1  0.22030000  0.39390000  0.91580000  1.0 0.0605792503
C  C88  1  0.33600000  0.39290000  0.91874000  1.0 0.0605792503
C  C89  1  0.22060000  0.29670000  0.92248000  1.0 0.0303821752
C  C90  1  0.15900000  0.44960000  0.91405000  1.0 -0.4745041892
C  C91  1  0.33590000  0.29500000  0.92509000  1.0 0.0303821752
C  C92  1  0.39790000  0.44650000  0.91990000  1.0 -0.4586853053
C  C93  1  0.27820000  0.24590000  0.92560000  1.0 0.0731407538
C  C94  1  0.15920000  0.24390000  0.92772000  1.0 -0.5082672462
C  C95  1  0.39860000  0.24030000  0.93308000  1.0 -0.5082672462
C  C96  1  0.27790000  0.14000000  0.93060000  1.0 -0.4454787835
O  O1  1  0.17584000  0.54760000  0.16311000  1.0 -0.860957624
O  O2  1  0.29343000  0.54760000  0.16441000  1.0 -0.860957624
O  O3  1  0.15363000  0.20760000  0.17588000  1.0 -0.8457377568
O  O4  1  0.31582000  0.20640000  0.17720000  1.0 -0.8669197127
O  O5  1  0.21544000  0.48640000  0.29202000  1.0 -0.7396195894
O  O6  1  0.11091000  0.39800000  0.22599000  1.0 -0.7577741847
O  O7  1  0.36840000  0.40400000  0.23204000  1.0 -0.7577741847
O  O8  1  0.25666000  0.25910000  0.28587000  1.0 -0.7810781315
O  O9  1  0.12583000  0.76110000  0.18287000  1.0 -0.7504399742
O  O10  1  0.14423000  0.73500000  0.31961000  1.0 -0.7504399742
O  O11  1  0.01609000  0.73920000  0.25154000  1.0 -0.767932348
O  O12  1  0.01256000  0.50090000  0.30306000  1.0 -0.7853913471
O  O13  1  0.01180000  0.58000000  0.15130000  1.0 -0.710356401
O  O14  1  0.23183000  0.69880000  0.14246000  1.0 -0.7504399742
O  O15  1  0.48769000  0.74040000  0.24818000  1.0 -0.767932348
O  O16  1  0.39278000  0.74260000  0.32473000  1.0 -0.7504399742
O  O17  1  0.35282000  0.76550000  0.18146000  1.0 -0.7577741847
O  O18  1  0.26332000  0.67500000  0.26012000  1.0 -0.7396195894
O  O19  1  0.44449000  0.60050000  0.13977000  1.0 -0.7037475795
O  O20  1  0.50274000  0.50300000  0.30378000  1.0 -0.767932348
O  O21  1  0.34532000  0.52440000  0.33631000  1.0 -0.7037475795
O  O22  1  0.04180000  0.27270000  0.15729000  1.0 -0.7577741847
O  O23  1  0.06204000  0.10580000  0.13086000  1.0 -0.7396195894
O  O24  1  0.40047000  0.11330000  0.13636000  1.0 -0.7577741847
O  O25  1  0.42067000  0.28190000  0.16544000  1.0 -0.7504399742
O  O26  1  0.20429000  0.93770000  0.30856000  1.0 -0.8883341119
O  O27  1  0.15705000  0.98130000  0.17389000  1.0 -0.7504399742
O  O28  1  0.12212000  0.10040000  0.26573000  1.0 -0.7504399742
O  O29  1  0.04700000  0.90340000  0.36000000  1.0 -0.6936675474
O  O30  1  0.32049000  0.94080000  0.30986000  1.0 -0.8883341119
O  O31  1  0.38942000  0.09910000  0.26949000  1.0 -0.7396195894
O  O32  1  0.32193000  0.98200000  0.17503000  1.0 -0.7577741847
O  O33  1  0.50086000  0.92290000  0.35145000  1.0 -0.7396195894
O  O34  1  0.26976000  0.79610000  0.34698000  1.0 -0.7396195894
O  O35  1  0.07373000  0.21470000  0.33715000  1.0 -0.7504399742
O  O36  1  0.07019000  0.37600000  0.37939000  1.0 -0.7504399742
O  O37  1  0.15895000  0.33300000  0.32616000  1.0 -0.7504399742
O  O38  1  0.36598000  0.33650000  0.33190000  1.0 -0.7504399742
O  O39  1  0.47286000  0.37890000  0.38466000  1.0 -0.7504399742
O  O40  1  0.45495000  0.21700000  0.34273000  1.0 -0.7577741847
O  O41  1  0.82416000  0.04760000  0.33689000  1.0 -0.860957624
O  O42  1  0.70657000  0.04760000  0.33559000  1.0 -0.860957624
O  O43  1  0.84637000  0.70760000  0.32412000  1.0 -0.8457377568
O  O44  1  0.68418000  0.70640000  0.32280000  1.0 -0.8669197127
O  O45  1  0.78456000  0.98640000  0.20798000  1.0 -0.7396195894
O  O46  1  0.88909000  0.89800000  0.27401000  1.0 -0.7577741847
O  O47  1  0.63160000  0.90400000  0.26796000  1.0 -0.7577741847
O  O48  1  0.74334000  0.75910000  0.21413000  1.0 -0.7810781315
O  O49  1  0.87417000  0.26110000  0.31713000  1.0 -0.7504399742
O  O50  1  0.85577000  0.23500000  0.18039000  1.0 -0.7504399742
O  O51  1  0.98391000  0.23920000  0.24846000  1.0 -0.767932348
O  O52  1  0.98744000  0.00090000  0.19694000  1.0 -0.7853913471
O  O53  1  0.98820000  0.08000000  0.34870000  1.0 -0.710356401
O  O54  1  0.76817000  0.19880000  0.35754000  1.0 -0.7396195894
O  O55  1  0.51231000  0.24040000  0.25182000  1.0 -0.7577741847
O  O56  1  0.60722000  0.24260000  0.17527000  1.0 -0.7504399742
O  O57  1  0.64718000  0.26550000  0.31854000  1.0 -0.7577741847
O  O58  1  0.73668000  0.17500000  0.23988000  1.0 -0.7396195894
O  O59  1  0.55551000  0.10050000  0.36023000  1.0 -0.7037475795
O  O60  1  0.49726000  0.00300000  0.19622000  1.0 -0.767932348
O  O61  1  0.65468000  0.02440000  0.16369000  1.0 -0.7037475795
O  O62  1  0.95820000  0.77270000  0.34271000  1.0 -0.7577741847
O  O63  1  0.93796000  0.60580000  0.36914000  1.0 -0.7396195894
O  O64  1  0.59953000  0.61330000  0.36364000  1.0 -0.7577741847
O  O65  1  0.57933000  0.78190000  0.33456000  1.0 -0.7504399742
O  O66  1  0.79571000  0.43770000  0.19144000  1.0 -0.8883341119
O  O67  1  0.84295000  0.48130000  0.32611000  1.0 -0.7504399742
O  O68  1  0.87788000  0.60040000  0.23427000  1.0 -0.7504399742
O  O69  1  0.95300000  0.40340000  0.14000000  1.0 -0.6936675474
O  O70  1  0.67951000  0.44080000  0.19014000  1.0 -0.8883341119
O  O71  1  0.61058000  0.59910000  0.23051000  1.0 -0.7396195894
O  O72  1  0.67807000  0.48200000  0.32497000  1.0 -0.7577741847
O  O73  1  0.49914000  0.42290000  0.14855000  1.0 -0.7396195894
O  O74  1  0.73024000  0.29610000  0.15302000  1.0 -0.7396195894
O  O75  1  0.92627000  0.71470000  0.16285000  1.0 -0.7504399742
O  O76  1  0.92981000  0.87600000  0.12061000  1.0 -0.7504399742
O  O77  1  0.84105000  0.83300000  0.17384000  1.0 -0.7504399742
O  O78  1  0.63402000  0.83650000  0.16810000  1.0 -0.7504399742
O  O79  1  0.52714000  0.87890000  0.11534000  1.0 -0.7504399742
O  O80  1  0.54505000  0.71700000  0.15727000  1.0 -0.7577741847
O  O81  1  0.82416000  0.45240000  0.83689000  1.0 -0.860957624
O  O82  1  0.70657000  0.45240000  0.83559000  1.0 -0.860957624
O  O83  1  0.84637000  0.79240000  0.82412000  1.0 -0.8457377568
O  O84  1  0.68418000  0.79360000  0.82280000  1.0 -0.8669197127
O  O85  1  0.78456000  0.51360000  0.70798000  1.0 -0.7396195894
O  O86  1  0.88909000  0.60200000  0.77401000  1.0 -0.7577741847
O  O87  1  0.63160000  0.59600000  0.76796000  1.0 -0.7577741847
O  O88  1  0.74334000  0.74090000  0.71413000  1.0 -0.7810781315
O  O89  1  0.87417000  0.23890000  0.81713000  1.0 -0.7504399742
O  O90  1  0.85577000  0.26500000  0.68039000  1.0 -0.7504399742
O  O91  1  0.98391000  0.26080000  0.74846000  1.0 -0.767932348
O  O92  1  0.98744000  0.49910000  0.69694000  1.0 -0.7853913471
O  O93  1  0.98820000  0.42000000  0.84870000  1.0 -0.710356401
O  O94  1  0.76817000  0.30120000  0.85754000  1.0 -0.7396195894
O  O95  1  0.51231000  0.25960000  0.75182000  1.0 -0.7577741847
O  O96  1  0.60722000  0.25740000  0.67527000  1.0 -0.7504399742
O  O97  1  0.64718000  0.23450000  0.81854000  1.0 -0.7577741847
O  O98  1  0.73668000  0.32500000  0.73988000  1.0 -0.7396195894
O  O99  1  0.55551000  0.39950000  0.86023000  1.0 -0.7037475795
O  O100  1  0.49726000  0.49700000  0.69622000  1.0 -0.767932348
O  O101  1  0.65468000  0.47560000  0.66369000  1.0 -0.7037475795
O  O102  1  0.95820000  0.72730000  0.84271000  1.0 -0.7577741847
O  O103  1  0.93796000  0.89420000  0.86914000  1.0 -0.7396195894
O  O104  1  0.59953000  0.88670000  0.86364000  1.0 -0.7577741847
O  O105  1  0.57933000  0.71810000  0.83456000  1.0 -0.7504399742
O  O106  1  0.79571000  0.06230000  0.69144000  1.0 -0.8883341119
O  O107  1  0.84295000  0.01870000  0.82611000  1.0 -0.7504399742
O  O108  1  0.87788000  0.89960000  0.73427000  1.0 -0.7504399742
O  O109  1  0.95300000  0.09660000  0.64000000  1.0 -0.6936675474
O  O110  1  0.67951000  0.05920000  0.69014000  1.0 -0.8883341119
O  O111  1  0.61058000  0.90090000  0.73051000  1.0 -0.7396195894
O  O112  1  0.67807000  0.01800000  0.82497000  1.0 -0.7577741847
O  O113  1  0.49914000  0.07710000  0.64855000  1.0 -0.7396195894
O  O114  1  0.73024000  0.20390000  0.65302000  1.0 -0.7396195894
O  O115  1  0.92627000  0.78530000  0.66285000  1.0 -0.7504399742
O  O116  1  0.92981000  0.62400000  0.62061000  1.0 -0.7504399742
O  O117  1  0.84105000  0.66700000  0.67384000  1.0 -0.7504399742
O  O118  1  0.63402000  0.66350000  0.66810000  1.0 -0.7504399742
O  O119  1  0.52714000  0.62110000  0.61534000  1.0 -0.7504399742
O  O120  1  0.54505000  0.78300000  0.65727000  1.0 -0.7577741847
O  O121  1  0.17584000  0.95240000  0.66311000  1.0 -0.860957624
O  O122  1  0.29343000  0.95240000  0.66441000  1.0 -0.860957624
O  O123  1  0.15363000  0.29240000  0.67588000  1.0 -0.8457377568
O  O124  1  0.31582000  0.29360000  0.67720000  1.0 -0.8669197127
O  O125  1  0.21544000  0.01360000  0.79202000  1.0 -0.7396195894
O  O126  1  0.11091000  0.10200000  0.72599000  1.0 -0.7577741847
O  O127  1  0.36840000  0.09600000  0.73204000  1.0 -0.7577741847
O  O128  1  0.25666000  0.24090000  0.78587000  1.0 -0.7810781315
O  O129  1  0.12583000  0.73890000  0.68287000  1.0 -0.7504399742
O  O130  1  0.14423000  0.76500000  0.81961000  1.0 -0.7504399742
O  O131  1  0.01609000  0.76080000  0.75154000  1.0 -0.767932348
O  O132  1  0.01256000  0.99910000  0.80306000  1.0 -0.7853913471
O  O133  1  0.01180000  0.92000000  0.65130000  1.0 -0.710356401
O  O134  1  0.23183000  0.80120000  0.64246000  1.0 -0.7396195894
O  O135  1  0.48769000  0.75960000  0.74818000  1.0 -0.767932348
O  O136  1  0.39278000  0.75740000  0.82473000  1.0 -0.7504399742
O  O137  1  0.35282000  0.73450000  0.68146000  1.0 -0.7577741847
O  O138  1  0.26332000  0.82500000  0.76012000  1.0 -0.7396195894
O  O139  1  0.44449000  0.89950000  0.63977000  1.0 -0.7037475795
O  O140  1  0.50274000  0.99700000  0.80378000  1.0 -0.767932348
O  O141  1  0.34532000  0.97560000  0.83631000  1.0 -0.7037475795
O  O142  1  0.04180000  0.22730000  0.65729000  1.0 -0.7577741847
O  O143  1  0.06204000  0.39420000  0.63086000  1.0 -0.7396195894
O  O144  1  0.40047000  0.38670000  0.63636000  1.0 -0.7577741847
O  O145  1  0.42067000  0.21810000  0.66544000  1.0 -0.7504399742
O  O146  1  0.20429000  0.56230000  0.80856000  1.0 -0.8883341119
O  O147  1  0.15705000  0.51870000  0.67389000  1.0 -0.7504399742
O  O148  1  0.12212000  0.39960000  0.76573000  1.0 -0.7504399742
O  O149  1  0.04700000  0.59660000  0.86000000  1.0 -0.6936675474
O  O150  1  0.32049000  0.55920000  0.80986000  1.0 -0.8883341119
O  O151  1  0.38942000  0.40090000  0.76949000  1.0 -0.7396195894
O  O152  1  0.32193000  0.51800000  0.67503000  1.0 -0.7577741847
O  O153  1  0.50086000  0.57710000  0.85145000  1.0 -0.7396195894
O  O154  1  0.26976000  0.70390000  0.84698000  1.0 -0.7396195894
O  O155  1  0.07373000  0.28530000  0.83715000  1.0 -0.7504399742
O  O156  1  0.07019000  0.12400000  0.87939000  1.0 -0.7504399742
O  O157  1  0.15895000  0.16700000  0.82616000  1.0 -0.7504399742
O  O158  1  0.36598000  0.16350000  0.83190000  1.0 -0.7504399742
O  O159  1  0.47286000  0.12110000  0.88466000  1.0 -0.7504399742
O  O160  1  0.45495000  0.28300000  0.84273000  1.0 -0.7577741847
