# DDEC6 charges by PACMAN v1.1 (https://github.com/mtap-research/PACMAN-charge/)
data_RIYBAE_FSR_pacman
_symmetry_space_group_name_H-M   'P 1'
_cell_length_a   13.89330000
_cell_length_b   27.77400000
_cell_length_c   44.58500000
_cell_angle_alpha   90.00000000
_cell_angle_beta   90.00000000
_cell_angle_gamma   90.00000000
_symmetry_Int_Tables_number   1
_chemical_formula_structural   Zn3H56Pd2C78S4I6(N8O)2
_chemical_formula_sum   'Zn24 H448 Pd16 C624 S32 I48 N128 O16'
_cell_volume   17204.12604561
_cell_formula_units_Z   8
loop_
 _symmetry_equiv_pos_site_id
 _symmetry_equiv_pos_as_xyz
  1  'x, y, z'
loop_
 _atom_site_type_symbol
 _atom_site_label
 _atom_site_symmetry_multiplicity
 _atom_site_fract_x
 _atom_site_fract_y
 _atom_site_fract_z
 _atom_site_occupancy
 _atom_site_charge
Zn  Zn1  1  0.32326000  0.25844000  0.81995000  1.0 0.463181994
Zn  Zn2  1  0.67674000  0.24156000  0.31995000  1.0 0.463181994
Zn  Zn3  1  0.82326000  0.74156000  0.68005000  1.0 0.463181994
Zn  Zn4  1  0.17674000  0.75844000  0.18005000  1.0 0.463181994
Zn  Zn5  1  0.62037000  0.52501000  0.58526000  1.0 0.4815792432
Zn  Zn6  1  0.37963000  0.97499000  0.08526000  1.0 0.4815792432
Zn  Zn7  1  0.12037000  0.47499000  0.91474000  1.0 0.4815792432
Zn  Zn8  1  0.87963000  0.02501000  0.41474000  1.0 0.4815792432
Zn  Zn9  1  0.64696000  0.04854000  0.58660000  1.0 0.4861683911
Zn  Zn10  1  0.35304000  0.45146000  0.08660000  1.0 0.4861683911
Zn  Zn11  1  0.14696000  0.95146000  0.91340000  1.0 0.4861683911
Zn  Zn12  1  0.85304000  0.54854000  0.41340000  1.0 0.4861683911
Zn  Zn13  1  0.67674000  0.74156000  0.18005000  1.0 0.463181994
Zn  Zn14  1  0.32326000  0.75844000  0.68005000  1.0 0.463181994
Zn  Zn15  1  0.17674000  0.25844000  0.31995000  1.0 0.463181994
Zn  Zn16  1  0.82326000  0.24156000  0.81995000  1.0 0.463181994
Zn  Zn17  1  0.37963000  0.47499000  0.41474000  1.0 0.4815792432
Zn  Zn18  1  0.62037000  0.02501000  0.91474000  1.0 0.4815792432
Zn  Zn19  1  0.87963000  0.52501000  0.08526000  1.0 0.4815792432
Zn  Zn20  1  0.12037000  0.97499000  0.58526000  1.0 0.4815792432
Zn  Zn21  1  0.35304000  0.95146000  0.41340000  1.0 0.4861683911
Zn  Zn22  1  0.64696000  0.54854000  0.91340000  1.0 0.4861683911
Zn  Zn23  1  0.85304000  0.04854000  0.08660000  1.0 0.4861683911
Zn  Zn24  1  0.14696000  0.45146000  0.58660000  1.0 0.4861683911
H  H1  1  0.63000000  0.26300000  0.54830000  1.0 0.1301049278
H  H2  1  0.37000000  0.23700000  0.04830000  1.0 0.1301049278
H  H3  1  0.13000000  0.73700000  0.95170000  1.0 0.1301049278
H  H4  1  0.87000000  0.76300000  0.45170000  1.0 0.1301049278
H  H5  1  0.54490000  0.29650000  0.53610000  1.0 0.1405794229
H  H6  1  0.45510000  0.20350000  0.03610000  1.0 0.1405794229
H  H7  1  0.04490000  0.70350000  0.96390000  1.0 0.1405794229
H  H8  1  0.95510000  0.79650000  0.46390000  1.0 0.1405794229
H  H9  1  0.60250000  0.31140000  0.56580000  1.0 0.1200487333
H  H10  1  0.39750000  0.18860000  0.06580000  1.0 0.1200487333
H  H11  1  0.10250000  0.68860000  0.93420000  1.0 0.1200487333
H  H12  1  0.89750000  0.81140000  0.43420000  1.0 0.1200487333
H  H13  1  0.91170000  0.74050000  0.50250000  1.0 0.1009217942
H  H14  1  0.08830000  0.75950000  0.00250000  1.0 0.1009217942
H  H15  1  0.41170000  0.25950000  0.99750000  1.0 0.1009217942
H  H16  1  0.58830000  0.24050000  0.49750000  1.0 0.1009217942
H  H17  1  0.88500000  0.68460000  0.50550000  1.0 0.1009217942
H  H18  1  0.11500000  0.81540000  0.00550000  1.0 0.1009217942
H  H19  1  0.38500000  0.31540000  0.99450000  1.0 0.1009217942
H  H20  1  0.61500000  0.18460000  0.49450000  1.0 0.1009217942
H  H21  1  0.96790000  0.70730000  0.52600000  1.0 0.0606562046
H  H22  1  0.03210000  0.79270000  0.02600000  1.0 0.0606562046
H  H23  1  0.46790000  0.29270000  0.97400000  1.0 0.0606562046
H  H24  1  0.53210000  0.20730000  0.47400000  1.0 0.0606562046
H  H25  1  0.29020000  0.78230000  0.25750000  1.0 0.0807530847
H  H26  1  0.70980000  0.71770000  0.75750000  1.0 0.0807530847
H  H27  1  0.79020000  0.21770000  0.24250000  1.0 0.0807530847
H  H28  1  0.20980000  0.28230000  0.74250000  1.0 0.0807530847
H  H29  1  0.29620000  0.70010000  0.24620000  1.0 0.093294822
H  H30  1  0.70380000  0.79990000  0.74620000  1.0 0.093294822
H  H31  1  0.79620000  0.29990000  0.25380000  1.0 0.093294822
H  H32  1  0.20380000  0.20010000  0.75380000  1.0 0.093294822
H  H33  1  0.25690000  0.64320000  0.28300000  1.0 0.1101841496
H  H34  1  0.74310000  0.85680000  0.78300000  1.0 0.1101841496
H  H35  1  0.75690000  0.35680000  0.21700000  1.0 0.1101841496
H  H36  1  0.24310000  0.14320000  0.71700000  1.0 0.1101841496
H  H37  1  0.21940000  0.59480000  0.31700000  1.0 0.0807530847
H  H38  1  0.78060000  0.90520000  0.81700000  1.0 0.0807530847
H  H39  1  0.71940000  0.40520000  0.18300000  1.0 0.0807530847
H  H40  1  0.28060000  0.09480000  0.68300000  1.0 0.0807530847
H  H41  1  0.18830000  0.54180000  0.35660000  1.0 0.0807530847
H  H42  1  0.81170000  0.95820000  0.85660000  1.0 0.0807530847
H  H43  1  0.68830000  0.45820000  0.14340000  1.0 0.0807530847
H  H44  1  0.31170000  0.04180000  0.64340000  1.0 0.0807530847
H  H45  1  0.15290000  0.57200000  0.40430000  1.0 0.0606562046
H  H46  1  0.84710000  0.92800000  0.90430000  1.0 0.0606562046
H  H47  1  0.65290000  0.42800000  0.09570000  1.0 0.0606562046
H  H48  1  0.34710000  0.07200000  0.59570000  1.0 0.0606562046
H  H49  1  0.14870000  0.65520000  0.41250000  1.0 0.1101841496
H  H50  1  0.85130000  0.84480000  0.91250000  1.0 0.1101841496
H  H51  1  0.64870000  0.34480000  0.08750000  1.0 0.1101841496
H  H52  1  0.35130000  0.15520000  0.58750000  1.0 0.1101841496
H  H53  1  0.13730000  0.72950000  0.41940000  1.0 0.1301049278
H  H54  1  0.86270000  0.77050000  0.91940000  1.0 0.1301049278
H  H55  1  0.63730000  0.27050000  0.08060000  1.0 0.1301049278
H  H56  1  0.36270000  0.22950000  0.58060000  1.0 0.1301049278
H  H57  1  0.12750000  0.81340000  0.42310000  1.0 0.1101841496
H  H58  1  0.87250000  0.68660000  0.92310000  1.0 0.1101841496
H  H59  1  0.62750000  0.18660000  0.07690000  1.0 0.1101841496
H  H60  1  0.37250000  0.31340000  0.57690000  1.0 0.1101841496
H  H61  1  0.16140000  0.86140000  0.38130000  1.0 0.093294822
H  H62  1  0.83860000  0.63860000  0.88130000  1.0 0.093294822
H  H63  1  0.66140000  0.13860000  0.11870000  1.0 0.093294822
H  H64  1  0.33860000  0.36140000  0.61870000  1.0 0.093294822
H  H65  1  0.28120000  0.04850000  0.29570000  1.0 0.1301049278
H  H66  1  0.71880000  0.45150000  0.79570000  1.0 0.1301049278
H  H67  1  0.78120000  0.95150000  0.20430000  1.0 0.1301049278
H  H68  1  0.21880000  0.54850000  0.70430000  1.0 0.1301049278
H  H69  1  0.19190000  0.02260000  0.31160000  1.0 0.1200487333
H  H70  1  0.80810000  0.47740000  0.81160000  1.0 0.1200487333
H  H71  1  0.69190000  0.97740000  0.18840000  1.0 0.1200487333
H  H72  1  0.30810000  0.52260000  0.68840000  1.0 0.1200487333
H  H73  1  0.29870000  0.01410000  0.32390000  1.0 0.1200487333
H  H74  1  0.70130000  0.48590000  0.82390000  1.0 0.1200487333
H  H75  1  0.79870000  0.98590000  0.17610000  1.0 0.1200487333
H  H76  1  0.20130000  0.51410000  0.67610000  1.0 0.1200487333
H  H77  1  0.43860000  0.20140000  0.77680000  1.0 0.1101841496
H  H78  1  0.56140000  0.29860000  0.27680000  1.0 0.1101841496
H  H79  1  0.93860000  0.79860000  0.72320000  1.0 0.1101841496
H  H80  1  0.06140000  0.70140000  0.22320000  1.0 0.1101841496
H  H81  1  0.49980000  0.20790000  0.72870000  1.0 0.1561615551
H  H82  1  0.50020000  0.29210000  0.22870000  1.0 0.1561615551
H  H83  1  0.99980000  0.79210000  0.77130000  1.0 0.1561615551
H  H84  1  0.00020000  0.70790000  0.27130000  1.0 0.1561615551
H  H85  1  0.44650000  0.35090000  0.73150000  1.0 0.1405794229
H  H86  1  0.55350000  0.14910000  0.23150000  1.0 0.1405794229
H  H87  1  0.94650000  0.64910000  0.76850000  1.0 0.1405794229
H  H88  1  0.05350000  0.85090000  0.26850000  1.0 0.1405794229
H  H89  1  0.38040000  0.33960000  0.77890000  1.0 0.1101841496
H  H90  1  0.61960000  0.16040000  0.27890000  1.0 0.1101841496
H  H91  1  0.88040000  0.66040000  0.72110000  1.0 0.1101841496
H  H92  1  0.11960000  0.83960000  0.22110000  1.0 0.1101841496
H  H93  1  0.55930000  0.48910000  0.64610000  1.0 0.1101841496
H  H94  1  0.44070000  0.01090000  0.14610000  1.0 0.1101841496
H  H95  1  0.05930000  0.51090000  0.85390000  1.0 0.1101841496
H  H96  1  0.94070000  0.98910000  0.35390000  1.0 0.1101841496
H  H97  1  0.53120000  0.41860000  0.67120000  1.0 0.1405794229
H  H98  1  0.46880000  0.08140000  0.17120000  1.0 0.1405794229
H  H99  1  0.03120000  0.58140000  0.82880000  1.0 0.1405794229
H  H100  1  0.96880000  0.91860000  0.32880000  1.0 0.1405794229
H  H101  1  0.58730000  0.34620000  0.59480000  1.0 0.1301049278
H  H102  1  0.41270000  0.15380000  0.09480000  1.0 0.1301049278
H  H103  1  0.08730000  0.65380000  0.90520000  1.0 0.1301049278
H  H104  1  0.91270000  0.84620000  0.40520000  1.0 0.1301049278
H  H105  1  0.61200000  0.41890000  0.57100000  1.0 0.1200487333
H  H106  1  0.38800000  0.08110000  0.07100000  1.0 0.1200487333
H  H107  1  0.11200000  0.58110000  0.92900000  1.0 0.1200487333
H  H108  1  0.88800000  0.91890000  0.42900000  1.0 0.1200487333
H  H109  1  0.63750000  0.15500000  0.57080000  1.0 0.1301049278
H  H110  1  0.36250000  0.34500000  0.07080000  1.0 0.1301049278
H  H111  1  0.13750000  0.84500000  0.92920000  1.0 0.1301049278
H  H112  1  0.86250000  0.65500000  0.42920000  1.0 0.1301049278
H  H113  1  0.60300000  0.22770000  0.59290000  1.0 0.1561615551
H  H114  1  0.39700000  0.27230000  0.09290000  1.0 0.1561615551
H  H115  1  0.10300000  0.77230000  0.90710000  1.0 0.1561615551
H  H116  1  0.89700000  0.72770000  0.40710000  1.0 0.1561615551
H  H117  1  0.53440000  0.15550000  0.66900000  1.0 0.1561615551
H  H118  1  0.46560000  0.34450000  0.16900000  1.0 0.1561615551
H  H119  1  0.03440000  0.84450000  0.83100000  1.0 0.1561615551
H  H120  1  0.96560000  0.65550000  0.33100000  1.0 0.1561615551
H  H121  1  0.56350000  0.08480000  0.64360000  1.0 0.1200487333
H  H122  1  0.43650000  0.41520000  0.14360000  1.0 0.1200487333
H  H123  1  0.06350000  0.91520000  0.85640000  1.0 0.1200487333
H  H124  1  0.93650000  0.58480000  0.35640000  1.0 0.1200487333
H  H125  1  0.45570000  0.02950000  0.55730000  1.0 0.1101841496
H  H126  1  0.54430000  0.47050000  0.05730000  1.0 0.1101841496
H  H127  1  0.95570000  0.97050000  0.94270000  1.0 0.1101841496
H  H128  1  0.04430000  0.52950000  0.44270000  1.0 0.1101841496
H  H129  1  0.37510000  0.04930000  0.51300000  1.0 0.1405794229
H  H130  1  0.62490000  0.45070000  0.01300000  1.0 0.1405794229
H  H131  1  0.87510000  0.95070000  0.98700000  1.0 0.1405794229
H  H132  1  0.12490000  0.54930000  0.48700000  1.0 0.1405794229
H  H133  1  0.62550000  0.09700000  0.47850000  1.0 0.1405794229
H  H134  1  0.37450000  0.40300000  0.97850000  1.0 0.1405794229
H  H135  1  0.12550000  0.90300000  0.02150000  1.0 0.1405794229
H  H136  1  0.87450000  0.59700000  0.52150000  1.0 0.1405794229
H  H137  1  0.69960000  0.07660000  0.52280000  1.0 0.1101841496
H  H138  1  0.30040000  0.42340000  0.02280000  1.0 0.1101841496
H  H139  1  0.19960000  0.92340000  0.97720000  1.0 0.1101841496
H  H140  1  0.80040000  0.57660000  0.47720000  1.0 0.1101841496
H  H141  1  0.70660000  0.19270000  0.37780000  1.0 0.1200487333
H  H142  1  0.29340000  0.30730000  0.87780000  1.0 0.1200487333
H  H143  1  0.20660000  0.80730000  0.12220000  1.0 0.1200487333
H  H144  1  0.79340000  0.69270000  0.62220000  1.0 0.1200487333
H  H145  1  0.62390000  0.15720000  0.41680000  1.0 0.1489164535
H  H146  1  0.37610000  0.34280000  0.91680000  1.0 0.1489164535
H  H147  1  0.12390000  0.84280000  0.08320000  1.0 0.1405794229
H  H148  1  0.87610000  0.65720000  0.58320000  1.0 0.1405794229
H  H149  1  0.38300000  0.16720000  0.36740000  1.0 0.1405794229
H  H150  1  0.61700000  0.33280000  0.86740000  1.0 0.1405794229
H  H151  1  0.88300000  0.83280000  0.13260000  1.0 0.1405794229
H  H152  1  0.11700000  0.66720000  0.63260000  1.0 0.1405794229
H  H153  1  0.47270000  0.20650000  0.33100000  1.0 0.1101841496
H  H154  1  0.52730000  0.29350000  0.83100000  1.0 0.1101841496
H  H155  1  0.97270000  0.79350000  0.16900000  1.0 0.1101841496
H  H156  1  0.02730000  0.70650000  0.66900000  1.0 0.1101841496
H  H157  1  0.03640000  0.07610000  0.38090000  1.0 0.1200487333
H  H158  1  0.96360000  0.42390000  0.88090000  1.0 0.1200487333
H  H159  1  0.53640000  0.92390000  0.11910000  1.0 0.1200487333
H  H160  1  0.46360000  0.57610000  0.61910000  1.0 0.1200487333
H  H161  1  0.19390000  0.10250000  0.38790000  1.0 0.1405794229
H  H162  1  0.80610000  0.39750000  0.88790000  1.0 0.1405794229
H  H163  1  0.69390000  0.89750000  0.11210000  1.0 0.1405794229
H  H164  1  0.30610000  0.60250000  0.61210000  1.0 0.1405794229
H  H165  1  0.17530000  0.06180000  0.47500000  1.0 0.1405794229
H  H166  1  0.82470000  0.43820000  0.97500000  1.0 0.1405794229
H  H167  1  0.67530000  0.93820000  0.02500000  1.0 0.1405794229
H  H168  1  0.32470000  0.56180000  0.52500000  1.0 0.1405794229
H  H169  1  0.01880000  0.03800000  0.46620000  1.0 0.1200487333
H  H170  1  0.98120000  0.46200000  0.96620000  1.0 0.1200487333
H  H171  1  0.51880000  0.96200000  0.03380000  1.0 0.1200487333
H  H172  1  0.48120000  0.53800000  0.53380000  1.0 0.1200487333
H  H173  1  0.15700000  0.82550000  0.39110000  1.0 0.1101841496
H  H174  1  0.84300000  0.67450000  0.89110000  1.0 0.1101841496
H  H175  1  0.65700000  0.17450000  0.10890000  1.0 0.1101841496
H  H176  1  0.34300000  0.32550000  0.60890000  1.0 0.1101841496
H  H177  1  0.20680000  0.85750000  0.34510000  1.0 0.1009217942
H  H178  1  0.79320000  0.64250000  0.84510000  1.0 0.1009217942
H  H179  1  0.70680000  0.14250000  0.15490000  1.0 0.1009217942
H  H180  1  0.29320000  0.35750000  0.65490000  1.0 0.1009217942
H  H181  1  0.24820000  0.80590000  0.30560000  1.0 0.1101841496
H  H182  1  0.75180000  0.69410000  0.80560000  1.0 0.1101841496
H  H183  1  0.74820000  0.19410000  0.19440000  1.0 0.1101841496
H  H184  1  0.25180000  0.30590000  0.69440000  1.0 0.1101841496
H  H185  1  0.27800000  0.75940000  0.27170000  1.0 0.0807530847
H  H186  1  0.72200000  0.74060000  0.77170000  1.0 0.0807530847
H  H187  1  0.77800000  0.24060000  0.22830000  1.0 0.0807530847
H  H188  1  0.22200000  0.25940000  0.72830000  1.0 0.0807530847
H  H189  1  0.31420000  0.70230000  0.23470000  1.0 0.0807530847
H  H190  1  0.68580000  0.79770000  0.73470000  1.0 0.0807530847
H  H191  1  0.81420000  0.29770000  0.26530000  1.0 0.0807530847
H  H192  1  0.18580000  0.20230000  0.76530000  1.0 0.0807530847
H  H193  1  0.30340000  0.62010000  0.24570000  1.0 0.1101841496
H  H194  1  0.69660000  0.87990000  0.74570000  1.0 0.1101841496
H  H195  1  0.80340000  0.37990000  0.25430000  1.0 0.1101841496
H  H196  1  0.19660000  0.12010000  0.75430000  1.0 0.1101841496
H  H197  1  0.25660000  0.59500000  0.29360000  1.0 0.0807530847
H  H198  1  0.74340000  0.90500000  0.79360000  1.0 0.0807530847
H  H199  1  0.75660000  0.40500000  0.20640000  1.0 0.0807530847
H  H200  1  0.24340000  0.09500000  0.70640000  1.0 0.0807530847
H  H201  1  0.21250000  0.56790000  0.33370000  1.0 0.0807530847
H  H202  1  0.78750000  0.93210000  0.83370000  1.0 0.0807530847
H  H203  1  0.71250000  0.43210000  0.16630000  1.0 0.0807530847
H  H204  1  0.28750000  0.06790000  0.66630000  1.0 0.0807530847
H  H205  1  0.16540000  0.54630000  0.38230000  1.0 0.0699377489
H  H206  1  0.83460000  0.95370000  0.88230000  1.0 0.0699377489
H  H207  1  0.66540000  0.45370000  0.11770000  1.0 0.0699377489
H  H208  1  0.33460000  0.04630000  0.61770000  1.0 0.0699377489
H  H209  1  0.13380000  0.60600000  0.41800000  1.0 0.093294822
H  H210  1  0.86620000  0.89400000  0.91800000  1.0 0.093294822
H  H211  1  0.63380000  0.39400000  0.08200000  1.0 0.093294822
H  H212  1  0.36620000  0.10600000  0.58200000  1.0 0.093294822
H  H213  1  0.93760000  0.73490000  0.53300000  1.0 0.1101841496
H  H214  1  0.06240000  0.76510000  0.03300000  1.0 0.1101841496
H  H215  1  0.43760000  0.26510000  0.96700000  1.0 0.1101841496
H  H216  1  0.56240000  0.23490000  0.46700000  1.0 0.1101841496
H  H217  1  0.90930000  0.70550000  0.50340000  1.0 0.0606562046
H  H218  1  0.09070000  0.79450000  0.00340000  1.0 0.0606562046
H  H219  1  0.40930000  0.29450000  0.99660000  1.0 0.0606562046
H  H220  1  0.59070000  0.20550000  0.49660000  1.0 0.0606562046
H  H221  1  0.01050000  0.69590000  0.51950000  1.0 0.0807530847
H  H222  1  0.98950000  0.80410000  0.01950000  1.0 0.0807530847
H  H223  1  0.51050000  0.30410000  0.98050000  1.0 0.0807530847
H  H224  1  0.48950000  0.19590000  0.48050000  1.0 0.0807530847
H  H225  1  0.37000000  0.73700000  0.45170000  1.0 0.1301049278
H  H226  1  0.63000000  0.76300000  0.95170000  1.0 0.1301049278
H  H227  1  0.87000000  0.26300000  0.04830000  1.0 0.1301049278
H  H228  1  0.13000000  0.23700000  0.54830000  1.0 0.1301049278
H  H229  1  0.45510000  0.70350000  0.46390000  1.0 0.1405794229
H  H230  1  0.54490000  0.79650000  0.96390000  1.0 0.1405794229
H  H231  1  0.95510000  0.29650000  0.03610000  1.0 0.1405794229
H  H232  1  0.04490000  0.20350000  0.53610000  1.0 0.1405794229
H  H233  1  0.39750000  0.68860000  0.43420000  1.0 0.1200487333
H  H234  1  0.60250000  0.81140000  0.93420000  1.0 0.1200487333
H  H235  1  0.89750000  0.31140000  0.06580000  1.0 0.1200487333
H  H236  1  0.10250000  0.18860000  0.56580000  1.0 0.1200487333
H  H237  1  0.08830000  0.25950000  0.49750000  1.0 0.1009217942
H  H238  1  0.91170000  0.24050000  0.99750000  1.0 0.1009217942
H  H239  1  0.58830000  0.74050000  0.00250000  1.0 0.1009217942
H  H240  1  0.41170000  0.75950000  0.50250000  1.0 0.1009217942
H  H241  1  0.11500000  0.31540000  0.49450000  1.0 0.1009217942
H  H242  1  0.88500000  0.18460000  0.99450000  1.0 0.1009217942
H  H243  1  0.61500000  0.68460000  0.00550000  1.0 0.1009217942
H  H244  1  0.38500000  0.81540000  0.50550000  1.0 0.1009217942
H  H245  1  0.03210000  0.29270000  0.47400000  1.0 0.0606562046
H  H246  1  0.96790000  0.20730000  0.97400000  1.0 0.0606562046
H  H247  1  0.53210000  0.70730000  0.02600000  1.0 0.0606562046
H  H248  1  0.46790000  0.79270000  0.52600000  1.0 0.0606562046
H  H249  1  0.70980000  0.21770000  0.74250000  1.0 0.0807530847
H  H250  1  0.29020000  0.28230000  0.24250000  1.0 0.0807530847
H  H251  1  0.20980000  0.78230000  0.75750000  1.0 0.0807530847
H  H252  1  0.79020000  0.71770000  0.25750000  1.0 0.0807530847
H  H253  1  0.70380000  0.29990000  0.75380000  1.0 0.093294822
H  H254  1  0.29620000  0.20010000  0.25380000  1.0 0.093294822
H  H255  1  0.20380000  0.70010000  0.74620000  1.0 0.093294822
H  H256  1  0.79620000  0.79990000  0.24620000  1.0 0.093294822
H  H257  1  0.74310000  0.35680000  0.71700000  1.0 0.1101841496
H  H258  1  0.25690000  0.14320000  0.21700000  1.0 0.1101841496
H  H259  1  0.24310000  0.64320000  0.78300000  1.0 0.1101841496
H  H260  1  0.75690000  0.85680000  0.28300000  1.0 0.1101841496
H  H261  1  0.78060000  0.40520000  0.68300000  1.0 0.0807530847
H  H262  1  0.21940000  0.09480000  0.18300000  1.0 0.0807530847
H  H263  1  0.28060000  0.59480000  0.81700000  1.0 0.0807530847
H  H264  1  0.71940000  0.90520000  0.31700000  1.0 0.0807530847
H  H265  1  0.81170000  0.45820000  0.64340000  1.0 0.0807530847
H  H266  1  0.18830000  0.04180000  0.14340000  1.0 0.0807530847
H  H267  1  0.31170000  0.54180000  0.85660000  1.0 0.0807530847
H  H268  1  0.68830000  0.95820000  0.35660000  1.0 0.0807530847
H  H269  1  0.84710000  0.42800000  0.59570000  1.0 0.0606562046
H  H270  1  0.15290000  0.07200000  0.09570000  1.0 0.0606562046
H  H271  1  0.34710000  0.57200000  0.90430000  1.0 0.0606562046
H  H272  1  0.65290000  0.92800000  0.40430000  1.0 0.0606562046
H  H273  1  0.85130000  0.34480000  0.58750000  1.0 0.1101841496
H  H274  1  0.14870000  0.15520000  0.08750000  1.0 0.1101841496
H  H275  1  0.35130000  0.65520000  0.91250000  1.0 0.1101841496
H  H276  1  0.64870000  0.84480000  0.41250000  1.0 0.1101841496
H  H277  1  0.86270000  0.27050000  0.58060000  1.0 0.1301049278
H  H278  1  0.13730000  0.22950000  0.08060000  1.0 0.1301049278
H  H279  1  0.36270000  0.72950000  0.91940000  1.0 0.1301049278
H  H280  1  0.63730000  0.77050000  0.41940000  1.0 0.1301049278
H  H281  1  0.87250000  0.18660000  0.57690000  1.0 0.1101841496
H  H282  1  0.12750000  0.31340000  0.07690000  1.0 0.1101841496
H  H283  1  0.37250000  0.81340000  0.92310000  1.0 0.1101841496
H  H284  1  0.62750000  0.68660000  0.42310000  1.0 0.1101841496
H  H285  1  0.83860000  0.13860000  0.61870000  1.0 0.093294822
H  H286  1  0.16140000  0.36140000  0.11870000  1.0 0.093294822
H  H287  1  0.33860000  0.86140000  0.88130000  1.0 0.093294822
H  H288  1  0.66140000  0.63860000  0.38130000  1.0 0.093294822
H  H289  1  0.71880000  0.95150000  0.70430000  1.0 0.1301049278
H  H290  1  0.28120000  0.54850000  0.20430000  1.0 0.1301049278
H  H291  1  0.21880000  0.04850000  0.79570000  1.0 0.1301049278
H  H292  1  0.78120000  0.45150000  0.29570000  1.0 0.1301049278
H  H293  1  0.80810000  0.97740000  0.68840000  1.0 0.1200487333
H  H294  1  0.19190000  0.52260000  0.18840000  1.0 0.1200487333
H  H295  1  0.30810000  0.02260000  0.81160000  1.0 0.1200487333
H  H296  1  0.69190000  0.47740000  0.31160000  1.0 0.1200487333
H  H297  1  0.70130000  0.98590000  0.67610000  1.0 0.1200487333
H  H298  1  0.29870000  0.51410000  0.17610000  1.0 0.1200487333
H  H299  1  0.20130000  0.01410000  0.82390000  1.0 0.1200487333
H  H300  1  0.79870000  0.48590000  0.32390000  1.0 0.1200487333
H  H301  1  0.56140000  0.79860000  0.22320000  1.0 0.1101841496
H  H302  1  0.43860000  0.70140000  0.72320000  1.0 0.1101841496
H  H303  1  0.06140000  0.20140000  0.27680000  1.0 0.1101841496
H  H304  1  0.93860000  0.29860000  0.77680000  1.0 0.1101841496
H  H305  1  0.50020000  0.79210000  0.27130000  1.0 0.1561615551
H  H306  1  0.49980000  0.70790000  0.77130000  1.0 0.1561615551
H  H307  1  0.00020000  0.20790000  0.22870000  1.0 0.1561615551
H  H308  1  0.99980000  0.29210000  0.72870000  1.0 0.1561615551
H  H309  1  0.55350000  0.64910000  0.26850000  1.0 0.1405794229
H  H310  1  0.44650000  0.85090000  0.76850000  1.0 0.1405794229
H  H311  1  0.05350000  0.35090000  0.23150000  1.0 0.1405794229
H  H312  1  0.94650000  0.14910000  0.73150000  1.0 0.1405794229
H  H313  1  0.61960000  0.66040000  0.22110000  1.0 0.1101841496
H  H314  1  0.38040000  0.83960000  0.72110000  1.0 0.1101841496
H  H315  1  0.11960000  0.33960000  0.27890000  1.0 0.1101841496
H  H316  1  0.88040000  0.16040000  0.77890000  1.0 0.1101841496
H  H317  1  0.44070000  0.51090000  0.35390000  1.0 0.1101841496
H  H318  1  0.55930000  0.98910000  0.85390000  1.0 0.1101841496
H  H319  1  0.94070000  0.48910000  0.14610000  1.0 0.1101841496
H  H320  1  0.05930000  0.01090000  0.64610000  1.0 0.1101841496
H  H321  1  0.46880000  0.58140000  0.32880000  1.0 0.1405794229
H  H322  1  0.53120000  0.91860000  0.82880000  1.0 0.1405794229
H  H323  1  0.96880000  0.41860000  0.17120000  1.0 0.1405794229
H  H324  1  0.03120000  0.08140000  0.67120000  1.0 0.1405794229
H  H325  1  0.41270000  0.65380000  0.40520000  1.0 0.1301049278
H  H326  1  0.58730000  0.84620000  0.90520000  1.0 0.1301049278
H  H327  1  0.91270000  0.34620000  0.09480000  1.0 0.1301049278
H  H328  1  0.08730000  0.15380000  0.59480000  1.0 0.1301049278
H  H329  1  0.38800000  0.58110000  0.42900000  1.0 0.1200487333
H  H330  1  0.61200000  0.91890000  0.92900000  1.0 0.1200487333
H  H331  1  0.88800000  0.41890000  0.07100000  1.0 0.1200487333
H  H332  1  0.11200000  0.08110000  0.57100000  1.0 0.1200487333
H  H333  1  0.36250000  0.84500000  0.42920000  1.0 0.1301049278
H  H334  1  0.63750000  0.65500000  0.92920000  1.0 0.1301049278
H  H335  1  0.86250000  0.15500000  0.07080000  1.0 0.1301049278
H  H336  1  0.13750000  0.34500000  0.57080000  1.0 0.1301049278
H  H337  1  0.39700000  0.77230000  0.40710000  1.0 0.1561615551
H  H338  1  0.60300000  0.72770000  0.90710000  1.0 0.1561615551
H  H339  1  0.89700000  0.22770000  0.09290000  1.0 0.1561615551
H  H340  1  0.10300000  0.27230000  0.59290000  1.0 0.1561615551
H  H341  1  0.46560000  0.84450000  0.33100000  1.0 0.1561615551
H  H342  1  0.53440000  0.65550000  0.83100000  1.0 0.1561615551
H  H343  1  0.96560000  0.15550000  0.16900000  1.0 0.1561615551
H  H344  1  0.03440000  0.34450000  0.66900000  1.0 0.1561615551
H  H345  1  0.43650000  0.91520000  0.35640000  1.0 0.1200487333
H  H346  1  0.56350000  0.58480000  0.85640000  1.0 0.1200487333
H  H347  1  0.93650000  0.08480000  0.14360000  1.0 0.1200487333
H  H348  1  0.06350000  0.41520000  0.64360000  1.0 0.1200487333
H  H349  1  0.54430000  0.97050000  0.44270000  1.0 0.1101841496
H  H350  1  0.45570000  0.52950000  0.94270000  1.0 0.1101841496
H  H351  1  0.04430000  0.02950000  0.05730000  1.0 0.1101841496
H  H352  1  0.95570000  0.47050000  0.55730000  1.0 0.1101841496
H  H353  1  0.62490000  0.95070000  0.48700000  1.0 0.1405794229
H  H354  1  0.37510000  0.54930000  0.98700000  1.0 0.1405794229
H  H355  1  0.12490000  0.04930000  0.01300000  1.0 0.1405794229
H  H356  1  0.87510000  0.45070000  0.51300000  1.0 0.1405794229
H  H357  1  0.37450000  0.90300000  0.52150000  1.0 0.1405794229
H  H358  1  0.62550000  0.59700000  0.02150000  1.0 0.1405794229
H  H359  1  0.87450000  0.09700000  0.97850000  1.0 0.1405794229
H  H360  1  0.12550000  0.40300000  0.47850000  1.0 0.1405794229
H  H361  1  0.30040000  0.92340000  0.47720000  1.0 0.1101841496
H  H362  1  0.69960000  0.57660000  0.97720000  1.0 0.1101841496
H  H363  1  0.80040000  0.07660000  0.02280000  1.0 0.1101841496
H  H364  1  0.19960000  0.42340000  0.52280000  1.0 0.1101841496
H  H365  1  0.29340000  0.80730000  0.62220000  1.0 0.1200487333
H  H366  1  0.70660000  0.69270000  0.12220000  1.0 0.1200487333
H  H367  1  0.79340000  0.19270000  0.87780000  1.0 0.1200487333
H  H368  1  0.20660000  0.30730000  0.37780000  1.0 0.1200487333
H  H369  1  0.37610000  0.84280000  0.58320000  1.0 0.1405794229
H  H370  1  0.62390000  0.65720000  0.08320000  1.0 0.1405794229
H  H371  1  0.87610000  0.15720000  0.91680000  1.0 0.1489164535
H  H372  1  0.12390000  0.34280000  0.41680000  1.0 0.1489164535
H  H373  1  0.61700000  0.83280000  0.63260000  1.0 0.1405794229
H  H374  1  0.38300000  0.66720000  0.13260000  1.0 0.1405794229
H  H375  1  0.11700000  0.16720000  0.86740000  1.0 0.1405794229
H  H376  1  0.88300000  0.33280000  0.36740000  1.0 0.1405794229
H  H377  1  0.52730000  0.79350000  0.66900000  1.0 0.1101841496
H  H378  1  0.47270000  0.70650000  0.16900000  1.0 0.1101841496
H  H379  1  0.02730000  0.20650000  0.83100000  1.0 0.1101841496
H  H380  1  0.97270000  0.29350000  0.33100000  1.0 0.1101841496
H  H381  1  0.96360000  0.92390000  0.61910000  1.0 0.1200487333
H  H382  1  0.03640000  0.57610000  0.11910000  1.0 0.1200487333
H  H383  1  0.46360000  0.07610000  0.88090000  1.0 0.1200487333
H  H384  1  0.53640000  0.42390000  0.38090000  1.0 0.1200487333
H  H385  1  0.80610000  0.89750000  0.61210000  1.0 0.1405794229
H  H386  1  0.19390000  0.60250000  0.11210000  1.0 0.1405794229
H  H387  1  0.30610000  0.10250000  0.88790000  1.0 0.1405794229
H  H388  1  0.69390000  0.39750000  0.38790000  1.0 0.1405794229
H  H389  1  0.82470000  0.93820000  0.52500000  1.0 0.1405794229
H  H390  1  0.17530000  0.56180000  0.02500000  1.0 0.1405794229
H  H391  1  0.32470000  0.06180000  0.97500000  1.0 0.1405794229
H  H392  1  0.67530000  0.43820000  0.47500000  1.0 0.1405794229
H  H393  1  0.98120000  0.96200000  0.53380000  1.0 0.1200487333
H  H394  1  0.01880000  0.53800000  0.03380000  1.0 0.1200487333
H  H395  1  0.48120000  0.03800000  0.96620000  1.0 0.1200487333
H  H396  1  0.51880000  0.46200000  0.46620000  1.0 0.1200487333
H  H397  1  0.84300000  0.17450000  0.60890000  1.0 0.1101841496
H  H398  1  0.15700000  0.32550000  0.10890000  1.0 0.1101841496
H  H399  1  0.34300000  0.82550000  0.89110000  1.0 0.1101841496
H  H400  1  0.65700000  0.67450000  0.39110000  1.0 0.1101841496
H  H401  1  0.79320000  0.14250000  0.65490000  1.0 0.1009217942
H  H402  1  0.20680000  0.35750000  0.15490000  1.0 0.1009217942
H  H403  1  0.29320000  0.85750000  0.84510000  1.0 0.1009217942
H  H404  1  0.70680000  0.64250000  0.34510000  1.0 0.1009217942
H  H405  1  0.75180000  0.19410000  0.69440000  1.0 0.1101841496
H  H406  1  0.24820000  0.30590000  0.19440000  1.0 0.1101841496
H  H407  1  0.25180000  0.80590000  0.80560000  1.0 0.1101841496
H  H408  1  0.74820000  0.69410000  0.30560000  1.0 0.1101841496
H  H409  1  0.72200000  0.24060000  0.72830000  1.0 0.0807530847
H  H410  1  0.27800000  0.25940000  0.22830000  1.0 0.0807530847
H  H411  1  0.22200000  0.75940000  0.77170000  1.0 0.0807530847
H  H412  1  0.77800000  0.74060000  0.27170000  1.0 0.0807530847
H  H413  1  0.68580000  0.29770000  0.76530000  1.0 0.0807530847
H  H414  1  0.31420000  0.20230000  0.26530000  1.0 0.0807530847
H  H415  1  0.18580000  0.70230000  0.73470000  1.0 0.0807530847
H  H416  1  0.81420000  0.79770000  0.23470000  1.0 0.0807530847
H  H417  1  0.69660000  0.37990000  0.75430000  1.0 0.1101841496
H  H418  1  0.30340000  0.12010000  0.25430000  1.0 0.1101841496
H  H419  1  0.19660000  0.62010000  0.74570000  1.0 0.1101841496
H  H420  1  0.80340000  0.87990000  0.24570000  1.0 0.1101841496
H  H421  1  0.74340000  0.40500000  0.70640000  1.0 0.0807530847
H  H422  1  0.25660000  0.09500000  0.20640000  1.0 0.0807530847
H  H423  1  0.24340000  0.59500000  0.79360000  1.0 0.0807530847
H  H424  1  0.75660000  0.90500000  0.29360000  1.0 0.0807530847
H  H425  1  0.78750000  0.43210000  0.66630000  1.0 0.0807530847
H  H426  1  0.21250000  0.06790000  0.16630000  1.0 0.0807530847
H  H427  1  0.28750000  0.56790000  0.83370000  1.0 0.0807530847
H  H428  1  0.71250000  0.93210000  0.33370000  1.0 0.0807530847
H  H429  1  0.83460000  0.45370000  0.61770000  1.0 0.0699377489
H  H430  1  0.16540000  0.04630000  0.11770000  1.0 0.0699377489
H  H431  1  0.33460000  0.54630000  0.88230000  1.0 0.0699377489
H  H432  1  0.66540000  0.95370000  0.38230000  1.0 0.0699377489
H  H433  1  0.86620000  0.39400000  0.58200000  1.0 0.093294822
H  H434  1  0.13380000  0.10600000  0.08200000  1.0 0.093294822
H  H435  1  0.36620000  0.60600000  0.91800000  1.0 0.093294822
H  H436  1  0.63380000  0.89400000  0.41800000  1.0 0.093294822
H  H437  1  0.06240000  0.26510000  0.46700000  1.0 0.1101841496
H  H438  1  0.93760000  0.23490000  0.96700000  1.0 0.1101841496
H  H439  1  0.56240000  0.73490000  0.03300000  1.0 0.1101841496
H  H440  1  0.43760000  0.76510000  0.53300000  1.0 0.1101841496
H  H441  1  0.09070000  0.29450000  0.49660000  1.0 0.0606562046
H  H442  1  0.90930000  0.20550000  0.99660000  1.0 0.0606562046
H  H443  1  0.59070000  0.70550000  0.00340000  1.0 0.0606562046
H  H444  1  0.40930000  0.79450000  0.50340000  1.0 0.0606562046
H  H445  1  0.98950000  0.30410000  0.48050000  1.0 0.0807530847
H  H446  1  0.01050000  0.19590000  0.98050000  1.0 0.0807530847
H  H447  1  0.48950000  0.69590000  0.01950000  1.0 0.0807530847
H  H448  1  0.51050000  0.80410000  0.51950000  1.0 0.0807530847
Pd  Pd1  1  0.23027000  0.84267000  0.31616000  1.0 0.02903252
Pd  Pd2  1  0.76973000  0.65733000  0.81616000  1.0 0.0215171358
Pd  Pd3  1  0.73027000  0.15733000  0.18384000  1.0 0.0215171358
Pd  Pd4  1  0.26973000  0.34267000  0.68384000  1.0 0.02903252
Pd  Pd5  1  0.12590000  0.72022000  0.41641000  1.0 0.2458126648
Pd  Pd6  1  0.87410000  0.77978000  0.91641000  1.0 0.2411790465
Pd  Pd7  1  0.62590000  0.27978000  0.08359000  1.0 0.2458126648
Pd  Pd8  1  0.37410000  0.22022000  0.58359000  1.0 0.2411790465
Pd  Pd9  1  0.76973000  0.15733000  0.68384000  1.0 0.02903252
Pd  Pd10  1  0.23027000  0.34267000  0.18384000  1.0 0.0215171358
Pd  Pd11  1  0.26973000  0.84267000  0.81616000  1.0 0.0215171358
Pd  Pd12  1  0.73027000  0.65733000  0.31616000  1.0 0.0215171358
Pd  Pd13  1  0.87410000  0.27978000  0.58359000  1.0 0.2411790465
Pd  Pd14  1  0.12590000  0.22022000  0.08359000  1.0 0.2458126648
Pd  Pd15  1  0.37410000  0.72022000  0.91641000  1.0 0.2411790465
Pd  Pd16  1  0.62590000  0.77978000  0.41641000  1.0 0.2411790465
C  C1  1  0.60800000  0.29630000  0.54600000  1.0 -0.5042825387
C  C2  1  0.39200000  0.20370000  0.04600000  1.0 -0.5042825387
C  C3  1  0.10800000  0.70370000  0.95400000  1.0 -0.5060049044
C  C4  1  0.89200000  0.79630000  0.45400000  1.0 -0.5060049044
C  C5  1  0.67600000  0.32280000  0.52800000  1.0 0.1489164535
C  C6  1  0.32400000  0.17720000  0.02800000  1.0 0.1489164535
C  C7  1  0.17600000  0.67720000  0.97200000  1.0 0.1489164535
C  C8  1  0.82400000  0.82280000  0.47200000  1.0 0.1489164535
C  C9  1  0.93700000  0.70820000  0.50620000  1.0 -0.1084448121
C  C10  1  0.06300000  0.79180000  0.00620000  1.0 -0.1084448121
C  C11  1  0.43700000  0.29180000  0.99380000  1.0 -0.1084448121
C  C12  1  0.56300000  0.20820000  0.49380000  1.0 -0.1084448121
C  C13  1  0.00900000  0.69650000  0.48330000  1.0 0.1405794229
C  C14  1  0.99100000  0.80350000  0.98330000  1.0 0.1405794229
C  C15  1  0.50900000  0.30350000  0.01670000  1.0 0.1405794229
C  C16  1  0.49100000  0.19650000  0.51670000  1.0 0.1405794229
C  C17  1  0.22400000  0.74050000  0.32279000  1.0 -0.0693106906
C  C18  1  0.77600000  0.75950000  0.82279000  1.0 -0.0693106906
C  C19  1  0.72400000  0.25950000  0.17721000  1.0 -0.0693106906
C  C20  1  0.27600000  0.24050000  0.67721000  1.0 -0.0693106906
C  C21  1  0.24730000  0.77430000  0.30100000  1.0 -0.0693106906
C  C22  1  0.75270000  0.72570000  0.80100000  1.0 -0.0693106906
C  C23  1  0.74730000  0.22570000  0.19900000  1.0 -0.0693106906
C  C24  1  0.25270000  0.27430000  0.69900000  1.0 -0.0693106906
C  C25  1  0.27420000  0.75920000  0.27240000  1.0 -0.0877099639
C  C26  1  0.72580000  0.74080000  0.77240000  1.0 -0.0877099639
C  C27  1  0.77420000  0.24080000  0.22760000  1.0 -0.0834001304
C  C28  1  0.22580000  0.25920000  0.72760000  1.0 -0.0834001304
C  C29  1  0.27780000  0.71040000  0.26574000  1.0 -0.0117635376
C  C30  1  0.72220000  0.78960000  0.76574000  1.0 -0.0117635376
C  C31  1  0.77780000  0.28960000  0.23426000  1.0 -0.0117635376
C  C32  1  0.22220000  0.21040000  0.73426000  1.0 -0.0117635376
C  C33  1  0.25450000  0.67660000  0.28760000  1.0 0.0215171358
C  C34  1  0.74550000  0.82340000  0.78760000  1.0 0.0215171358
C  C35  1  0.75450000  0.32340000  0.21240000  1.0 0.0215171358
C  C36  1  0.24550000  0.17660000  0.71240000  1.0 0.0215171358
C  C37  1  0.22760000  0.69170000  0.31609000  1.0 0.0147797156
C  C38  1  0.77240000  0.80830000  0.81609000  1.0 0.0147797156
C  C39  1  0.72760000  0.30830000  0.18391000  1.0 0.0147797156
C  C40  1  0.27240000  0.19170000  0.68391000  1.0 0.0147797156
C  C41  1  0.20250000  0.65650000  0.34120000  1.0 0.0030406983
C  C42  1  0.79750000  0.84350000  0.84120000  1.0 0.0030406983
C  C43  1  0.70250000  0.34350000  0.15880000  1.0 0.0030406983
C  C44  1  0.29750000  0.15650000  0.65880000  1.0 0.0030406983
C  C45  1  0.20500000  0.60700000  0.33630000  1.0 -0.0693106906
C  C46  1  0.79500000  0.89300000  0.83630000  1.0 -0.0693106906
C  C47  1  0.70500000  0.39300000  0.16370000  1.0 -0.0693106906
C  C48  1  0.29500000  0.10700000  0.66370000  1.0 -0.0693106906
C  C49  1  0.18660000  0.57550000  0.35990000  1.0 -0.0641203606
C  C50  1  0.81340000  0.92450000  0.85990000  1.0 -0.0641203606
C  C51  1  0.68660000  0.42450000  0.14010000  1.0 -0.0641203606
C  C52  1  0.31340000  0.07550000  0.64010000  1.0 -0.0641203606
C  C53  1  0.16550000  0.59350000  0.38820000  1.0 -0.0383134926
C  C54  1  0.83450000  0.90650000  0.88820000  1.0 -0.0383134926
C  C55  1  0.66550000  0.40650000  0.11180000  1.0 -0.0383134926
C  C56  1  0.33450000  0.09350000  0.61180000  1.0 -0.0383134926
C  C57  1  0.16300000  0.64290000  0.39310000  1.0 0.0699377489
C  C58  1  0.83700000  0.85710000  0.89310000  1.0 0.0699377489
C  C59  1  0.66300000  0.35710000  0.10690000  1.0 0.0699377489
C  C60  1  0.33700000  0.14290000  0.60690000  1.0 0.0699377489
C  C61  1  0.18150000  0.67440000  0.36950000  1.0 0.1101841496
C  C62  1  0.81850000  0.82560000  0.86950000  1.0 0.1101841496
C  C63  1  0.68150000  0.32560000  0.13050000  1.0 0.1101841496
C  C64  1  0.31850000  0.17440000  0.63050000  1.0 0.1101841496
C  C65  1  0.17710000  0.72770000  0.37540000  1.0 0.0215171358
C  C66  1  0.82290000  0.77230000  0.87540000  1.0 0.0215171358
C  C67  1  0.67710000  0.27230000  0.12460000  1.0 0.0215171358
C  C68  1  0.32290000  0.22770000  0.62460000  1.0 0.0215171358
C  C69  1  0.15110000  0.74900000  0.40239000  1.0 -0.0975716309
C  C70  1  0.84890000  0.75100000  0.90239000  1.0 -0.0975716309
C  C71  1  0.65110000  0.25100000  0.09761000  1.0 -0.0975716309
C  C72  1  0.34890000  0.24900000  0.59761000  1.0 -0.0975716309
C  C73  1  0.14520000  0.79880000  0.40458000  1.0 -0.1084448121
C  C74  1  0.85480000  0.70120000  0.90458000  1.0 -0.1084448121
C  C75  1  0.64520000  0.20120000  0.09542000  1.0 -0.1084448121
C  C76  1  0.35480000  0.29880000  0.59542000  1.0 -0.1084448121
C  C77  1  0.16540000  0.82740000  0.37980000  1.0 -0.0117635376
C  C78  1  0.83460000  0.67260000  0.87980000  1.0 -0.0117635376
C  C79  1  0.66540000  0.17260000  0.12020000  1.0 -0.0117635376
C  C80  1  0.33460000  0.32740000  0.62020000  1.0 -0.0117635376
C  C81  1  0.19720000  0.75630000  0.35053000  1.0 0.03849956
C  C82  1  0.80280000  0.74370000  0.85053000  1.0 0.03849956
C  C83  1  0.69720000  0.24370000  0.14947000  1.0 0.03849956
C  C84  1  0.30280000  0.25630000  0.64947000  1.0 0.03849956
C  C85  1  0.25100000  0.93560000  0.29570000  1.0 0.2821198581
C  C86  1  0.74900000  0.56440000  0.79570000  1.0 0.2821198581
C  C87  1  0.75100000  0.06440000  0.20430000  1.0 0.2821198581
C  C88  1  0.24900000  0.43560000  0.70430000  1.0 0.2821198581
C  C89  1  0.26000000  0.01920000  0.30590000  1.0 -0.224700381
C  C90  1  0.74000000  0.48080000  0.80590000  1.0 -0.2307884918
C  C91  1  0.76000000  0.98080000  0.19410000  1.0 -0.2307884918
C  C92  1  0.24000000  0.51920000  0.69410000  1.0 -0.224700381
C  C93  1  0.43770000  0.23180000  0.76701000  1.0 0.03849956
C  C94  1  0.56230000  0.26820000  0.26701000  1.0 0.03849956
C  C95  1  0.93770000  0.76820000  0.73299000  1.0 0.03849956
C  C96  1  0.06230000  0.73180000  0.23299000  1.0 0.03849956
C  C97  1  0.47520000  0.23560000  0.73857000  1.0 -0.2307884918
C  C98  1  0.52480000  0.26440000  0.23857000  1.0 -0.2307884918
C  C99  1  0.97520000  0.76440000  0.76143000  1.0 -0.2307884918
C  C100  1  0.02480000  0.73560000  0.26143000  1.0 -0.2307884918
C  C101  1  0.47680000  0.28020000  0.72439000  1.0 0.0215171358
C  C102  1  0.52320000  0.21980000  0.22439000  1.0 0.0215171358
C  C103  1  0.97680000  0.71980000  0.77561000  1.0 0.0215171358
C  C104  1  0.02320000  0.78020000  0.27561000  1.0 0.0215171358
C  C105  1  0.44330000  0.31960000  0.74000000  1.0 -0.20111732
C  C106  1  0.55670000  0.18040000  0.24000000  1.0 -0.20111732
C  C107  1  0.94330000  0.68040000  0.76000000  1.0 -0.20111732
C  C108  1  0.05670000  0.81960000  0.26000000  1.0 -0.20111732
C  C109  1  0.40470000  0.31260000  0.76830000  1.0 0.0699377489
C  C110  1  0.59530000  0.18740000  0.26830000  1.0 0.0699377489
C  C111  1  0.90470000  0.68740000  0.73170000  1.0 0.0606562046
C  C112  1  0.09530000  0.81260000  0.23170000  1.0 0.0699377489
C  C113  1  0.56490000  0.45950000  0.63556000  1.0 0.02903252
C  C114  1  0.43510000  0.04050000  0.13556000  1.0 0.02903252
C  C115  1  0.06490000  0.54050000  0.86444000  1.0 0.02903252
C  C116  1  0.93510000  0.95950000  0.36444000  1.0 0.02903252
C  C117  1  0.54920000  0.41760000  0.65070000  1.0 -0.20111732
C  C118  1  0.45080000  0.08240000  0.15070000  1.0 -0.20111732
C  C119  1  0.04920000  0.58240000  0.84930000  1.0 -0.20111732
C  C120  1  0.95080000  0.91760000  0.34930000  1.0 -0.20111732
C  C121  1  0.55940000  0.37320000  0.63624000  1.0 -0.0117635376
C  C122  1  0.44060000  0.12680000  0.13624000  1.0 -0.0117635376
C  C123  1  0.05940000  0.62680000  0.86376000  1.0 -0.0117635376
C  C124  1  0.94060000  0.87320000  0.36376000  1.0 -0.0117635376
C  C125  1  0.58170000  0.37520000  0.60600000  1.0 -0.2307884918
C  C126  1  0.41830000  0.12480000  0.10600000  1.0 -0.2307884918
C  C127  1  0.08170000  0.62480000  0.89400000  1.0 -0.2307884918
C  C128  1  0.91830000  0.87520000  0.39400000  1.0 -0.2307884918
C  C129  1  0.59600000  0.41880000  0.59176000  1.0 0.03849956
C  C130  1  0.40400000  0.08120000  0.09176000  1.0 0.03849956
C  C131  1  0.09600000  0.58120000  0.90824000  1.0 0.03849956
C  C132  1  0.90400000  0.91880000  0.40824000  1.0 0.03849956
C  C133  1  0.61500000  0.15530000  0.59092000  1.0 -0.0294089257
C  C134  1  0.38500000  0.34470000  0.09092000  1.0 -0.0294089257
C  C135  1  0.11500000  0.84470000  0.90908000  1.0 -0.0294089257
C  C136  1  0.88500000  0.65530000  0.40908000  1.0 -0.0294089257
C  C137  1  0.59640000  0.19870000  0.60408000  1.0 -0.2378112801
C  C138  1  0.40360000  0.30130000  0.10408000  1.0 -0.2378112801
C  C139  1  0.09640000  0.80130000  0.89592000  1.0 -0.2378112801
C  C140  1  0.90360000  0.69870000  0.39592000  1.0 -0.2378112801
C  C141  1  0.56780000  0.20020000  0.63371000  1.0 -0.0515809119
C  C142  1  0.43220000  0.29980000  0.13371000  1.0 -0.0515809119
C  C143  1  0.06780000  0.79980000  0.86629000  1.0 -0.0515809119
C  C144  1  0.93220000  0.70020000  0.36629000  1.0 -0.0515809119
C  C145  1  0.55510000  0.15630000  0.64865000  1.0 -0.2307884918
C  C146  1  0.44490000  0.34370000  0.14865000  1.0 -0.2307884918
C  C147  1  0.05510000  0.84370000  0.85135000  1.0 -0.2378112801
C  C148  1  0.94490000  0.65630000  0.35135000  1.0 -0.2307884918
C  C149  1  0.57300000  0.11450000  0.63340000  1.0 -0.0117635376
C  C150  1  0.42700000  0.38550000  0.13340000  1.0 -0.0117635376
C  C151  1  0.07300000  0.88550000  0.86660000  1.0 -0.0223177826
C  C152  1  0.92700000  0.61450000  0.36660000  1.0 -0.0117635376
C  C153  1  0.50960000  0.28430000  0.69256000  1.0 0.2592812432
C  C154  1  0.49040000  0.21570000  0.19256000  1.0 0.2592812432
C  C155  1  0.00960000  0.71570000  0.80744000  1.0 0.2592812432
C  C156  1  0.99040000  0.78430000  0.30744000  1.0 0.2592812432
C  C157  1  0.54710000  0.32760000  0.65155000  1.0 0.233405198
C  C158  1  0.45290000  0.17240000  0.15155000  1.0 0.233405198
C  C159  1  0.04710000  0.67240000  0.84845000  1.0 0.233405198
C  C160  1  0.95290000  0.82760000  0.34845000  1.0 0.233405198
C  C161  1  0.55130000  0.24570000  0.64983000  1.0 0.2411790465
C  C162  1  0.44870000  0.25430000  0.14983000  1.0 0.2411790465
C  C163  1  0.05130000  0.75430000  0.85017000  1.0 0.2411790465
C  C164  1  0.94870000  0.74570000  0.35017000  1.0 0.2411790465
C  C165  1  0.49000000  0.04410000  0.54130000  1.0 0.0606562046
C  C166  1  0.51000000  0.45590000  0.04130000  1.0 0.0606562046
C  C167  1  0.99000000  0.95590000  0.95870000  1.0 0.0521658449
C  C168  1  0.01000000  0.54410000  0.45870000  1.0 0.0521658449
C  C169  1  0.44190000  0.05580000  0.51490000  1.0 -0.1385537888
C  C170  1  0.55810000  0.44420000  0.01490000  1.0 -0.1385537888
C  C171  1  0.94190000  0.94420000  0.98510000  1.0 -0.1385537888
C  C172  1  0.05810000  0.55580000  0.48510000  1.0 -0.1385537888
C  C173  1  0.49030000  0.07660000  0.49194000  1.0 0.0606562046
C  C174  1  0.50970000  0.42340000  0.99194000  1.0 0.0606562046
C  C175  1  0.99030000  0.92340000  0.00806000  1.0 0.0606562046
C  C176  1  0.00970000  0.57660000  0.50806000  1.0 0.0606562046
C  C177  1  0.58920000  0.08390000  0.49460000  1.0 -0.1502566346
C  C178  1  0.41080000  0.41610000  0.99460000  1.0 -0.1502566346
C  C179  1  0.08920000  0.91610000  0.00540000  1.0 -0.1502566346
C  C180  1  0.91080000  0.58390000  0.50540000  1.0 -0.1502566346
C  C181  1  0.63210000  0.07170000  0.52100000  1.0 0.0699377489
C  C182  1  0.36790000  0.42830000  0.02100000  1.0 0.0699377489
C  C183  1  0.13210000  0.92830000  0.97900000  1.0 0.0699377489
C  C184  1  0.86790000  0.57170000  0.47900000  1.0 0.0699377489
C  C185  1  0.63890000  0.18890000  0.37600000  1.0 0.0699377489
C  C186  1  0.36110000  0.31110000  0.87600000  1.0 0.0699377489
C  C187  1  0.13890000  0.81110000  0.12400000  1.0 0.0699377489
C  C188  1  0.86110000  0.68890000  0.62400000  1.0 0.0699377489
C  C189  1  0.59090000  0.16670000  0.39910000  1.0 -0.1321717612
C  C190  1  0.40910000  0.33333333  0.89910000  1.0 -0.1321717612
C  C191  1  0.09090000  0.83330000  0.10090000  1.0 -0.1321717612
C  C192  1  0.90910000  0.66666667  0.60090000  1.0 -0.1321717612
C  C193  1  0.49330000  0.15850000  0.39596000  1.0 0.0699377489
C  C194  1  0.50670000  0.34150000  0.89596000  1.0 0.0699377489
C  C195  1  0.99330000  0.84150000  0.10404000  1.0 0.0699377489
C  C196  1  0.00670000  0.65850000  0.60404000  1.0 0.0606562046
C  C197  1  0.44970000  0.17290000  0.37050000  1.0 -0.1321717612
C  C198  1  0.55030000  0.32710000  0.87050000  1.0 -0.1321717612
C  C199  1  0.94970000  0.82710000  0.12950000  1.0 -0.1321717612
C  C200  1  0.05030000  0.67290000  0.62950000  1.0 -0.1321717612
C  C201  1  0.50430000  0.19640000  0.34881000  1.0 0.0807530847
C  C202  1  0.49570000  0.30360000  0.84881000  1.0 0.0807530847
C  C203  1  0.00430000  0.80360000  0.15119000  1.0 0.0807530847
C  C204  1  0.99570000  0.69640000  0.65119000  1.0 0.0807530847
C  C205  1  0.06490000  0.07360000  0.40020000  1.0 0.0807530847
C  C206  1  0.93510000  0.42640000  0.90020000  1.0 0.0807530847
C  C207  1  0.56490000  0.92640000  0.09980000  1.0 0.0807530847
C  C208  1  0.43510000  0.57360000  0.59980000  1.0 0.0807530847
C  C209  1  0.15870000  0.08920000  0.40420000  1.0 -0.1178142369
C  C210  1  0.84130000  0.41080000  0.90420000  1.0 -0.1178142369
C  C211  1  0.65870000  0.91080000  0.09580000  1.0 -0.1178142369
C  C212  1  0.34130000  0.58920000  0.59580000  1.0 -0.1178142369
C  C213  1  0.20030000  0.08510000  0.43210000  1.0 0.0606562046
C  C214  1  0.79970000  0.41490000  0.93210000  1.0 0.0606562046
C  C215  1  0.70030000  0.91490000  0.06790000  1.0 0.0606562046
C  C216  1  0.29970000  0.58510000  0.56790000  1.0 0.0606562046
C  C217  1  0.14760000  0.06530000  0.45560000  1.0 -0.1178142369
C  C218  1  0.85240000  0.43470000  0.95560000  1.0 -0.1178142369
C  C219  1  0.64760000  0.93470000  0.04440000  1.0 -0.1178142369
C  C220  1  0.35240000  0.56530000  0.54440000  1.0 -0.1178142369
C  C221  1  0.05520000  0.05120000  0.45020000  1.0 0.0699377489
C  C222  1  0.94480000  0.44880000  0.95020000  1.0 0.0699377489
C  C223  1  0.55520000  0.94880000  0.04980000  1.0 0.0699377489
C  C224  1  0.44480000  0.55120000  0.54980000  1.0 0.0699377489
C  C225  1  0.43990000  0.09280000  0.46440000  1.0 0.3794091
C  C226  1  0.56010000  0.40720000  0.96440000  1.0 0.3794091
C  C227  1  0.93990000  0.90720000  0.03560000  1.0 0.3794091
C  C228  1  0.06010000  0.59280000  0.53560000  1.0 0.3794091
C  C229  1  0.43900000  0.13240000  0.42044000  1.0 0.3794091
C  C230  1  0.56100000  0.36760000  0.92044000  1.0 0.3794091
C  C231  1  0.93900000  0.86760000  0.07956000  1.0 0.3794091
C  C232  1  0.06100000  0.63240000  0.57956000  1.0 0.3794091
C  C233  1  0.30330000  0.09880000  0.43690000  1.0 0.3890301465
C  C234  1  0.69670000  0.40120000  0.93690000  1.0 0.3890301465
C  C235  1  0.80330000  0.90120000  0.06310000  1.0 0.3890301465
C  C236  1  0.19670000  0.59880000  0.56310000  1.0 0.3890301465
C  C237  1  0.19320000  0.72440000  0.35550000  1.0 0.0215171358
C  C238  1  0.80680000  0.77560000  0.85550000  1.0 0.0215171358
C  C239  1  0.69320000  0.27560000  0.14450000  1.0 0.0215171358
C  C240  1  0.30680000  0.22440000  0.64450000  1.0 0.0215171358
C  C241  1  0.16870000  0.75500000  0.37900000  1.0 0.0215171358
C  C242  1  0.83130000  0.74500000  0.87900000  1.0 0.0215171358
C  C243  1  0.66870000  0.24500000  0.12100000  1.0 0.0215171358
C  C244  1  0.33130000  0.25500000  0.62100000  1.0 0.0215171358
C  C245  1  0.17370000  0.80460000  0.37510000  1.0 0.0606562046
C  C246  1  0.82630000  0.69540000  0.87510000  1.0 0.0606562046
C  C247  1  0.67370000  0.19540000  0.12490000  1.0 0.0606562046
C  C248  1  0.32630000  0.30460000  0.62490000  1.0 0.0606562046
C  C249  1  0.20340000  0.82360000  0.34770000  1.0 0.0606562046
C  C250  1  0.79660000  0.67640000  0.84770000  1.0 0.0606562046
C  C251  1  0.70340000  0.17640000  0.15230000  1.0 0.0606562046
C  C252  1  0.29660000  0.32360000  0.65230000  1.0 0.0606562046
C  C253  1  0.22790000  0.79290000  0.32430000  1.0 0.0030406983
C  C254  1  0.77210000  0.70710000  0.82430000  1.0 0.0030406983
C  C255  1  0.72790000  0.20710000  0.17570000  1.0 0.0030406983
C  C256  1  0.27210000  0.29290000  0.67570000  1.0 0.0030406983
C  C257  1  0.22290000  0.74340000  0.32820000  1.0 -0.0515809119
C  C258  1  0.77710000  0.75660000  0.82820000  1.0 -0.0515809119
C  C259  1  0.72290000  0.25660000  0.17180000  1.0 -0.0515809119
C  C260  1  0.27710000  0.24340000  0.67180000  1.0 -0.0383134926
C  C261  1  0.24580000  0.71110000  0.30460000  1.0 0.0215171358
C  C262  1  0.75420000  0.78890000  0.80460000  1.0 0.0215171358
C  C263  1  0.74580000  0.28890000  0.19540000  1.0 0.0215171358
C  C264  1  0.25420000  0.21110000  0.69540000  1.0 0.0215171358
C  C265  1  0.27370000  0.72600000  0.27610000  1.0 -0.0027048059
C  C266  1  0.72630000  0.77400000  0.77610000  1.0 -0.0027048059
C  C267  1  0.77370000  0.27400000  0.22390000  1.0 -0.0027048059
C  C268  1  0.22630000  0.22600000  0.72390000  1.0 -0.0027048059
C  C269  1  0.29510000  0.69210000  0.25420000  1.0 -0.0383134926
C  C270  1  0.70490000  0.80790000  0.75420000  1.0 -0.0383134926
C  C271  1  0.79510000  0.30790000  0.24580000  1.0 -0.0383134926
C  C272  1  0.20490000  0.19210000  0.74580000  1.0 -0.0383134926
C  C273  1  0.28880000  0.64330000  0.26070000  1.0 -0.1178142369
C  C274  1  0.71120000  0.85670000  0.76070000  1.0 -0.1178142369
C  C275  1  0.78880000  0.35670000  0.23930000  1.0 -0.1178142369
C  C276  1  0.21120000  0.14330000  0.73930000  1.0 -0.1178142369
C  C277  1  0.26090000  0.62840000  0.28920000  1.0 -0.1822591967
C  C278  1  0.73910000  0.87160000  0.78920000  1.0 -0.1822591967
C  C279  1  0.76090000  0.37160000  0.21080000  1.0 -0.1822591967
C  C280  1  0.23910000  0.12840000  0.71080000  1.0 -0.1822591967
C  C281  1  0.23950000  0.66230000  0.31110000  1.0 0.0030406983
C  C282  1  0.76050000  0.83770000  0.81110000  1.0 0.0030406983
C  C283  1  0.73950000  0.33770000  0.18890000  1.0 0.0030406983
C  C284  1  0.26050000  0.16230000  0.68890000  1.0 0.0030406983
C  C285  1  0.20900000  0.64050000  0.34060000  1.0 0.02903252
C  C286  1  0.79100000  0.85950000  0.84060000  1.0 0.02903252
C  C287  1  0.70900000  0.35950000  0.15940000  1.0 0.02903252
C  C288  1  0.29100000  0.14050000  0.65940000  1.0 0.02903252
C  C289  1  0.19970000  0.59220000  0.34820000  1.0 -0.0223177826
C  C290  1  0.80030000  0.90780000  0.84820000  1.0 -0.0223177826
C  C291  1  0.69970000  0.40780000  0.15180000  1.0 -0.0223177826
C  C292  1  0.30030000  0.09220000  0.65180000  1.0 -0.0223177826
C  C293  1  0.17170000  0.57930000  0.37710000  1.0 -0.0515809119
C  C294  1  0.82830000  0.92070000  0.87710000  1.0 -0.0515809119
C  C295  1  0.67170000  0.42070000  0.12290000  1.0 -0.0515809119
C  C296  1  0.32830000  0.07930000  0.62290000  1.0 -0.0515809119
C  C297  1  0.15300000  0.61480000  0.39830000  1.0 -0.0515809119
C  C298  1  0.84700000  0.88520000  0.89830000  1.0 -0.0515809119
C  C299  1  0.65300000  0.38520000  0.10170000  1.0 -0.0515809119
C  C300  1  0.34700000  0.11480000  0.60170000  1.0 -0.0515809119
C  C301  1  0.19000000  0.67590000  0.36180000  1.0 0.03849956
C  C302  1  0.81000000  0.82410000  0.86180000  1.0 0.03849956
C  C303  1  0.69000000  0.32410000  0.13820000  1.0 0.03849956
C  C304  1  0.31000000  0.17590000  0.63820000  1.0 0.03849956
C  C305  1  0.03800000  0.74280000  0.47040000  1.0 0.1301049278
C  C306  1  0.96200000  0.75720000  0.97040000  1.0 0.1301049278
C  C307  1  0.53800000  0.25720000  0.02960000  1.0 0.1301049278
C  C308  1  0.46200000  0.24280000  0.52960000  1.0 0.1301049278
C  C309  1  0.96200000  0.72040000  0.51450000  1.0 -0.0877099639
C  C310  1  0.03800000  0.77960000  0.01450000  1.0 -0.0877099639
C  C311  1  0.46200000  0.27960000  0.98550000  1.0 -0.0877099639
C  C312  1  0.53800000  0.22040000  0.48550000  1.0 -0.0877099639
C  C313  1  0.39200000  0.70370000  0.45400000  1.0 -0.5060049044
C  C314  1  0.60800000  0.79630000  0.95400000  1.0 -0.5060049044
C  C315  1  0.89200000  0.29630000  0.04600000  1.0 -0.5042825387
C  C316  1  0.10800000  0.20370000  0.54600000  1.0 -0.5042825387
C  C317  1  0.32400000  0.67720000  0.47200000  1.0 0.1489164535
C  C318  1  0.67600000  0.82280000  0.97200000  1.0 0.1489164535
C  C319  1  0.82400000  0.32280000  0.02800000  1.0 0.1489164535
C  C320  1  0.17600000  0.17720000  0.52800000  1.0 0.1489164535
C  C321  1  0.06300000  0.29180000  0.49380000  1.0 -0.1084448121
C  C322  1  0.93700000  0.20820000  0.99380000  1.0 -0.1084448121
C  C323  1  0.56300000  0.70820000  0.00620000  1.0 -0.1084448121
C  C324  1  0.43700000  0.79180000  0.50620000  1.0 -0.1084448121
C  C325  1  0.99100000  0.30350000  0.51670000  1.0 0.1405794229
C  C326  1  0.00900000  0.19650000  0.01670000  1.0 0.1405794229
C  C327  1  0.49100000  0.69650000  0.98330000  1.0 0.1405794229
C  C328  1  0.50900000  0.80350000  0.48330000  1.0 0.1405794229
C  C329  1  0.77600000  0.25950000  0.67721000  1.0 -0.0693106906
C  C330  1  0.22400000  0.24050000  0.17721000  1.0 -0.0693106906
C  C331  1  0.27600000  0.74050000  0.82279000  1.0 -0.0693106906
C  C332  1  0.72400000  0.75950000  0.32279000  1.0 -0.0693106906
C  C333  1  0.75270000  0.22570000  0.69900000  1.0 -0.0693106906
C  C334  1  0.24730000  0.27430000  0.19900000  1.0 -0.0693106906
C  C335  1  0.25270000  0.77430000  0.80100000  1.0 -0.0693106906
C  C336  1  0.74730000  0.72570000  0.30100000  1.0 -0.0693106906
C  C337  1  0.72580000  0.24080000  0.72760000  1.0 -0.0834001304
C  C338  1  0.27420000  0.25920000  0.22760000  1.0 -0.0834001304
C  C339  1  0.22580000  0.75920000  0.77240000  1.0 -0.0834001304
C  C340  1  0.77420000  0.74080000  0.27240000  1.0 -0.0877099639
C  C341  1  0.72220000  0.28960000  0.73426000  1.0 -0.0117635376
C  C342  1  0.27780000  0.21040000  0.23426000  1.0 -0.0117635376
C  C343  1  0.22220000  0.71040000  0.76574000  1.0 -0.0117635376
C  C344  1  0.77780000  0.78960000  0.26574000  1.0 -0.0117635376
C  C345  1  0.74550000  0.32340000  0.71240000  1.0 0.0215171358
C  C346  1  0.25450000  0.17660000  0.21240000  1.0 0.0215171358
C  C347  1  0.24550000  0.67660000  0.78760000  1.0 0.0215171358
C  C348  1  0.75450000  0.82340000  0.28760000  1.0 0.0215171358
C  C349  1  0.77240000  0.30830000  0.68391000  1.0 0.0215171358
C  C350  1  0.22760000  0.19170000  0.18391000  1.0 0.0147797156
C  C351  1  0.27240000  0.69170000  0.81609000  1.0 0.0147797156
C  C352  1  0.72760000  0.80830000  0.31609000  1.0 0.0147797156
C  C353  1  0.79750000  0.34350000  0.65880000  1.0 0.0030406983
C  C354  1  0.20250000  0.15650000  0.15880000  1.0 0.0030406983
C  C355  1  0.29750000  0.65650000  0.84120000  1.0 0.0030406983
C  C356  1  0.70250000  0.84350000  0.34120000  1.0 0.0030406983
C  C357  1  0.79500000  0.39300000  0.66370000  1.0 -0.0693106906
C  C358  1  0.20500000  0.10700000  0.16370000  1.0 -0.0693106906
C  C359  1  0.29500000  0.60700000  0.83630000  1.0 -0.0693106906
C  C360  1  0.70500000  0.89300000  0.33630000  1.0 -0.0693106906
C  C361  1  0.81340000  0.42450000  0.64010000  1.0 -0.0641203606
C  C362  1  0.18660000  0.07550000  0.14010000  1.0 -0.0641203606
C  C363  1  0.31340000  0.57550000  0.85990000  1.0 -0.0641203606
C  C364  1  0.68660000  0.92450000  0.35990000  1.0 -0.0641203606
C  C365  1  0.83450000  0.40650000  0.61180000  1.0 -0.0383134926
C  C366  1  0.16550000  0.09350000  0.11180000  1.0 -0.0383134926
C  C367  1  0.33450000  0.59350000  0.88820000  1.0 -0.0383134926
C  C368  1  0.66550000  0.90650000  0.38820000  1.0 -0.0383134926
C  C369  1  0.83700000  0.35710000  0.60690000  1.0 0.0699377489
C  C370  1  0.16300000  0.14290000  0.10690000  1.0 0.0699377489
C  C371  1  0.33700000  0.64290000  0.89310000  1.0 0.0699377489
C  C372  1  0.66300000  0.85710000  0.39310000  1.0 0.0699377489
C  C373  1  0.81850000  0.32560000  0.63050000  1.0 0.1101841496
C  C374  1  0.18150000  0.17440000  0.13050000  1.0 0.1101841496
C  C375  1  0.31850000  0.67440000  0.86950000  1.0 0.1101841496
C  C376  1  0.68150000  0.82560000  0.36950000  1.0 0.1101841496
C  C377  1  0.82290000  0.27230000  0.62460000  1.0 0.0215171358
C  C378  1  0.17710000  0.22770000  0.12460000  1.0 0.0215171358
C  C379  1  0.32290000  0.72770000  0.87540000  1.0 0.0215171358
C  C380  1  0.67710000  0.77230000  0.37540000  1.0 0.0215171358
C  C381  1  0.84890000  0.25100000  0.59761000  1.0 -0.0975716309
C  C382  1  0.15110000  0.24900000  0.09761000  1.0 -0.0975716309
C  C383  1  0.34890000  0.74900000  0.90239000  1.0 -0.0975716309
C  C384  1  0.65110000  0.75100000  0.40239000  1.0 -0.0975716309
C  C385  1  0.85480000  0.20120000  0.59542000  1.0 -0.1084448121
C  C386  1  0.14520000  0.29880000  0.09542000  1.0 -0.1084448121
C  C387  1  0.35480000  0.79880000  0.90458000  1.0 -0.1084448121
C  C388  1  0.64520000  0.70120000  0.40458000  1.0 -0.1084448121
C  C389  1  0.83460000  0.17260000  0.62020000  1.0 -0.0117635376
C  C390  1  0.16540000  0.32740000  0.12020000  1.0 -0.0117635376
C  C391  1  0.33460000  0.82740000  0.87980000  1.0 -0.0117635376
C  C392  1  0.66540000  0.67260000  0.37980000  1.0 -0.0117635376
C  C393  1  0.80280000  0.24370000  0.64947000  1.0 0.03849956
C  C394  1  0.19720000  0.25630000  0.14947000  1.0 0.03849956
C  C395  1  0.30280000  0.75630000  0.85053000  1.0 0.03849956
C  C396  1  0.69720000  0.74370000  0.35053000  1.0 0.03849956
C  C397  1  0.74900000  0.06440000  0.70430000  1.0 0.2821198581
C  C398  1  0.25100000  0.43560000  0.20430000  1.0 0.2821198581
C  C399  1  0.24900000  0.93560000  0.79570000  1.0 0.2821198581
C  C400  1  0.75100000  0.56440000  0.29570000  1.0 0.2821198581
C  C401  1  0.74000000  0.98080000  0.69410000  1.0 -0.224700381
C  C402  1  0.26000000  0.51920000  0.19410000  1.0 -0.2307884918
C  C403  1  0.24000000  0.01920000  0.80590000  1.0 -0.224700381
C  C404  1  0.76000000  0.48080000  0.30590000  1.0 -0.2307884918
C  C405  1  0.56230000  0.76820000  0.23299000  1.0 0.03849956
C  C406  1  0.43770000  0.73180000  0.73299000  1.0 0.03849956
C  C407  1  0.06230000  0.23180000  0.26701000  1.0 0.03849956
C  C408  1  0.93770000  0.26820000  0.76701000  1.0 0.03849956
C  C409  1  0.52480000  0.76440000  0.26143000  1.0 -0.2307884918
C  C410  1  0.47520000  0.73560000  0.76143000  1.0 -0.2307884918
C  C411  1  0.02480000  0.23560000  0.23857000  1.0 -0.2307884918
C  C412  1  0.97520000  0.26440000  0.73857000  1.0 -0.2307884918
C  C413  1  0.52320000  0.71980000  0.27561000  1.0 0.0215171358
C  C414  1  0.47680000  0.78020000  0.77561000  1.0 0.0215171358
C  C415  1  0.02320000  0.28020000  0.22439000  1.0 0.0215171358
C  C416  1  0.97680000  0.21980000  0.72439000  1.0 0.0215171358
C  C417  1  0.55670000  0.68040000  0.26000000  1.0 -0.20111732
C  C418  1  0.44330000  0.81960000  0.76000000  1.0 -0.20111732
C  C419  1  0.05670000  0.31960000  0.24000000  1.0 -0.20111732
C  C420  1  0.94330000  0.18040000  0.74000000  1.0 -0.20111732
C  C421  1  0.59530000  0.68740000  0.23170000  1.0 0.0606562046
C  C422  1  0.40470000  0.81260000  0.73170000  1.0 0.0699377489
C  C423  1  0.09530000  0.31260000  0.26830000  1.0 0.0699377489
C  C424  1  0.90470000  0.18740000  0.76830000  1.0 0.0699377489
C  C425  1  0.43510000  0.54050000  0.36444000  1.0 0.02903252
C  C426  1  0.56490000  0.95950000  0.86444000  1.0 0.02903252
C  C427  1  0.93510000  0.45950000  0.13556000  1.0 0.02903252
C  C428  1  0.06490000  0.04050000  0.63556000  1.0 0.02903252
C  C429  1  0.45080000  0.58240000  0.34930000  1.0 -0.20111732
C  C430  1  0.54920000  0.91760000  0.84930000  1.0 -0.20111732
C  C431  1  0.95080000  0.41760000  0.15070000  1.0 -0.20111732
C  C432  1  0.04920000  0.08240000  0.65070000  1.0 -0.20111732
C  C433  1  0.44060000  0.62680000  0.36376000  1.0 -0.0117635376
C  C434  1  0.55940000  0.87320000  0.86376000  1.0 -0.0117635376
C  C435  1  0.94060000  0.37320000  0.13624000  1.0 -0.0117635376
C  C436  1  0.05940000  0.12680000  0.63624000  1.0 -0.0117635376
C  C437  1  0.41830000  0.62480000  0.39400000  1.0 -0.2307884918
C  C438  1  0.58170000  0.87520000  0.89400000  1.0 -0.2307884918
C  C439  1  0.91830000  0.37520000  0.10600000  1.0 -0.2307884918
C  C440  1  0.08170000  0.12480000  0.60600000  1.0 -0.2307884918
C  C441  1  0.40400000  0.58120000  0.40824000  1.0 0.03849956
C  C442  1  0.59600000  0.91880000  0.90824000  1.0 0.03849956
C  C443  1  0.90400000  0.41880000  0.09176000  1.0 0.03849956
C  C444  1  0.09600000  0.08120000  0.59176000  1.0 0.03849956
C  C445  1  0.38500000  0.84470000  0.40908000  1.0 -0.0294089257
C  C446  1  0.61500000  0.65530000  0.90908000  1.0 -0.0294089257
C  C447  1  0.88500000  0.15530000  0.09092000  1.0 -0.0294089257
C  C448  1  0.11500000  0.34470000  0.59092000  1.0 -0.0294089257
C  C449  1  0.40360000  0.80130000  0.39592000  1.0 -0.2378112801
C  C450  1  0.59640000  0.69870000  0.89592000  1.0 -0.2378112801
C  C451  1  0.90360000  0.19870000  0.10408000  1.0 -0.2378112801
C  C452  1  0.09640000  0.30130000  0.60408000  1.0 -0.2378112801
C  C453  1  0.43220000  0.79980000  0.36629000  1.0 -0.0515809119
C  C454  1  0.56780000  0.70020000  0.86629000  1.0 -0.0515809119
C  C455  1  0.93220000  0.20020000  0.13371000  1.0 -0.0515809119
C  C456  1  0.06780000  0.29980000  0.63371000  1.0 -0.0515809119
C  C457  1  0.44490000  0.84370000  0.35135000  1.0 -0.2378112801
C  C458  1  0.55510000  0.65630000  0.85135000  1.0 -0.2378112801
C  C459  1  0.94490000  0.15630000  0.14865000  1.0 -0.2307884918
C  C460  1  0.05510000  0.34370000  0.64865000  1.0 -0.2307884918
C  C461  1  0.42700000  0.88550000  0.36660000  1.0 -0.0117635376
C  C462  1  0.57300000  0.61450000  0.86660000  1.0 -0.0223177826
C  C463  1  0.92700000  0.11450000  0.13340000  1.0 -0.0117635376
C  C464  1  0.07300000  0.38550000  0.63340000  1.0 -0.0117635376
C  C465  1  0.49040000  0.71570000  0.30744000  1.0 0.2592812432
C  C466  1  0.50960000  0.78430000  0.80744000  1.0 0.2592812432
C  C467  1  0.99040000  0.28430000  0.19256000  1.0 0.2592812432
C  C468  1  0.00960000  0.21570000  0.69256000  1.0 0.2592812432
C  C469  1  0.45290000  0.67240000  0.34845000  1.0 0.233405198
C  C470  1  0.54710000  0.82760000  0.84845000  1.0 0.233405198
C  C471  1  0.95290000  0.32760000  0.15155000  1.0 0.2411790465
C  C472  1  0.04710000  0.17240000  0.65155000  1.0 0.233405198
C  C473  1  0.44870000  0.75430000  0.35017000  1.0 0.2411790465
C  C474  1  0.55130000  0.74570000  0.85017000  1.0 0.2411790465
C  C475  1  0.94870000  0.24570000  0.14983000  1.0 0.2411790465
C  C476  1  0.05130000  0.25430000  0.64983000  1.0 0.2411790465
C  C477  1  0.51000000  0.95590000  0.45870000  1.0 0.0521658449
C  C478  1  0.49000000  0.54410000  0.95870000  1.0 0.0521658449
C  C479  1  0.01000000  0.04410000  0.04130000  1.0 0.0521658449
C  C480  1  0.99000000  0.45590000  0.54130000  1.0 0.0606562046
C  C481  1  0.55810000  0.94420000  0.48510000  1.0 -0.1385537888
C  C482  1  0.44190000  0.55580000  0.98510000  1.0 -0.1385537888
C  C483  1  0.05810000  0.05580000  0.01490000  1.0 -0.1385537888
C  C484  1  0.94190000  0.44420000  0.51490000  1.0 -0.1385537888
C  C485  1  0.50970000  0.92340000  0.50806000  1.0 0.0606562046
C  C486  1  0.49030000  0.57660000  0.00806000  1.0 0.0606562046
C  C487  1  0.00970000  0.07660000  0.99194000  1.0 0.0606562046
C  C488  1  0.99030000  0.42340000  0.49194000  1.0 0.0606562046
C  C489  1  0.41080000  0.91610000  0.50540000  1.0 -0.1502566346
C  C490  1  0.58920000  0.58390000  0.00540000  1.0 -0.1502566346
C  C491  1  0.91080000  0.08390000  0.99460000  1.0 -0.1502566346
C  C492  1  0.08920000  0.41610000  0.49460000  1.0 -0.1502566346
C  C493  1  0.36790000  0.92830000  0.47900000  1.0 0.0699377489
C  C494  1  0.63210000  0.57170000  0.97900000  1.0 0.0699377489
C  C495  1  0.86790000  0.07170000  0.02100000  1.0 0.0699377489
C  C496  1  0.13210000  0.42830000  0.52100000  1.0 0.0699377489
C  C497  1  0.36110000  0.81110000  0.62400000  1.0 0.0699377489
C  C498  1  0.63890000  0.68890000  0.12400000  1.0 0.0699377489
C  C499  1  0.86110000  0.18890000  0.87600000  1.0 0.0699377489
C  C500  1  0.13890000  0.31110000  0.37600000  1.0 0.0699377489
C  C501  1  0.40910000  0.83330000  0.60090000  1.0 -0.1321717612
C  C502  1  0.59090000  0.66666667  0.10090000  1.0 -0.1321717612
C  C503  1  0.90910000  0.16670000  0.89910000  1.0 -0.1321717612
C  C504  1  0.09090000  0.33333333  0.39910000  1.0 -0.1321717612
C  C505  1  0.50670000  0.84150000  0.60404000  1.0 0.0699377489
C  C506  1  0.49330000  0.65850000  0.10404000  1.0 0.0699377489
C  C507  1  0.00670000  0.15850000  0.89596000  1.0 0.0699377489
C  C508  1  0.99330000  0.34150000  0.39596000  1.0 0.0699377489
C  C509  1  0.55030000  0.82710000  0.62950000  1.0 -0.1321717612
C  C510  1  0.44970000  0.67290000  0.12950000  1.0 -0.1321717612
C  C511  1  0.05030000  0.17290000  0.87050000  1.0 -0.1321717612
C  C512  1  0.94970000  0.32710000  0.37050000  1.0 -0.1321717612
C  C513  1  0.49570000  0.80360000  0.65119000  1.0 0.0807530847
C  C514  1  0.50430000  0.69640000  0.15119000  1.0 0.0807530847
C  C515  1  0.99570000  0.19640000  0.84881000  1.0 0.0807530847
C  C516  1  0.00430000  0.30360000  0.34881000  1.0 0.0807530847
C  C517  1  0.93510000  0.92640000  0.59980000  1.0 0.0807530847
C  C518  1  0.06490000  0.57360000  0.09980000  1.0 0.0807530847
C  C519  1  0.43510000  0.07360000  0.90020000  1.0 0.0807530847
C  C520  1  0.56490000  0.42640000  0.40020000  1.0 0.0807530847
C  C521  1  0.84130000  0.91080000  0.59580000  1.0 -0.1178142369
C  C522  1  0.15870000  0.58920000  0.09580000  1.0 -0.1178142369
C  C523  1  0.34130000  0.08920000  0.90420000  1.0 -0.1178142369
C  C524  1  0.65870000  0.41080000  0.40420000  1.0 -0.1178142369
C  C525  1  0.79970000  0.91490000  0.56790000  1.0 0.0606562046
C  C526  1  0.20030000  0.58510000  0.06790000  1.0 0.0606562046
C  C527  1  0.29970000  0.08510000  0.93210000  1.0 0.0606562046
C  C528  1  0.70030000  0.41490000  0.43210000  1.0 0.0606562046
C  C529  1  0.85240000  0.93470000  0.54440000  1.0 -0.1178142369
C  C530  1  0.14760000  0.56530000  0.04440000  1.0 -0.1178142369
C  C531  1  0.35240000  0.06530000  0.95560000  1.0 -0.1178142369
C  C532  1  0.64760000  0.43470000  0.45560000  1.0 -0.1178142369
C  C533  1  0.94480000  0.94880000  0.54980000  1.0 0.0699377489
C  C534  1  0.05520000  0.55120000  0.04980000  1.0 0.0699377489
C  C535  1  0.44480000  0.05120000  0.95020000  1.0 0.0699377489
C  C536  1  0.55520000  0.44880000  0.45020000  1.0 0.0699377489
C  C537  1  0.56010000  0.90720000  0.53560000  1.0 0.3794091
C  C538  1  0.43990000  0.59280000  0.03560000  1.0 0.3794091
C  C539  1  0.06010000  0.09280000  0.96440000  1.0 0.3794091
C  C540  1  0.93990000  0.40720000  0.46440000  1.0 0.3794091
C  C541  1  0.56100000  0.86760000  0.57956000  1.0 0.3794091
C  C542  1  0.43900000  0.63240000  0.07956000  1.0 0.3794091
C  C543  1  0.06100000  0.13240000  0.92044000  1.0 0.3794091
C  C544  1  0.93900000  0.36760000  0.42044000  1.0 0.3794091
C  C545  1  0.69670000  0.90120000  0.56310000  1.0 0.3890301465
C  C546  1  0.30330000  0.59880000  0.06310000  1.0 0.3890301465
C  C547  1  0.19670000  0.09880000  0.93690000  1.0 0.3890301465
C  C548  1  0.80330000  0.40120000  0.43690000  1.0 0.3890301465
C  C549  1  0.80680000  0.27560000  0.64450000  1.0 0.0215171358
C  C550  1  0.19320000  0.22440000  0.14450000  1.0 0.0215171358
C  C551  1  0.30680000  0.72440000  0.85550000  1.0 0.0215171358
C  C552  1  0.69320000  0.77560000  0.35550000  1.0 0.0215171358
C  C553  1  0.83130000  0.24500000  0.62100000  1.0 0.0215171358
C  C554  1  0.16870000  0.25500000  0.12100000  1.0 0.0215171358
C  C555  1  0.33130000  0.75500000  0.87900000  1.0 0.0215171358
C  C556  1  0.66870000  0.74500000  0.37900000  1.0 0.0215171358
C  C557  1  0.82630000  0.19540000  0.62490000  1.0 0.0606562046
C  C558  1  0.17370000  0.30460000  0.12490000  1.0 0.0606562046
C  C559  1  0.32630000  0.80460000  0.87510000  1.0 0.0606562046
C  C560  1  0.67370000  0.69540000  0.37510000  1.0 0.0606562046
C  C561  1  0.79660000  0.17640000  0.65230000  1.0 0.0606562046
C  C562  1  0.20340000  0.32360000  0.15230000  1.0 0.0606562046
C  C563  1  0.29660000  0.82360000  0.84770000  1.0 0.0606562046
C  C564  1  0.70340000  0.67640000  0.34770000  1.0 0.0606562046
C  C565  1  0.77210000  0.20710000  0.67570000  1.0 0.0030406983
C  C566  1  0.22790000  0.29290000  0.17570000  1.0 0.0030406983
C  C567  1  0.27210000  0.79290000  0.82430000  1.0 0.0030406983
C  C568  1  0.72790000  0.70710000  0.32430000  1.0 0.0030406983
C  C569  1  0.77710000  0.25660000  0.67180000  1.0 -0.0383134926
C  C570  1  0.22290000  0.24340000  0.17180000  1.0 -0.0515809119
C  C571  1  0.27710000  0.74340000  0.82820000  1.0 -0.0515809119
C  C572  1  0.72290000  0.75660000  0.32820000  1.0 -0.0383134926
C  C573  1  0.75420000  0.28890000  0.69540000  1.0 0.0215171358
C  C574  1  0.24580000  0.21110000  0.19540000  1.0 0.0215171358
C  C575  1  0.25420000  0.71110000  0.80460000  1.0 0.0215171358
C  C576  1  0.74580000  0.78890000  0.30460000  1.0 0.0215171358
C  C577  1  0.72630000  0.27400000  0.72390000  1.0 -0.0027048059
C  C578  1  0.27370000  0.22600000  0.22390000  1.0 -0.0027048059
C  C579  1  0.22630000  0.72600000  0.77610000  1.0 -0.0027048059
C  C580  1  0.77370000  0.77400000  0.27610000  1.0 -0.0027048059
C  C581  1  0.70490000  0.30790000  0.74580000  1.0 -0.0383134926
C  C582  1  0.29510000  0.19210000  0.24580000  1.0 -0.0383134926
C  C583  1  0.20490000  0.69210000  0.75420000  1.0 -0.0383134926
C  C584  1  0.79510000  0.80790000  0.25420000  1.0 -0.0383134926
C  C585  1  0.71120000  0.35670000  0.73930000  1.0 -0.1178142369
C  C586  1  0.28880000  0.14330000  0.23930000  1.0 -0.1178142369
C  C587  1  0.21120000  0.64330000  0.76070000  1.0 -0.1178142369
C  C588  1  0.78880000  0.85670000  0.26070000  1.0 -0.1178142369
C  C589  1  0.73910000  0.37160000  0.71080000  1.0 -0.1822591967
C  C590  1  0.26090000  0.12840000  0.21080000  1.0 -0.1822591967
C  C591  1  0.23910000  0.62840000  0.78920000  1.0 -0.1822591967
C  C592  1  0.76090000  0.87160000  0.28920000  1.0 -0.1822591967
C  C593  1  0.76050000  0.33770000  0.68890000  1.0 0.0030406983
C  C594  1  0.23950000  0.16230000  0.18890000  1.0 0.0030406983
C  C595  1  0.26050000  0.66230000  0.81110000  1.0 0.0030406983
C  C596  1  0.73950000  0.83770000  0.31110000  1.0 0.0030406983
C  C597  1  0.79100000  0.35950000  0.65940000  1.0 0.02903252
C  C598  1  0.20900000  0.14050000  0.15940000  1.0 0.02903252
C  C599  1  0.29100000  0.64050000  0.84060000  1.0 0.02903252
C  C600  1  0.70900000  0.85950000  0.34060000  1.0 0.02903252
C  C601  1  0.80030000  0.40780000  0.65180000  1.0 -0.0223177826
C  C602  1  0.19970000  0.09220000  0.15180000  1.0 -0.0223177826
C  C603  1  0.30030000  0.59220000  0.84820000  1.0 -0.0223177826
C  C604  1  0.69970000  0.90780000  0.34820000  1.0 -0.0223177826
C  C605  1  0.82830000  0.42070000  0.62290000  1.0 -0.0515809119
C  C606  1  0.17170000  0.07930000  0.12290000  1.0 -0.0515809119
C  C607  1  0.32830000  0.57930000  0.87710000  1.0 -0.0515809119
C  C608  1  0.67170000  0.92070000  0.37710000  1.0 -0.0515809119
C  C609  1  0.84700000  0.38520000  0.60170000  1.0 -0.0515809119
C  C610  1  0.15300000  0.11480000  0.10170000  1.0 -0.0515809119
C  C611  1  0.34700000  0.61480000  0.89830000  1.0 -0.0515809119
C  C612  1  0.65300000  0.88520000  0.39830000  1.0 -0.0515809119
C  C613  1  0.81000000  0.32410000  0.63820000  1.0 0.03849956
C  C614  1  0.19000000  0.17590000  0.13820000  1.0 0.03849956
C  C615  1  0.31000000  0.67590000  0.86180000  1.0 0.03849956
C  C616  1  0.69000000  0.82410000  0.36180000  1.0 0.03849956
C  C617  1  0.96200000  0.25720000  0.52960000  1.0 0.1301049278
C  C618  1  0.03800000  0.24280000  0.02960000  1.0 0.1200487333
C  C619  1  0.46200000  0.74280000  0.97040000  1.0 0.1200487333
C  C620  1  0.53800000  0.75720000  0.47040000  1.0 0.1301049278
C  C621  1  0.03800000  0.27960000  0.48550000  1.0 -0.0877099639
C  C622  1  0.96200000  0.22040000  0.98550000  1.0 -0.0877099639
C  C623  1  0.53800000  0.72040000  0.01450000  1.0 -0.0877099639
C  C624  1  0.46200000  0.77960000  0.51450000  1.0 -0.0877099639
S  S1  1  0.21150000  0.92590000  0.33094000  1.0 -0.3438741717
S  S2  1  0.78850000  0.57410000  0.83094000  1.0 -0.3438741717
S  S3  1  0.71150000  0.07410000  0.16906000  1.0 -0.3438741717
S  S4  1  0.28850000  0.42590000  0.66906000  1.0 -0.3438741717
S  S5  1  0.28190000  0.88680000  0.27418000  1.0 -0.3240833068
S  S6  1  0.71810000  0.61320000  0.77418000  1.0 -0.3240833068
S  S7  1  0.78190000  0.11320000  0.22582000  1.0 -0.3240833068
S  S8  1  0.21810000  0.38680000  0.72582000  1.0 -0.3240833068
S  S9  1  0.05440000  0.68260000  0.46320000  1.0 -0.2595005324
S  S10  1  0.94560000  0.81740000  0.96320000  1.0 -0.2595005324
S  S11  1  0.55440000  0.31740000  0.03680000  1.0 -0.2595005324
S  S12  1  0.44560000  0.18260000  0.53680000  1.0 -0.2595005324
S  S13  1  0.07670000  0.78470000  0.44490000  1.0 -0.0383134926
S  S14  1  0.92330000  0.71530000  0.94490000  1.0 -0.0383134926
S  S15  1  0.57670000  0.21530000  0.05510000  1.0 -0.0383134926
S  S16  1  0.42330000  0.28470000  0.55510000  1.0 -0.0383134926
S  S17  1  0.78850000  0.07410000  0.66906000  1.0 -0.3438741717
S  S18  1  0.21150000  0.42590000  0.16906000  1.0 -0.3438741717
S  S19  1  0.28850000  0.92590000  0.83094000  1.0 -0.3438741717
S  S20  1  0.71150000  0.57410000  0.33094000  1.0 -0.3438741717
S  S21  1  0.71810000  0.11320000  0.72582000  1.0 -0.3240833068
S  S22  1  0.28190000  0.38680000  0.22582000  1.0 -0.3240833068
S  S23  1  0.21810000  0.88680000  0.77418000  1.0 -0.3240833068
S  S24  1  0.78190000  0.61320000  0.27418000  1.0 -0.3240833068
S  S25  1  0.94560000  0.31740000  0.53680000  1.0 -0.2595005324
S  S26  1  0.05440000  0.18260000  0.03680000  1.0 -0.2595005324
S  S27  1  0.44560000  0.68260000  0.96320000  1.0 -0.2595005324
S  S28  1  0.55440000  0.81740000  0.46320000  1.0 -0.2595005324
S  S29  1  0.92330000  0.21530000  0.55510000  1.0 -0.0383134926
S  S30  1  0.07670000  0.28470000  0.05510000  1.0 -0.0383134926
S  S31  1  0.42330000  0.78470000  0.94490000  1.0 -0.0383134926
S  S32  1  0.57670000  0.71530000  0.44490000  1.0 -0.0383134926
I  I1  1  0.32309000  0.16846000  0.83230000  1.0 -0.4626635508
I  I2  1  0.67691000  0.33154000  0.33230000  1.0 -0.4626635508
I  I3  1  0.82309000  0.83154000  0.66770000  1.0 -0.4626635508
I  I4  1  0.17691000  0.66846000  0.16770000  1.0 -0.4626635508
I  I5  1  0.16057000  0.30023000  0.81424000  1.0 -0.4340051161
I  I6  1  0.83943000  0.19977000  0.31424000  1.0 -0.4340051161
I  I7  1  0.66057000  0.69977000  0.68576000  1.0 -0.4340051161
I  I8  1  0.33943000  0.80023000  0.18576000  1.0 -0.4340051161
I  I9  1  0.70797000  0.57558000  0.62412000  1.0 -0.4498562039
I  I10  1  0.29203000  0.92442000  0.12412000  1.0 -0.4498562039
I  I11  1  0.20797000  0.42442000  0.87588000  1.0 -0.4498562039
I  I12  1  0.79203000  0.07558000  0.37588000  1.0 -0.4498562039
I  I13  1  0.69580000  0.50552000  0.53418000  1.0 -0.4782324368
I  I14  1  0.30420000  0.99448000  0.03418000  1.0 -0.4782324368
I  I15  1  0.19580000  0.49448000  0.96582000  1.0 -0.4782324368
I  I16  1  0.80420000  0.00552000  0.46582000  1.0 -0.4782324368
I  I17  1  0.56306000  0.98311000  0.61686000  1.0 -0.4383677476
I  I18  1  0.43694000  0.51689000  0.11686000  1.0 -0.4383677476
I  I19  1  0.06306000  0.01689000  0.88314000  1.0 -0.4383677476
I  I20  1  0.93694000  0.48311000  0.38314000  1.0 -0.4383677476
I  I21  1  0.82852000  0.05705000  0.57933000  1.0 -0.4122360097
I  I22  1  0.17148000  0.44295000  0.07933000  1.0 -0.4122360097
I  I23  1  0.32852000  0.94295000  0.92067000  1.0 -0.4122360097
I  I24  1  0.67148000  0.55705000  0.42067000  1.0 -0.4122360097
I  I25  1  0.67691000  0.83154000  0.16770000  1.0 -0.4626635508
I  I26  1  0.32309000  0.66846000  0.66770000  1.0 -0.4626635508
I  I27  1  0.17691000  0.16846000  0.33230000  1.0 -0.4626635508
I  I28  1  0.82309000  0.33154000  0.83230000  1.0 -0.4626635508
I  I29  1  0.83943000  0.69977000  0.18576000  1.0 -0.4340051161
I  I30  1  0.16057000  0.80023000  0.68576000  1.0 -0.4340051161
I  I31  1  0.33943000  0.30023000  0.31424000  1.0 -0.4340051161
I  I32  1  0.66057000  0.19977000  0.81424000  1.0 -0.4340051161
I  I33  1  0.29203000  0.42442000  0.37588000  1.0 -0.4498562039
I  I34  1  0.70797000  0.07558000  0.87588000  1.0 -0.4498562039
I  I35  1  0.79203000  0.57558000  0.12412000  1.0 -0.4498562039
I  I36  1  0.20797000  0.92442000  0.62412000  1.0 -0.4498562039
I  I37  1  0.30420000  0.49448000  0.46582000  1.0 -0.4782324368
I  I38  1  0.69580000  0.00552000  0.96582000  1.0 -0.4782324368
I  I39  1  0.80420000  0.50552000  0.03418000  1.0 -0.4782324368
I  I40  1  0.19580000  0.99448000  0.53418000  1.0 -0.4782324368
I  I41  1  0.43694000  0.01689000  0.38314000  1.0 -0.4383677476
I  I42  1  0.56306000  0.48311000  0.88314000  1.0 -0.4383677476
I  I43  1  0.93694000  0.98311000  0.11686000  1.0 -0.4383677476
I  I44  1  0.06306000  0.51689000  0.61686000  1.0 -0.4383677476
I  I45  1  0.17148000  0.94295000  0.42067000  1.0 -0.4122360097
I  I46  1  0.82852000  0.55705000  0.92067000  1.0 -0.4122360097
I  I47  1  0.67148000  0.05705000  0.07933000  1.0 -0.4122360097
I  I48  1  0.32852000  0.44295000  0.57933000  1.0 -0.4122360097
N  N1  1  0.72900000  0.34070000  0.51200000  1.0 -0.3087635124
N  N2  1  0.27100000  0.15930000  0.01200000  1.0 -0.3087635124
N  N3  1  0.22900000  0.65930000  0.98800000  1.0 -0.3087635124
N  N4  1  0.77100000  0.84070000  0.48800000  1.0 -0.3087635124
N  N5  1  0.06700000  0.68280000  0.46730000  1.0 -0.2595005324
N  N6  1  0.93300000  0.81720000  0.96730000  1.0 -0.2595005324
N  N7  1  0.56700000  0.31720000  0.03270000  1.0 -0.2595005324
N  N8  1  0.43300000  0.18280000  0.53270000  1.0 -0.2595005324
N  N9  1  0.19140000  0.80610000  0.35273000  1.0 0.0521658449
N  N10  1  0.80860000  0.69390000  0.85273000  1.0 0.0521658449
N  N11  1  0.69140000  0.19390000  0.14727000  1.0 0.0521658449
N  N12  1  0.30860000  0.30610000  0.64727000  1.0 0.0521658449
N  N13  1  0.40050000  0.26930000  0.78120000  1.0 -0.1631678836
N  N14  1  0.59950000  0.23070000  0.28120000  1.0 -0.1631678836
N  N15  1  0.90050000  0.73070000  0.71880000  1.0 -0.1631678836
N  N16  1  0.09950000  0.76930000  0.21880000  1.0 -0.1631678836
N  N17  1  0.58800000  0.46070000  0.60606000  1.0 -0.1668519834
N  N18  1  0.41200000  0.03930000  0.10606000  1.0 -0.1668519834
N  N19  1  0.08800000  0.53930000  0.89394000  1.0 -0.1668519834
N  N20  1  0.91200000  0.96070000  0.39394000  1.0 -0.1668519834
N  N21  1  0.60320000  0.11330000  0.60493000  1.0 -0.1502566346
N  N22  1  0.39680000  0.38670000  0.10493000  1.0 -0.1502566346
N  N23  1  0.10320000  0.88670000  0.89507000  1.0 -0.1502566346
N  N24  1  0.89680000  0.61330000  0.39507000  1.0 -0.1502566346
N  N25  1  0.52090000  0.32760000  0.68060000  1.0 -0.3438741717
N  N26  1  0.47910000  0.17240000  0.18060000  1.0 -0.3438741717
N  N27  1  0.02090000  0.67240000  0.81940000  1.0 -0.3467322932
N  N28  1  0.97910000  0.82760000  0.31940000  1.0 -0.3438741717
N  N29  1  0.56420000  0.28750000  0.63554000  1.0 -0.3287277063
N  N30  1  0.43580000  0.21250000  0.13554000  1.0 -0.3287277063
N  N31  1  0.06420000  0.71250000  0.86446000  1.0 -0.3287277063
N  N32  1  0.93580000  0.78750000  0.36446000  1.0 -0.3287277063
N  N33  1  0.52350000  0.24240000  0.67877000  1.0 -0.3287277063
N  N34  1  0.47650000  0.25760000  0.17877000  1.0 -0.3287277063
N  N35  1  0.02350000  0.75760000  0.82123000  1.0 -0.3287277063
N  N36  1  0.97650000  0.74240000  0.32123000  1.0 -0.3287277063
N  N37  1  0.58500000  0.05330000  0.54449000  1.0 -0.1869569281
N  N38  1  0.41500000  0.44670000  0.04449000  1.0 -0.1869569281
N  N39  1  0.08500000  0.94670000  0.95551000  1.0 -0.1869569281
N  N40  1  0.91500000  0.55330000  0.45551000  1.0 -0.1869569281
N  N41  1  0.59710000  0.20560000  0.35138000  1.0 -0.1822591967
N  N42  1  0.40290000  0.29440000  0.85138000  1.0 -0.1822591967
N  N43  1  0.09710000  0.79440000  0.14862000  1.0 -0.1822591967
N  N44  1  0.90290000  0.70560000  0.64862000  1.0 -0.1822591967
N  N45  1  0.01310000  0.05500000  0.42290000  1.0 -0.1822591967
N  N46  1  0.98690000  0.44500000  0.92290000  1.0 -0.1822591967
N  N47  1  0.51310000  0.94500000  0.07710000  1.0 -0.1822591967
N  N48  1  0.48690000  0.55500000  0.57710000  1.0 -0.1822591967
N  N49  1  0.49080000  0.11820000  0.44384000  1.0 -0.3953640209
N  N50  1  0.50920000  0.38180000  0.94384000  1.0 -0.3953640209
N  N51  1  0.99080000  0.88180000  0.05616000  1.0 -0.394450848
N  N52  1  0.00920000  0.61820000  0.55616000  1.0 -0.3953640209
N  N53  1  0.34640000  0.12440000  0.41559000  1.0 -0.3699723696
N  N54  1  0.65360000  0.37560000  0.91559000  1.0 -0.3699723696
N  N55  1  0.84640000  0.87560000  0.08441000  1.0 -0.3699723696
N  N56  1  0.15360000  0.62440000  0.58441000  1.0 -0.3699723696
N  N57  1  0.34670000  0.08160000  0.46198000  1.0 -0.3699723696
N  N58  1  0.65330000  0.41840000  0.96198000  1.0 -0.3699723696
N  N59  1  0.84670000  0.91840000  0.03802000  1.0 -0.3699723696
N  N60  1  0.15330000  0.58160000  0.53802000  1.0 -0.3699723696
N  N61  1  0.16210000  0.66310000  0.39060000  1.0 -0.0223177826
N  N62  1  0.83790000  0.83690000  0.89060000  1.0 -0.0223177826
N  N63  1  0.66210000  0.33690000  0.10940000  1.0 -0.0223177826
N  N64  1  0.33790000  0.16310000  0.60940000  1.0 -0.0223177826
N  N65  1  0.27100000  0.65930000  0.48800000  1.0 -0.3087635124
N  N66  1  0.72900000  0.84070000  0.98800000  1.0 -0.3087635124
N  N67  1  0.77100000  0.34070000  0.01200000  1.0 -0.3087635124
N  N68  1  0.22900000  0.15930000  0.51200000  1.0 -0.3087635124
N  N69  1  0.93300000  0.31720000  0.53270000  1.0 -0.2595005324
N  N70  1  0.06700000  0.18280000  0.03270000  1.0 -0.2595005324
N  N71  1  0.43300000  0.68280000  0.96730000  1.0 -0.2595005324
N  N72  1  0.56700000  0.81720000  0.46730000  1.0 -0.2595005324
N  N73  1  0.80860000  0.19390000  0.64727000  1.0 0.0521658449
N  N74  1  0.19140000  0.30610000  0.14727000  1.0 0.0521658449
N  N75  1  0.30860000  0.80610000  0.85273000  1.0 0.0521658449
N  N76  1  0.69140000  0.69390000  0.35273000  1.0 0.0521658449
N  N77  1  0.59950000  0.73070000  0.21880000  1.0 -0.1631678836
N  N78  1  0.40050000  0.76930000  0.71880000  1.0 -0.1631678836
N  N79  1  0.09950000  0.26930000  0.28120000  1.0 -0.1631678836
N  N80  1  0.90050000  0.23070000  0.78120000  1.0 -0.1631678836
N  N81  1  0.41200000  0.53930000  0.39394000  1.0 -0.1668519834
N  N82  1  0.58800000  0.96070000  0.89394000  1.0 -0.1668519834
N  N83  1  0.91200000  0.46070000  0.10606000  1.0 -0.1668519834
N  N84  1  0.08800000  0.03930000  0.60606000  1.0 -0.1668519834
N  N85  1  0.39680000  0.88670000  0.39507000  1.0 -0.1502566346
N  N86  1  0.60320000  0.61330000  0.89507000  1.0 -0.1502566346
N  N87  1  0.89680000  0.11330000  0.10493000  1.0 -0.1502566346
N  N88  1  0.10320000  0.38670000  0.60493000  1.0 -0.1502566346
N  N89  1  0.47910000  0.67240000  0.31940000  1.0 -0.3438741717
N  N90  1  0.52090000  0.82760000  0.81940000  1.0 -0.3467322932
N  N91  1  0.97910000  0.32760000  0.18060000  1.0 -0.3438741717
N  N92  1  0.02090000  0.17240000  0.68060000  1.0 -0.3438741717
N  N93  1  0.43580000  0.71250000  0.36446000  1.0 -0.3287277063
N  N94  1  0.56420000  0.78750000  0.86446000  1.0 -0.3287277063
N  N95  1  0.93580000  0.28750000  0.13554000  1.0 -0.3287277063
N  N96  1  0.06420000  0.21250000  0.63554000  1.0 -0.3287277063
N  N97  1  0.47650000  0.75760000  0.32123000  1.0 -0.3287277063
N  N98  1  0.52350000  0.74240000  0.82123000  1.0 -0.3287277063
N  N99  1  0.97650000  0.24240000  0.17877000  1.0 -0.3287277063
N  N100  1  0.02350000  0.25760000  0.67877000  1.0 -0.3287277063
N  N101  1  0.41500000  0.94670000  0.45551000  1.0 -0.1869569281
N  N102  1  0.58500000  0.55330000  0.95551000  1.0 -0.1869569281
N  N103  1  0.91500000  0.05330000  0.04449000  1.0 -0.1869569281
N  N104  1  0.08500000  0.44670000  0.54449000  1.0 -0.1869569281
N  N105  1  0.40290000  0.79440000  0.64862000  1.0 -0.1822591967
N  N106  1  0.59710000  0.70560000  0.14862000  1.0 -0.1822591967
N  N107  1  0.90290000  0.20560000  0.85138000  1.0 -0.1822591967
N  N108  1  0.09710000  0.29440000  0.35138000  1.0 -0.1822591967
N  N109  1  0.98690000  0.94500000  0.57710000  1.0 -0.1822591967
N  N110  1  0.01310000  0.55500000  0.07710000  1.0 -0.1822591967
N  N111  1  0.48690000  0.05500000  0.92290000  1.0 -0.1822591967
N  N112  1  0.51310000  0.44500000  0.42290000  1.0 -0.1822591967
N  N113  1  0.50920000  0.88180000  0.55616000  1.0 -0.3953640209
N  N114  1  0.49080000  0.61820000  0.05616000  1.0 -0.394450848
N  N115  1  0.00920000  0.11820000  0.94384000  1.0 -0.3953640209
N  N116  1  0.99080000  0.38180000  0.44384000  1.0 -0.3953640209
N  N117  1  0.65360000  0.87560000  0.58441000  1.0 -0.3699723696
N  N118  1  0.34640000  0.62440000  0.08441000  1.0 -0.3699723696
N  N119  1  0.15360000  0.12440000  0.91559000  1.0 -0.3699723696
N  N120  1  0.84640000  0.37560000  0.41559000  1.0 -0.3699723696
N  N121  1  0.65330000  0.91840000  0.53802000  1.0 -0.3699723696
N  N122  1  0.34670000  0.58160000  0.03802000  1.0 -0.3699723696
N  N123  1  0.15330000  0.08160000  0.96198000  1.0 -0.3699723696
N  N124  1  0.84670000  0.41840000  0.46198000  1.0 -0.3699723696
N  N125  1  0.83790000  0.33690000  0.60940000  1.0 -0.0223177826
N  N126  1  0.16210000  0.16310000  0.10940000  1.0 -0.0223177826
N  N127  1  0.33790000  0.66310000  0.89060000  1.0 -0.0223177826
N  N128  1  0.66210000  0.83690000  0.39060000  1.0 -0.0223177826
O  O1  1  0.27000000  0.97910000  0.28630000  1.0 -0.1084448121
O  O2  1  0.73000000  0.52090000  0.78630000  1.0 -0.1084448121
O  O3  1  0.77000000  0.02090000  0.21370000  1.0 -0.1084448121
O  O4  1  0.23000000  0.47910000  0.71370000  1.0 -0.1084448121
O  O5  1  0.00500000  0.75600000  0.49680000  1.0 -0.1385537888
O  O6  1  0.99500000  0.74400000  0.99680000  1.0 -0.1385537888
O  O7  1  0.50500000  0.24400000  0.00320000  1.0 -0.1385537888
O  O8  1  0.49500000  0.25600000  0.50320000  1.0 -0.1385537888
O  O9  1  0.73000000  0.02090000  0.71370000  1.0 -0.1084448121
O  O10  1  0.27000000  0.47910000  0.21370000  1.0 -0.1084448121
O  O11  1  0.23000000  0.97910000  0.78630000  1.0 -0.1084448121
O  O12  1  0.77000000  0.52090000  0.28630000  1.0 -0.1084448121
O  O13  1  0.99500000  0.24400000  0.50320000  1.0 -0.1385537888
O  O14  1  0.00500000  0.25600000  0.00320000  1.0 -0.1385537888
O  O15  1  0.49500000  0.75600000  0.99680000  1.0 -0.1385537888
O  O16  1  0.50500000  0.74400000  0.49680000  1.0 -0.1385537888
