# DDEC6 charges by PACMAN v1.1 (https://github.com/mtap-research/PACMAN-charge/)
data_RIYBEI_FSR_pacman
_symmetry_space_group_name_H-M   'P 1'
_cell_length_a   13.78760000
_cell_length_b   27.87470000
_cell_length_c   45.41500000
_cell_angle_alpha   90.00000000
_cell_angle_beta   90.00000000
_cell_angle_gamma   90.00000000
_symmetry_Int_Tables_number   1
_chemical_formula_structural   Zn3H42Pd2C61S2I6N14O3
_chemical_formula_sum   'Zn24 H336 Pd16 C488 S16 I48 N112 O24'
_cell_volume   17454.12958109
_cell_formula_units_Z   8
loop_
 _symmetry_equiv_pos_site_id
 _symmetry_equiv_pos_as_xyz
  1  'x, y, z'
loop_
 _atom_site_type_symbol
 _atom_site_label
 _atom_site_symmetry_multiplicity
 _atom_site_fract_x
 _atom_site_fract_y
 _atom_site_fract_z
 _atom_site_occupancy
 _atom_site_charge
Zn  Zn1  1  0.16105000  0.75673000  0.81384000  1.0 0.4716903486
Zn  Zn2  1  0.83895000  0.74327000  0.31384000  1.0 0.4716903486
Zn  Zn3  1  0.33895000  0.25673000  0.18616000  1.0 0.4716903486
Zn  Zn4  1  0.66105000  0.24327000  0.68616000  1.0 0.4716903486
Zn  Zn5  1  0.83895000  0.24327000  0.18616000  1.0 0.4716903486
Zn  Zn6  1  0.16105000  0.25673000  0.68616000  1.0 0.4716903486
Zn  Zn7  1  0.66105000  0.74327000  0.81384000  1.0 0.4716903486
Zn  Zn8  1  0.33895000  0.75673000  0.31384000  1.0 0.4716903486
Zn  Zn9  1  0.84944000  0.55113000  0.57684000  1.0 0.462260741
Zn  Zn10  1  0.15056000  0.94887000  0.07684000  1.0 0.462260741
Zn  Zn11  1  0.65056000  0.05113000  0.42316000  1.0 0.462260741
Zn  Zn12  1  0.34944000  0.44887000  0.92316000  1.0 0.462260741
Zn  Zn13  1  0.15056000  0.44887000  0.42316000  1.0 0.462260741
Zn  Zn14  1  0.84944000  0.05113000  0.92316000  1.0 0.462260741
Zn  Zn15  1  0.34944000  0.94887000  0.57684000  1.0 0.462260741
Zn  Zn16  1  0.65056000  0.55113000  0.07684000  1.0 0.462260741
Zn  Zn17  1  0.63054000  0.52500000  0.41202000  1.0 0.4716903486
Zn  Zn18  1  0.36946000  0.97500000  0.91202000  1.0 0.4716903486
Zn  Zn19  1  0.86946000  0.02500000  0.58798000  1.0 0.4716903486
Zn  Zn20  1  0.13054000  0.47500000  0.08798000  1.0 0.4716903486
Zn  Zn21  1  0.36946000  0.47500000  0.58798000  1.0 0.4716903486
Zn  Zn22  1  0.63054000  0.02500000  0.08798000  1.0 0.4716903486
Zn  Zn23  1  0.13054000  0.97500000  0.41202000  1.0 0.4716903486
Zn  Zn24  1  0.86946000  0.52500000  0.91202000  1.0 0.4716903486
H  H1  1  0.04860000  0.72830000  0.33220000  1.0 0.1106562795
H  H2  1  0.95140000  0.77170000  0.83220000  1.0 0.1106562795
H  H3  1  0.45140000  0.22830000  0.66780000  1.0 0.1106562795
H  H4  1  0.54860000  0.27170000  0.16780000  1.0 0.1106562795
H  H5  1  0.95140000  0.27170000  0.66780000  1.0 0.1106562795
H  H6  1  0.04860000  0.22830000  0.16780000  1.0 0.1106562795
H  H7  1  0.54860000  0.77170000  0.33220000  1.0 0.1106562795
H  H8  1  0.45140000  0.72830000  0.83220000  1.0 0.1106562795
H  H9  1  0.80290000  0.68350000  0.36650000  1.0 0.1106562795
H  H10  1  0.19710000  0.81650000  0.86650000  1.0 0.1106562795
H  H11  1  0.69710000  0.18350000  0.63350000  1.0 0.1106562795
H  H12  1  0.30290000  0.31650000  0.13350000  1.0 0.1106562795
H  H13  1  0.19710000  0.31650000  0.63350000  1.0 0.1106562795
H  H14  1  0.80290000  0.18350000  0.13350000  1.0 0.1106562795
H  H15  1  0.30290000  0.81650000  0.36650000  1.0 0.1106562795
H  H16  1  0.69710000  0.68350000  0.86650000  1.0 0.1106562795
H  H17  1  0.95250000  0.65240000  0.66240000  1.0 0.1298485766
H  H18  1  0.04750000  0.84760000  0.16240000  1.0 0.1298485766
H  H19  1  0.54750000  0.15240000  0.33760000  1.0 0.1298485766
H  H20  1  0.45250000  0.34760000  0.83760000  1.0 0.1298485766
H  H21  1  0.04750000  0.34760000  0.33760000  1.0 0.1298485766
H  H22  1  0.95250000  0.15240000  0.83760000  1.0 0.1298485766
H  H23  1  0.45250000  0.84760000  0.66240000  1.0 0.1298485766
H  H24  1  0.54750000  0.65240000  0.16240000  1.0 0.1298485766
H  H25  1  0.09370000  0.83550000  0.77430000  1.0 0.1199059248
H  H26  1  0.90630000  0.66450000  0.27430000  1.0 0.1199059248
H  H27  1  0.40630000  0.33550000  0.22570000  1.0 0.1199059248
H  H28  1  0.59370000  0.16450000  0.72570000  1.0 0.1199059248
H  H29  1  0.90630000  0.16450000  0.22570000  1.0 0.1199059248
H  H30  1  0.09370000  0.33550000  0.72570000  1.0 0.1199059248
H  H31  1  0.59370000  0.66450000  0.77430000  1.0 0.1199059248
H  H32  1  0.40630000  0.83550000  0.27430000  1.0 0.1199059248
H  H33  1  0.86610000  0.65690000  0.56410000  1.0 0.0996918515
H  H34  1  0.13390000  0.84310000  0.06410000  1.0 0.0996918515
H  H35  1  0.63390000  0.15690000  0.43590000  1.0 0.0996918515
H  H36  1  0.36610000  0.34310000  0.93590000  1.0 0.0996918515
H  H37  1  0.13390000  0.34310000  0.43590000  1.0 0.0996918515
H  H38  1  0.86610000  0.15690000  0.93590000  1.0 0.0996918515
H  H39  1  0.36610000  0.84310000  0.56410000  1.0 0.0996918515
H  H40  1  0.63390000  0.65690000  0.06410000  1.0 0.0996918515
H  H41  1  0.92280000  0.58330000  0.63610000  1.0 0.1106562795
H  H42  1  0.07720000  0.91670000  0.13610000  1.0 0.1106562795
H  H43  1  0.57720000  0.08330000  0.36390000  1.0 0.1106562795
H  H44  1  0.42280000  0.41670000  0.86390000  1.0 0.1106562795
H  H45  1  0.07720000  0.41670000  0.36390000  1.0 0.1106562795
H  H46  1  0.92280000  0.08330000  0.86390000  1.0 0.1106562795
H  H47  1  0.42280000  0.91670000  0.63610000  1.0 0.1106562795
H  H48  1  0.57720000  0.58330000  0.13610000  1.0 0.1106562795
H  H49  1  0.04860000  0.69550000  0.77070000  1.0 0.1106562795
H  H50  1  0.95140000  0.80450000  0.27070000  1.0 0.1106562795
H  H51  1  0.45140000  0.19550000  0.22930000  1.0 0.1106562795
H  H52  1  0.54860000  0.30450000  0.72930000  1.0 0.1106562795
H  H53  1  0.95140000  0.30450000  0.22930000  1.0 0.1106562795
H  H54  1  0.04860000  0.19550000  0.72930000  1.0 0.1106562795
H  H55  1  0.54860000  0.80450000  0.77070000  1.0 0.1106562795
H  H56  1  0.45140000  0.69550000  0.27070000  1.0 0.1106562795
H  H57  1  0.80540000  0.59240000  0.51710000  1.0 0.0996918515
H  H58  1  0.19460000  0.90760000  0.01710000  1.0 0.0996918515
H  H59  1  0.69460000  0.09240000  0.48290000  1.0 0.0996918515
H  H60  1  0.30540000  0.40760000  0.98290000  1.0 0.0996918515
H  H61  1  0.19460000  0.40760000  0.48290000  1.0 0.0996918515
H  H62  1  0.80540000  0.09240000  0.98290000  1.0 0.0996918515
H  H63  1  0.30540000  0.90760000  0.51710000  1.0 0.0996918515
H  H64  1  0.69460000  0.59240000  0.01710000  1.0 0.0996918515
H  H65  1  0.98770000  0.70260000  0.72330000  1.0 0.1298485766
H  H66  1  0.01230000  0.79740000  0.22330000  1.0 0.1298485766
H  H67  1  0.51230000  0.20260000  0.27670000  1.0 0.1298485766
H  H68  1  0.48770000  0.29740000  0.77670000  1.0 0.1298485766
H  H69  1  0.01230000  0.29740000  0.27670000  1.0 0.1298485766
H  H70  1  0.98770000  0.20260000  0.77670000  1.0 0.1298485766
H  H71  1  0.48770000  0.79740000  0.72330000  1.0 0.1298485766
H  H72  1  0.51230000  0.70260000  0.22330000  1.0 0.1298485766
H  H73  1  0.12830000  0.55170000  0.50570000  1.0 0.1298485766
H  H74  1  0.87170000  0.94830000  0.00570000  1.0 0.1298485766
H  H75  1  0.37170000  0.05170000  0.49430000  1.0 0.1298485766
H  H76  1  0.62830000  0.44830000  0.99430000  1.0 0.1298485766
H  H77  1  0.87170000  0.44830000  0.49430000  1.0 0.1298485766
H  H78  1  0.12830000  0.05170000  0.99430000  1.0 0.1298485766
H  H79  1  0.62830000  0.94830000  0.50570000  1.0 0.1298485766
H  H80  1  0.37170000  0.55170000  0.00570000  1.0 0.1298485766
H  H81  1  0.33930000  0.57270000  0.47100000  1.0 0.1298485766
H  H82  1  0.66070000  0.92730000  0.97100000  1.0 0.1298485766
H  H83  1  0.16070000  0.07270000  0.52900000  1.0 0.1298485766
H  H84  1  0.83930000  0.42730000  0.02900000  1.0 0.1298485766
H  H85  1  0.66070000  0.42730000  0.52900000  1.0 0.1298485766
H  H86  1  0.33930000  0.07270000  0.02900000  1.0 0.1298485766
H  H87  1  0.83930000  0.92730000  0.47100000  1.0 0.1298485766
H  H88  1  0.16070000  0.57270000  0.97100000  1.0 0.1298485766
H  H89  1  0.04350000  0.53180000  0.54810000  1.0 0.0996918515
H  H90  1  0.95650000  0.96820000  0.04810000  1.0 0.0996918515
H  H91  1  0.45650000  0.03180000  0.45190000  1.0 0.0996918515
H  H92  1  0.54350000  0.46820000  0.95190000  1.0 0.0996918515
H  H93  1  0.95650000  0.46820000  0.45190000  1.0 0.0996918515
H  H94  1  0.04350000  0.03180000  0.95190000  1.0 0.0996918515
H  H95  1  0.54350000  0.96820000  0.54810000  1.0 0.0996918515
H  H96  1  0.45650000  0.53180000  0.04810000  1.0 0.0996918515
H  H97  1  0.03530000  0.84590000  0.72760000  1.0 0.1298485766
H  H98  1  0.96470000  0.65410000  0.22760000  1.0 0.1298485766
H  H99  1  0.46470000  0.34590000  0.27240000  1.0 0.1298485766
H  H100  1  0.53530000  0.15410000  0.77240000  1.0 0.1298485766
H  H101  1  0.96470000  0.15410000  0.27240000  1.0 0.1298485766
H  H102  1  0.03530000  0.34590000  0.77240000  1.0 0.1298485766
H  H103  1  0.53530000  0.65410000  0.72760000  1.0 0.1298485766
H  H104  1  0.46470000  0.84590000  0.22760000  1.0 0.1298485766
H  H105  1  0.13600000  0.68990000  0.36820000  1.0 0.1384471741
H  H106  1  0.86400000  0.81010000  0.86820000  1.0 0.1384471741
H  H107  1  0.36400000  0.18990000  0.63180000  1.0 0.1384471741
H  H108  1  0.63600000  0.31010000  0.13180000  1.0 0.1384471741
H  H109  1  0.86400000  0.31010000  0.63180000  1.0 0.1384471741
H  H110  1  0.13600000  0.18990000  0.13180000  1.0 0.1384471741
H  H111  1  0.63600000  0.81010000  0.36820000  1.0 0.1384471741
H  H112  1  0.36400000  0.68990000  0.86820000  1.0 0.1384471741
H  H113  1  0.88330000  0.64880000  0.40550000  1.0 0.1298485766
H  H114  1  0.11670000  0.85120000  0.90550000  1.0 0.1298485766
H  H115  1  0.61670000  0.14880000  0.59450000  1.0 0.1298485766
H  H116  1  0.38330000  0.35120000  0.09450000  1.0 0.1298485766
H  H117  1  0.11670000  0.35120000  0.59450000  1.0 0.1298485766
H  H118  1  0.88330000  0.14880000  0.09450000  1.0 0.1298485766
H  H119  1  0.38330000  0.85120000  0.40550000  1.0 0.1298485766
H  H120  1  0.61670000  0.64880000  0.90550000  1.0 0.1298485766
H  H121  1  0.89530000  0.72910000  0.58840000  1.0 0.1199059248
H  H122  1  0.10470000  0.77090000  0.08840000  1.0 0.1199059248
H  H123  1  0.60470000  0.22910000  0.41160000  1.0 0.1199059248
H  H124  1  0.39530000  0.27090000  0.91160000  1.0 0.1199059248
H  H125  1  0.10470000  0.27090000  0.41160000  1.0 0.1199059248
H  H126  1  0.89530000  0.22910000  0.91160000  1.0 0.1199059248
H  H127  1  0.39530000  0.77090000  0.58840000  1.0 0.1199059248
H  H128  1  0.60470000  0.72910000  0.08840000  1.0 0.1199059248
H  H129  1  0.49390000  0.54430000  0.46250000  1.0 0.1106562795
H  H130  1  0.50610000  0.95570000  0.96250000  1.0 0.1106562795
H  H131  1  0.00610000  0.04430000  0.53750000  1.0 0.1106562795
H  H132  1  0.99390000  0.45570000  0.03750000  1.0 0.1106562795
H  H133  1  0.50610000  0.45570000  0.53750000  1.0 0.1106562795
H  H134  1  0.49390000  0.04430000  0.03750000  1.0 0.1106562795
H  H135  1  0.99390000  0.95570000  0.46250000  1.0 0.1106562795
H  H136  1  0.00610000  0.54430000  0.96250000  1.0 0.1106562795
H  H137  1  0.88650000  0.61570000  0.47430000  1.0 0.1384471741
H  H138  1  0.11350000  0.88430000  0.97430000  1.0 0.1384471741
H  H139  1  0.61350000  0.11570000  0.52570000  1.0 0.1384471741
H  H140  1  0.38650000  0.38430000  0.02570000  1.0 0.1384471741
H  H141  1  0.11350000  0.38430000  0.52570000  1.0 0.1384471741
H  H142  1  0.88650000  0.11570000  0.02570000  1.0 0.1384471741
H  H143  1  0.38650000  0.88430000  0.47430000  1.0 0.1384471741
H  H144  1  0.61350000  0.61570000  0.97430000  1.0 0.1384471741
H  H145  1  0.47110000  0.57170000  0.37810000  1.0 0.1106562795
H  H146  1  0.52890000  0.92830000  0.87810000  1.0 0.1106562795
H  H147  1  0.02890000  0.07170000  0.62190000  1.0 0.1106562795
H  H148  1  0.97110000  0.42830000  0.12190000  1.0 0.1106562795
H  H149  1  0.52890000  0.42830000  0.62190000  1.0 0.1106562795
H  H150  1  0.47110000  0.07170000  0.12190000  1.0 0.1106562795
H  H151  1  0.97110000  0.92830000  0.37810000  1.0 0.1106562795
H  H152  1  0.02890000  0.57170000  0.87810000  1.0 0.1106562795
H  H153  1  0.31520000  0.60120000  0.38400000  1.0 0.1384471741
H  H154  1  0.68480000  0.89880000  0.88400000  1.0 0.1384471741
H  H155  1  0.18480000  0.10120000  0.61600000  1.0 0.1384471741
H  H156  1  0.81520000  0.39880000  0.11600000  1.0 0.1384471741
H  H157  1  0.68480000  0.39880000  0.61600000  1.0 0.1384471741
H  H158  1  0.31520000  0.10120000  0.11600000  1.0 0.1384471741
H  H159  1  0.81520000  0.89880000  0.38400000  1.0 0.1384471741
H  H160  1  0.18480000  0.60120000  0.88400000  1.0 0.1384471741
H  H161  1  0.90430000  0.84690000  0.59260000  1.0 0.1199059248
H  H162  1  0.09570000  0.65310000  0.09260000  1.0 0.1199059248
H  H163  1  0.59570000  0.34690000  0.40740000  1.0 0.1199059248
H  H164  1  0.40430000  0.15310000  0.90740000  1.0 0.1199059248
H  H165  1  0.09570000  0.15310000  0.40740000  1.0 0.1199059248
H  H166  1  0.90430000  0.34690000  0.90740000  1.0 0.1199059248
H  H167  1  0.40430000  0.65310000  0.59260000  1.0 0.1199059248
H  H168  1  0.59570000  0.84690000  0.09260000  1.0 0.1199059248
H  H169  1  0.96030000  0.91220000  0.67010000  1.0 0.1298485766
H  H170  1  0.03970000  0.58780000  0.17010000  1.0 0.1298485766
H  H171  1  0.53970000  0.41220000  0.32990000  1.0 0.1298485766
H  H172  1  0.46030000  0.08780000  0.82990000  1.0 0.1298485766
H  H173  1  0.03970000  0.08780000  0.32990000  1.0 0.1298485766
H  H174  1  0.96030000  0.41220000  0.82990000  1.0 0.1298485766
H  H175  1  0.46030000  0.58780000  0.67010000  1.0 0.1298485766
H  H176  1  0.53970000  0.91220000  0.17010000  1.0 0.1298485766
H  H177  1  0.88470000  0.92180000  0.57120000  1.0 0.0869171074
H  H178  1  0.11530000  0.57820000  0.07120000  1.0 0.0869171074
H  H179  1  0.61530000  0.42180000  0.42880000  1.0 0.0869171074
H  H180  1  0.38470000  0.07820000  0.92880000  1.0 0.0869171074
H  H181  1  0.11530000  0.07820000  0.42880000  1.0 0.0869171074
H  H182  1  0.88470000  0.42180000  0.92880000  1.0 0.0869171074
H  H183  1  0.38470000  0.57820000  0.57120000  1.0 0.0869171074
H  H184  1  0.61530000  0.92180000  0.07120000  1.0 0.0869171074
H  H185  1  0.93600000  0.98550000  0.64680000  1.0 0.1106562795
H  H186  1  0.06400000  0.51450000  0.14680000  1.0 0.1106562795
H  H187  1  0.56400000  0.48550000  0.35320000  1.0 0.1106562795
H  H188  1  0.43600000  0.01450000  0.85320000  1.0 0.1106562795
H  H189  1  0.06400000  0.01450000  0.35320000  1.0 0.1106562795
H  H190  1  0.93600000  0.48550000  0.85320000  1.0 0.1106562795
H  H191  1  0.43600000  0.51450000  0.64680000  1.0 0.1106562795
H  H192  1  0.56400000  0.98550000  0.14680000  1.0 0.1106562795
H  H193  1  0.22770000  0.28260000  0.26590000  1.0 0.1199059248
H  H194  1  0.77230000  0.21740000  0.76590000  1.0 0.1199059248
H  H195  1  0.27230000  0.78260000  0.73410000  1.0 0.1199059248
H  H196  1  0.72770000  0.71740000  0.23410000  1.0 0.1199059248
H  H197  1  0.77230000  0.71740000  0.73410000  1.0 0.1199059248
H  H198  1  0.22770000  0.78260000  0.23410000  1.0 0.1199059248
H  H199  1  0.72770000  0.21740000  0.26590000  1.0 0.1199059248
H  H200  1  0.27230000  0.28260000  0.76590000  1.0 0.1199059248
H  H201  1  0.31980000  0.04230000  0.35930000  1.0 0.1298485766
H  H202  1  0.68020000  0.45770000  0.85930000  1.0 0.1298485766
H  H203  1  0.18020000  0.54230000  0.64070000  1.0 0.1298485766
H  H204  1  0.81980000  0.95770000  0.14070000  1.0 0.1298485766
H  H205  1  0.68020000  0.95770000  0.64070000  1.0 0.1298485766
H  H206  1  0.31980000  0.54230000  0.14070000  1.0 0.1298485766
H  H207  1  0.81980000  0.45770000  0.35930000  1.0 0.1298485766
H  H208  1  0.18020000  0.04230000  0.85930000  1.0 0.1298485766
H  H209  1  0.25300000  0.14380000  0.28930000  1.0 0.1199059248
H  H210  1  0.74700000  0.35620000  0.78930000  1.0 0.1199059248
H  H211  1  0.24700000  0.64380000  0.71070000  1.0 0.1199059248
H  H212  1  0.75300000  0.85620000  0.21070000  1.0 0.1199059248
H  H213  1  0.74700000  0.85620000  0.71070000  1.0 0.1199059248
H  H214  1  0.25300000  0.64380000  0.21070000  1.0 0.1199059248
H  H215  1  0.75300000  0.35620000  0.28930000  1.0 0.1199059248
H  H216  1  0.24700000  0.14380000  0.78930000  1.0 0.1199059248
H  H217  1  0.29160000  0.09490000  0.32420000  1.0 0.1199059248
H  H218  1  0.70840000  0.40510000  0.82420000  1.0 0.1199059248
H  H219  1  0.20840000  0.59490000  0.67580000  1.0 0.1199059248
H  H220  1  0.79160000  0.90510000  0.17580000  1.0 0.1199059248
H  H221  1  0.70840000  0.90510000  0.67580000  1.0 0.1199059248
H  H222  1  0.29160000  0.59490000  0.17580000  1.0 0.1199059248
H  H223  1  0.79160000  0.40510000  0.32420000  1.0 0.1199059248
H  H224  1  0.20840000  0.09490000  0.82420000  1.0 0.1199059248
H  H225  1  0.36020000  0.15050000  0.41640000  1.0 0.1106562795
H  H226  1  0.63980000  0.34950000  0.91640000  1.0 0.1106562795
H  H227  1  0.13980000  0.65050000  0.58360000  1.0 0.1106562795
H  H228  1  0.86020000  0.84950000  0.08360000  1.0 0.1106562795
H  H229  1  0.63980000  0.84950000  0.58360000  1.0 0.1106562795
H  H230  1  0.36020000  0.65050000  0.08360000  1.0 0.1106562795
H  H231  1  0.86020000  0.34950000  0.41640000  1.0 0.1106562795
H  H232  1  0.13980000  0.15050000  0.91640000  1.0 0.1106562795
H  H233  1  0.21740000  0.20720000  0.25330000  1.0 0.1298485766
H  H234  1  0.78260000  0.29280000  0.75330000  1.0 0.1298485766
H  H235  1  0.28260000  0.70720000  0.74670000  1.0 0.1298485766
H  H236  1  0.71740000  0.79280000  0.24670000  1.0 0.1298485766
H  H237  1  0.78260000  0.79280000  0.74670000  1.0 0.1298485766
H  H238  1  0.21740000  0.70720000  0.24670000  1.0 0.1298485766
H  H239  1  0.71740000  0.29280000  0.25330000  1.0 0.1298485766
H  H240  1  0.28260000  0.20720000  0.75330000  1.0 0.1298485766
H  H241  1  0.34240000  0.35780000  0.39000000  1.0 0.0996918515
H  H242  1  0.65760000  0.14220000  0.89000000  1.0 0.0996918515
H  H243  1  0.15760000  0.85780000  0.61000000  1.0 0.0996918515
H  H244  1  0.84240000  0.64220000  0.11000000  1.0 0.0996918515
H  H245  1  0.65760000  0.64220000  0.61000000  1.0 0.0996918515
H  H246  1  0.34240000  0.85780000  0.11000000  1.0 0.0996918515
H  H247  1  0.84240000  0.14220000  0.39000000  1.0 0.0996918515
H  H248  1  0.15760000  0.35780000  0.89000000  1.0 0.0996918515
H  H249  1  0.37320000  0.30840000  0.42960000  1.0 0.1199059248
H  H250  1  0.62680000  0.19160000  0.92960000  1.0 0.1199059248
H  H251  1  0.12680000  0.80840000  0.57040000  1.0 0.1199059248
H  H252  1  0.87320000  0.69160000  0.07040000  1.0 0.1199059248
H  H253  1  0.62680000  0.69160000  0.57040000  1.0 0.1199059248
H  H254  1  0.37320000  0.80840000  0.07040000  1.0 0.1199059248
H  H255  1  0.87320000  0.19160000  0.42960000  1.0 0.1199059248
H  H256  1  0.12680000  0.30840000  0.92960000  1.0 0.1199059248
H  H257  1  0.36640000  0.22670000  0.42450000  1.0 0.1384471741
H  H258  1  0.63360000  0.27330000  0.92450000  1.0 0.1384471741
H  H259  1  0.13360000  0.72670000  0.57550000  1.0 0.1384471741
H  H260  1  0.86640000  0.77330000  0.07550000  1.0 0.1384471741
H  H261  1  0.63360000  0.77330000  0.57550000  1.0 0.1384471741
H  H262  1  0.36640000  0.72670000  0.07550000  1.0 0.1384471741
H  H263  1  0.86640000  0.27330000  0.42450000  1.0 0.1384471741
H  H264  1  0.13360000  0.22670000  0.92450000  1.0 0.1384471741
H  H265  1  0.35770000  0.07000000  0.40640000  1.0 0.1199059248
H  H266  1  0.64230000  0.43000000  0.90640000  1.0 0.1199059248
H  H267  1  0.14230000  0.57000000  0.59360000  1.0 0.1199059248
H  H268  1  0.85770000  0.93000000  0.09360000  1.0 0.1199059248
H  H269  1  0.64230000  0.93000000  0.59360000  1.0 0.1199059248
H  H270  1  0.35770000  0.57000000  0.09360000  1.0 0.1199059248
H  H271  1  0.85770000  0.43000000  0.40640000  1.0 0.1199059248
H  H272  1  0.14230000  0.07000000  0.90640000  1.0 0.1199059248
H  H273  1  0.36900000  0.52330000  0.30970000  1.0 0.1199059248
H  H274  1  0.63100000  0.97670000  0.80970000  1.0 0.1199059248
H  H275  1  0.13100000  0.02330000  0.69030000  1.0 0.1199059248
H  H276  1  0.86900000  0.47670000  0.19030000  1.0 0.1199059248
H  H277  1  0.63100000  0.47670000  0.69030000  1.0 0.1199059248
H  H278  1  0.36900000  0.02330000  0.19030000  1.0 0.1199059248
H  H279  1  0.86900000  0.97670000  0.30970000  1.0 0.1199059248
H  H280  1  0.13100000  0.52330000  0.80970000  1.0 0.1199059248
H  H281  1  0.26560000  0.54870000  0.30600000  1.0 0.1298485766
H  H282  1  0.73440000  0.95130000  0.80600000  1.0 0.1298485766
H  H283  1  0.23440000  0.04870000  0.69400000  1.0 0.1298485766
H  H284  1  0.76560000  0.45130000  0.19400000  1.0 0.1298485766
H  H285  1  0.73440000  0.45130000  0.69400000  1.0 0.1298485766
H  H286  1  0.26560000  0.04870000  0.19400000  1.0 0.1298485766
H  H287  1  0.76560000  0.95130000  0.30600000  1.0 0.1298485766
H  H288  1  0.23440000  0.54870000  0.80600000  1.0 0.1298485766
H  H289  1  0.28440000  0.51290000  0.33300000  1.0 0.1199059248
H  H290  1  0.71560000  0.98710000  0.83300000  1.0 0.1199059248
H  H291  1  0.21560000  0.01290000  0.66700000  1.0 0.1199059248
H  H292  1  0.78440000  0.48710000  0.16700000  1.0 0.1199059248
H  H293  1  0.71560000  0.48710000  0.66700000  1.0 0.1199059248
H  H294  1  0.28440000  0.01290000  0.16700000  1.0 0.1199059248
H  H295  1  0.78440000  0.98710000  0.33300000  1.0 0.1199059248
H  H296  1  0.21560000  0.51290000  0.83300000  1.0 0.1199059248
H  H297  1  0.20920000  0.68510000  0.52080000  1.0 0.1298485766
H  H298  1  0.79080000  0.81490000  0.02080000  1.0 0.1298485766
H  H299  1  0.29080000  0.18510000  0.47920000  1.0 0.1298485766
H  H300  1  0.70920000  0.31490000  0.97920000  1.0 0.1298485766
H  H301  1  0.79080000  0.31490000  0.47920000  1.0 0.1298485766
H  H302  1  0.20920000  0.18510000  0.97920000  1.0 0.1298485766
H  H303  1  0.70920000  0.81490000  0.52080000  1.0 0.1298485766
H  H304  1  0.29080000  0.68510000  0.02080000  1.0 0.1298485766
H  H305  1  0.48380000  0.73660000  0.52520000  1.0 0.1199059248
H  H306  1  0.51620000  0.76340000  0.02520000  1.0 0.1199059248
H  H307  1  0.01620000  0.23660000  0.47480000  1.0 0.1199059248
H  H308  1  0.98380000  0.26340000  0.97480000  1.0 0.1199059248
H  H309  1  0.51620000  0.26340000  0.47480000  1.0 0.1199059248
H  H310  1  0.48380000  0.23660000  0.97480000  1.0 0.1199059248
H  H311  1  0.98380000  0.76340000  0.52520000  1.0 0.1199059248
H  H312  1  0.01620000  0.73660000  0.02520000  1.0 0.1199059248
H  H313  1  0.54390000  0.65810000  0.52450000  1.0 0.1199059248
H  H314  1  0.45610000  0.84190000  0.02450000  1.0 0.1199059248
H  H315  1  0.95610000  0.15810000  0.47550000  1.0 0.1199059248
H  H316  1  0.04390000  0.34190000  0.97550000  1.0 0.1199059248
H  H317  1  0.45610000  0.34190000  0.47550000  1.0 0.1199059248
H  H318  1  0.54390000  0.15810000  0.97550000  1.0 0.1199059248
H  H319  1  0.04390000  0.84190000  0.52450000  1.0 0.1199059248
H  H320  1  0.95610000  0.65810000  0.02450000  1.0 0.1199059248
H  H321  1  0.43670000  0.59310000  0.52200000  1.0 0.1199059248
H  H322  1  0.56330000  0.90690000  0.02200000  1.0 0.1199059248
H  H323  1  0.06330000  0.09310000  0.47800000  1.0 0.1199059248
H  H324  1  0.93670000  0.40690000  0.97800000  1.0 0.1199059248
H  H325  1  0.56330000  0.40690000  0.47800000  1.0 0.1199059248
H  H326  1  0.43670000  0.09310000  0.97800000  1.0 0.1199059248
H  H327  1  0.93670000  0.90690000  0.52200000  1.0 0.1199059248
H  H328  1  0.06330000  0.59310000  0.02200000  1.0 0.1199059248
H  H329  1  0.26940000  0.60670000  0.52010000  1.0 0.1199059248
H  H330  1  0.73060000  0.89330000  0.02010000  1.0 0.1199059248
H  H331  1  0.23060000  0.10670000  0.47990000  1.0 0.1199059248
H  H332  1  0.76940000  0.39330000  0.97990000  1.0 0.1199059248
H  H333  1  0.73060000  0.39330000  0.47990000  1.0 0.1199059248
H  H334  1  0.26940000  0.10670000  0.97990000  1.0 0.1199059248
H  H335  1  0.76940000  0.89330000  0.52010000  1.0 0.1199059248
H  H336  1  0.23060000  0.60670000  0.02010000  1.0 0.1199059248
Pd  Pd1  1  0.28556000  0.34239000  0.32360000  1.0 0.2691104927
Pd  Pd2  1  0.71444000  0.15761000  0.82360000  1.0 0.2691104927
Pd  Pd3  1  0.21444000  0.84239000  0.67640000  1.0 0.2691104927
Pd  Pd4  1  0.78556000  0.65761000  0.17640000  1.0 0.2691104927
Pd  Pd5  1  0.71444000  0.65761000  0.67640000  1.0 0.2691104927
Pd  Pd6  1  0.28556000  0.84239000  0.17640000  1.0 0.2691104927
Pd  Pd7  1  0.78556000  0.15761000  0.32360000  1.0 0.2691104927
Pd  Pd8  1  0.21444000  0.34239000  0.82360000  1.0 0.2691104927
Pd  Pd9  1  0.33800000  0.21980000  0.42440000  1.0 0.1494909816
Pd  Pd10  1  0.66200000  0.28020000  0.92440000  1.0 0.1494909816
Pd  Pd11  1  0.16200000  0.71980000  0.57560000  1.0 0.1494909816
Pd  Pd12  1  0.83800000  0.78020000  0.07560000  1.0 0.1494909816
Pd  Pd13  1  0.66200000  0.78020000  0.57560000  1.0 0.1494909816
Pd  Pd14  1  0.33800000  0.71980000  0.07560000  1.0 0.1494909816
Pd  Pd15  1  0.83800000  0.28020000  0.42440000  1.0 0.1494909816
Pd  Pd16  1  0.16200000  0.21980000  0.92440000  1.0 0.1494909816
C  C1  1  0.94560000  0.82400000  0.64794000  1.0 0.3684935246
C  C2  1  0.05440000  0.67600000  0.14794000  1.0 0.3684935246
C  C3  1  0.55440000  0.32400000  0.35206000  1.0 0.3684935246
C  C4  1  0.44560000  0.17600000  0.85206000  1.0 0.3684935246
C  C5  1  0.05440000  0.17600000  0.35206000  1.0 0.3684935246
C  C6  1  0.94560000  0.32400000  0.85206000  1.0 0.3684935246
C  C7  1  0.44560000  0.67600000  0.64794000  1.0 0.3684935246
C  C8  1  0.55440000  0.82400000  0.14794000  1.0 0.3684935246
C  C9  1  0.01490000  0.71080000  0.34700000  1.0 0.0805611044
C  C10  1  0.98510000  0.78920000  0.84700000  1.0 0.0805611044
C  C11  1  0.48510000  0.21080000  0.65300000  1.0 0.0805611044
C  C12  1  0.51490000  0.28920000  0.15300000  1.0 0.0805611044
C  C13  1  0.98510000  0.28920000  0.65300000  1.0 0.0805611044
C  C14  1  0.01490000  0.21080000  0.15300000  1.0 0.0805611044
C  C15  1  0.51490000  0.78920000  0.34700000  1.0 0.0805611044
C  C16  1  0.48510000  0.71080000  0.84700000  1.0 0.0805611044
C  C17  1  0.00840000  0.77520000  0.71912000  1.0 0.0504074454
C  C18  1  0.99160000  0.72480000  0.21912000  1.0 0.0504074454
C  C19  1  0.49160000  0.27520000  0.28088000  1.0 0.0504074454
C  C20  1  0.50840000  0.22480000  0.78088000  1.0 0.0504074454
C  C21  1  0.99160000  0.22480000  0.28088000  1.0 0.0504074454
C  C22  1  0.00840000  0.27520000  0.78088000  1.0 0.0504074454
C  C23  1  0.50840000  0.72480000  0.71912000  1.0 0.0504074454
C  C24  1  0.49160000  0.77520000  0.21912000  1.0 0.0504074454
C  C25  1  0.97820000  0.77950000  0.68809000  1.0 0.3619558879
C  C26  1  0.02180000  0.72050000  0.18809000  1.0 0.3619558879
C  C27  1  0.52180000  0.27950000  0.31191000  1.0 0.3619558879
C  C28  1  0.47820000  0.22050000  0.81191000  1.0 0.3619558879
C  C29  1  0.02180000  0.22050000  0.31191000  1.0 0.3619558879
C  C30  1  0.97820000  0.27950000  0.81191000  1.0 0.3619558879
C  C31  1  0.47820000  0.72050000  0.68809000  1.0 0.3619558879
C  C32  1  0.52180000  0.77950000  0.18809000  1.0 0.3619558879
C  C33  1  0.87170000  0.68540000  0.36723000  1.0 0.0869171074
C  C34  1  0.12830000  0.81460000  0.86723000  1.0 0.0869171074
C  C35  1  0.62830000  0.18540000  0.63277000  1.0 0.0869171074
C  C36  1  0.37170000  0.31460000  0.13277000  1.0 0.0869171074
C  C37  1  0.12830000  0.31460000  0.63277000  1.0 0.0869171074
C  C38  1  0.87170000  0.18540000  0.13277000  1.0 0.0869171074
C  C39  1  0.37170000  0.81460000  0.36723000  1.0 0.0869171074
C  C40  1  0.62830000  0.68540000  0.86723000  1.0 0.0869171074
C  C41  1  0.94270000  0.74340000  0.64516000  1.0 0.3684935246
C  C42  1  0.05730000  0.75660000  0.14516000  1.0 0.3684935246
C  C43  1  0.55730000  0.24340000  0.35484000  1.0 0.3684935246
C  C44  1  0.44270000  0.25660000  0.85484000  1.0 0.3684935246
C  C45  1  0.05730000  0.25660000  0.35484000  1.0 0.3684935246
C  C46  1  0.94270000  0.24340000  0.85484000  1.0 0.3684935246
C  C47  1  0.44270000  0.75660000  0.64516000  1.0 0.3684935246
C  C48  1  0.55730000  0.74340000  0.14516000  1.0 0.3684935246
C  C49  1  0.93460000  0.65420000  0.64228000  1.0 -0.1682502261
C  C50  1  0.06540000  0.84580000  0.14228000  1.0 -0.1682502261
C  C51  1  0.56540000  0.15420000  0.35772000  1.0 -0.1682502261
C  C52  1  0.43460000  0.34580000  0.85772000  1.0 -0.1682502261
C  C53  1  0.06540000  0.34580000  0.35772000  1.0 -0.1682502261
C  C54  1  0.93460000  0.15420000  0.85772000  1.0 -0.1682502261
C  C55  1  0.43460000  0.84580000  0.64228000  1.0 -0.1682502261
C  C56  1  0.56540000  0.65420000  0.14228000  1.0 -0.1682502261
C  C57  1  0.07340000  0.80810000  0.76354000  1.0 0.0805611044
C  C58  1  0.92660000  0.69190000  0.26354000  1.0 0.0805611044
C  C59  1  0.42660000  0.30810000  0.23646000  1.0 0.0805611044
C  C60  1  0.57340000  0.19190000  0.73646000  1.0 0.0805611044
C  C61  1  0.92660000  0.19190000  0.23646000  1.0 0.0805611044
C  C62  1  0.07340000  0.30810000  0.73646000  1.0 0.0805611044
C  C63  1  0.57340000  0.69190000  0.76354000  1.0 0.0805611044
C  C64  1  0.42660000  0.80810000  0.26354000  1.0 0.0805611044
C  C65  1  0.92600000  0.69860000  0.62812000  1.0 0.0564940897
C  C66  1  0.07400000  0.80140000  0.12812000  1.0 0.0564940897
C  C67  1  0.57400000  0.19860000  0.37188000  1.0 0.0564940897
C  C68  1  0.42600000  0.30140000  0.87188000  1.0 0.0564940897
C  C69  1  0.07400000  0.30140000  0.37188000  1.0 0.0564940897
C  C70  1  0.92600000  0.19860000  0.87188000  1.0 0.0564940897
C  C71  1  0.42600000  0.80140000  0.62812000  1.0 0.0564940897
C  C72  1  0.57400000  0.69860000  0.12812000  1.0 0.0564940897
C  C73  1  0.88360000  0.65640000  0.58433000  1.0 0.0805611044
C  C74  1  0.11640000  0.84360000  0.08433000  1.0 0.0805611044
C  C75  1  0.61640000  0.15640000  0.41567000  1.0 0.0805611044
C  C76  1  0.38360000  0.34360000  0.91567000  1.0 0.0805611044
C  C77  1  0.11640000  0.34360000  0.41567000  1.0 0.0805611044
C  C78  1  0.88360000  0.15640000  0.91567000  1.0 0.0805611044
C  C79  1  0.38360000  0.84360000  0.58433000  1.0 0.0805611044
C  C80  1  0.61640000  0.65640000  0.08433000  1.0 0.0805611044
C  C81  1  0.91670000  0.61340000  0.62649000  1.0 0.0805611044
C  C82  1  0.08330000  0.88660000  0.12649000  1.0 0.0805611044
C  C83  1  0.58330000  0.11340000  0.37351000  1.0 0.0805611044
C  C84  1  0.41670000  0.38660000  0.87351000  1.0 0.0805611044
C  C85  1  0.08330000  0.38660000  0.37351000  1.0 0.0805611044
C  C86  1  0.91670000  0.11340000  0.87351000  1.0 0.0805611044
C  C87  1  0.41670000  0.88660000  0.62649000  1.0 0.0805611044
C  C88  1  0.58330000  0.61340000  0.12649000  1.0 0.0805611044
C  C89  1  0.04700000  0.72620000  0.76155000  1.0 0.0805611044
C  C90  1  0.95300000  0.77380000  0.26155000  1.0 0.0805611044
C  C91  1  0.45300000  0.22620000  0.23845000  1.0 0.0805611044
C  C92  1  0.54700000  0.27380000  0.73845000  1.0 0.0805611044
C  C93  1  0.95300000  0.27380000  0.23845000  1.0 0.0805611044
C  C94  1  0.04700000  0.22620000  0.73845000  1.0 0.0805611044
C  C95  1  0.54700000  0.77380000  0.76155000  1.0 0.0805611044
C  C96  1  0.45300000  0.72620000  0.26155000  1.0 0.0805611044
C  C97  1  0.31160000  0.59000000  0.42847000  1.0 0.0709342031
C  C98  1  0.68840000  0.91000000  0.92847000  1.0 0.0709342031
C  C99  1  0.18840000  0.09000000  0.57153000  1.0 0.0709342031
C  C100  1  0.81160000  0.41000000  0.07153000  1.0 0.0709342031
C  C101  1  0.68840000  0.41000000  0.57153000  1.0 0.0709342031
C  C102  1  0.31160000  0.09000000  0.07153000  1.0 0.0709342031
C  C103  1  0.81160000  0.91000000  0.42847000  1.0 0.0709342031
C  C104  1  0.18840000  0.59000000  0.92847000  1.0 0.0709342031
C  C105  1  0.87230000  0.58490000  0.51503000  1.0 0.0805611044
C  C106  1  0.12770000  0.91510000  0.01503000  1.0 0.0805611044
C  C107  1  0.62770000  0.08490000  0.48497000  1.0 0.0805611044
C  C108  1  0.37230000  0.41510000  0.98497000  1.0 0.0805611044
C  C109  1  0.12770000  0.41510000  0.48497000  1.0 0.0805611044
C  C110  1  0.87230000  0.08490000  0.98497000  1.0 0.0805611044
C  C111  1  0.37230000  0.91510000  0.51503000  1.0 0.0805611044
C  C112  1  0.62770000  0.58490000  0.01503000  1.0 0.0805611044
C  C113  1  0.01090000  0.73030000  0.73327000  1.0 -0.159192849
C  C114  1  0.98910000  0.76970000  0.23327000  1.0 -0.159192849
C  C115  1  0.48910000  0.23030000  0.26673000  1.0 -0.159192849
C  C116  1  0.51090000  0.26970000  0.76673000  1.0 -0.159192849
C  C117  1  0.98910000  0.26970000  0.26673000  1.0 -0.159192849
C  C118  1  0.01090000  0.23030000  0.76673000  1.0 -0.159192849
C  C119  1  0.51090000  0.76970000  0.73327000  1.0 -0.159192849
C  C120  1  0.48910000  0.73030000  0.23327000  1.0 -0.159192849
C  C121  1  0.07270000  0.64010000  0.41514000  1.0 0.3684935246
C  C122  1  0.92730000  0.85990000  0.91514000  1.0 0.3684935246
C  C123  1  0.42730000  0.14010000  0.58486000  1.0 0.3684935246
C  C124  1  0.57270000  0.35990000  0.08486000  1.0 0.3684935246
C  C125  1  0.92730000  0.35990000  0.58486000  1.0 0.3684935246
C  C126  1  0.07270000  0.14010000  0.08486000  1.0 0.3684935246
C  C127  1  0.57270000  0.85990000  0.41514000  1.0 0.3684935246
C  C128  1  0.42730000  0.64010000  0.91514000  1.0 0.3684935246
C  C129  1  0.06270000  0.56140000  0.50792000  1.0 -0.159192849
C  C130  1  0.93730000  0.93860000  0.00792000  1.0 -0.159192849
C  C131  1  0.43730000  0.06140000  0.49208000  1.0 -0.159192849
C  C132  1  0.56270000  0.43860000  0.99208000  1.0 -0.159192849
C  C133  1  0.93730000  0.43860000  0.49208000  1.0 -0.159192849
C  C134  1  0.06270000  0.06140000  0.99208000  1.0 -0.159192849
C  C135  1  0.56270000  0.93860000  0.50792000  1.0 -0.159192849
C  C136  1  0.43730000  0.56140000  0.00792000  1.0 -0.159192849
C  C137  1  0.36540000  0.57290000  0.45160000  1.0 -0.1506771266
C  C138  1  0.63460000  0.92710000  0.95160000  1.0 -0.1506771266
C  C139  1  0.13460000  0.07290000  0.54840000  1.0 -0.1506771266
C  C140  1  0.86540000  0.42710000  0.04840000  1.0 -0.1506771266
C  C141  1  0.63460000  0.42710000  0.54840000  1.0 -0.1506771266
C  C142  1  0.36540000  0.07290000  0.04840000  1.0 -0.1506771266
C  C143  1  0.86540000  0.92710000  0.45160000  1.0 -0.1506771266
C  C144  1  0.13460000  0.57290000  0.95160000  1.0 -0.1506771266
C  C145  1  0.01970000  0.66500000  0.39092000  1.0 0.0709342031
C  C146  1  0.98030000  0.83500000  0.89092000  1.0 0.0709342031
C  C147  1  0.48030000  0.16500000  0.60908000  1.0 0.0709342031
C  C148  1  0.51970000  0.33500000  0.10908000  1.0 0.0709342031
C  C149  1  0.98030000  0.33500000  0.60908000  1.0 0.0709342031
C  C150  1  0.01970000  0.16500000  0.10908000  1.0 0.0709342031
C  C151  1  0.51970000  0.83500000  0.39092000  1.0 0.0709342031
C  C152  1  0.48030000  0.66500000  0.89092000  1.0 0.0709342031
C  C153  1  0.01130000  0.54930000  0.53300000  1.0 0.0709342031
C  C154  1  0.98870000  0.95070000  0.03300000  1.0 0.0709342031
C  C155  1  0.48870000  0.04930000  0.46700000  1.0 0.0709342031
C  C156  1  0.51130000  0.45070000  0.96700000  1.0 0.0709342031
C  C157  1  0.98870000  0.45070000  0.46700000  1.0 0.0709342031
C  C158  1  0.01130000  0.04930000  0.96700000  1.0 0.0709342031
C  C159  1  0.51130000  0.95070000  0.53300000  1.0 0.0709342031
C  C160  1  0.48870000  0.54930000  0.03300000  1.0 0.0709342031
C  C161  1  0.03880000  0.81450000  0.73572000  1.0 -0.1682502261
C  C162  1  0.96120000  0.68550000  0.23572000  1.0 -0.1682502261
C  C163  1  0.46120000  0.31450000  0.26428000  1.0 -0.1682502261
C  C164  1  0.53880000  0.18550000  0.76428000  1.0 -0.1682502261
C  C165  1  0.96120000  0.18550000  0.26428000  1.0 -0.1682502261
C  C166  1  0.03880000  0.31450000  0.76428000  1.0 -0.1682502261
C  C167  1  0.53880000  0.68550000  0.73572000  1.0 -0.1682502261
C  C168  1  0.46120000  0.81450000  0.23572000  1.0 -0.1682502261
C  C169  1  0.06710000  0.68880000  0.36855000  1.0 -0.1318462254
C  C170  1  0.93290000  0.81120000  0.86855000  1.0 -0.1318462254
C  C171  1  0.43290000  0.18880000  0.63145000  1.0 -0.1318462254
C  C172  1  0.56710000  0.31120000  0.13145000  1.0 -0.1373823846
C  C173  1  0.93290000  0.31120000  0.63145000  1.0 -0.1318462254
C  C174  1  0.06710000  0.18880000  0.13145000  1.0 -0.1318462254
C  C175  1  0.56710000  0.81120000  0.36855000  1.0 -0.1373823846
C  C176  1  0.43290000  0.68880000  0.86855000  1.0 -0.1318462254
C  C177  1  0.07110000  0.60340000  0.45943000  1.0 0.3684935246
C  C178  1  0.92890000  0.89660000  0.95943000  1.0 0.3684935246
C  C179  1  0.42890000  0.10340000  0.54057000  1.0 0.3684935246
C  C180  1  0.57110000  0.39660000  0.04057000  1.0 0.3684935246
C  C181  1  0.92890000  0.39660000  0.54057000  1.0 0.3684935246
C  C182  1  0.07110000  0.10340000  0.04057000  1.0 0.3684935246
C  C183  1  0.57110000  0.89660000  0.45943000  1.0 0.3684935246
C  C184  1  0.42890000  0.60340000  0.95943000  1.0 0.3684935246
C  C185  1  0.91890000  0.66400000  0.39025000  1.0 -0.1318462254
C  C186  1  0.08110000  0.83600000  0.89025000  1.0 -0.1318462254
C  C187  1  0.58110000  0.16400000  0.60975000  1.0 -0.1318462254
C  C188  1  0.41890000  0.33600000  0.10975000  1.0 -0.1318462254
C  C189  1  0.08110000  0.33600000  0.60975000  1.0 -0.1318462254
C  C190  1  0.91890000  0.16400000  0.10975000  1.0 -0.1318462254
C  C191  1  0.41890000  0.83600000  0.39025000  1.0 -0.1318462254
C  C192  1  0.58110000  0.66400000  0.89025000  1.0 -0.1318462254
C  C193  1  0.20820000  0.60560000  0.43257000  1.0 0.3761989095
C  C194  1  0.79180000  0.89440000  0.93257000  1.0 0.3761989095
C  C195  1  0.29180000  0.10560000  0.56743000  1.0 0.3761989095
C  C196  1  0.70820000  0.39440000  0.06743000  1.0 0.3761989095
C  C197  1  0.79180000  0.39440000  0.56743000  1.0 0.3761989095
C  C198  1  0.20820000  0.10560000  0.06743000  1.0 0.3761989095
C  C199  1  0.70820000  0.89440000  0.43257000  1.0 0.3761989095
C  C200  1  0.29180000  0.60560000  0.93257000  1.0 0.3761989095
C  C201  1  0.90080000  0.69950000  0.59866000  1.0 -0.1986096638
C  C202  1  0.09920000  0.80050000  0.09866000  1.0 -0.1906141232
C  C203  1  0.59920000  0.19950000  0.40134000  1.0 -0.1986096638
C  C204  1  0.40080000  0.30050000  0.90134000  1.0 -0.1986096638
C  C205  1  0.09920000  0.30050000  0.40134000  1.0 -0.1986096638
C  C206  1  0.90080000  0.19950000  0.90134000  1.0 -0.1986096638
C  C207  1  0.40080000  0.80050000  0.59866000  1.0 -0.1986096638
C  C208  1  0.59920000  0.69950000  0.09866000  1.0 -0.1986096638
C  C209  1  0.01720000  0.58770000  0.48620000  1.0 0.0564940897
C  C210  1  0.98280000  0.91230000  0.98620000  1.0 0.0504074454
C  C211  1  0.48280000  0.08770000  0.51380000  1.0 0.0504074454
C  C212  1  0.51720000  0.41230000  0.01380000  1.0 0.0504074454
C  C213  1  0.98280000  0.41230000  0.51380000  1.0 0.0504074454
C  C214  1  0.01720000  0.08770000  0.01380000  1.0 0.0564940897
C  C215  1  0.51720000  0.91230000  0.48620000  1.0 0.0564940897
C  C216  1  0.48280000  0.58770000  0.98620000  1.0 0.0504074454
C  C217  1  0.45730000  0.55620000  0.44639000  1.0 0.0709342031
C  C218  1  0.54270000  0.94380000  0.94639000  1.0 0.0709342031
C  C219  1  0.04270000  0.05620000  0.55361000  1.0 0.0709342031
C  C220  1  0.95730000  0.44380000  0.05361000  1.0 0.0709342031
C  C221  1  0.54270000  0.44380000  0.55361000  1.0 0.0709342031
C  C222  1  0.45730000  0.05620000  0.05361000  1.0 0.0709342031
C  C223  1  0.95730000  0.94380000  0.44639000  1.0 0.0709342031
C  C224  1  0.04270000  0.55620000  0.94639000  1.0 0.0709342031
C  C225  1  0.92010000  0.59890000  0.48933000  1.0 -0.1373823846
C  C226  1  0.07990000  0.90110000  0.98933000  1.0 -0.1373823846
C  C227  1  0.57990000  0.09890000  0.51067000  1.0 -0.1373823846
C  C228  1  0.42010000  0.40110000  0.01067000  1.0 -0.1373823846
C  C229  1  0.07990000  0.40110000  0.51067000  1.0 -0.1373823846
C  C230  1  0.92010000  0.09890000  0.01067000  1.0 -0.1373823846
C  C231  1  0.42010000  0.90110000  0.48933000  1.0 -0.1373823846
C  C232  1  0.57990000  0.59890000  0.98933000  1.0 -0.1373823846
C  C233  1  0.44360000  0.57220000  0.39732000  1.0 0.0709342031
C  C234  1  0.55640000  0.92780000  0.89732000  1.0 0.0709342031
C  C235  1  0.05640000  0.07220000  0.60268000  1.0 0.0709342031
C  C236  1  0.94360000  0.42780000  0.10268000  1.0 0.0709342031
C  C237  1  0.55640000  0.42780000  0.60268000  1.0 0.0709342031
C  C238  1  0.44360000  0.07220000  0.10268000  1.0 0.0709342031
C  C239  1  0.94360000  0.92780000  0.39732000  1.0 0.0709342031
C  C240  1  0.05640000  0.57220000  0.89732000  1.0 0.0709342031
C  C241  1  0.35090000  0.58980000  0.40042000  1.0 -0.1318462254
C  C242  1  0.64910000  0.91020000  0.90042000  1.0 -0.1318462254
C  C243  1  0.14910000  0.08980000  0.59958000  1.0 -0.1318462254
C  C244  1  0.85090000  0.41020000  0.09958000  1.0 -0.1318462254
C  C245  1  0.64910000  0.41020000  0.59958000  1.0 -0.1318462254
C  C246  1  0.35090000  0.08980000  0.09958000  1.0 -0.1318462254
C  C247  1  0.85090000  0.91020000  0.40042000  1.0 -0.1318462254
C  C248  1  0.14910000  0.58980000  0.90042000  1.0 -0.1318462254
C  C249  1  0.93450000  0.87150000  0.63372000  1.0 0.0564940897
C  C250  1  0.06550000  0.62850000  0.13372000  1.0 0.0564940897
C  C251  1  0.56550000  0.37150000  0.36628000  1.0 0.0564940897
C  C252  1  0.43450000  0.12850000  0.86628000  1.0 0.0564940897
C  C253  1  0.06550000  0.12850000  0.36628000  1.0 0.0564940897
C  C254  1  0.93450000  0.37150000  0.86628000  1.0 0.0564940897
C  C255  1  0.43450000  0.62850000  0.63372000  1.0 0.0564940897
C  C256  1  0.56550000  0.87150000  0.13372000  1.0 0.0564940897
C  C257  1  0.91130000  0.87500000  0.60417000  1.0 -0.1682502261
C  C258  1  0.08870000  0.62500000  0.10417000  1.0 -0.159192849
C  C259  1  0.58870000  0.37500000  0.39583000  1.0 -0.1682502261
C  C260  1  0.41130000  0.12500000  0.89583000  1.0 -0.1682502261
C  C261  1  0.08870000  0.12500000  0.39583000  1.0 -0.1682502261
C  C262  1  0.91130000  0.37500000  0.89583000  1.0 -0.1682502261
C  C263  1  0.41130000  0.62500000  0.60417000  1.0 -0.1682502261
C  C264  1  0.58870000  0.87500000  0.10417000  1.0 -0.159192849
C  C265  1  0.94380000  0.91330000  0.64976000  1.0 -0.159192849
C  C266  1  0.05620000  0.58670000  0.14976000  1.0 -0.159192849
C  C267  1  0.55620000  0.41330000  0.35024000  1.0 -0.159192849
C  C268  1  0.44380000  0.08670000  0.85024000  1.0 -0.159192849
C  C269  1  0.05620000  0.08670000  0.35024000  1.0 -0.159192849
C  C270  1  0.94380000  0.41330000  0.85024000  1.0 -0.159192849
C  C271  1  0.44380000  0.58670000  0.64976000  1.0 -0.159192849
C  C272  1  0.55620000  0.91330000  0.14976000  1.0 -0.159192849
C  C273  1  0.89860000  0.91980000  0.59170000  1.0 0.0805611044
C  C274  1  0.10140000  0.58020000  0.09170000  1.0 0.0805611044
C  C275  1  0.60140000  0.41980000  0.40830000  1.0 0.0805611044
C  C276  1  0.39860000  0.08020000  0.90830000  1.0 0.0805611044
C  C277  1  0.10140000  0.08020000  0.40830000  1.0 0.0805611044
C  C278  1  0.89860000  0.41980000  0.90830000  1.0 0.0805611044
C  C279  1  0.39860000  0.58020000  0.59170000  1.0 0.0805611044
C  C280  1  0.60140000  0.91980000  0.09170000  1.0 0.0805611044
C  C281  1  0.92890000  0.95680000  0.63576000  1.0 0.0805611044
C  C282  1  0.07110000  0.54320000  0.13576000  1.0 0.0805611044
C  C283  1  0.57110000  0.45680000  0.36424000  1.0 0.0805611044
C  C284  1  0.42890000  0.04320000  0.86424000  1.0 0.0805611044
C  C285  1  0.07110000  0.04320000  0.36424000  1.0 0.0805611044
C  C286  1  0.92890000  0.45680000  0.86424000  1.0 0.0805611044
C  C287  1  0.42890000  0.54320000  0.63576000  1.0 0.0805611044
C  C288  1  0.57110000  0.95680000  0.13576000  1.0 0.0805611044
C  C289  1  0.28040000  0.19160000  0.32170000  1.0 0.0504074454
C  C290  1  0.71960000  0.30840000  0.82170000  1.0 0.0504074454
C  C291  1  0.21960000  0.69160000  0.67830000  1.0 0.0504074454
C  C292  1  0.78040000  0.80840000  0.17830000  1.0 0.0504074454
C  C293  1  0.71960000  0.80840000  0.67830000  1.0 0.0504074454
C  C294  1  0.28040000  0.69160000  0.17830000  1.0 0.0504074454
C  C295  1  0.78040000  0.30840000  0.32170000  1.0 0.0504074454
C  C296  1  0.21960000  0.19160000  0.82170000  1.0 0.0504074454
C  C297  1  0.26870000  0.27420000  0.30800000  1.0 -0.1207216827
C  C298  1  0.73130000  0.22580000  0.80800000  1.0 -0.1207216827
C  C299  1  0.23130000  0.77420000  0.69200000  1.0 -0.1207216827
C  C300  1  0.76870000  0.72580000  0.19200000  1.0 -0.1207216827
C  C301  1  0.73130000  0.72580000  0.69200000  1.0 -0.1207216827
C  C302  1  0.26870000  0.77420000  0.19200000  1.0 -0.1207216827
C  C303  1  0.76870000  0.22580000  0.30800000  1.0 -0.1207216827
C  C304  1  0.23130000  0.27420000  0.80800000  1.0 -0.1207216827
C  C305  1  0.28660000  0.23980000  0.32820000  1.0 -0.0101103952
C  C306  1  0.71340000  0.26020000  0.82820000  1.0 -0.0101103952
C  C307  1  0.21340000  0.73980000  0.67180000  1.0 -0.0101103952
C  C308  1  0.78660000  0.76020000  0.17180000  1.0 -0.0101103952
C  C309  1  0.71340000  0.76020000  0.67180000  1.0 -0.0101103952
C  C310  1  0.28660000  0.73980000  0.17180000  1.0 -0.0101103952
C  C311  1  0.78660000  0.26020000  0.32820000  1.0 -0.0101103952
C  C312  1  0.21340000  0.23980000  0.82820000  1.0 -0.0101103952
C  C313  1  0.32500000  0.17330000  0.37360000  1.0 -0.003800815
C  C314  1  0.67500000  0.32670000  0.87360000  1.0 -0.003800815
C  C315  1  0.17500000  0.67330000  0.62640000  1.0 -0.003800815
C  C316  1  0.82500000  0.82670000  0.12640000  1.0 -0.003800815
C  C317  1  0.67500000  0.82670000  0.62640000  1.0 -0.003800815
C  C318  1  0.32500000  0.67330000  0.12640000  1.0 -0.003800815
C  C319  1  0.82500000  0.32670000  0.37360000  1.0 -0.003800815
C  C320  1  0.17500000  0.17330000  0.87360000  1.0 -0.003800815
C  C321  1  0.24210000  0.25890000  0.28030000  1.0 -0.0859658949
C  C322  1  0.75790000  0.24110000  0.78030000  1.0 -0.0859658949
C  C323  1  0.25790000  0.75890000  0.71970000  1.0 -0.0859658949
C  C324  1  0.74210000  0.74110000  0.21970000  1.0 -0.0859658949
C  C325  1  0.75790000  0.74110000  0.71970000  1.0 -0.0859658949
C  C326  1  0.24210000  0.75890000  0.21970000  1.0 -0.0859658949
C  C327  1  0.74210000  0.24110000  0.28030000  1.0 -0.0859658949
C  C328  1  0.25790000  0.25890000  0.78030000  1.0 -0.0859658949
C  C329  1  0.30290000  0.15590000  0.34680000  1.0 0.032415041
C  C330  1  0.69710000  0.34410000  0.84680000  1.0 0.032415041
C  C331  1  0.19710000  0.65590000  0.65320000  1.0 0.032415041
C  C332  1  0.80290000  0.84410000  0.15320000  1.0 0.032415041
C  C333  1  0.69710000  0.84410000  0.65320000  1.0 0.032415041
C  C334  1  0.30290000  0.65590000  0.15320000  1.0 0.032415041
C  C335  1  0.80290000  0.34410000  0.34680000  1.0 0.032415041
C  C336  1  0.19710000  0.15590000  0.84680000  1.0 0.032415041
C  C337  1  0.32190000  0.07570000  0.36350000  1.0 -0.07031904
C  C338  1  0.67810000  0.42430000  0.86350000  1.0 -0.07031904
C  C339  1  0.17810000  0.57570000  0.63650000  1.0 -0.07031904
C  C340  1  0.82190000  0.92430000  0.13650000  1.0 -0.07031904
C  C341  1  0.67810000  0.92430000  0.63650000  1.0 -0.07031904
C  C342  1  0.32190000  0.57570000  0.13650000  1.0 -0.07031904
C  C343  1  0.82190000  0.42430000  0.36350000  1.0 -0.07031904
C  C344  1  0.17810000  0.07570000  0.86350000  1.0 -0.07031904
C  C345  1  0.25640000  0.17690000  0.29440000  1.0 -0.1207216827
C  C346  1  0.74360000  0.32310000  0.79440000  1.0 -0.1207216827
C  C347  1  0.24360000  0.67690000  0.70560000  1.0 -0.1207216827
C  C348  1  0.75640000  0.82310000  0.20560000  1.0 -0.1207216827
C  C349  1  0.74360000  0.82310000  0.70560000  1.0 -0.1207216827
C  C350  1  0.25640000  0.67690000  0.20560000  1.0 -0.1207216827
C  C351  1  0.75640000  0.32310000  0.29440000  1.0 -0.1207216827
C  C352  1  0.24360000  0.17690000  0.79440000  1.0 -0.1207216827
C  C353  1  0.32920000  0.22700000  0.38030000  1.0 -0.0516067345
C  C354  1  0.67080000  0.27300000  0.88030000  1.0 -0.0516067345
C  C355  1  0.17080000  0.72700000  0.61970000  1.0 -0.0516067345
C  C356  1  0.82920000  0.77300000  0.11970000  1.0 -0.0516067345
C  C357  1  0.67080000  0.77300000  0.61970000  1.0 -0.0516067345
C  C358  1  0.32920000  0.72700000  0.11970000  1.0 -0.0516067345
C  C359  1  0.82920000  0.27300000  0.38030000  1.0 -0.0516067345
C  C360  1  0.17080000  0.22700000  0.88030000  1.0 -0.0516067345
C  C361  1  0.31180000  0.25610000  0.35780000  1.0 0.0996918515
C  C362  1  0.68820000  0.24390000  0.85780000  1.0 0.0996918515
C  C363  1  0.18820000  0.75610000  0.64220000  1.0 0.0996918515
C  C364  1  0.81180000  0.74390000  0.14220000  1.0 0.0996918515
C  C365  1  0.68820000  0.74390000  0.64220000  1.0 0.0869171074
C  C366  1  0.31180000  0.75610000  0.14220000  1.0 0.0996918515
C  C367  1  0.81180000  0.24390000  0.35780000  1.0 0.0996918515
C  C368  1  0.18820000  0.25610000  0.85780000  1.0 0.0996918515
C  C369  1  0.30460000  0.10680000  0.34340000  1.0 -0.1506771266
C  C370  1  0.69540000  0.39320000  0.84340000  1.0 -0.1506771266
C  C371  1  0.19540000  0.60680000  0.65660000  1.0 -0.1506771266
C  C372  1  0.80460000  0.89320000  0.15660000  1.0 -0.1506771266
C  C373  1  0.69540000  0.89320000  0.65660000  1.0 -0.1506771266
C  C374  1  0.30460000  0.60680000  0.15660000  1.0 -0.1506771266
C  C375  1  0.80460000  0.39320000  0.34340000  1.0 -0.1506771266
C  C376  1  0.19540000  0.10680000  0.84340000  1.0 -0.1506771266
C  C377  1  0.34560000  0.13950000  0.39710000  1.0 -0.1906141232
C  C378  1  0.65440000  0.36050000  0.89710000  1.0 -0.1906141232
C  C379  1  0.15440000  0.63950000  0.60290000  1.0 -0.1906141232
C  C380  1  0.84560000  0.86050000  0.10290000  1.0 -0.1906141232
C  C381  1  0.65440000  0.86050000  0.60290000  1.0 -0.1906141232
C  C382  1  0.34560000  0.63950000  0.10290000  1.0 -0.1906141232
C  C383  1  0.84560000  0.36050000  0.39710000  1.0 -0.1906141232
C  C384  1  0.15440000  0.13950000  0.89710000  1.0 -0.1906141232
C  C385  1  0.23570000  0.21530000  0.27290000  1.0 -0.0801242038
C  C386  1  0.76430000  0.28470000  0.77290000  1.0 -0.0801242038
C  C387  1  0.26430000  0.71530000  0.72710000  1.0 -0.0801242038
C  C388  1  0.73570000  0.78470000  0.22710000  1.0 -0.0801242038
C  C389  1  0.76430000  0.78470000  0.72710000  1.0 -0.0801242038
C  C390  1  0.23570000  0.71530000  0.22710000  1.0 -0.0801242038
C  C391  1  0.73570000  0.28470000  0.27290000  1.0 -0.0801242038
C  C392  1  0.26430000  0.21530000  0.77290000  1.0 -0.0801242038
C  C393  1  0.33860000  0.32410000  0.38720000  1.0 0.0805611044
C  C394  1  0.66140000  0.17590000  0.88720000  1.0 0.0805611044
C  C395  1  0.16140000  0.82410000  0.61280000  1.0 0.0805611044
C  C396  1  0.83860000  0.67590000  0.11280000  1.0 0.0805611044
C  C397  1  0.66140000  0.67590000  0.61280000  1.0 0.0805611044
C  C398  1  0.33860000  0.82410000  0.11280000  1.0 0.0805611044
C  C399  1  0.83860000  0.17590000  0.38720000  1.0 0.0805611044
C  C400  1  0.16140000  0.32410000  0.88720000  1.0 0.0805611044
C  C401  1  0.27390000  0.43540000  0.30540000  1.0 0.2137152341
C  C402  1  0.72610000  0.06460000  0.80540000  1.0 0.2137152341
C  C403  1  0.22610000  0.93540000  0.69460000  1.0 0.2137152341
C  C404  1  0.77390000  0.56460000  0.19460000  1.0 0.2137152341
C  C405  1  0.72610000  0.56460000  0.69460000  1.0 0.2137152341
C  C406  1  0.27390000  0.93540000  0.19460000  1.0 0.2137152341
C  C407  1  0.77390000  0.06460000  0.30540000  1.0 0.2137152341
C  C408  1  0.22610000  0.43540000  0.80540000  1.0 0.2137152341
C  C409  1  0.35740000  0.29470000  0.41100000  1.0 -0.1786468911
C  C410  1  0.64260000  0.20530000  0.91100000  1.0 -0.1786468911
C  C411  1  0.14260000  0.79470000  0.58900000  1.0 -0.1786468911
C  C412  1  0.85740000  0.70530000  0.08900000  1.0 -0.1786468911
C  C413  1  0.64260000  0.70530000  0.58900000  1.0 -0.1786468911
C  C414  1  0.35740000  0.79470000  0.08900000  1.0 -0.1786468911
C  C415  1  0.85740000  0.20530000  0.41100000  1.0 -0.1786468911
C  C416  1  0.14260000  0.29470000  0.91100000  1.0 -0.1786468911
C  C417  1  0.35340000  0.24700000  0.40820000  1.0 -0.0516067345
C  C418  1  0.64660000  0.25300000  0.90820000  1.0 -0.0516067345
C  C419  1  0.14660000  0.74700000  0.59180000  1.0 -0.0516067345
C  C420  1  0.85340000  0.75300000  0.09180000  1.0 -0.0516067345
C  C421  1  0.64660000  0.75300000  0.59180000  1.0 -0.0516067345
C  C422  1  0.35340000  0.74700000  0.09180000  1.0 -0.0516067345
C  C423  1  0.85340000  0.25300000  0.40820000  1.0 -0.0516067345
C  C424  1  0.14660000  0.24700000  0.90820000  1.0 -0.0516067345
C  C425  1  0.34370000  0.09230000  0.39120000  1.0 -0.0801242038
C  C426  1  0.65630000  0.40770000  0.89120000  1.0 -0.0801242038
C  C427  1  0.15630000  0.59230000  0.60880000  1.0 -0.0801242038
C  C428  1  0.84370000  0.90770000  0.10880000  1.0 -0.0801242038
C  C429  1  0.65630000  0.90770000  0.60880000  1.0 -0.0801242038
C  C430  1  0.34370000  0.59230000  0.10880000  1.0 -0.0801242038
C  C431  1  0.84370000  0.40770000  0.39120000  1.0 -0.0801242038
C  C432  1  0.15630000  0.09230000  0.89120000  1.0 -0.0801242038
C  C433  1  0.29900000  0.51930000  0.31220000  1.0 -0.2085781439
C  C434  1  0.70100000  0.98070000  0.81220000  1.0 -0.2085781439
C  C435  1  0.20100000  0.01930000  0.68780000  1.0 -0.2085781439
C  C436  1  0.79900000  0.48070000  0.18780000  1.0 -0.2085781439
C  C437  1  0.70100000  0.48070000  0.68780000  1.0 -0.2085781439
C  C438  1  0.29900000  0.01930000  0.18780000  1.0 -0.2085781439
C  C439  1  0.79900000  0.98070000  0.31220000  1.0 -0.2085781439
C  C440  1  0.20100000  0.51930000  0.81220000  1.0 -0.2085781439
C  C441  1  0.27710000  0.67960000  0.52150000  1.0 -0.1986096638
C  C442  1  0.72290000  0.82040000  0.02150000  1.0 -0.1986096638
C  C443  1  0.22290000  0.17960000  0.47850000  1.0 -0.1986096638
C  C444  1  0.77710000  0.32040000  0.97850000  1.0 -0.1986096638
C  C445  1  0.72290000  0.32040000  0.47850000  1.0 -0.1986096638
C  C446  1  0.27710000  0.17960000  0.97850000  1.0 -0.1986096638
C  C447  1  0.77710000  0.82040000  0.52150000  1.0 -0.1986096638
C  C448  1  0.22290000  0.67960000  0.02150000  1.0 -0.1986096638
C  C449  1  0.34080000  0.71820000  0.52300000  1.0 0.0709342031
C  C450  1  0.65920000  0.78180000  0.02300000  1.0 0.0709342031
C  C451  1  0.15920000  0.21820000  0.47700000  1.0 0.0709342031
C  C452  1  0.84080000  0.28180000  0.97700000  1.0 0.0709342031
C  C453  1  0.65920000  0.28180000  0.47700000  1.0 0.0709342031
C  C454  1  0.34080000  0.21820000  0.97700000  1.0 0.0709342031
C  C455  1  0.84080000  0.78180000  0.52300000  1.0 0.0709342031
C  C456  1  0.15920000  0.71820000  0.02300000  1.0 0.0709342031
C  C457  1  0.44020000  0.71020000  0.52410000  1.0 -0.1373823846
C  C458  1  0.55980000  0.78980000  0.02410000  1.0 -0.1373823846
C  C459  1  0.05980000  0.21020000  0.47590000  1.0 -0.1373823846
C  C460  1  0.94020000  0.28980000  0.97590000  1.0 -0.1373823846
C  C461  1  0.55980000  0.28980000  0.47590000  1.0 -0.1373823846
C  C462  1  0.44020000  0.21020000  0.97590000  1.0 -0.1373823846
C  C463  1  0.94020000  0.78980000  0.52410000  1.0 -0.1373823846
C  C464  1  0.05980000  0.71020000  0.02410000  1.0 -0.1373823846
C  C465  1  0.47600000  0.66360000  0.52370000  1.0 -0.07031904
C  C466  1  0.52400000  0.83640000  0.02370000  1.0 -0.07031904
C  C467  1  0.02400000  0.16360000  0.47630000  1.0 -0.07031904
C  C468  1  0.97600000  0.33640000  0.97630000  1.0 -0.07031904
C  C469  1  0.52400000  0.33640000  0.47630000  1.0 -0.07031904
C  C470  1  0.47600000  0.16360000  0.97630000  1.0 -0.07031904
C  C471  1  0.97600000  0.83640000  0.52370000  1.0 -0.07031904
C  C472  1  0.02400000  0.66360000  0.02370000  1.0 -0.07031904
C  C473  1  0.41230000  0.62500000  0.52230000  1.0 -0.0859658949
C  C474  1  0.58770000  0.87500000  0.02230000  1.0 -0.0859658949
C  C475  1  0.08770000  0.12500000  0.47770000  1.0 -0.0859658949
C  C476  1  0.91230000  0.37500000  0.97770000  1.0 -0.0859658949
C  C477  1  0.58770000  0.37500000  0.47770000  1.0 -0.0859658949
C  C478  1  0.41230000  0.12500000  0.97770000  1.0 -0.0859658949
C  C479  1  0.91230000  0.87500000  0.52230000  1.0 -0.0859658949
C  C480  1  0.08770000  0.62500000  0.02230000  1.0 -0.0859658949
C  C481  1  0.31290000  0.63300000  0.52110000  1.0 -0.0596752085
C  C482  1  0.68710000  0.86700000  0.02110000  1.0 -0.0596752085
C  C483  1  0.18710000  0.13300000  0.47890000  1.0 -0.0596752085
C  C484  1  0.81290000  0.36700000  0.97890000  1.0 -0.0596752085
C  C485  1  0.68710000  0.36700000  0.47890000  1.0 -0.0596752085
C  C486  1  0.31290000  0.13300000  0.97890000  1.0 -0.0596752085
C  C487  1  0.81290000  0.86700000  0.52110000  1.0 -0.0596752085
C  C488  1  0.18710000  0.63300000  0.02110000  1.0 -0.0596752085
S  S1  1  0.25230000  0.39006000  0.28190000  1.0 -0.2499458349
S  S2  1  0.74770000  0.10994000  0.78190000  1.0 -0.2499458349
S  S3  1  0.24770000  0.89006000  0.71810000  1.0 -0.2499458349
S  S4  1  0.75230000  0.60994000  0.21810000  1.0 -0.2499458349
S  S5  1  0.74770000  0.60994000  0.71810000  1.0 -0.2499458349
S  S6  1  0.25230000  0.89006000  0.21810000  1.0 -0.2499458349
S  S7  1  0.75230000  0.10994000  0.28190000  1.0 -0.2499458349
S  S8  1  0.24770000  0.39006000  0.78190000  1.0 -0.2499458349
S  S9  1  0.30400000  0.42242000  0.34029000  1.0 -0.2930242836
S  S10  1  0.69600000  0.07758000  0.84029000  1.0 -0.2930242836
S  S11  1  0.19600000  0.92242000  0.65971000  1.0 -0.2930242836
S  S12  1  0.80400000  0.57758000  0.15971000  1.0 -0.2930242836
S  S13  1  0.69600000  0.57758000  0.65971000  1.0 -0.2930242836
S  S14  1  0.30400000  0.92242000  0.15971000  1.0 -0.2930242836
S  S15  1  0.80400000  0.07758000  0.34029000  1.0 -0.2930242836
S  S16  1  0.19600000  0.42242000  0.84029000  1.0 -0.2930242836
I  I1  1  0.31663000  0.80511000  0.80567000  1.0 -0.4500622413
I  I2  1  0.68337000  0.69489000  0.30567000  1.0 -0.4500622413
I  I3  1  0.18337000  0.30511000  0.19433000  1.0 -0.4500622413
I  I4  1  0.81663000  0.19489000  0.69433000  1.0 -0.4500622413
I  I5  1  0.68337000  0.19489000  0.19433000  1.0 -0.4500622413
I  I6  1  0.31663000  0.30511000  0.69433000  1.0 -0.4500622413
I  I7  1  0.81663000  0.69489000  0.80567000  1.0 -0.4500622413
I  I8  1  0.18337000  0.80511000  0.30567000  1.0 -0.4500622413
I  I9  1  0.70916000  0.50879000  0.46218000  1.0 -0.4500622413
I  I10  1  0.29084000  0.99121000  0.96218000  1.0 -0.4500622413
I  I11  1  0.79084000  0.00879000  0.53782000  1.0 -0.4500622413
I  I12  1  0.20916000  0.49121000  0.03782000  1.0 -0.4500622413
I  I13  1  0.29084000  0.49121000  0.53782000  1.0 -0.4500622413
I  I14  1  0.70916000  0.00879000  0.03782000  1.0 -0.4500622413
I  I15  1  0.20916000  0.99121000  0.46218000  1.0 -0.4500622413
I  I16  1  0.79084000  0.50879000  0.96218000  1.0 -0.4500622413
I  I17  1  0.93551000  0.48523000  0.60545000  1.0 -0.4067686579
I  I18  1  0.06449000  0.01477000  0.10545000  1.0 -0.4067686579
I  I19  1  0.56449000  0.98523000  0.39455000  1.0 -0.4067686579
I  I20  1  0.43551000  0.51477000  0.89455000  1.0 -0.4067686579
I  I21  1  0.06449000  0.51477000  0.39455000  1.0 -0.4067686579
I  I22  1  0.93551000  0.98523000  0.89455000  1.0 -0.4067686579
I  I23  1  0.43551000  0.01477000  0.60545000  1.0 -0.4067686579
I  I24  1  0.56449000  0.48523000  0.10545000  1.0 -0.4067686579
I  I25  1  0.17641000  0.66712000  0.82545000  1.0 -0.4500622413
I  I26  1  0.82359000  0.83288000  0.32545000  1.0 -0.4500622413
I  I27  1  0.32359000  0.16712000  0.17455000  1.0 -0.4500622413
I  I28  1  0.67641000  0.33288000  0.67455000  1.0 -0.4500622413
I  I29  1  0.82359000  0.33288000  0.17455000  1.0 -0.4500622413
I  I30  1  0.17641000  0.16712000  0.67455000  1.0 -0.4500622413
I  I31  1  0.67641000  0.83288000  0.82545000  1.0 -0.4500622413
I  I32  1  0.32359000  0.66712000  0.32545000  1.0 -0.4500622413
I  I33  1  0.66734000  0.55705000  0.56759000  1.0 -0.4269496433
I  I34  1  0.33266000  0.94295000  0.06759000  1.0 -0.4269496433
I  I35  1  0.83266000  0.05705000  0.43241000  1.0 -0.4269496433
I  I36  1  0.16734000  0.44295000  0.93241000  1.0 -0.4269496433
I  I37  1  0.33266000  0.44295000  0.43241000  1.0 -0.4269496433
I  I38  1  0.66734000  0.05705000  0.93241000  1.0 -0.4269496433
I  I39  1  0.16734000  0.94295000  0.56759000  1.0 -0.4269496433
I  I40  1  0.83266000  0.55705000  0.06759000  1.0 -0.4269496433
I  I41  1  0.71641000  0.57295000  0.37231000  1.0 -0.4432393862
I  I42  1  0.28359000  0.92705000  0.87231000  1.0 -0.4432393862
I  I43  1  0.78359000  0.07295000  0.62769000  1.0 -0.4432393862
I  I44  1  0.21641000  0.42705000  0.12769000  1.0 -0.4500622413
I  I45  1  0.28359000  0.42705000  0.62769000  1.0 -0.4432393862
I  I46  1  0.71641000  0.07295000  0.12769000  1.0 -0.4432393862
I  I47  1  0.21641000  0.92705000  0.37231000  1.0 -0.4432393862
I  I48  1  0.78359000  0.57295000  0.87231000  1.0 -0.4432393862
N  N1  1  0.08010000  0.76480000  0.77650000  1.0 -0.1906141232
N  N2  1  0.91990000  0.73520000  0.27650000  1.0 -0.1906141232
N  N3  1  0.41990000  0.26480000  0.22350000  1.0 -0.1986096638
N  N4  1  0.58010000  0.23520000  0.72350000  1.0 -0.1986096638
N  N5  1  0.91990000  0.23520000  0.22350000  1.0 -0.1906141232
N  N6  1  0.08010000  0.26480000  0.72350000  1.0 -0.1906141232
N  N7  1  0.58010000  0.73520000  0.77650000  1.0 -0.1986096638
N  N8  1  0.41990000  0.76480000  0.27650000  1.0 -0.1986096638
N  N9  1  0.91730000  0.70880000  0.34571000  1.0 -0.1786468911
N  N10  1  0.08270000  0.79120000  0.84571000  1.0 -0.1786468911
N  N11  1  0.58270000  0.20880000  0.65429000  1.0 -0.1786468911
N  N12  1  0.41730000  0.29120000  0.15429000  1.0 -0.1786468911
N  N13  1  0.08270000  0.29120000  0.65429000  1.0 -0.1786468911
N  N14  1  0.91730000  0.20880000  0.15429000  1.0 -0.1786468911
N  N15  1  0.41730000  0.79120000  0.34571000  1.0 -0.1786468911
N  N16  1  0.58270000  0.70880000  0.84571000  1.0 -0.1786468911
N  N17  1  0.91750000  0.56120000  0.53702000  1.0 -0.1986096638
N  N18  1  0.08250000  0.93880000  0.03702000  1.0 -0.1986096638
N  N19  1  0.58250000  0.06120000  0.46298000  1.0 -0.1986096638
N  N20  1  0.41750000  0.43880000  0.96298000  1.0 -0.1986096638
N  N21  1  0.08250000  0.43880000  0.46298000  1.0 -0.1986096638
N  N22  1  0.91750000  0.06120000  0.96298000  1.0 -0.1986096638
N  N23  1  0.41750000  0.93880000  0.53702000  1.0 -0.1986096638
N  N24  1  0.58250000  0.56120000  0.03702000  1.0 -0.1986096638
N  N25  1  0.96880000  0.82330000  0.67653000  1.0 -0.3995756191
N  N26  1  0.03120000  0.67670000  0.17653000  1.0 -0.3995756191
N  N27  1  0.53120000  0.32330000  0.32347000  1.0 -0.3995756191
N  N28  1  0.46880000  0.17670000  0.82347000  1.0 -0.3995756191
N  N29  1  0.03120000  0.17670000  0.32347000  1.0 -0.3995756191
N  N30  1  0.96880000  0.32330000  0.82347000  1.0 -0.3995756191
N  N31  1  0.46880000  0.67670000  0.67653000  1.0 -0.3995756191
N  N32  1  0.53120000  0.82330000  0.17653000  1.0 -0.3995756191
N  N33  1  0.96570000  0.73860000  0.67362000  1.0 -0.3995756191
N  N34  1  0.03430000  0.76140000  0.17362000  1.0 -0.3995756191
N  N35  1  0.53430000  0.23860000  0.32638000  1.0 -0.3995756191
N  N36  1  0.46570000  0.26140000  0.82638000  1.0 -0.3995756191
N  N37  1  0.03430000  0.26140000  0.32638000  1.0 -0.3995756191
N  N38  1  0.96570000  0.23860000  0.82638000  1.0 -0.3995756191
N  N39  1  0.46570000  0.76140000  0.67362000  1.0 -0.3995756191
N  N40  1  0.53430000  0.73860000  0.17362000  1.0 -0.3995756191
N  N41  1  0.49760000  0.55590000  0.41969000  1.0 -0.1906141232
N  N42  1  0.50240000  0.94410000  0.91969000  1.0 -0.1906141232
N  N43  1  0.00240000  0.05590000  0.58031000  1.0 -0.1906141232
N  N44  1  0.99760000  0.44410000  0.08031000  1.0 -0.1906141232
N  N45  1  0.50240000  0.44410000  0.58031000  1.0 -0.1906141232
N  N46  1  0.49760000  0.05590000  0.08031000  1.0 -0.1906141232
N  N47  1  0.99760000  0.94410000  0.41969000  1.0 -0.1906141232
N  N48  1  0.00240000  0.55590000  0.91969000  1.0 -0.1906141232
N  N49  1  0.93140000  0.78540000  0.63134000  1.0 -0.4152595482
N  N50  1  0.06860000  0.71460000  0.13134000  1.0 -0.4152595482
N  N51  1  0.56860000  0.28540000  0.36866000  1.0 -0.4152595482
N  N52  1  0.43140000  0.21460000  0.86866000  1.0 -0.4152595482
N  N53  1  0.06860000  0.21460000  0.36866000  1.0 -0.4152595482
N  N54  1  0.93140000  0.28540000  0.86866000  1.0 -0.4152595482
N  N55  1  0.43140000  0.71460000  0.63134000  1.0 -0.4152595482
N  N56  1  0.56860000  0.78540000  0.13134000  1.0 -0.4152595482
N  N57  1  0.89070000  0.61420000  0.59790000  1.0 -0.1986096638
N  N58  1  0.10930000  0.88580000  0.09790000  1.0 -0.1986096638
N  N59  1  0.60930000  0.11420000  0.40210000  1.0 -0.1986096638
N  N60  1  0.39070000  0.38580000  0.90210000  1.0 -0.1986096638
N  N61  1  0.10930000  0.38580000  0.40210000  1.0 -0.1986096638
N  N62  1  0.89070000  0.11420000  0.90210000  1.0 -0.1986096638
N  N63  1  0.39070000  0.88580000  0.59790000  1.0 -0.1986096638
N  N64  1  0.60930000  0.61420000  0.09790000  1.0 -0.1986096638
N  N65  1  0.16690000  0.63120000  0.41122000  1.0 -0.3768070719
N  N66  1  0.83310000  0.86880000  0.91122000  1.0 -0.3768070719
N  N67  1  0.33310000  0.13120000  0.58878000  1.0 -0.3768070719
N  N68  1  0.66690000  0.36880000  0.08878000  1.0 -0.3768070719
N  N69  1  0.83310000  0.36880000  0.58878000  1.0 -0.3768070719
N  N70  1  0.16690000  0.13120000  0.08878000  1.0 -0.3768070719
N  N71  1  0.66690000  0.86880000  0.41122000  1.0 -0.3768070719
N  N72  1  0.33310000  0.63120000  0.91122000  1.0 -0.3768070719
N  N73  1  0.02070000  0.62730000  0.43876000  1.0 -0.3943715214
N  N74  1  0.97930000  0.87270000  0.93876000  1.0 -0.3943715214
N  N75  1  0.47930000  0.12730000  0.56124000  1.0 -0.3943715214
N  N76  1  0.52070000  0.37270000  0.06124000  1.0 -0.3943715214
N  N77  1  0.97930000  0.37270000  0.56124000  1.0 -0.3943715214
N  N78  1  0.02070000  0.12730000  0.06124000  1.0 -0.3943715214
N  N79  1  0.52070000  0.87270000  0.43876000  1.0 -0.3943715214
N  N80  1  0.47930000  0.62730000  0.93876000  1.0 -0.3943715214
N  N81  1  0.16470000  0.59150000  0.45758000  1.0 -0.3995756191
N  N82  1  0.83530000  0.90850000  0.95758000  1.0 -0.3995756191
N  N83  1  0.33530000  0.09150000  0.54242000  1.0 -0.3995756191
N  N84  1  0.66470000  0.40850000  0.04242000  1.0 -0.3995756191
N  N85  1  0.83530000  0.40850000  0.54242000  1.0 -0.3995756191
N  N86  1  0.16470000  0.09150000  0.04242000  1.0 -0.3995756191
N  N87  1  0.66470000  0.90850000  0.45758000  1.0 -0.3995756191
N  N88  1  0.33530000  0.59150000  0.95758000  1.0 -0.3995756191
N  N89  1  0.90500000  0.96010000  0.60728000  1.0 -0.1906141232
N  N90  1  0.09500000  0.53990000  0.10728000  1.0 -0.1906141232
N  N91  1  0.59500000  0.46010000  0.39272000  1.0 -0.1906141232
N  N92  1  0.40500000  0.03990000  0.89272000  1.0 -0.1906141232
N  N93  1  0.09500000  0.03990000  0.39272000  1.0 -0.1906141232
N  N94  1  0.90500000  0.46010000  0.89272000  1.0 -0.1906141232
N  N95  1  0.40500000  0.53990000  0.60728000  1.0 -0.1906141232
N  N96  1  0.59500000  0.96010000  0.10728000  1.0 -0.1906141232
N  N97  1  0.31650000  0.30860000  0.36140000  1.0 -0.159192849
N  N98  1  0.68350000  0.19140000  0.86140000  1.0 -0.159192849
N  N99  1  0.18350000  0.80860000  0.63860000  1.0 -0.159192849
N  N100  1  0.81650000  0.69140000  0.13860000  1.0 -0.159192849
N  N101  1  0.68350000  0.69140000  0.63860000  1.0 -0.159192849
N  N102  1  0.31650000  0.80860000  0.13860000  1.0 -0.159192849
N  N103  1  0.81650000  0.19140000  0.36140000  1.0 -0.159192849
N  N104  1  0.18350000  0.30860000  0.86140000  1.0 -0.159192849
N  N105  1  0.27960000  0.76350000  0.52220000  1.0 0.5051466294
N  N106  1  0.72040000  0.73650000  0.02220000  1.0 0.5051466294
N  N107  1  0.22040000  0.26350000  0.47780000  1.0 0.5051466294
N  N108  1  0.77960000  0.23650000  0.97780000  1.0 0.5051466294
N  N109  1  0.72040000  0.23650000  0.47780000  1.0 0.5051466294
N  N110  1  0.27960000  0.26350000  0.97780000  1.0 0.5051466294
N  N111  1  0.77960000  0.73650000  0.52220000  1.0 0.5051466294
N  N112  1  0.22040000  0.76350000  0.02220000  1.0 0.5051466294
O  O1  1  0.26740000  0.48140000  0.29530000  1.0 -0.0859658949
O  O2  1  0.73260000  0.01860000  0.79530000  1.0 -0.0801242038
O  O3  1  0.23260000  0.98140000  0.70470000  1.0 -0.0859658949
O  O4  1  0.76740000  0.51860000  0.20470000  1.0 -0.0801242038
O  O5  1  0.73260000  0.51860000  0.70470000  1.0 -0.0801242038
O  O6  1  0.26740000  0.98140000  0.20470000  1.0 -0.0859658949
O  O7  1  0.76740000  0.01860000  0.29530000  1.0 -0.0801242038
O  O8  1  0.23260000  0.48140000  0.79530000  1.0 -0.0859658949
O  O9  1  0.32800000  0.79770000  0.52120000  1.0 -0.2996658839
O  O10  1  0.67200000  0.70230000  0.02120000  1.0 -0.2996658839
O  O11  1  0.17200000  0.29770000  0.47880000  1.0 -0.2996658839
O  O12  1  0.82800000  0.20230000  0.97880000  1.0 -0.2996658839
O  O13  1  0.67200000  0.20230000  0.47880000  1.0 -0.2996658839
O  O14  1  0.32800000  0.29770000  0.97880000  1.0 -0.2996658839
O  O15  1  0.82800000  0.70230000  0.52120000  1.0 -0.2996658839
O  O16  1  0.17200000  0.79770000  0.02120000  1.0 -0.2996658839
O  O17  1  0.19380000  0.75580000  0.51840000  1.0 -0.3535800099
O  O18  1  0.80620000  0.74420000  0.01840000  1.0 -0.3535800099
O  O19  1  0.30620000  0.25580000  0.48160000  1.0 -0.3535800099
O  O20  1  0.69380000  0.24420000  0.98160000  1.0 -0.3535800099
O  O21  1  0.80620000  0.24420000  0.48160000  1.0 -0.3535800099
O  O22  1  0.19380000  0.25580000  0.98160000  1.0 -0.3535800099
O  O23  1  0.69380000  0.74420000  0.51840000  1.0 -0.3535800099
O  O24  1  0.30620000  0.75580000  0.01840000  1.0 -0.3535800099
