# DDEC6 charges by PACMAN v1.1 (https://github.com/mtap-research/PACMAN-charge/)
data_RIZXUT_FSR_pacman
_symmetry_space_group_name_H-M   'P 1'
_cell_length_a   14.72800000
_cell_length_b   14.72800000
_cell_length_c   14.72800000
_cell_angle_alpha   90.00000000
_cell_angle_beta   90.00000000
_cell_angle_gamma   90.00000000
_symmetry_Int_Tables_number   1
_chemical_formula_structural   Zn2H18C15N3O13
_chemical_formula_sum   'Zn8 H72 C60 N12 O52'
_cell_volume   3194.70915635
_cell_formula_units_Z   4
loop_
 _symmetry_equiv_pos_site_id
 _symmetry_equiv_pos_as_xyz
  1  'x, y, z'
loop_
 _atom_site_type_symbol
 _atom_site_label
 _atom_site_symmetry_multiplicity
 _atom_site_fract_x
 _atom_site_fract_y
 _atom_site_fract_z
 _atom_site_occupancy
 _atom_site_charge
Zn  Zn1  1  0.18670000  0.18670000  0.18670000  1.0 1.0719893644
Zn  Zn2  1  0.31330000  0.81330000  0.68670000  1.0 1.0719893644
Zn  Zn3  1  0.68670000  0.31330000  0.81330000  1.0 1.0719893644
Zn  Zn4  1  0.81330000  0.68670000  0.31330000  1.0 1.0719893644
Zn  Zn5  1  0.04680000  0.04680000  0.04680000  1.0 0.7831440042
Zn  Zn6  1  0.45320000  0.95320000  0.54680000  1.0 0.7831440042
Zn  Zn7  1  0.54680000  0.45320000  0.95320000  1.0 0.7831440042
Zn  Zn8  1  0.95320000  0.54680000  0.45320000  1.0 0.7831440042
H  H1  1  0.33840000  0.24940000  0.98090000  1.0 0.1532413768
H  H2  1  0.16160000  0.75060000  0.48090000  1.0 0.1532413768
H  H3  1  0.83840000  0.25060000  0.01910000  1.0 0.1532413768
H  H4  1  0.98090000  0.33840000  0.24940000  1.0 0.1532413768
H  H5  1  0.66160000  0.74940000  0.51910000  1.0 0.1532413768
H  H6  1  0.51910000  0.66160000  0.74940000  1.0 0.1532413768
H  H7  1  0.48090000  0.16160000  0.75060000  1.0 0.1532413768
H  H8  1  0.01910000  0.83840000  0.25060000  1.0 0.1532413768
H  H9  1  0.24940000  0.98090000  0.33840000  1.0 0.1532413768
H  H10  1  0.74940000  0.51910000  0.66160000  1.0 0.1532413768
H  H11  1  0.75060000  0.48090000  0.16160000  1.0 0.1532413768
H  H12  1  0.25060000  0.01910000  0.83840000  1.0 0.1532413768
H  H13  1  0.37290000  0.06070000  0.27680000  1.0 0.0663960049
H  H14  1  0.12710000  0.93930000  0.77680000  1.0 0.0663960049
H  H15  1  0.87290000  0.43930000  0.72320000  1.0 0.0663960049
H  H16  1  0.27680000  0.37290000  0.06070000  1.0 0.0663960049
H  H17  1  0.62710000  0.56070000  0.22320000  1.0 0.0663960049
H  H18  1  0.22320000  0.62710000  0.56070000  1.0 0.0663960049
H  H19  1  0.77680000  0.12710000  0.93930000  1.0 0.0663960049
H  H20  1  0.72320000  0.87290000  0.43930000  1.0 0.0663960049
H  H21  1  0.06070000  0.27680000  0.37290000  1.0 0.0663960049
H  H22  1  0.56070000  0.22320000  0.62710000  1.0 0.0663960049
H  H23  1  0.93930000  0.77680000  0.12710000  1.0 0.0663960049
H  H24  1  0.43930000  0.72320000  0.87290000  1.0 0.0663960049
H  H25  1  0.45250000  0.12270000  0.25110000  1.0 0.0410744509
H  H26  1  0.04750000  0.87730000  0.75110000  1.0 0.0410744509
H  H27  1  0.95250000  0.37730000  0.74890000  1.0 0.0410744509
H  H28  1  0.25110000  0.45250000  0.12270000  1.0 0.0410744509
H  H29  1  0.54750000  0.62270000  0.24890000  1.0 0.0410744509
H  H30  1  0.24890000  0.54750000  0.62270000  1.0 0.0410744509
H  H31  1  0.75110000  0.04750000  0.87730000  1.0 0.0410744509
H  H32  1  0.74890000  0.95250000  0.37730000  1.0 0.0410744509
H  H33  1  0.12270000  0.25110000  0.45250000  1.0 0.0410744509
H  H34  1  0.62270000  0.24890000  0.54750000  1.0 0.0410744509
H  H35  1  0.87730000  0.75110000  0.04750000  1.0 0.0410744509
H  H36  1  0.37730000  0.74890000  0.95250000  1.0 0.0410744509
H  H37  1  0.46780000  0.98690000  0.16670000  1.0 0.1215798446
H  H38  1  0.03220000  0.01310000  0.66666667  1.0 0.1215798446
H  H39  1  0.96780000  0.51310000  0.83330000  1.0 0.1215798446
H  H40  1  0.16670000  0.46780000  0.98690000  1.0 0.1215798446
H  H41  1  0.53220000  0.48690000  0.33333333  1.0 0.1215798446
H  H42  1  0.33333333  0.53220000  0.48690000  1.0 0.1215798446
H  H43  1  0.66666667  0.03220000  0.01310000  1.0 0.1215798446
H  H44  1  0.83330000  0.96780000  0.51310000  1.0 0.1215798446
H  H45  1  0.98690000  0.16670000  0.46780000  1.0 0.1215798446
H  H46  1  0.48690000  0.33333333  0.53220000  1.0 0.1215798446
H  H47  1  0.01310000  0.66666667  0.03220000  1.0 0.1215798446
H  H48  1  0.51310000  0.83330000  0.96780000  1.0 0.1215798446
H  H49  1  0.37390000  0.99790000  0.11790000  1.0 0.1532413768
H  H50  1  0.12610000  0.00210000  0.61790000  1.0 0.1532413768
H  H51  1  0.87390000  0.50210000  0.88210000  1.0 0.1532413768
H  H52  1  0.11790000  0.37390000  0.99790000  1.0 0.1532413768
H  H53  1  0.62610000  0.49790000  0.38210000  1.0 0.1532413768
H  H54  1  0.38210000  0.62610000  0.49790000  1.0 0.1532413768
H  H55  1  0.61790000  0.12610000  0.00210000  1.0 0.1532413768
H  H56  1  0.88210000  0.87390000  0.50210000  1.0 0.1532413768
H  H57  1  0.99790000  0.11790000  0.37390000  1.0 0.1532413768
H  H58  1  0.49790000  0.38210000  0.62610000  1.0 0.1532413768
H  H59  1  0.00210000  0.61790000  0.12610000  1.0 0.1532413768
H  H60  1  0.50210000  0.88210000  0.87390000  1.0 0.1532413768
H  H61  1  0.45530000  0.06130000  0.09160000  1.0 0.1434842566
H  H62  1  0.04470000  0.93870000  0.59160000  1.0 0.1434842566
H  H63  1  0.95530000  0.43870000  0.90840000  1.0 0.1434842566
H  H64  1  0.09160000  0.45530000  0.06130000  1.0 0.1434842566
H  H65  1  0.54470000  0.56130000  0.40840000  1.0 0.1434842566
H  H66  1  0.40840000  0.54470000  0.56130000  1.0 0.1434842566
H  H67  1  0.59160000  0.04470000  0.93870000  1.0 0.1434842566
H  H68  1  0.90840000  0.95530000  0.43870000  1.0 0.1434842566
H  H69  1  0.06130000  0.09160000  0.45530000  1.0 0.1434842566
H  H70  1  0.56130000  0.40840000  0.54470000  1.0 0.1434842566
H  H71  1  0.93870000  0.59160000  0.04470000  1.0 0.1434842566
H  H72  1  0.43870000  0.90840000  0.95530000  1.0 0.1434842566
C  C1  1  0.21100000  0.12480000  0.99160000  1.0 0.5996319423
C  C2  1  0.28900000  0.87520000  0.49160000  1.0 0.5996319423
C  C3  1  0.71100000  0.37520000  0.00840000  1.0 0.5996319423
C  C4  1  0.99160000  0.21100000  0.12480000  1.0 0.5996319423
C  C5  1  0.78900000  0.62480000  0.50840000  1.0 0.5996319423
C  C6  1  0.50840000  0.78900000  0.62480000  1.0 0.5996319423
C  C7  1  0.49160000  0.28900000  0.87520000  1.0 0.5996319423
C  C8  1  0.00840000  0.71100000  0.37520000  1.0 0.5996319423
C  C9  1  0.12480000  0.99160000  0.21100000  1.0 0.5996319423
C  C10  1  0.62480000  0.50840000  0.78900000  1.0 0.5996319423
C  C11  1  0.87520000  0.49160000  0.28900000  1.0 0.5996319423
C  C12  1  0.37520000  0.00840000  0.71100000  1.0 0.5996319423
C  C13  1  0.28980000  0.13120000  0.92190000  1.0 0.0268075007
C  C14  1  0.21020000  0.86880000  0.42190000  1.0 0.0268075007
C  C15  1  0.78980000  0.36880000  0.07810000  1.0 0.0268075007
C  C16  1  0.92190000  0.28980000  0.13120000  1.0 0.0268075007
C  C17  1  0.71020000  0.63120000  0.57810000  1.0 0.0268075007
C  C18  1  0.57810000  0.71020000  0.63120000  1.0 0.0268075007
C  C19  1  0.42190000  0.21020000  0.86880000  1.0 0.0268075007
C  C20  1  0.07810000  0.78980000  0.36880000  1.0 0.0268075007
C  C21  1  0.13120000  0.92190000  0.28980000  1.0 0.0268075007
C  C22  1  0.63120000  0.57810000  0.71020000  1.0 0.0268075007
C  C23  1  0.86880000  0.42190000  0.21020000  1.0 0.0268075007
C  C24  1  0.36880000  0.07810000  0.78980000  1.0 0.0268075007
C  C25  1  0.34860000  0.20440000  0.93490000  1.0 -0.1438219515
C  C26  1  0.15140000  0.79560000  0.43490000  1.0 -0.1438219515
C  C27  1  0.84860000  0.29560000  0.06510000  1.0 -0.1438219515
C  C28  1  0.93490000  0.34860000  0.20440000  1.0 -0.1438219515
C  C29  1  0.65140000  0.70440000  0.56510000  1.0 -0.1438219515
C  C30  1  0.56510000  0.65140000  0.70440000  1.0 -0.1438219515
C  C31  1  0.43490000  0.15140000  0.79560000  1.0 -0.1438219515
C  C32  1  0.06510000  0.84860000  0.29560000  1.0 -0.1438219515
C  C33  1  0.20440000  0.93490000  0.34860000  1.0 -0.1438219515
C  C34  1  0.70440000  0.56510000  0.65140000  1.0 -0.1438219515
C  C35  1  0.79560000  0.43490000  0.15140000  1.0 -0.1438219515
C  C36  1  0.29560000  0.06510000  0.84860000  1.0 -0.1438219515
C  C37  1  0.39720000  0.09680000  0.22820000  1.0 -0.0146397227
C  C38  1  0.10280000  0.90320000  0.72820000  1.0 -0.0152249919
C  C39  1  0.89720000  0.40320000  0.77180000  1.0 -0.0146397227
C  C40  1  0.22820000  0.39720000  0.09680000  1.0 -0.0146397227
C  C41  1  0.60280000  0.59680000  0.27180000  1.0 -0.0146397227
C  C42  1  0.27180000  0.60280000  0.59680000  1.0 -0.0152249919
C  C43  1  0.72820000  0.10280000  0.90320000  1.0 -0.0146397227
C  C44  1  0.77180000  0.89720000  0.40320000  1.0 -0.0146397227
C  C45  1  0.09680000  0.22820000  0.39720000  1.0 -0.0146397227
C  C46  1  0.59680000  0.27180000  0.60280000  1.0 -0.0146397227
C  C47  1  0.90320000  0.72820000  0.10280000  1.0 -0.0146397227
C  C48  1  0.40320000  0.77180000  0.89720000  1.0 -0.0152249919
C  C49  1  0.42610000  0.02960000  0.14060000  1.0 -0.4471987829
C  C50  1  0.07390000  0.97040000  0.64060000  1.0 -0.4471987829
C  C51  1  0.92610000  0.47040000  0.85940000  1.0 -0.4471987829
C  C52  1  0.14060000  0.42610000  0.02960000  1.0 -0.4471987829
C  C53  1  0.57390000  0.52960000  0.35940000  1.0 -0.4471987829
C  C54  1  0.35940000  0.57390000  0.52960000  1.0 -0.4471987829
C  C55  1  0.64060000  0.07390000  0.97040000  1.0 -0.4471987829
C  C56  1  0.85940000  0.92610000  0.47040000  1.0 -0.4471987829
C  C57  1  0.02960000  0.14060000  0.42610000  1.0 -0.4471987829
C  C58  1  0.52960000  0.35940000  0.57390000  1.0 -0.4471987829
C  C59  1  0.97040000  0.64060000  0.07390000  1.0 -0.4471987829
C  C60  1  0.47040000  0.85940000  0.92610000  1.0 -0.4471987829
N  N1  1  0.94390000  0.93150000  0.95860000  1.0 0.178567106
N  N2  1  0.55610000  0.06850000  0.45860000  1.0 0.178567106
N  N3  1  0.44390000  0.56850000  0.04140000  1.0 0.178567106
N  N4  1  0.95860000  0.94390000  0.93150000  1.0 0.178567106
N  N5  1  0.05610000  0.43150000  0.54140000  1.0 0.178567106
N  N6  1  0.54140000  0.05610000  0.43150000  1.0 0.178567106
N  N7  1  0.45860000  0.55610000  0.06850000  1.0 0.178567106
N  N8  1  0.04140000  0.44390000  0.56850000  1.0 0.178567106
N  N9  1  0.93150000  0.95860000  0.94390000  1.0 0.178567106
N  N10  1  0.43150000  0.54140000  0.05610000  1.0 0.178567106
N  N11  1  0.06850000  0.45860000  0.55610000  1.0 0.178567106
N  N12  1  0.56850000  0.04140000  0.44390000  1.0 0.178567106
O  O1  1  0.20650000  0.18080000  0.05050000  1.0 -0.4822449317
O  O2  1  0.29350000  0.81920000  0.55050000  1.0 -0.4822449317
O  O3  1  0.70650000  0.31920000  0.94950000  1.0 -0.4822449317
O  O4  1  0.05050000  0.20650000  0.18080000  1.0 -0.4822449317
O  O5  1  0.79350000  0.68080000  0.44950000  1.0 -0.4822449317
O  O6  1  0.44950000  0.79350000  0.68080000  1.0 -0.4822449317
O  O7  1  0.55050000  0.29350000  0.81920000  1.0 -0.4822449317
O  O8  1  0.94950000  0.70650000  0.31920000  1.0 -0.4822449317
O  O9  1  0.18080000  0.05050000  0.20650000  1.0 -0.4822449317
O  O10  1  0.68080000  0.44950000  0.79350000  1.0 -0.4822449317
O  O11  1  0.81920000  0.55050000  0.29350000  1.0 -0.4822449317
O  O12  1  0.31920000  0.94950000  0.70650000  1.0 -0.4822449317
O  O13  1  0.15870000  0.05720000  0.97520000  1.0 -0.5946848025
O  O14  1  0.34130000  0.94280000  0.47520000  1.0 -0.5946848025
O  O15  1  0.65870000  0.44280000  0.02480000  1.0 -0.5946848025
O  O16  1  0.97520000  0.15870000  0.05720000  1.0 -0.5946848025
O  O17  1  0.84130000  0.55720000  0.52480000  1.0 -0.5946848025
O  O18  1  0.52480000  0.84130000  0.55720000  1.0 -0.5946848025
O  O19  1  0.47520000  0.34130000  0.94280000  1.0 -0.5946848025
O  O20  1  0.02480000  0.65870000  0.44280000  1.0 -0.5951215854
O  O21  1  0.05720000  0.97520000  0.15870000  1.0 -0.5946848025
O  O22  1  0.55720000  0.52480000  0.84130000  1.0 -0.5946848025
O  O23  1  0.94280000  0.47520000  0.34130000  1.0 -0.5946848025
O  O24  1  0.44280000  0.02480000  0.65870000  1.0 -0.5946848025
O  O25  1  0.33020000  0.17630000  0.20520000  1.0 -0.443651737
O  O26  1  0.16980000  0.82370000  0.70520000  1.0 -0.4471987829
O  O27  1  0.83020000  0.32370000  0.79480000  1.0 -0.443651737
O  O28  1  0.20520000  0.33020000  0.17630000  1.0 -0.443651737
O  O29  1  0.66980000  0.67630000  0.29480000  1.0 -0.443651737
O  O30  1  0.29480000  0.66980000  0.67630000  1.0 -0.443651737
O  O31  1  0.70520000  0.16980000  0.82370000  1.0 -0.443651737
O  O32  1  0.79480000  0.83020000  0.32370000  1.0 -0.443651737
O  O33  1  0.17630000  0.20520000  0.33020000  1.0 -0.443651737
O  O34  1  0.67630000  0.29480000  0.66980000  1.0 -0.443651737
O  O35  1  0.82370000  0.70520000  0.16980000  1.0 -0.443651737
O  O36  1  0.32370000  0.79480000  0.83020000  1.0 -0.443651737
O  O37  1  0.92670000  0.97220000  0.01160000  1.0 0.0539100708
O  O38  1  0.57330000  0.02780000  0.51160000  1.0 0.0539100708
O  O39  1  0.42670000  0.52780000  0.98840000  1.0 0.0539100708
O  O40  1  0.01160000  0.92670000  0.97220000  1.0 0.0539100708
O  O41  1  0.07330000  0.47220000  0.48840000  1.0 0.0539100708
O  O42  1  0.48840000  0.07330000  0.47220000  1.0 0.0539100708
O  O43  1  0.51160000  0.57330000  0.02780000  1.0 0.0539100708
O  O44  1  0.98840000  0.42670000  0.52780000  1.0 0.0539100708
O  O45  1  0.97220000  0.01160000  0.92670000  1.0 0.0539100708
O  O46  1  0.47220000  0.48840000  0.07330000  1.0 0.0539100708
O  O47  1  0.02780000  0.51160000  0.57330000  1.0 0.0539100708
O  O48  1  0.52780000  0.98840000  0.42670000  1.0 0.0539100708
O  O49  1  0.89530000  0.89530000  0.89530000  1.0 -0.0887744655
O  O50  1  0.60470000  0.10470000  0.39530000  1.0 -0.0887744655
O  O51  1  0.39530000  0.60470000  0.10470000  1.0 -0.0887744655
O  O52  1  0.10470000  0.39530000  0.60470000  1.0 -0.0887744655
