# DDEC6 charges by PACMAN v1.1 (https://github.com/mtap-research/PACMAN-charge/)
data_ROCZOA_FSR_pacman
_symmetry_space_group_name_H-M   'P 1'
_cell_length_a   10.97400000
_cell_length_b   22.66900000
_cell_length_c   14.10600000
_cell_angle_alpha   90.00000000
_cell_angle_beta   96.63700000
_cell_angle_gamma   90.00000000
_symmetry_Int_Tables_number   1
_chemical_formula_structural   Cd3H34C34(N15O)2
_chemical_formula_sum   'Cd6 H68 C68 N60 O4'
_cell_volume   3485.62695536
_cell_formula_units_Z   2
loop_
 _symmetry_equiv_pos_site_id
 _symmetry_equiv_pos_as_xyz
  1  'x, y, z'
loop_
 _atom_site_type_symbol
 _atom_site_label
 _atom_site_symmetry_multiplicity
 _atom_site_fract_x
 _atom_site_fract_y
 _atom_site_fract_z
 _atom_site_occupancy
 _atom_site_charge
Cd  Cd1  1  0.00000000  0.00000000  0.00000000  1.0 0.6908093312
Cd  Cd2  1  0.00000000  0.50000000  0.50000000  1.0 0.6908093312
Cd  Cd3  1  0.13181000  0.92677000  0.22194000  1.0 0.7024395981
Cd  Cd4  1  0.86819000  0.42677000  0.27806000  1.0 0.7024395981
Cd  Cd5  1  0.86819000  0.07323000  0.77806000  1.0 0.7024395981
Cd  Cd6  1  0.13181000  0.57323000  0.72194000  1.0 0.7024395981
H  H1  1  0.32240000  0.95560000  0.08330000  1.0 0.091190406
H  H2  1  0.67760000  0.45560000  0.41670000  1.0 0.091190406
H  H3  1  0.67760000  0.04440000  0.91670000  1.0 0.091190406
H  H4  1  0.32240000  0.54440000  0.58330000  1.0 0.091190406
H  H5  1  0.52160000  0.95950000  0.05750000  1.0 0.1371700434
H  H6  1  0.47840000  0.45950000  0.44250000  1.0 0.1371700434
H  H7  1  0.47840000  0.04050000  0.94250000  1.0 0.1371700434
H  H8  1  0.52160000  0.54050000  0.55750000  1.0 0.1371700434
H  H9  1  0.61370000  0.89360000  0.31710000  1.0 0.1293969222
H  H10  1  0.38630000  0.39360000  0.18290000  1.0 0.1293969222
H  H11  1  0.38630000  0.10640000  0.68290000  1.0 0.1293969222
H  H12  1  0.61370000  0.60640000  0.81710000  1.0 0.1293969222
H  H13  1  0.41070000  0.89320000  0.33720000  1.0 0.091190406
H  H14  1  0.58930000  0.39320000  0.16280000  1.0 0.091190406
H  H15  1  0.58930000  0.10680000  0.66280000  1.0 0.091190406
H  H16  1  0.41070000  0.60680000  0.83720000  1.0 0.091190406
H  H17  1  0.04930000  0.70630000  0.70110000  1.0 0.1020013646
H  H18  1  0.95070000  0.20630000  0.79890000  1.0 0.1020013646
H  H19  1  0.95070000  0.29370000  0.29890000  1.0 0.1020013646
H  H20  1  0.04930000  0.79370000  0.20110000  1.0 0.1020013646
H  H21  1  0.04310000  0.79310000  0.77910000  1.0 0.1371700434
H  H22  1  0.95690000  0.29310000  0.72090000  1.0 0.1371700434
H  H23  1  0.95690000  0.20690000  0.22090000  1.0 0.1371700434
H  H24  1  0.04310000  0.70690000  0.27910000  1.0 0.1371700434
H  H25  1  0.20020000  0.71350000  0.01460000  1.0 0.1371700434
H  H26  1  0.79980000  0.21350000  0.48540000  1.0 0.1371700434
H  H27  1  0.79980000  0.28650000  0.98540000  1.0 0.1371700434
H  H28  1  0.20020000  0.78650000  0.51460000  1.0 0.1371700434
H  H29  1  0.19800000  0.62840000  0.92820000  1.0 0.091190406
H  H30  1  0.80200000  0.12840000  0.57180000  1.0 0.091190406
H  H31  1  0.80200000  0.37160000  0.07180000  1.0 0.091190406
H  H32  1  0.19800000  0.87160000  0.42820000  1.0 0.091190406
H  H33  1  0.27730000  0.06670000  0.50570000  1.0 0.1114323369
H  H34  1  0.72270000  0.56670000  0.99430000  1.0 0.1114323369
H  H35  1  0.72270000  0.93330000  0.49430000  1.0 0.1114323369
H  H36  1  0.27730000  0.43330000  0.00570000  1.0 0.1114323369
H  H37  1  0.27680000  0.99960000  0.53210000  1.0 0.1020013646
H  H38  1  0.72320000  0.49960000  0.96790000  1.0 0.1020013646
H  H39  1  0.72320000  0.00040000  0.46790000  1.0 0.1020013646
H  H40  1  0.27680000  0.50040000  0.03210000  1.0 0.1020013646
H  H41  1  0.34930000  0.02140000  0.44930000  1.0 0.1020013646
H  H42  1  0.65070000  0.52140000  0.05070000  1.0 0.1020013646
H  H43  1  0.65070000  0.97860000  0.55070000  1.0 0.1020013646
H  H44  1  0.34930000  0.47860000  0.94930000  1.0 0.1020013646
H  H45  1  0.92070000  0.08210000  0.35250000  1.0 0.1114323369
H  H46  1  0.07930000  0.58210000  0.14750000  1.0 0.1114323369
H  H47  1  0.07930000  0.91790000  0.64750000  1.0 0.1114323369
H  H48  1  0.92070000  0.41790000  0.85250000  1.0 0.1114323369
H  H49  1  0.00010000  0.04920000  0.28350000  1.0 0.1185936251
H  H50  1  0.99990000  0.54920000  0.21650000  1.0 0.1185936251
H  H51  1  0.99990000  0.95080000  0.71650000  1.0 0.1185936251
H  H52  1  0.00010000  0.45080000  0.78350000  1.0 0.1185936251
H  H53  1  0.94250000  0.01400000  0.36300000  1.0 0.1020013646
H  H54  1  0.05750000  0.51400000  0.13700000  1.0 0.1020013646
H  H55  1  0.05750000  0.98600000  0.63700000  1.0 0.1020013646
H  H56  1  0.94250000  0.48600000  0.86300000  1.0 0.1020013646
H  H57  1  0.03500000  0.13570000  0.48130000  1.0 0.091190406
H  H58  1  0.96500000  0.63570000  0.01870000  1.0 0.091190406
H  H59  1  0.96500000  0.86430000  0.51870000  1.0 0.091190406
H  H60  1  0.03500000  0.36430000  0.98130000  1.0 0.091190406
H  H61  1  0.10920000  0.09090000  0.55020000  1.0 0.1114323369
H  H62  1  0.89080000  0.59090000  0.94980000  1.0 0.1114323369
H  H63  1  0.89080000  0.90910000  0.44980000  1.0 0.1114323369
H  H64  1  0.10920000  0.40910000  0.05020000  1.0 0.1114323369
H  H65  1  0.17740000  0.13020000  0.48170000  1.0 0.1020013646
H  H66  1  0.82260000  0.63020000  0.01830000  1.0 0.1020013646
H  H67  1  0.82260000  0.86980000  0.51830000  1.0 0.1020013646
H  H68  1  0.17740000  0.36980000  0.98170000  1.0 0.1020013646
C  C1  1  0.38190000  0.94350000  0.13170000  1.0 0.0624870689
C  C2  1  0.61810000  0.44350000  0.36830000  1.0 0.0624870689
C  C3  1  0.61810000  0.05650000  0.86830000  1.0 0.0624870689
C  C4  1  0.38190000  0.55650000  0.63170000  1.0 0.0624870689
C  C5  1  0.50130000  0.94580000  0.11580000  1.0 -0.1709165282
C  C6  1  0.49870000  0.44580000  0.38420000  1.0 -0.1709165282
C  C7  1  0.49870000  0.05420000  0.88420000  1.0 -0.1709165282
C  C8  1  0.50130000  0.55420000  0.61580000  1.0 -0.1709165282
C  C9  1  0.59230000  0.92810000  0.18440000  1.0 0.091190406
C  C10  1  0.40770000  0.42810000  0.31560000  1.0 0.091190406
C  C11  1  0.40770000  0.07190000  0.81560000  1.0 0.091190406
C  C12  1  0.59230000  0.57190000  0.68440000  1.0 0.091190406
C  C13  1  0.55590000  0.90720000  0.26860000  1.0 -0.2061182342
C  C14  1  0.44410000  0.40720000  0.23140000  1.0 -0.2061182342
C  C15  1  0.44410000  0.09280000  0.73140000  1.0 -0.2061182342
C  C16  1  0.55590000  0.59280000  0.76860000  1.0 -0.2061182342
C  C17  1  0.43360000  0.90680000  0.27970000  1.0 0.0512968652
C  C18  1  0.56640000  0.40680000  0.22030000  1.0 0.0512968652
C  C19  1  0.56640000  0.09320000  0.72030000  1.0 0.0512968652
C  C20  1  0.43360000  0.59320000  0.77970000  1.0 0.0512968652
C  C21  1  0.72030000  0.93380000  0.16930000  1.0 0.2127094486
C  C22  1  0.27970000  0.43380000  0.33070000  1.0 0.2127094486
C  C23  1  0.27970000  0.06620000  0.83070000  1.0 0.2127094486
C  C24  1  0.72030000  0.56620000  0.66930000  1.0 0.2127094486
C  C25  1  0.07970000  0.70770000  0.76540000  1.0 0.0624870689
C  C26  1  0.92030000  0.20770000  0.73460000  1.0 0.0624870689
C  C27  1  0.92030000  0.29230000  0.23460000  1.0 0.0624870689
C  C28  1  0.07970000  0.79230000  0.26540000  1.0 0.0624870689
C  C29  1  0.07610000  0.76000000  0.81130000  1.0 -0.1802735857
C  C30  1  0.92390000  0.26000000  0.68870000  1.0 -0.1802735857
C  C31  1  0.92390000  0.24000000  0.18870000  1.0 -0.1802735857
C  C32  1  0.07610000  0.74000000  0.31130000  1.0 -0.1802735857
C  C33  1  0.12180000  0.76360000  0.90610000  1.0 0.0842132431
C  C34  1  0.87820000  0.26360000  0.59390000  1.0 0.0842132431
C  C35  1  0.87820000  0.23640000  0.09390000  1.0 0.0842132431
C  C36  1  0.12180000  0.73640000  0.40610000  1.0 0.0842132431
C  C37  1  0.16840000  0.71320000  0.95050000  1.0 -0.1925303793
C  C38  1  0.83160000  0.21320000  0.54950000  1.0 -0.1925303793
C  C39  1  0.83160000  0.28680000  0.04950000  1.0 -0.1925303793
C  C40  1  0.16840000  0.78680000  0.45050000  1.0 -0.1925303793
C  C41  1  0.16670000  0.66240000  0.89770000  1.0 0.0156269682
C  C42  1  0.83330000  0.16240000  0.60230000  1.0 0.0156269682
C  C43  1  0.83330000  0.33760000  0.10230000  1.0 0.0156269682
C  C44  1  0.16670000  0.83760000  0.39770000  1.0 0.0156269682
C  C45  1  0.11740000  0.81860000  0.95930000  1.0 0.2204917812
C  C46  1  0.88260000  0.31860000  0.54070000  1.0 0.2204917812
C  C47  1  0.88260000  0.18140000  0.04070000  1.0 0.2204917812
C  C48  1  0.11740000  0.68140000  0.45930000  1.0 0.2204917812
C  C49  1  0.27720000  0.02740000  0.48070000  1.0 -0.3118587962
C  C50  1  0.72280000  0.52740000  0.01930000  1.0 -0.3118587962
C  C51  1  0.72280000  0.97260000  0.51930000  1.0 -0.3118587962
C  C52  1  0.27720000  0.47260000  0.98070000  1.0 -0.3118587962
C  C53  1  0.97860000  0.05080000  0.34750000  1.0 -0.3032138279
C  C54  1  0.02140000  0.55080000  0.15250000  1.0 -0.3032138279
C  C55  1  0.02140000  0.94920000  0.65250000  1.0 -0.3032138279
C  C56  1  0.97860000  0.44920000  0.84750000  1.0 -0.3032138279
C  C57  1  0.10320000  0.10900000  0.48830000  1.0 -0.215787322
C  C58  1  0.89680000  0.60900000  0.01170000  1.0 -0.215787322
C  C59  1  0.89680000  0.89100000  0.51170000  1.0 -0.215787322
C  C60  1  0.10320000  0.39100000  0.98830000  1.0 -0.215787322
C  C61  1  0.16440000  0.01840000  0.41030000  1.0 0.2295648039
C  C62  1  0.83560000  0.51840000  0.08970000  1.0 0.2295648039
C  C63  1  0.83560000  0.98160000  0.58970000  1.0 0.2295648039
C  C64  1  0.16440000  0.48160000  0.91030000  1.0 0.2295648039
C  C65  1  0.09800000  0.02090000  0.38600000  1.0 0.2204917812
C  C66  1  0.90200000  0.52090000  0.11400000  1.0 0.2204917812
C  C67  1  0.90200000  0.97910000  0.61400000  1.0 0.2204917812
C  C68  1  0.09800000  0.47910000  0.88600000  1.0 0.2204917812
N  N1  1  0.34600000  0.92470000  0.21360000  1.0 -0.2365159809
N  N2  1  0.65400000  0.42470000  0.28640000  1.0 -0.2365159809
N  N3  1  0.65400000  0.07530000  0.78640000  1.0 -0.2365159809
N  N4  1  0.34600000  0.57530000  0.71360000  1.0 -0.2365159809
N  N5  1  0.75320000  0.96020000  0.09100000  1.0 -0.2607977173
N  N6  1  0.24680000  0.46020000  0.40900000  1.0 -0.2607977173
N  N7  1  0.24680000  0.03980000  0.90900000  1.0 -0.2607977173
N  N8  1  0.75320000  0.53980000  0.59100000  1.0 -0.2607977173
N  N9  1  0.87450000  0.95700000  0.10240000  1.0 -0.0697934631
N  N10  1  0.12550000  0.45700000  0.39760000  1.0 -0.0697934631
N  N11  1  0.12550000  0.04300000  0.89760000  1.0 -0.0697934631
N  N12  1  0.87450000  0.54300000  0.60240000  1.0 -0.0697934631
N  N13  1  0.91280000  0.93070000  0.18470000  1.0 -0.0983645028
N  N14  1  0.08720000  0.43070000  0.31530000  1.0 -0.0983645028
N  N15  1  0.08720000  0.06930000  0.81530000  1.0 -0.0983645028
N  N16  1  0.91280000  0.56930000  0.68470000  1.0 -0.0983645028
N  N17  1  0.81710000  0.91520000  0.22770000  1.0 -0.2879976488
N  N18  1  0.18290000  0.41520000  0.27230000  1.0 -0.2879976488
N  N19  1  0.18290000  0.08480000  0.77230000  1.0 -0.2879976488
N  N20  1  0.81710000  0.58480000  0.72770000  1.0 -0.2879976488
N  N21  1  0.12380000  0.65840000  0.80630000  1.0 -0.2328426025
N  N22  1  0.87620000  0.15840000  0.69370000  1.0 -0.2328426025
N  N23  1  0.87620000  0.34160000  0.19370000  1.0 -0.2328426025
N  N24  1  0.12380000  0.84160000  0.30630000  1.0 -0.2328426025
N  N25  1  0.07900000  0.86920000  0.91890000  1.0 -0.2759245566
N  N26  1  0.92100000  0.36920000  0.58110000  1.0 -0.2759245566
N  N27  1  0.92100000  0.13080000  0.08110000  1.0 -0.2759245566
N  N28  1  0.07900000  0.63080000  0.41890000  1.0 -0.2759245566
N  N29  1  0.08380000  0.90680000  0.99140000  1.0 -0.0697934631
N  N30  1  0.91620000  0.40680000  0.50860000  1.0 -0.0697934631
N  N31  1  0.91620000  0.09320000  0.00860000  1.0 -0.0697934631
N  N32  1  0.08380000  0.59320000  0.49140000  1.0 -0.0697934631
N  N33  1  0.12190000  0.87880000  0.07150000  1.0 -0.0697934631
N  N34  1  0.87810000  0.37880000  0.42850000  1.0 -0.0697934631
N  N35  1  0.87810000  0.12120000  0.92850000  1.0 -0.0697934631
N  N36  1  0.12190000  0.62120000  0.57150000  1.0 -0.0697934631
N  N37  1  0.14430000  0.82270000  0.05310000  1.0 -0.2879976488
N  N38  1  0.85570000  0.32270000  0.44690000  1.0 -0.2879976488
N  N39  1  0.85570000  0.17730000  0.94690000  1.0 -0.2879976488
N  N40  1  0.14430000  0.67730000  0.55310000  1.0 -0.2879976488
N  N41  1  0.12880000  0.01280000  0.13850000  1.0 -0.5571692667
N  N42  1  0.87120000  0.51280000  0.36150000  1.0 -0.5571692667
N  N43  1  0.87120000  0.98720000  0.86150000  1.0 -0.5571692667
N  N44  1  0.12880000  0.48720000  0.63850000  1.0 -0.5571692667
N  N45  1  0.18600000  0.05500000  0.16260000  1.0 0.4171200686
N  N46  1  0.81400000  0.55500000  0.33740000  1.0 0.4171200686
N  N47  1  0.81400000  0.94500000  0.83740000  1.0 0.4171200686
N  N48  1  0.18600000  0.44500000  0.66260000  1.0 0.4171200686
N  N49  1  0.24010000  0.09500000  0.18770000  1.0 -0.3471358499
N  N50  1  0.75990000  0.59500000  0.31230000  1.0 -0.3471358499
N  N51  1  0.75990000  0.90500000  0.81230000  1.0 -0.3471358499
N  N52  1  0.24010000  0.40500000  0.68770000  1.0 -0.3471358499
N  N53  1  0.08400000  0.06130000  0.41130000  1.0 0.0512968652
N  N54  1  0.91600000  0.56130000  0.08870000  1.0 0.0512968652
N  N55  1  0.91600000  0.93870000  0.58870000  1.0 0.0512968652
N  N56  1  0.08400000  0.43870000  0.91130000  1.0 0.0512968652
N  N57  1  0.14740000  0.04750000  0.46330000  1.0 0.0512968652
N  N58  1  0.85260000  0.54750000  0.03670000  1.0 0.0512968652
N  N59  1  0.85260000  0.95250000  0.53670000  1.0 0.0512968652
N  N60  1  0.14740000  0.45250000  0.96330000  1.0 0.0512968652
O  O1  1  0.14590000  0.97530000  0.36460000  1.0 -0.3118587962
O  O2  1  0.85410000  0.47530000  0.13540000  1.0 -0.3118587962
O  O3  1  0.85410000  0.02470000  0.63540000  1.0 -0.3118587962
O  O4  1  0.14590000  0.52470000  0.86460000  1.0 -0.3118587962
