# DDEC6 charges by PACMAN v1.1 (https://github.com/mtap-research/PACMAN-charge/)
data_ROLLIQ_ASR_pacman
_symmetry_space_group_name_H-M   'P 1'
_cell_length_a   15.96310000
_cell_length_b   11.82090000
_cell_length_c   31.95760000
_cell_angle_alpha   90.00000000
_cell_angle_beta   94.22600000
_cell_angle_gamma   90.00000000
_symmetry_Int_Tables_number   1
_chemical_formula_structural   Cd3H10C30S4(NO7)2
_chemical_formula_sum   'Cd12 H40 C120 S16 N8 O56'
_cell_volume   6013.94622252
_cell_formula_units_Z   4
loop_
 _symmetry_equiv_pos_site_id
 _symmetry_equiv_pos_as_xyz
  1  'x, y, z'
loop_
 _atom_site_type_symbol
 _atom_site_label
 _atom_site_symmetry_multiplicity
 _atom_site_fract_x
 _atom_site_fract_y
 _atom_site_fract_z
 _atom_site_occupancy
 _atom_site_charge
Cd  Cd1  1  0.57203000  0.47492000  0.40955000  1.0 1.0038770516
Cd  Cd2  1  0.52253000  0.52437000  0.29807000  1.0 1.0965693573
Cd  Cd3  1  0.46974000  0.45026000  0.19143000  1.0 0.8973712106
Cd  Cd4  1  0.92797000  0.97492000  0.59045000  1.0 1.0038770516
Cd  Cd5  1  0.97747000  0.02437000  0.70193000  1.0 1.0965693573
Cd  Cd6  1  0.03026000  0.95026000  0.80857000  1.0 0.8973712106
Cd  Cd7  1  0.42797000  0.52508000  0.59045000  1.0 1.0038770516
Cd  Cd8  1  0.47747000  0.47563000  0.70193000  1.0 1.0965693573
Cd  Cd9  1  0.53026000  0.54974000  0.80857000  1.0 0.8973712106
Cd  Cd10  1  0.07203000  0.02508000  0.40955000  1.0 1.0038770516
Cd  Cd11  1  0.02253000  0.97563000  0.29807000  1.0 1.0946026822
Cd  Cd12  1  0.96974000  0.04974000  0.19143000  1.0 0.8973712106
H  H1  1  0.67250000  0.87130000  0.30290000  1.0 0.1305137253
H  H2  1  0.80130000  0.98190000  0.31470000  1.0 0.11296657
H  H3  1  0.35120000  0.82730000  0.28980000  1.0 0.1305137253
H  H4  1  0.22950000  0.94950000  0.27890000  1.0 0.11296657
H  H5  1  0.37890000  0.61680000  0.11960000  1.0 0.1204490282
H  H6  1  0.35670000  0.62890000  0.04840000  1.0 0.1305137253
H  H7  1  0.38240000  0.47090000  0.00580000  1.0 0.1305137253
H  H8  1  0.44980000  0.29750000  0.11170000  1.0 0.11296657
H  H9  1  0.28530000  0.01350000  0.00150000  1.0 0.1204490282
H  H10  1  0.67490000  0.16880000  0.01880000  1.0 0.1305137253
H  H11  1  0.82750000  0.37130000  0.69710000  1.0 0.1305137253
H  H12  1  0.69870000  0.48190000  0.68530000  1.0 0.11296657
H  H13  1  0.14880000  0.32730000  0.71020000  1.0 0.1305137253
H  H14  1  0.27050000  0.44950000  0.72110000  1.0 0.11296657
H  H15  1  0.12110000  0.11680000  0.88040000  1.0 0.1204490282
H  H16  1  0.14330000  0.12890000  0.95160000  1.0 0.1305137253
H  H17  1  0.11760000  0.97090000  0.99420000  1.0 0.1305137253
H  H18  1  0.05020000  0.79750000  0.88830000  1.0 0.11296657
H  H19  1  0.21470000  0.51350000  0.99850000  1.0 0.1204490282
H  H20  1  0.82510000  0.66880000  0.98120000  1.0 0.1305137253
H  H21  1  0.32750000  0.12870000  0.69710000  1.0 0.1305137253
H  H22  1  0.19870000  0.01810000  0.68530000  1.0 0.11296657
H  H23  1  0.64880000  0.17270000  0.71020000  1.0 0.1305137253
H  H24  1  0.77050000  0.05050000  0.72110000  1.0 0.11296657
H  H25  1  0.62110000  0.38320000  0.88040000  1.0 0.1204490282
H  H26  1  0.64330000  0.37110000  0.95160000  1.0 0.1305137253
H  H27  1  0.61760000  0.52910000  0.99420000  1.0 0.1305137253
H  H28  1  0.55020000  0.70250000  0.88830000  1.0 0.11296657
H  H29  1  0.71470000  0.98650000  0.99850000  1.0 0.1204490282
H  H30  1  0.32510000  0.83120000  0.98120000  1.0 0.1305137253
H  H31  1  0.17250000  0.62870000  0.30290000  1.0 0.1305137253
H  H32  1  0.30130000  0.51810000  0.31470000  1.0 0.11296657
H  H33  1  0.85120000  0.67270000  0.28980000  1.0 0.1305137253
H  H34  1  0.72950000  0.55050000  0.27890000  1.0 0.11296657
H  H35  1  0.87890000  0.88320000  0.11960000  1.0 0.1204490282
H  H36  1  0.85670000  0.87110000  0.04840000  1.0 0.1305137253
H  H37  1  0.88240000  0.02910000  0.00580000  1.0 0.1305137253
H  H38  1  0.94980000  0.20250000  0.11170000  1.0 0.11296657
H  H39  1  0.78530000  0.48650000  0.00150000  1.0 0.1204490282
H  H40  1  0.17490000  0.33120000  0.01880000  1.0 0.1305137253
C  C1  1  0.64160000  0.68420000  0.35644000  1.0 0.6066880454
C  C2  1  0.70720000  0.77390000  0.35417000  1.0 -0.1027150253
C  C3  1  0.71360000  0.85740000  0.32529000  1.0 -0.1027150253
C  C4  1  0.78750000  0.92060000  0.33218000  1.0 -0.1027150253
C  C5  1  0.83830000  0.88630000  0.36642000  1.0 -0.1294772099
C  C6  1  0.91920000  0.92940000  0.38240000  1.0 0.5892782503
C  C7  1  0.37890000  0.64660000  0.23570000  1.0 0.6034792442
C  C8  1  0.31460000  0.73810000  0.23709000  1.0 -0.1101614227
C  C9  1  0.31030000  0.81910000  0.26685000  1.0 -0.1101614227
C  C10  1  0.24110000  0.88850000  0.26081000  1.0 -0.117702963
C  C11  1  0.19100000  0.85980000  0.22582000  1.0 -0.1027150253
C  C12  1  0.11080000  0.91640000  0.21022000  1.0 0.5793469065
C  C13  1  0.38970000  0.55250000  0.10299000  1.0 0.056145892
C  C14  1  0.37630000  0.55990000  0.06083000  1.0 -0.1294772099
C  C15  1  0.39100000  0.46700000  0.03546000  1.0 -0.1101614227
C  C16  1  0.41830000  0.37040000  0.05537000  1.0 0.1305137253
C  C17  1  0.43120000  0.36610000  0.09863000  1.0 -0.0007640333
C  C18  1  0.52560000  0.25080000  0.02877000  1.0 0.4130197098
C  C19  1  0.54960000  0.13630000  0.01499000  1.0 -0.0614625486
C  C20  1  0.48840000  0.05470000  0.00599000  1.0 0.016678424
C  C21  1  0.40220000  0.07770000  0.00875000  1.0 -0.0614625486
C  C22  1  0.37580000  0.19090000  0.02379000  1.0 0.4249833901
C  C23  1  0.34300000  0.99630000  0.99964000  1.0 -0.1027150253
C  C24  1  0.63350000  0.11240000  0.01246000  1.0 -0.1027150253
C  C25  1  0.67390000  0.36340000  0.35075000  1.0 0.5892782503
C  C26  1  0.74170000  0.31110000  0.32900000  1.0 -0.0885369941
C  C27  1  0.81840000  0.27740000  0.35410000  1.0 -0.0476696226
C  C28  1  0.87670000  0.23190000  0.32940000  1.0 -0.0476696226
C  C29  1  0.84390000  0.23120000  0.28410000  1.0 -0.1101614227
C  C30  1  0.89520000  0.18130000  0.25409000  1.0 0.5793469065
C  C31  1  0.85840000  0.18420000  0.64356000  1.0 0.6066880454
C  C32  1  0.79280000  0.27390000  0.64583000  1.0 -0.1027150253
C  C33  1  0.78640000  0.35740000  0.67471000  1.0 -0.1027150253
C  C34  1  0.71250000  0.42060000  0.66782000  1.0 -0.1027150253
C  C35  1  0.66170000  0.38630000  0.63358000  1.0 -0.1294772099
C  C36  1  0.58080000  0.42940000  0.61760000  1.0 0.5892782503
C  C37  1  0.12110000  0.14660000  0.76430000  1.0 0.6034792442
C  C38  1  0.18540000  0.23810000  0.76291000  1.0 -0.117702963
C  C39  1  0.18970000  0.31910000  0.73315000  1.0 -0.1101614227
C  C40  1  0.25890000  0.38850000  0.73919000  1.0 -0.117702963
C  C41  1  0.30900000  0.35980000  0.77418000  1.0 -0.1027150253
C  C42  1  0.38920000  0.41640000  0.78978000  1.0 0.5793469065
C  C43  1  0.11030000  0.05250000  0.89701000  1.0 0.056145892
C  C44  1  0.12370000  0.05990000  0.93917000  1.0 -0.1294772099
C  C45  1  0.10900000  0.96700000  0.96454000  1.0 -0.1101614227
C  C46  1  0.08170000  0.87040000  0.94463000  1.0 0.1305137253
C  C47  1  0.06880000  0.86610000  0.90137000  1.0 -0.0007640333
C  C48  1  0.97440000  0.75080000  0.97123000  1.0 0.4130197098
C  C49  1  0.95040000  0.63630000  0.98501000  1.0 -0.0614625486
C  C50  1  0.01160000  0.55470000  0.99401000  1.0 0.016678424
C  C51  1  0.09780000  0.57770000  0.99125000  1.0 -0.0614625486
C  C52  1  0.12420000  0.69090000  0.97621000  1.0 0.4256480117
C  C53  1  0.15700000  0.49630000  0.00036000  1.0 -0.1027150253
C  C54  1  0.86650000  0.61240000  0.98754000  1.0 -0.1027150253
C  C55  1  0.82610000  0.86340000  0.64925000  1.0 0.5793469065
C  C56  1  0.75830000  0.81110000  0.67100000  1.0 -0.0885369941
C  C57  1  0.68160000  0.77740000  0.64590000  1.0 -0.0476696226
C  C58  1  0.62330000  0.73190000  0.67060000  1.0 -0.0476696226
C  C59  1  0.65610000  0.73120000  0.71590000  1.0 -0.1101614227
C  C60  1  0.60480000  0.68130000  0.74591000  1.0 0.5793469065
C  C61  1  0.35840000  0.31580000  0.64356000  1.0 0.6066880454
C  C62  1  0.29280000  0.22610000  0.64583000  1.0 -0.1027150253
C  C63  1  0.28640000  0.14260000  0.67471000  1.0 -0.1027150253
C  C64  1  0.21250000  0.07940000  0.66782000  1.0 -0.1101614227
C  C65  1  0.16170000  0.11370000  0.63358000  1.0 -0.1294772099
C  C66  1  0.08080000  0.07060000  0.61760000  1.0 0.5892782503
C  C67  1  0.62110000  0.35340000  0.76430000  1.0 0.6034792442
C  C68  1  0.68540000  0.26190000  0.76291000  1.0 -0.117702963
C  C69  1  0.68970000  0.18090000  0.73315000  1.0 -0.1101614227
C  C70  1  0.75890000  0.11150000  0.73919000  1.0 -0.117702963
C  C71  1  0.80900000  0.14020000  0.77418000  1.0 -0.1027150253
C  C72  1  0.88920000  0.08360000  0.78978000  1.0 0.5793469065
C  C73  1  0.61030000  0.44750000  0.89701000  1.0 0.056145892
C  C74  1  0.62370000  0.44010000  0.93917000  1.0 -0.1294772099
C  C75  1  0.60900000  0.53300000  0.96454000  1.0 -0.1101614227
C  C76  1  0.58170000  0.62960000  0.94463000  1.0 0.1305137253
C  C77  1  0.56880000  0.63390000  0.90137000  1.0 -0.0007640333
C  C78  1  0.47440000  0.74920000  0.97123000  1.0 0.4130197098
C  C79  1  0.45040000  0.86370000  0.98501000  1.0 -0.0614625486
C  C80  1  0.51160000  0.94530000  0.99401000  1.0 0.016678424
C  C81  1  0.59780000  0.92230000  0.99125000  1.0 -0.0614625486
C  C82  1  0.62420000  0.80910000  0.97621000  1.0 0.4256480117
C  C83  1  0.65700000  0.00370000  0.00036000  1.0 -0.1027150253
C  C84  1  0.36650000  0.88760000  0.98754000  1.0 -0.1027150253
C  C85  1  0.32610000  0.63660000  0.64925000  1.0 0.5892782503
C  C86  1  0.25830000  0.68890000  0.67100000  1.0 -0.0885369941
C  C87  1  0.18160000  0.72260000  0.64590000  1.0 -0.0476696226
C  C88  1  0.12330000  0.76810000  0.67060000  1.0 -0.0476696226
C  C89  1  0.15610000  0.76880000  0.71590000  1.0 -0.1101614227
C  C90  1  0.10480000  0.81870000  0.74591000  1.0 0.5793469065
C  C91  1  0.14160000  0.81580000  0.35644000  1.0 0.6066880454
C  C92  1  0.20720000  0.72610000  0.35417000  1.0 -0.1027150253
C  C93  1  0.21360000  0.64260000  0.32529000  1.0 -0.1027150253
C  C94  1  0.28750000  0.57940000  0.33218000  1.0 -0.1027150253
C  C95  1  0.33830000  0.61370000  0.36642000  1.0 -0.1294772099
C  C96  1  0.41920000  0.57060000  0.38240000  1.0 0.5892782503
C  C97  1  0.87890000  0.85340000  0.23570000  1.0 0.6034792442
C  C98  1  0.81460000  0.76190000  0.23709000  1.0 -0.1101614227
C  C99  1  0.81030000  0.68090000  0.26685000  1.0 -0.1101614227
C  C100  1  0.74110000  0.61150000  0.26081000  1.0 -0.117702963
C  C101  1  0.69100000  0.64020000  0.22582000  1.0 -0.1027150253
C  C102  1  0.61080000  0.58360000  0.21022000  1.0 0.5793469065
C  C103  1  0.88970000  0.94750000  0.10299000  1.0 0.056145892
C  C104  1  0.87630000  0.94010000  0.06083000  1.0 -0.1294772099
C  C105  1  0.89100000  0.03300000  0.03546000  1.0 -0.1101614227
C  C106  1  0.91830000  0.12960000  0.05537000  1.0 0.1305137253
C  C107  1  0.93120000  0.13390000  0.09863000  1.0 0.000305152
C  C108  1  0.02560000  0.24920000  0.02877000  1.0 0.4130197098
C  C109  1  0.04960000  0.36370000  0.01499000  1.0 -0.0614625486
C  C110  1  0.98840000  0.44530000  0.00599000  1.0 0.016678424
C  C111  1  0.90220000  0.42230000  0.00875000  1.0 -0.0614625486
C  C112  1  0.87580000  0.30910000  0.02379000  1.0 0.4249833901
C  C113  1  0.84300000  0.50370000  0.99964000  1.0 -0.1027150253
C  C114  1  0.13350000  0.38760000  0.01246000  1.0 -0.1027150253
C  C115  1  0.17390000  0.13660000  0.35075000  1.0 0.5892782503
C  C116  1  0.24170000  0.18890000  0.32900000  1.0 -0.0885369941
C  C117  1  0.31840000  0.22260000  0.35410000  1.0 -0.0476696226
C  C118  1  0.37670000  0.26810000  0.32940000  1.0 -0.0476696226
C  C119  1  0.34390000  0.26880000  0.28410000  1.0 -0.1101614227
C  C120  1  0.39520000  0.31870000  0.25409000  1.0 0.5793469065
S  S1  1  0.79303000  0.77294000  0.39041000  1.0 0.2033718754
S  S2  1  0.23043000  0.74724000  0.20022000  1.0 0.1883151983
S  S3  1  0.75202000  0.29049000  0.28015000  1.0 0.1305137253
S  S4  1  0.81840000  0.24910000  0.32530000  1.0 0.1204490282
S  S5  1  0.70697000  0.27294000  0.60959000  1.0 0.2068002452
S  S6  1  0.26957000  0.24724000  0.79978000  1.0 0.1883151983
S  S7  1  0.74798000  0.79049000  0.71985000  1.0 0.1204490282
S  S8  1  0.68160000  0.74910000  0.67470000  1.0 0.1204490282
S  S9  1  0.20697000  0.22706000  0.60959000  1.0 0.2068002452
S  S10  1  0.76957000  0.25276000  0.79978000  1.0 0.1883151983
S  S11  1  0.24798000  0.70951000  0.71985000  1.0 0.1204490282
S  S12  1  0.18160000  0.75090000  0.67470000  1.0 0.1204490282
S  S13  1  0.29303000  0.72706000  0.39041000  1.0 0.2033718754
S  S14  1  0.73043000  0.75276000  0.20022000  1.0 0.1883151983
S  S15  1  0.25202000  0.20951000  0.28015000  1.0 0.1305137253
S  S16  1  0.31840000  0.25090000  0.32530000  1.0 0.11296657
N  N1  1  0.41800000  0.45610000  0.12234000  1.0 -0.2101384322
N  N2  1  0.43960000  0.26920000  0.03306000  1.0 -0.2294918592
N  N3  1  0.08200000  0.95610000  0.87766000  1.0 -0.2101384322
N  N4  1  0.06040000  0.76920000  0.96694000  1.0 -0.2294918592
N  N5  1  0.58200000  0.54390000  0.87766000  1.0 -0.2101384322
N  N6  1  0.56040000  0.73080000  0.96694000  1.0 -0.2294918592
N  N7  1  0.91800000  0.04390000  0.12234000  1.0 -0.2101384322
N  N8  1  0.93960000  0.23080000  0.03306000  1.0 -0.2294918592
O  O1  1  0.59130000  0.67580000  0.32539000  1.0 -0.5418858821
O  O2  1  0.64490000  0.62620000  0.38871000  1.0 -0.5521626989
O  O3  1  0.95730000  0.99740000  0.35945000  1.0 -0.6002491038
O  O4  1  0.94970000  0.90350000  0.41841000  1.0 -0.53123373
O  O5  1  0.43100000  0.64210000  0.26586000  1.0 -0.53123373
O  O6  1  0.37310000  0.58400000  0.20369000  1.0 -0.5521626989
O  O7  1  0.07770000  0.89470000  0.17544000  1.0 -0.5418858821
O  O8  1  0.08120000  0.98840000  0.23482000  1.0 -0.6002491038
O  O9  1  0.87130000  0.19180000  0.21582000  1.0 -0.4969245265
O  O10  1  0.95990000  0.13000000  0.26590000  1.0 -0.53123373
O  O11  1  0.61380000  0.40310000  0.33000000  1.0 -0.5228454391
O  O12  1  0.67840000  0.36160000  0.38902000  1.0 -0.4194203648
O  O13  1  0.57570000  0.32710000  0.03643000  1.0 -0.4278118233
O  O14  1  0.30360000  0.21560000  0.02881000  1.0 -0.4194203648
O  O15  1  0.90870000  0.17580000  0.67461000  1.0 -0.5418858821
O  O16  1  0.85510000  0.12620000  0.61129000  1.0 -0.5521626989
O  O17  1  0.54270000  0.49740000  0.64055000  1.0 -0.6002491038
O  O18  1  0.55030000  0.40350000  0.58159000  1.0 -0.53123373
O  O19  1  0.06900000  0.14210000  0.73414000  1.0 -0.53123373
O  O20  1  0.12690000  0.08400000  0.79631000  1.0 -0.5521626989
O  O21  1  0.42230000  0.39470000  0.82456000  1.0 -0.5418858821
O  O22  1  0.41880000  0.48840000  0.76518000  1.0 -0.6002491038
O  O23  1  0.62870000  0.69180000  0.78418000  1.0 -0.4947016756
O  O24  1  0.54010000  0.63000000  0.73410000  1.0 -0.53123373
O  O25  1  0.88620000  0.90310000  0.67000000  1.0 -0.5228454391
O  O26  1  0.82160000  0.86160000  0.61098000  1.0 -0.4194203648
O  O27  1  0.92430000  0.82710000  0.96357000  1.0 -0.4278118233
O  O28  1  0.19640000  0.71560000  0.97119000  1.0 -0.4194203648
O  O29  1  0.40870000  0.32420000  0.67461000  1.0 -0.5418858821
O  O30  1  0.35510000  0.37380000  0.61129000  1.0 -0.5521626989
O  O31  1  0.04270000  0.00260000  0.64055000  1.0 -0.6002491038
O  O32  1  0.05030000  0.09650000  0.58159000  1.0 -0.53123373
O  O33  1  0.56900000  0.35790000  0.73414000  1.0 -0.53123373
O  O34  1  0.62690000  0.41600000  0.79631000  1.0 -0.5521626989
O  O35  1  0.92230000  0.10530000  0.82456000  1.0 -0.5418858821
O  O36  1  0.91880000  0.01160000  0.76518000  1.0 -0.6002491038
O  O37  1  0.12870000  0.80820000  0.78418000  1.0 -0.4947016756
O  O38  1  0.04010000  0.87000000  0.73410000  1.0 -0.53123373
O  O39  1  0.38620000  0.59690000  0.67000000  1.0 -0.5228454391
O  O40  1  0.32160000  0.63840000  0.61098000  1.0 -0.4194203648
O  O41  1  0.42430000  0.67290000  0.96357000  1.0 -0.4278118233
O  O42  1  0.69640000  0.78440000  0.97119000  1.0 -0.4194203648
O  O43  1  0.09130000  0.82420000  0.32539000  1.0 -0.5418858821
O  O44  1  0.14490000  0.87380000  0.38871000  1.0 -0.5521626989
O  O45  1  0.45730000  0.50260000  0.35945000  1.0 -0.6002491038
O  O46  1  0.44970000  0.59650000  0.41841000  1.0 -0.53123373
O  O47  1  0.93100000  0.85790000  0.26586000  1.0 -0.53123373
O  O48  1  0.87310000  0.91600000  0.20369000  1.0 -0.5521626989
O  O49  1  0.57770000  0.60530000  0.17544000  1.0 -0.5418858821
O  O50  1  0.58120000  0.51160000  0.23482000  1.0 -0.6002491038
O  O51  1  0.37130000  0.30820000  0.21582000  1.0 -0.4969245265
O  O52  1  0.45990000  0.37000000  0.26590000  1.0 -0.53123373
O  O53  1  0.11380000  0.09690000  0.33000000  1.0 -0.5228454391
O  O54  1  0.17840000  0.13840000  0.38902000  1.0 -0.4194203648
O  O55  1  0.07570000  0.17290000  0.03643000  1.0 -0.4278118233
O  O56  1  0.80360000  0.28440000  0.02881000  1.0 -0.4194203648
