# DDEC6 charges by PACMAN v1.1 (https://github.com/mtap-research/PACMAN-charge/)
data_ROMQER_FSR_pacman
_symmetry_space_group_name_H-M   'P 1'
_cell_length_a   15.51900000
_cell_length_b   22.98200000
_cell_length_c   16.10200000
_cell_angle_alpha   90.00000000
_cell_angle_beta   100.20000000
_cell_angle_gamma   90.00000000
_symmetry_Int_Tables_number   1
_chemical_formula_structural   Zn5H32C42O25
_chemical_formula_sum   'Zn20 H128 C168 O100'
_cell_volume   5652.13854069
_cell_formula_units_Z   4
loop_
 _symmetry_equiv_pos_site_id
 _symmetry_equiv_pos_as_xyz
  1  'x, y, z'
loop_
 _atom_site_type_symbol
 _atom_site_label
 _atom_site_symmetry_multiplicity
 _atom_site_fract_x
 _atom_site_fract_y
 _atom_site_fract_z
 _atom_site_occupancy
 _atom_site_charge
Zn  Zn1  1  0.66375000  0.02807000  0.65101000  1.0 0.9518035914
Zn  Zn2  1  0.33625000  0.52807000  0.84899000  1.0 0.9518035914
Zn  Zn3  1  0.33625000  0.97193000  0.34899000  1.0 0.9518035914
Zn  Zn4  1  0.66375000  0.47193000  0.15101000  1.0 0.9518035914
Zn  Zn5  1  0.64760000  0.16283000  0.61698000  1.0 1.0199128504
Zn  Zn6  1  0.35240000  0.66283000  0.88302000  1.0 1.0199128504
Zn  Zn7  1  0.35240000  0.83717000  0.38302000  1.0 1.0199128504
Zn  Zn8  1  0.64760000  0.33717000  0.11698000  1.0 1.0199128504
Zn  Zn9  1  0.84336000  0.12250000  0.64606000  1.0 1.2419261849
Zn  Zn10  1  0.15664000  0.62250000  0.85394000  1.0 1.2419261849
Zn  Zn11  1  0.15664000  0.87750000  0.35394000  1.0 1.2419261849
Zn  Zn12  1  0.84336000  0.37750000  0.14606000  1.0 1.2492182966
Zn  Zn13  1  0.83186000  0.37652000  0.81058000  1.0 0.9830960448
Zn  Zn14  1  0.16814000  0.87652000  0.68942000  1.0 0.9830960448
Zn  Zn15  1  0.16814000  0.62348000  0.18942000  1.0 0.9830960448
Zn  Zn16  1  0.83186000  0.12348000  0.31058000  1.0 0.9830960448
Zn  Zn17  1  0.82542000  0.25102000  0.74668000  1.0 1.0835486169
Zn  Zn18  1  0.17458000  0.75102000  0.75332000  1.0 1.0835486169
Zn  Zn19  1  0.17458000  0.74898000  0.25332000  1.0 1.0835486169
Zn  Zn20  1  0.82542000  0.24898000  0.24668000  1.0 1.0835486169
H  H1  1  0.87170000  0.02170000  0.86100000  1.0 0.1406444345
H  H2  1  0.12830000  0.52170000  0.63900000  1.0 0.1406444345
H  H3  1  0.12830000  0.97830000  0.13900000  1.0 0.1406444345
H  H4  1  0.87170000  0.47830000  0.36100000  1.0 0.1406444345
H  H5  1  0.84660000  0.01300000  0.10410000  1.0 0.1527215605
H  H6  1  0.15340000  0.51300000  0.39590000  1.0 0.1527215605
H  H7  1  0.15340000  0.98700000  0.89590000  1.0 0.1527215605
H  H8  1  0.84660000  0.48700000  0.60410000  1.0 0.1527215605
H  H9  1  0.82990000  0.16650000  0.98500000  1.0 0.1406444345
H  H10  1  0.17010000  0.66650000  0.51500000  1.0 0.1406444345
H  H11  1  0.17010000  0.83350000  0.01500000  1.0 0.1406444345
H  H12  1  0.82990000  0.33350000  0.48500000  1.0 0.1406444345
H  H13  1  0.85310000  0.92190000  0.87190000  1.0 0.1073157418
H  H14  1  0.14690000  0.42190000  0.62810000  1.0 0.1073157418
H  H15  1  0.14690000  0.07810000  0.12810000  1.0 0.1073157418
H  H16  1  0.85310000  0.57810000  0.37190000  1.0 0.1073157418
H  H17  1  0.95160000  0.93470000  0.90980000  1.0 0.1004938723
H  H18  1  0.04840000  0.43470000  0.59020000  1.0 0.1004938723
H  H19  1  0.04840000  0.06530000  0.09020000  1.0 0.1004938723
H  H20  1  0.95160000  0.56530000  0.40980000  1.0 0.1004938723
H  H21  1  0.94140000  0.83780000  0.90020000  1.0 0.1210764897
H  H22  1  0.05860000  0.33780000  0.59980000  1.0 0.1210764897
H  H23  1  0.05860000  0.16220000  0.09980000  1.0 0.1210764897
H  H24  1  0.94140000  0.66220000  0.40020000  1.0 0.1210764897
H  H25  1  0.95130000  0.85220000  0.99630000  1.0 0.1210764897
H  H26  1  0.04870000  0.35220000  0.50370000  1.0 0.1210764897
H  H27  1  0.04870000  0.14780000  0.00370000  1.0 0.1210764897
H  H28  1  0.95130000  0.64780000  0.49630000  1.0 0.1210764897
H  H29  1  0.78880000  0.82590000  0.89640000  1.0 0.1004938723
H  H30  1  0.21120000  0.32590000  0.60360000  1.0 0.1004938723
H  H31  1  0.21120000  0.17410000  0.10360000  1.0 0.1004938723
H  H32  1  0.78880000  0.67410000  0.39640000  1.0 0.1004938723
H  H33  1  0.80610000  0.83310000  0.99480000  1.0 0.1073157418
H  H34  1  0.19390000  0.33310000  0.50520000  1.0 0.1073157418
H  H35  1  0.19390000  0.16690000  0.00520000  1.0 0.1073157418
H  H36  1  0.80610000  0.66690000  0.49480000  1.0 0.1073157418
H  H37  1  0.88260000  0.74360000  0.91220000  1.0 0.1210764897
H  H38  1  0.11740000  0.24360000  0.58780000  1.0 0.1210764897
H  H39  1  0.11740000  0.25640000  0.08780000  1.0 0.1210764897
H  H40  1  0.88260000  0.75640000  0.41220000  1.0 0.1210764897
H  H41  1  0.89280000  0.74980000  0.01030000  1.0 0.1210764897
H  H42  1  0.10720000  0.24980000  0.48970000  1.0 0.1210764897
H  H43  1  0.10720000  0.25020000  0.98970000  1.0 0.1210764897
H  H44  1  0.89280000  0.75020000  0.51030000  1.0 0.1210764897
H  H45  1  0.73140000  0.72370000  0.90510000  1.0 0.1004938723
H  H46  1  0.26860000  0.22370000  0.59490000  1.0 0.1004938723
H  H47  1  0.26860000  0.27630000  0.09490000  1.0 0.1004938723
H  H48  1  0.73140000  0.77630000  0.40510000  1.0 0.1004938723
H  H49  1  0.74570000  0.72630000  0.00440000  1.0 0.1004938723
H  H50  1  0.25430000  0.22630000  0.49560000  1.0 0.1004938723
H  H51  1  0.25430000  0.27370000  0.99560000  1.0 0.1004938723
H  H52  1  0.74570000  0.77370000  0.50440000  1.0 0.1004938723
H  H53  1  0.83920000  0.55700000  0.93540000  1.0 0.1527215605
H  H54  1  0.16080000  0.05700000  0.56460000  1.0 0.1527215605
H  H55  1  0.16080000  0.44300000  0.06460000  1.0 0.1527215605
H  H56  1  0.83920000  0.94300000  0.43540000  1.0 0.1527215605
H  H57  1  0.60100000  0.48410000  0.91870000  1.0 0.1406444345
H  H58  1  0.39900000  0.98410000  0.58130000  1.0 0.1406444345
H  H59  1  0.39900000  0.51590000  0.08130000  1.0 0.1406444345
H  H60  1  0.60100000  0.01590000  0.41870000  1.0 0.1406444345
H  H61  1  0.63110000  0.65630000  0.95550000  1.0 0.1316941644
H  H62  1  0.36890000  0.15630000  0.54450000  1.0 0.1316941644
H  H63  1  0.36890000  0.34370000  0.04450000  1.0 0.1316941644
H  H64  1  0.63110000  0.84370000  0.45550000  1.0 0.1316941644
H  H65  1  0.63380000  0.20430000  0.86790000  1.0 0.1406444345
H  H66  1  0.36620000  0.70430000  0.63210000  1.0 0.1406444345
H  H67  1  0.36620000  0.79570000  0.13210000  1.0 0.1406444345
H  H68  1  0.63380000  0.29570000  0.36790000  1.0 0.1406444345
H  H69  1  0.60450000  0.14690000  0.09510000  1.0 0.1527215605
H  H70  1  0.39550000  0.64690000  0.40490000  1.0 0.1527215605
H  H71  1  0.39550000  0.85310000  0.90490000  1.0 0.1527215605
H  H72  1  0.60450000  0.35310000  0.59510000  1.0 0.1527215605
H  H73  1  0.62470000  0.03430000  0.90930000  1.0 0.1316941644
H  H74  1  0.37530000  0.53430000  0.59070000  1.0 0.1316941644
H  H75  1  0.37530000  0.96570000  0.09070000  1.0 0.1316941644
H  H76  1  0.62470000  0.46570000  0.40930000  1.0 0.1316941644
H  H77  1  0.57400000  0.96780000  0.01010000  1.0 0.1004938723
H  H78  1  0.42600000  0.46780000  0.48990000  1.0 0.1004938723
H  H79  1  0.42600000  0.03220000  0.98990000  1.0 0.1004938723
H  H80  1  0.57400000  0.53220000  0.51010000  1.0 0.1004938723
H  H81  1  0.67600000  0.97630000  0.03670000  1.0 0.1004938723
H  H82  1  0.32400000  0.47630000  0.46330000  1.0 0.1004938723
H  H83  1  0.32400000  0.02370000  0.96330000  1.0 0.1004938723
H  H84  1  0.67600000  0.52370000  0.53670000  1.0 0.1004938723
H  H85  1  0.66470000  0.96420000  0.18030000  1.0 0.1316941644
H  H86  1  0.33530000  0.46420000  0.31970000  1.0 0.1316941644
H  H87  1  0.33530000  0.03580000  0.81970000  1.0 0.1316941644
H  H88  1  0.66470000  0.53580000  0.68030000  1.0 0.1316941644
H  H89  1  0.56250000  0.95840000  0.15570000  1.0 0.1210764897
H  H90  1  0.43750000  0.45840000  0.34430000  1.0 0.1210764897
H  H91  1  0.43750000  0.04160000  0.84430000  1.0 0.1210764897
H  H92  1  0.56250000  0.54160000  0.65570000  1.0 0.1210764897
H  H93  1  0.58210000  0.87020000  0.08040000  1.0 0.1004938723
H  H94  1  0.41790000  0.37020000  0.41960000  1.0 0.1004938723
H  H95  1  0.41790000  0.12980000  0.91960000  1.0 0.09487718
H  H96  1  0.58210000  0.62980000  0.58040000  1.0 0.1004938723
H  H97  1  0.68360000  0.87530000  0.11150000  1.0 0.1004938723
H  H98  1  0.31640000  0.37530000  0.38850000  1.0 0.1004938723
H  H99  1  0.31640000  0.12470000  0.88850000  1.0 0.1004938723
H  H100  1  0.68360000  0.62470000  0.61150000  1.0 0.1004938723
H  H101  1  0.55820000  0.85550000  0.21580000  1.0 0.1210764897
H  H102  1  0.44180000  0.35550000  0.28420000  1.0 0.1210764897
H  H103  1  0.44180000  0.14450000  0.78420000  1.0 0.1210764897
H  H104  1  0.55820000  0.64450000  0.71580000  1.0 0.1210764897
H  H105  1  0.65580000  0.87060000  0.25370000  1.0 0.1210764897
H  H106  1  0.34420000  0.37060000  0.24630000  1.0 0.1210764897
H  H107  1  0.34420000  0.12940000  0.74630000  1.0 0.1210764897
H  H108  1  0.65580000  0.62940000  0.75370000  1.0 0.1210764897
H  H109  1  0.61320000  0.77090000  0.15080000  1.0 0.1073157418
H  H110  1  0.38680000  0.27090000  0.34920000  1.0 0.1073157418
H  H111  1  0.38680000  0.22910000  0.84920000  1.0 0.1073157418
H  H112  1  0.61320000  0.72910000  0.65080000  1.0 0.1073157418
H  H113  1  0.62500000  0.76730000  0.24990000  1.0 0.1073157418
H  H114  1  0.37500000  0.26730000  0.25010000  1.0 0.1073157418
H  H115  1  0.37500000  0.23270000  0.75010000  1.0 0.1073157418
H  H116  1  0.62500000  0.73270000  0.74990000  1.0 0.1073157418
H  H117  1  0.66880000  0.67900000  0.18460000  1.0 0.1406444345
H  H118  1  0.33120000  0.17900000  0.31540000  1.0 0.1406444345
H  H119  1  0.33120000  0.32100000  0.81540000  1.0 0.1406444345
H  H120  1  0.66880000  0.82100000  0.68460000  1.0 0.1406444345
H  H121  1  0.89510000  0.59840000  0.17640000  1.0 0.1406444345
H  H122  1  0.10490000  0.09840000  0.32360000  1.0 0.1406444345
H  H123  1  0.10490000  0.40160000  0.82360000  1.0 0.1406444345
H  H124  1  0.89510000  0.90160000  0.67640000  1.0 0.1406444345
H  H125  1  0.89160000  0.77100000  0.20860000  1.0 0.1617433245
H  H126  1  0.10840000  0.27100000  0.29140000  1.0 0.1617433245
H  H127  1  0.10840000  0.22900000  0.79140000  1.0 0.1617433245
H  H128  1  0.89160000  0.72900000  0.70860000  1.0 0.1617433245
C  C1  1  0.85220000  0.13348000  0.83320000  1.0 0.58854441
C  C2  1  0.14780000  0.63348000  0.66680000  1.0 0.58854441
C  C3  1  0.14780000  0.86652000  0.16680000  1.0 0.58854441
C  C4  1  0.85220000  0.36652000  0.33320000  1.0 0.58854441
C  C5  1  0.85350000  0.09890000  0.91200000  1.0 -0.0193021596
C  C6  1  0.14650000  0.59890000  0.58800000  1.0 -0.0193021596
C  C7  1  0.14650000  0.90110000  0.08800000  1.0 -0.0193021596
C  C8  1  0.85350000  0.40110000  0.41200000  1.0 -0.0193021596
C  C9  1  0.86350000  0.04004000  0.91050000  1.0 -0.210686101
C  C10  1  0.13650000  0.54004000  0.58950000  1.0 -0.210686101
C  C11  1  0.13650000  0.95996000  0.08950000  1.0 -0.210686101
C  C12  1  0.86350000  0.45996000  0.41050000  1.0 -0.210686101
C  C13  1  0.86160000  0.00722000  0.98280000  1.0 0.2394440363
C  C14  1  0.13840000  0.50722000  0.51720000  1.0 0.2394440363
C  C15  1  0.13840000  0.99278000  0.01720000  1.0 0.2394440363
C  C16  1  0.86160000  0.49278000  0.48280000  1.0 0.2394440363
C  C17  1  0.84850000  0.03474000  0.05570000  1.0 -0.2173354809
C  C18  1  0.15150000  0.53474000  0.44430000  1.0 -0.2173354809
C  C19  1  0.15150000  0.96526000  0.94430000  1.0 -0.2173354809
C  C20  1  0.84850000  0.46526000  0.55570000  1.0 -0.2173354809
C  C21  1  0.83810000  0.09454000  0.05710000  1.0 -0.0093707691
C  C22  1  0.16190000  0.59454000  0.44290000  1.0 -0.0093707691
C  C23  1  0.16190000  0.90546000  0.94290000  1.0 -0.0093707691
C  C24  1  0.83810000  0.40546000  0.55710000  1.0 -0.0093707691
C  C25  1  0.83900000  0.12650000  0.98490000  1.0 -0.1209424619
C  C26  1  0.16100000  0.62650000  0.51510000  1.0 -0.1209424619
C  C27  1  0.16100000  0.87350000  0.01510000  1.0 -0.1209424619
C  C28  1  0.83900000  0.37350000  0.48490000  1.0 -0.1209424619
C  C29  1  0.82390000  0.12431000  0.13690000  1.0 0.5593910928
C  C30  1  0.17610000  0.62431000  0.36310000  1.0 0.5593910928
C  C31  1  0.17610000  0.87569000  0.86310000  1.0 0.5593910928
C  C32  1  0.82390000  0.37569000  0.63690000  1.0 0.5593910928
C  C33  1  0.89780000  0.91794000  0.92200000  1.0 -0.0193021596
C  C34  1  0.10220000  0.41794000  0.57800000  1.0 -0.0193021596
C  C35  1  0.10220000  0.08206000  0.07800000  1.0 -0.0193021596
C  C36  1  0.89780000  0.58206000  0.42200000  1.0 -0.0193021596
C  C37  1  0.91200000  0.85520000  0.94250000  1.0 -0.1969118883
C  C38  1  0.08800000  0.35520000  0.55750000  1.0 -0.1969118883
C  C39  1  0.08800000  0.14480000  0.05750000  1.0 -0.1969118883
C  C40  1  0.91200000  0.64480000  0.44250000  1.0 -0.1969118883
C  C41  1  0.83160000  0.81995000  0.94730000  1.0 -0.1503320222
C  C42  1  0.16840000  0.31995000  0.55270000  1.0 -0.1503320222
C  C43  1  0.16840000  0.18005000  0.05270000  1.0 -0.1503320222
C  C44  1  0.83160000  0.68005000  0.44730000  1.0 -0.1503320222
C  C45  1  0.85280000  0.75566000  0.95740000  1.0 -0.1934000914
C  C46  1  0.14720000  0.25566000  0.54260000  1.0 -0.1934000914
C  C47  1  0.14720000  0.24434000  0.04260000  1.0 -0.1934000914
C  C48  1  0.85280000  0.74434000  0.45740000  1.0 -0.1934000914
C  C49  1  0.77350000  0.71744000  0.95650000  1.0 -0.0193021596
C  C50  1  0.22650000  0.21744000  0.54350000  1.0 -0.0193021596
C  C51  1  0.22650000  0.28256000  0.04350000  1.0 -0.0193021596
C  C52  1  0.77350000  0.78256000  0.45650000  1.0 -0.0193021596
C  C53  1  0.74440000  0.61365000  0.94910000  1.0 0.2394440363
C  C54  1  0.25560000  0.11365000  0.55090000  1.0 0.2394440363
C  C55  1  0.25560000  0.38635000  0.05090000  1.0 0.2394440363
C  C56  1  0.74440000  0.88635000  0.44910000  1.0 0.2394440363
C  C57  1  0.77960000  0.56016000  0.93630000  1.0 -0.210686101
C  C58  1  0.22040000  0.06016000  0.56370000  1.0 -0.210686101
C  C59  1  0.22040000  0.43984000  0.06370000  1.0 -0.210686101
C  C60  1  0.77960000  0.93984000  0.43630000  1.0 -0.210686101
C  C61  1  0.72720000  0.51083000  0.92470000  1.0 0.0204431716
C  C62  1  0.27280000  0.01083000  0.57530000  1.0 0.0204431716
C  C63  1  0.27280000  0.48917000  0.07530000  1.0 0.0204431716
C  C64  1  0.72720000  0.98917000  0.42470000  1.0 0.0204431716
C  C65  1  0.63710000  0.51667000  0.92490000  1.0 -0.1209424619
C  C66  1  0.36290000  0.01667000  0.57510000  1.0 -0.1209424619
C  C67  1  0.36290000  0.48333000  0.07510000  1.0 -0.1209424619
C  C68  1  0.63710000  0.98333000  0.42490000  1.0 -0.1209424619
C  C69  1  0.60250000  0.57115000  0.93440000  1.0 0.0034700403
C  C70  1  0.39750000  0.07115000  0.56560000  1.0 0.0034700403
C  C71  1  0.39750000  0.42885000  0.06560000  1.0 0.0034700403
C  C72  1  0.60250000  0.92885000  0.43440000  1.0 0.0034700403
C  C73  1  0.65490000  0.62006000  0.94770000  1.0 -0.248293936
C  C74  1  0.34510000  0.12006000  0.55230000  1.0 -0.248293936
C  C75  1  0.34510000  0.37994000  0.05230000  1.0 -0.248293936
C  C76  1  0.65490000  0.87994000  0.44770000  1.0 -0.248293936
C  C77  1  0.50430000  0.57747000  0.92220000  1.0 0.58854441
C  C78  1  0.49570000  0.07747000  0.57780000  1.0 0.58854441
C  C79  1  0.49570000  0.42253000  0.07780000  1.0 0.58854441
C  C80  1  0.50430000  0.92253000  0.42220000  1.0 0.58854441
C  C81  1  0.76220000  0.45230000  0.90700000  1.0 0.541121554
C  C82  1  0.23780000  0.95230000  0.59300000  1.0 0.541121554
C  C83  1  0.23780000  0.54770000  0.09300000  1.0 0.541121554
C  C84  1  0.76220000  0.04770000  0.40700000  1.0 0.541121554
C  C85  1  0.64010000  0.10702000  0.78600000  1.0 0.579843473
C  C86  1  0.35990000  0.60702000  0.71400000  1.0 0.579843473
C  C87  1  0.35990000  0.89298000  0.21400000  1.0 0.579843473
C  C88  1  0.64010000  0.39298000  0.28600000  1.0 0.579843473
C  C89  1  0.62850000  0.11772000  0.87540000  1.0 -0.0093707691
C  C90  1  0.37150000  0.61772000  0.62460000  1.0 -0.0093707691
C  C91  1  0.37150000  0.88228000  0.12460000  1.0 -0.0093707691
C  C92  1  0.62850000  0.38228000  0.37540000  1.0 -0.0093707691
C  C93  1  0.62840000  0.17373000  0.90440000  1.0 -0.1209424619
C  C94  1  0.37160000  0.67373000  0.59560000  1.0 -0.1209424619
C  C95  1  0.37160000  0.82627000  0.09560000  1.0 -0.1209424619
C  C96  1  0.62840000  0.32627000  0.40440000  1.0 -0.1252170612
C  C97  1  0.62060000  0.18568000  0.98590000  1.0 0.0204431716
C  C98  1  0.37940000  0.68568000  0.51410000  1.0 0.0204431716
C  C99  1  0.37940000  0.81432000  0.01410000  1.0 0.0204431716
C  C100  1  0.62060000  0.31432000  0.48590000  1.0 0.0204431716
C  C101  1  0.61150000  0.13946000  0.03990000  1.0 -0.1969118883
C  C102  1  0.38850000  0.63946000  0.46010000  1.0 -0.1969118883
C  C103  1  0.38850000  0.86054000  0.96010000  1.0 -0.1969118883
C  C104  1  0.61150000  0.36054000  0.53990000  1.0 -0.1969118883
C  C105  1  0.61280000  0.08303000  0.01180000  1.0 0.2394440363
C  C106  1  0.38720000  0.58303000  0.48820000  1.0 0.2394440363
C  C107  1  0.38720000  0.91697000  0.98820000  1.0 0.2394440363
C  C108  1  0.61280000  0.41697000  0.51180000  1.0 0.2394440363
C  C109  1  0.62240000  0.07237000  0.92850000  1.0 -0.2333462607
C  C110  1  0.37760000  0.57237000  0.57150000  1.0 -0.2333462607
C  C111  1  0.37760000  0.92763000  0.07150000  1.0 -0.2333462607
C  C112  1  0.62240000  0.42763000  0.42850000  1.0 -0.2333462607
C  C113  1  0.62640000  0.24686000  0.02030000  1.0 0.5495918508
C  C114  1  0.37360000  0.74686000  0.47970000  1.0 0.5495918508
C  C115  1  0.37360000  0.75314000  0.97970000  1.0 0.5495918508
C  C116  1  0.62640000  0.25314000  0.52030000  1.0 0.5495918508
C  C117  1  0.61990000  0.98201000  0.05430000  1.0 -0.0093707691
C  C118  1  0.38010000  0.48201000  0.44570000  1.0 -0.0093707691
C  C119  1  0.38010000  0.01799000  0.94570000  1.0 -0.0093707691
C  C120  1  0.61990000  0.51799000  0.55430000  1.0 -0.0093707691
C  C121  1  0.61740000  0.95022000  0.13730000  1.0 -0.1934000914
C  C122  1  0.38260000  0.45022000  0.36270000  1.0 -0.1934000914
C  C123  1  0.38260000  0.04978000  0.86270000  1.0 -0.1934000914
C  C124  1  0.61740000  0.54978000  0.63730000  1.0 -0.1934000914
C  C125  1  0.62690000  0.88378000  0.12610000  1.0 -0.1503320222
C  C126  1  0.37310000  0.38378000  0.37390000  1.0 -0.1503320222
C  C127  1  0.37310000  0.11622000  0.87390000  1.0 -0.1503320222
C  C128  1  0.62690000  0.61622000  0.62610000  1.0 -0.1503320222
C  C129  1  0.61810000  0.85228000  0.20650000  1.0 -0.1969118883
C  C130  1  0.38190000  0.35228000  0.29350000  1.0 -0.1934000914
C  C131  1  0.38190000  0.14772000  0.79350000  1.0 -0.1969118883
C  C132  1  0.61810000  0.64772000  0.70650000  1.0 -0.1934000914
C  C133  1  0.64230000  0.78824000  0.20320000  1.0 -0.0193021596
C  C134  1  0.35770000  0.28824000  0.29680000  1.0 -0.0193021596
C  C135  1  0.35770000  0.21176000  0.79680000  1.0 -0.0193021596
C  C136  1  0.64230000  0.71176000  0.70320000  1.0 -0.0193021596
C  C137  1  0.77320000  0.73319000  0.20090000  1.0 0.2394440363
C  C138  1  0.22680000  0.23319000  0.29910000  1.0 0.2394440363
C  C139  1  0.22680000  0.26681000  0.79910000  1.0 0.2394440363
C  C140  1  0.77320000  0.76681000  0.70090000  1.0 0.2394440363
C  C141  1  0.72930000  0.68043000  0.18860000  1.0 -0.248293936
C  C142  1  0.27070000  0.18043000  0.31140000  1.0 -0.248293936
C  C143  1  0.27070000  0.31957000  0.81140000  1.0 -0.248293936
C  C144  1  0.72930000  0.81957000  0.68860000  1.0 -0.248293936
C  C145  1  0.77620000  0.62991000  0.18230000  1.0 0.0034700403
C  C146  1  0.22380000  0.12991000  0.31770000  1.0 0.0034700403
C  C147  1  0.22380000  0.37009000  0.81770000  1.0 0.0034700403
C  C148  1  0.77620000  0.87009000  0.68230000  1.0 0.0034700403
C  C149  1  0.86430000  0.63225000  0.18370000  1.0 -0.1398750279
C  C150  1  0.13570000  0.13225000  0.31630000  1.0 -0.1398750279
C  C151  1  0.13570000  0.36775000  0.81630000  1.0 -0.1398750279
C  C152  1  0.86430000  0.86775000  0.68370000  1.0 -0.1398750279
C  C153  1  0.90800000  0.68508000  0.19580000  1.0 -0.0029423374
C  C154  1  0.09200000  0.18508000  0.30420000  1.0 -0.0029423374
C  C155  1  0.09200000  0.31492000  0.80420000  1.0 -0.0029423374
C  C156  1  0.90800000  0.81492000  0.69580000  1.0 -0.0029423374
C  C157  1  0.86250000  0.73549000  0.20270000  1.0 -0.210686101
C  C158  1  0.13750000  0.23549000  0.29730000  1.0 -0.210686101
C  C159  1  0.13750000  0.26451000  0.79730000  1.0 -0.210686101
C  C160  1  0.86250000  0.76451000  0.70270000  1.0 -0.210686101
C  C161  1  0.72800000  0.57288000  0.17130000  1.0 0.5225087519
C  C162  1  0.27200000  0.07288000  0.32870000  1.0 0.5225087519
C  C163  1  0.27200000  0.42712000  0.82870000  1.0 0.5225087519
C  C164  1  0.72800000  0.92712000  0.67130000  1.0 0.5225087519
C  C165  1  0.00560000  0.68747000  0.19810000  1.0 0.579843473
C  C166  1  0.99440000  0.18747000  0.30190000  1.0 0.579843473
C  C167  1  0.99440000  0.31253000  0.80190000  1.0 0.579843473
C  C168  1  0.00560000  0.81253000  0.69810000  1.0 0.579843473
O  O1  1  0.86440000  0.10672000  0.76830000  1.0 -0.5424276997
O  O2  1  0.13560000  0.60672000  0.73170000  1.0 -0.5424276997
O  O3  1  0.13560000  0.89328000  0.23170000  1.0 -0.5424276997
O  O4  1  0.86440000  0.39328000  0.26830000  1.0 -0.5424276997
O  O5  1  0.83981000  0.18763000  0.83603000  1.0 -0.4805685703
O  O6  1  0.16019000  0.68763000  0.66397000  1.0 -0.486013252
O  O7  1  0.16019000  0.81237000  0.16397000  1.0 -0.486013252
O  O8  1  0.83981000  0.31237000  0.33603000  1.0 -0.486013252
O  O9  1  0.82270000  0.17868000  0.14019000  1.0 -0.5005189151
O  O10  1  0.17730000  0.67868000  0.35981000  1.0 -0.5005189151
O  O11  1  0.17730000  0.82132000  0.85981000  1.0 -0.5005189151
O  O12  1  0.82270000  0.32132000  0.64019000  1.0 -0.5005189151
O  O13  1  0.81060000  0.09144000  0.19774000  1.0 -0.5424276997
O  O14  1  0.18940000  0.59144000  0.30226000  1.0 -0.5424276997
O  O15  1  0.18940000  0.90856000  0.80226000  1.0 -0.5424276997
O  O16  1  0.81060000  0.40856000  0.69774000  1.0 -0.5424276997
O  O17  1  0.87220000  0.94786000  0.98830000  1.0 -0.1572825608
O  O18  1  0.12780000  0.44786000  0.51170000  1.0 -0.1572825608
O  O19  1  0.12780000  0.05214000  0.01170000  1.0 -0.1572825608
O  O20  1  0.87220000  0.55214000  0.48830000  1.0 -0.1572825608
O  O21  1  0.80342000  0.65869000  0.96070000  1.0 -0.1705281806
O  O22  1  0.19658000  0.15869000  0.53930000  1.0 -0.1705281806
O  O23  1  0.19658000  0.34131000  0.03930000  1.0 -0.1705281806
O  O24  1  0.80342000  0.84131000  0.46070000  1.0 -0.1705281806
O  O25  1  0.47318000  0.62646000  0.93304000  1.0 -0.5167244632
O  O26  1  0.52682000  0.12646000  0.56696000  1.0 -0.5167244632
O  O27  1  0.52682000  0.37354000  0.06696000  1.0 -0.5167244632
O  O28  1  0.47318000  0.87354000  0.43304000  1.0 -0.5167244632
O  O29  1  0.45959000  0.53220000  0.90281000  1.0 -0.5093653021
O  O30  1  0.54041000  0.03220000  0.59719000  1.0 -0.5093653021
O  O31  1  0.54041000  0.46780000  0.09719000  1.0 -0.5093653021
O  O32  1  0.45959000  0.96780000  0.40281000  1.0 -0.5093653021
O  O33  1  0.72454000  0.40708000  0.92658000  1.0 -0.4100866576
O  O34  1  0.27546000  0.90708000  0.57342000  1.0 -0.4100866576
O  O35  1  0.27546000  0.59292000  0.07342000  1.0 -0.4100866576
O  O36  1  0.72454000  0.09292000  0.42658000  1.0 -0.4100866576
O  O37  1  0.82844000  0.45091000  0.87137000  1.0 -0.5291874791
O  O38  1  0.17156000  0.95091000  0.62863000  1.0 -0.5291874791
O  O39  1  0.17156000  0.54909000  0.12863000  1.0 -0.5291874791
O  O40  1  0.82844000  0.04909000  0.37137000  1.0 -0.5291874791
O  O41  1  0.76798000  0.30483000  0.81469000  1.0 -0.571224529
O  O42  1  0.23202000  0.80483000  0.68531000  1.0 -0.5802617554
O  O43  1  0.23202000  0.69517000  0.18531000  1.0 -0.5802617554
O  O44  1  0.76798000  0.19517000  0.31469000  1.0 -0.571224529
O  O45  1  0.78331000  0.20160000  0.64955000  1.0 -0.7541313057
O  O46  1  0.21669000  0.70160000  0.85045000  1.0 -0.7588411752
O  O47  1  0.21669000  0.79840000  0.35045000  1.0 -0.7541313057
O  O48  1  0.78331000  0.29840000  0.14955000  1.0 -0.7588411752
O  O49  1  0.93340000  0.15510000  0.58490000  1.0 -0.3985217546
O  O50  1  0.06660000  0.65510000  0.91510000  1.0 -0.3985217546
O  O51  1  0.06660000  0.84490000  0.41510000  1.0 -0.3985217546
O  O52  1  0.93340000  0.34490000  0.08490000  1.0 -0.3985217546
O  O53  1  0.89842000  0.04168000  0.62120000  1.0 -0.0637289767
O  O54  1  0.10158000  0.54168000  0.87880000  1.0 -0.0532901694
O  O55  1  0.10158000  0.95832000  0.37880000  1.0 -0.0532901694
O  O56  1  0.89842000  0.45832000  0.12120000  1.0 -0.0707445551
O  O57  1  0.72005000  0.09332000  0.59634000  1.0 -0.806765068
O  O58  1  0.27995000  0.59332000  0.90366000  1.0 -0.806765068
O  O59  1  0.27995000  0.90668000  0.40366000  1.0 -0.806765068
O  O60  1  0.72005000  0.40668000  0.09634000  1.0 -0.806765068
O  O61  1  0.63567000  0.15006000  0.73725000  1.0 -0.5167244632
O  O62  1  0.36433000  0.65006000  0.76275000  1.0 -0.5167244632
O  O63  1  0.36433000  0.84994000  0.26275000  1.0 -0.5167244632
O  O64  1  0.63567000  0.34994000  0.23725000  1.0 -0.5167244632
O  O65  1  0.65436000  0.05517000  0.76533000  1.0 -0.5291874791
O  O66  1  0.34564000  0.55517000  0.73467000  1.0 -0.5291874791
O  O67  1  0.34564000  0.94483000  0.23467000  1.0 -0.5291874791
O  O68  1  0.65436000  0.44483000  0.26533000  1.0 -0.5291874791
O  O69  1  0.65657000  0.28623000  0.97884000  1.0 -0.4369511341
O  O70  1  0.34343000  0.78623000  0.52116000  1.0 -0.4369511341
O  O71  1  0.34343000  0.71377000  0.02116000  1.0 -0.4369511341
O  O72  1  0.65657000  0.21377000  0.47884000  1.0 -0.4369511341
O  O73  1  0.60530000  0.25570000  0.09177000  1.0 -0.5005189151
O  O74  1  0.39470000  0.75570000  0.40823000  1.0 -0.5093653021
O  O75  1  0.39470000  0.74430000  0.90823000  1.0 -0.5005189151
O  O76  1  0.60530000  0.24430000  0.59177000  1.0 -0.5005189151
O  O77  1  0.60690000  0.04111000  0.07081000  1.0 -0.1705281806
O  O78  1  0.39310000  0.54111000  0.42919000  1.0 -0.1705281806
O  O79  1  0.39310000  0.95889000  0.92919000  1.0 -0.1705281806
O  O80  1  0.60690000  0.45889000  0.57081000  1.0 -0.1705281806
O  O81  1  0.73473000  0.78583000  0.20860000  1.0 -0.1799897735
O  O82  1  0.26527000  0.28583000  0.29140000  1.0 -0.1799897735
O  O83  1  0.26527000  0.21417000  0.79140000  1.0 -0.1799897735
O  O84  1  0.73473000  0.71417000  0.70860000  1.0 -0.1799897735
O  O85  1  0.64912000  0.57021000  0.17430000  1.0 -0.4805685703
O  O86  1  0.35088000  0.07021000  0.32570000  1.0 -0.4805685703
O  O87  1  0.35088000  0.42979000  0.82570000  1.0 -0.4805685703
O  O88  1  0.64912000  0.92979000  0.67430000  1.0 -0.4805685703
O  O89  1  0.76904000  0.52752000  0.16090000  1.0 -0.4512843449
O  O90  1  0.23096000  0.02752000  0.33910000  1.0 -0.4512843449
O  O91  1  0.23096000  0.47248000  0.83910000  1.0 -0.4512843449
O  O92  1  0.76904000  0.97248000  0.66090000  1.0 -0.4512843449
O  O93  1  0.04119000  0.64306000  0.17113000  1.0 -0.5291874791
O  O94  1  0.95881000  0.14306000  0.32887000  1.0 -0.5291874791
O  O95  1  0.95881000  0.35694000  0.82887000  1.0 -0.5291874791
O  O96  1  0.04119000  0.85694000  0.67113000  1.0 -0.5291874791
O  O97  1  0.04534000  0.73183000  0.22990000  1.0 -0.5093653021
O  O98  1  0.95466000  0.23183000  0.27010000  1.0 -0.5093653021
O  O99  1  0.95466000  0.26817000  0.77010000  1.0 -0.5093653021
O  O100  1  0.04534000  0.76817000  0.72990000  1.0 -0.5093653021
