# DDEC6 charges by PACMAN v1.1 (https://github.com/mtap-research/PACMAN-charge/)
data_ROMQAN_FSR_pacman
_symmetry_space_group_name_H-M   'P 1'
_cell_length_a   7.80800000
_cell_length_b   17.45600000
_cell_length_c   18.91800000
_cell_angle_alpha   90.00000000
_cell_angle_beta   106.42000000
_cell_angle_gamma   90.00000000
_symmetry_Int_Tables_number   1
_chemical_formula_structural   Zn2H16(C7O4)3
_chemical_formula_sum   'Zn8 H64 C84 O48'
_cell_volume   2473.29479613
_cell_formula_units_Z   4
loop_
 _symmetry_equiv_pos_site_id
 _symmetry_equiv_pos_as_xyz
  1  'x, y, z'
loop_
 _atom_site_type_symbol
 _atom_site_label
 _atom_site_symmetry_multiplicity
 _atom_site_fract_x
 _atom_site_fract_y
 _atom_site_fract_z
 _atom_site_occupancy
 _atom_site_charge
Zn  Zn1  1  0.20916000  0.20199000  0.21983000  1.0 0.9226174663
Zn  Zn2  1  0.79084000  0.70199000  0.28017000  1.0 0.9226174663
Zn  Zn3  1  0.79084000  0.79801000  0.78017000  1.0 0.9226174663
Zn  Zn4  1  0.20916000  0.29801000  0.71983000  1.0 0.9226174663
Zn  Zn5  1  0.45925000  0.12004000  0.11353000  1.0 1.0692211103
Zn  Zn6  1  0.54075000  0.62004000  0.38647000  1.0 1.0692211103
Zn  Zn7  1  0.54075000  0.87996000  0.88647000  1.0 1.0692211103
Zn  Zn8  1  0.45925000  0.37996000  0.61353000  1.0 1.0692211103
H  H1  1  0.54170000  0.39860000  0.27570000  1.0 0.1401073397
H  H2  1  0.45830000  0.89860000  0.22430000  1.0 0.1401073397
H  H3  1  0.45830000  0.60140000  0.72430000  1.0 0.1401073397
H  H4  1  0.54170000  0.10140000  0.77570000  1.0 0.1401073397
H  H5  1  0.83020000  0.29310000  0.15950000  1.0 0.1401073397
H  H6  1  0.16980000  0.79310000  0.34050000  1.0 0.1401073397
H  H7  1  0.16980000  0.70690000  0.84050000  1.0 0.1401073397
H  H8  1  0.83020000  0.20690000  0.65950000  1.0 0.1401073397
H  H9  1  0.92850000  0.51290000  0.21750000  1.0 0.1320428363
H  H10  1  0.07150000  0.01290000  0.28250000  1.0 0.1320428363
H  H11  1  0.07150000  0.48710000  0.78250000  1.0 0.1320428363
H  H12  1  0.92850000  0.98710000  0.71750000  1.0 0.1320428363
H  H13  1  0.03280000  0.50740000  0.12980000  1.0 0.0981387395
H  H14  1  0.96720000  0.00740000  0.37020000  1.0 0.0981387395
H  H15  1  0.96720000  0.49260000  0.87020000  1.0 0.0981387395
H  H16  1  0.03280000  0.99260000  0.62980000  1.0 0.0981387395
H  H17  1  0.21670000  0.47550000  0.17730000  1.0 0.1092524274
H  H18  1  0.78330000  0.97550000  0.32270000  1.0 0.1092524274
H  H19  1  0.78330000  0.52450000  0.82270000  1.0 0.1092524274
H  H20  1  0.21670000  0.02450000  0.67730000  1.0 0.1092524274
H  H21  1  0.24360000  0.51000000  0.07050000  1.0 0.1193160425
H  H22  1  0.75640000  0.01000000  0.42950000  1.0 0.1193160425
H  H23  1  0.75640000  0.49000000  0.92950000  1.0 0.1193160425
H  H24  1  0.24360000  0.99000000  0.57050000  1.0 0.1193160425
H  H25  1  0.07340000  0.46490000  0.02860000  1.0 0.1092524274
H  H26  1  0.92660000  0.96490000  0.47140000  1.0 0.1092524274
H  H27  1  0.92660000  0.53510000  0.97140000  1.0 0.1092524274
H  H28  1  0.07340000  0.03510000  0.52860000  1.0 0.1092524274
H  H29  1  0.38630000  0.40450000  0.10030000  1.0 0.0981387395
H  H30  1  0.61370000  0.90450000  0.39970000  1.0 0.0981387395
H  H31  1  0.61370000  0.59550000  0.89970000  1.0 0.0981387395
H  H32  1  0.38630000  0.09550000  0.60030000  1.0 0.0981387395
H  H33  1  0.21540000  0.35860000  0.05930000  1.0 0.1092524274
H  H34  1  0.78460000  0.85860000  0.44070000  1.0 0.1092524274
H  H35  1  0.78460000  0.64140000  0.94070000  1.0 0.1092524274
H  H36  1  0.21540000  0.14140000  0.55930000  1.0 0.1092524274
H  H37  1  0.37890000  0.46000000  0.97250000  1.0 0.1193160425
H  H38  1  0.62110000  0.96000000  0.52750000  1.0 0.1193160425
H  H39  1  0.62110000  0.54000000  0.02750000  1.0 0.1193160425
H  H40  1  0.37890000  0.04000000  0.47250000  1.0 0.1193160425
H  H41  1  0.24560000  0.39240000  0.93980000  1.0 0.1193160425
H  H42  1  0.75440000  0.89240000  0.56020000  1.0 0.1193160425
H  H43  1  0.75440000  0.60760000  0.06020000  1.0 0.1193160425
H  H44  1  0.24560000  0.10760000  0.43980000  1.0 0.1193160425
H  H45  1  0.46180000  0.30520000  0.01350000  1.0 0.1092524274
H  H46  1  0.53820000  0.80520000  0.48650000  1.0 0.1092524274
H  H47  1  0.53820000  0.69480000  0.98650000  1.0 0.1092524274
H  H48  1  0.46180000  0.19480000  0.51350000  1.0 0.1092524274
H  H49  1  0.59640000  0.37420000  0.03460000  1.0 0.0931895684
H  H50  1  0.40360000  0.87420000  0.46540000  1.0 0.0931895684
H  H51  1  0.40360000  0.62580000  0.96540000  1.0 0.0931895684
H  H52  1  0.59640000  0.12580000  0.53460000  1.0 0.0931895684
H  H53  1  0.69730000  0.34350000  0.83200000  1.0 0.1401073397
H  H54  1  0.30270000  0.84350000  0.66800000  1.0 0.1401073397
H  H55  1  0.30270000  0.65650000  0.16800000  1.0 0.1401073397
H  H56  1  0.69730000  0.15650000  0.33200000  1.0 0.1401073397
H  H57  1  0.13440000  0.22260000  0.93060000  1.0 0.1320428363
H  H58  1  0.86560000  0.72260000  0.56940000  1.0 0.1320428363
H  H59  1  0.86560000  0.77740000  0.06940000  1.0 0.1320428363
H  H60  1  0.13440000  0.27740000  0.43060000  1.0 0.1320428363
H  H61  1  0.75950000  0.26060000  0.03550000  1.0 0.1320428363
H  H62  1  0.24050000  0.76060000  0.46450000  1.0 0.1320428363
H  H63  1  0.24050000  0.73940000  0.96450000  1.0 0.1320428363
H  H64  1  0.75950000  0.23940000  0.53550000  1.0 0.1320428363
C  C1  1  0.68610000  0.53730000  0.28720000  1.0 0.5817040315
C  C2  1  0.31390000  0.03730000  0.21280000  1.0 0.5817040315
C  C3  1  0.31390000  0.46270000  0.71280000  1.0 0.5817040315
C  C4  1  0.68610000  0.96270000  0.78720000  1.0 0.5817040315
C  C5  1  0.73010000  0.46520000  0.25310000  1.0 -0.0070683488
C  C6  1  0.26990000  0.96520000  0.24690000  1.0 -0.0070683488
C  C7  1  0.26990000  0.53480000  0.74690000  1.0 -0.0070683488
C  C8  1  0.73010000  0.03480000  0.75310000  1.0 -0.0070683488
C  C9  1  0.63020000  0.39990000  0.25150000  1.0 -0.1451270271
C  C10  1  0.36980000  0.89990000  0.24850000  1.0 -0.1451270271
C  C11  1  0.36980000  0.60010000  0.74850000  1.0 -0.1451270271
C  C12  1  0.63020000  0.10010000  0.75150000  1.0 -0.1451270271
C  C13  1  0.66300000  0.33570000  0.21360000  1.0 -0.0192338422
C  C14  1  0.33700000  0.83570000  0.28640000  1.0 -0.0192338422
C  C15  1  0.33700000  0.66430000  0.78640000  1.0 -0.0192338422
C  C16  1  0.66300000  0.16430000  0.71360000  1.0 -0.0192338422
C  C17  1  0.80250000  0.33700000  0.18200000  1.0 -0.2107352566
C  C18  1  0.19750000  0.83700000  0.31800000  1.0 -0.2107352566
C  C19  1  0.19750000  0.66300000  0.81800000  1.0 -0.2107352566
C  C20  1  0.80250000  0.16300000  0.68200000  1.0 -0.2107352566
C  C21  1  0.90100000  0.40310000  0.18350000  1.0 0.2500276912
C  C22  1  0.09900000  0.90310000  0.31650000  1.0 0.2500276912
C  C23  1  0.09900000  0.59690000  0.81650000  1.0 0.2500276912
C  C24  1  0.90100000  0.09690000  0.68350000  1.0 0.2500276912
C  C25  1  0.86460000  0.46790000  0.21780000  1.0 -0.2358753968
C  C26  1  0.13540000  0.96790000  0.28220000  1.0 -0.2358753968
C  C27  1  0.13540000  0.53210000  0.78220000  1.0 -0.2358753968
C  C28  1  0.86460000  0.03210000  0.71780000  1.0 -0.2358753968
C  C29  1  0.53880000  0.26830000  0.20140000  1.0 0.5817040315
C  C30  1  0.46120000  0.76830000  0.29860000  1.0 0.5817040315
C  C31  1  0.46120000  0.73170000  0.79860000  1.0 0.5817040315
C  C32  1  0.53880000  0.23170000  0.70140000  1.0 0.5817040315
C  C33  1  0.11600000  0.46520000  0.13480000  1.0 -0.0352118284
C  C34  1  0.88400000  0.96520000  0.36520000  1.0 -0.0352118284
C  C35  1  0.88400000  0.53480000  0.86520000  1.0 -0.0352118284
C  C36  1  0.11600000  0.03480000  0.63480000  1.0 -0.0352118284
C  C37  1  0.17800000  0.46290000  0.07090000  1.0 -0.2025181938
C  C38  1  0.82200000  0.96290000  0.42910000  1.0 -0.2025181938
C  C39  1  0.82200000  0.53710000  0.92910000  1.0 -0.2025181938
C  C40  1  0.17800000  0.03710000  0.57090000  1.0 -0.2025181938
C  C41  1  0.27900000  0.40620000  0.05900000  1.0 -0.1284277055
C  C42  1  0.72100000  0.90620000  0.44100000  1.0 -0.1284277055
C  C43  1  0.72100000  0.59380000  0.94100000  1.0 -0.1284277055
C  C44  1  0.27900000  0.09380000  0.55900000  1.0 -0.1284277055
C  C45  1  0.34190000  0.40880000  0.98180000  1.0 -0.2176092182
C  C46  1  0.65810000  0.90880000  0.51820000  1.0 -0.2176092182
C  C47  1  0.65810000  0.59120000  0.01820000  1.0 -0.2176092182
C  C48  1  0.34190000  0.09120000  0.48180000  1.0 -0.2176092182
C  C49  1  0.49570000  0.35390000  0.99660000  1.0 -0.0192338422
C  C50  1  0.50430000  0.85390000  0.50340000  1.0 -0.0192338422
C  C51  1  0.50430000  0.64610000  0.00340000  1.0 -0.0192338422
C  C52  1  0.49570000  0.14610000  0.49660000  1.0 -0.0192338422
C  C53  1  0.70320000  0.30790000  0.93390000  1.0 0.2500276912
C  C54  1  0.29680000  0.80790000  0.56610000  1.0 0.2500276912
C  C55  1  0.29680000  0.69210000  0.06610000  1.0 0.2500276912
C  C56  1  0.70320000  0.19210000  0.43390000  1.0 0.2500276912
C  C57  1  0.76530000  0.31630000  0.87260000  1.0 -0.2107352566
C  C58  1  0.23470000  0.81630000  0.62740000  1.0 -0.2107352566
C  C59  1  0.23470000  0.68370000  0.12740000  1.0 -0.2107352566
C  C60  1  0.76530000  0.18370000  0.37260000  1.0 -0.2107352566
C  C61  1  0.92580000  0.28520000  0.87070000  1.0 -0.0070683488
C  C62  1  0.07420000  0.78520000  0.62930000  1.0 -0.0070683488
C  C63  1  0.07420000  0.71480000  0.12930000  1.0 -0.0070683488
C  C64  1  0.92580000  0.21480000  0.37070000  1.0 -0.0070683488
C  C65  1  0.02650000  0.24440000  0.93160000  1.0 -0.1367288929
C  C66  1  0.97350000  0.74440000  0.56840000  1.0 -0.1367288929
C  C67  1  0.97350000  0.75560000  0.06840000  1.0 -0.1367288929
C  C68  1  0.02650000  0.25560000  0.43160000  1.0 -0.1367288929
C  C69  1  0.96660000  0.23610000  0.99380000  1.0 -0.0026451504
C  C70  1  0.03340000  0.73610000  0.50620000  1.0 -0.0026451504
C  C71  1  0.03340000  0.76390000  0.00620000  1.0 -0.0026451504
C  C72  1  0.96660000  0.26390000  0.49380000  1.0 -0.0026451504
C  C73  1  0.80200000  0.26720000  0.99470000  1.0 -0.228788792
C  C74  1  0.19800000  0.76720000  0.50530000  1.0 -0.228788792
C  C75  1  0.19800000  0.73280000  0.00530000  1.0 -0.228788792
C  C76  1  0.80200000  0.23280000  0.49470000  1.0 -0.228788792
C  C77  1  0.00040000  0.29900000  0.80690000  1.0 0.5319439482
C  C78  1  0.99960000  0.79900000  0.69310000  1.0 0.5319439482
C  C79  1  0.99960000  0.70100000  0.19310000  1.0 0.5319439482
C  C80  1  0.00040000  0.20100000  0.30690000  1.0 0.5319439482
C  C81  1  0.08900000  0.19960000  0.06140000  1.0 0.5817040315
C  C82  1  0.91100000  0.69960000  0.43860000  1.0 0.5817040315
C  C83  1  0.91100000  0.80040000  0.93860000  1.0 0.5817040315
C  C84  1  0.08900000  0.30040000  0.56140000  1.0 0.5817040315
O  O1  1  0.56660000  0.21530000  0.16000000  1.0 -0.5594350834
O  O2  1  0.43340000  0.71530000  0.34000000  1.0 -0.5594350834
O  O3  1  0.43340000  0.78470000  0.84000000  1.0 -0.5594350834
O  O4  1  0.56660000  0.28470000  0.66000000  1.0 -0.5594350834
O  O5  1  0.41260000  0.27060000  0.23100000  1.0 -0.5293945361
O  O6  1  0.58740000  0.77060000  0.26900000  1.0 -0.5293945361
O  O7  1  0.58740000  0.72940000  0.76900000  1.0 -0.5293945361
O  O8  1  0.41260000  0.22940000  0.73100000  1.0 -0.5293945361
O  O9  1  0.63780000  0.53060000  0.34610000  1.0 -0.5375930284
O  O10  1  0.36220000  0.03060000  0.15390000  1.0 -0.5375930284
O  O11  1  0.36220000  0.46940000  0.65390000  1.0 -0.5375930284
O  O12  1  0.63780000  0.96940000  0.84610000  1.0 -0.5375930284
O  O13  1  0.69570000  0.59880000  0.25700000  1.0 -0.5375930284
O  O14  1  0.30430000  0.09880000  0.24300000  1.0 -0.5375930284
O  O15  1  0.30430000  0.40120000  0.74300000  1.0 -0.5375930284
O  O16  1  0.69570000  0.90120000  0.75700000  1.0 -0.5375930284
O  O17  1  0.03170000  0.39780000  0.14810000  1.0 -0.1720286914
O  O18  1  0.96830000  0.89780000  0.35190000  1.0 -0.1720286914
O  O19  1  0.96830000  0.60220000  0.85190000  1.0 -0.1720286914
O  O20  1  0.03170000  0.10220000  0.64810000  1.0 -0.1720286914
O  O21  1  0.54330000  0.34340000  0.93030000  1.0 -0.1720286914
O  O22  1  0.45670000  0.84340000  0.56970000  1.0 -0.1720286914
O  O23  1  0.45670000  0.65660000  0.06970000  1.0 -0.1720286914
O  O24  1  0.54330000  0.15660000  0.43030000  1.0 -0.1720286914
O  O25  1  0.93970000  0.35150000  0.76300000  1.0 -0.4711557094
O  O26  1  0.06030000  0.85150000  0.73700000  1.0 -0.4711557094
O  O27  1  0.06030000  0.64850000  0.23700000  1.0 -0.4711557094
O  O28  1  0.93970000  0.14850000  0.26300000  1.0 -0.4711557094
O  O29  1  0.12810000  0.25590000  0.80090000  1.0 -0.5232677151
O  O30  1  0.87190000  0.75590000  0.69910000  1.0 -0.5232677151
O  O31  1  0.87190000  0.74410000  0.19910000  1.0 -0.5232677151
O  O32  1  0.12810000  0.24410000  0.30090000  1.0 -0.5232677151
O  O33  1  0.22370000  0.16680000  0.05430000  1.0 -0.5534630108
O  O34  1  0.77630000  0.66680000  0.44570000  1.0 -0.5534630108
O  O35  1  0.77630000  0.83320000  0.94570000  1.0 -0.5534630108
O  O36  1  0.22370000  0.33320000  0.55430000  1.0 -0.5534630108
O  O37  1  0.04560000  0.20600000  0.12070000  1.0 -0.5293945361
O  O38  1  0.95440000  0.70600000  0.37930000  1.0 -0.5293945361
O  O39  1  0.95440000  0.79400000  0.87930000  1.0 -0.5293945361
O  O40  1  0.04560000  0.29400000  0.62070000  1.0 -0.5293945361
O  O41  1  0.49470000  0.09720000  0.01320000  1.0 -0.334039985
O  O42  1  0.50530000  0.59720000  0.48680000  1.0 -0.3362346579
O  O43  1  0.50530000  0.90280000  0.98680000  1.0 -0.3362346579
O  O44  1  0.49470000  0.40280000  0.51320000  1.0 -0.3362346579
O  O45  1  0.72030000  0.07100000  0.15300000  1.0 0.0594052112
O  O46  1  0.27970000  0.57100000  0.34700000  1.0 0.0546711918
O  O47  1  0.27970000  0.92900000  0.84700000  1.0 0.0594052112
O  O48  1  0.72030000  0.42900000  0.65300000  1.0 0.0594052112
