# DDEC6 charges by PACMAN v1.1 (https://github.com/mtap-research/PACMAN-charge/)
data_RONZID_ASR_pacman
_symmetry_space_group_name_H-M   'P 1'
_cell_length_a   9.04200000
_cell_length_b   9.04200000
_cell_length_c   12.02700000
_cell_angle_alpha   90.00000000
_cell_angle_beta   90.00000000
_cell_angle_gamma   90.00000000
_symmetry_Int_Tables_number   1
_chemical_formula_structural   Cd(CN)2
_chemical_formula_sum   'Cd4 C8 N8'
_cell_volume   983.30062763
_cell_formula_units_Z   4
loop_
 _symmetry_equiv_pos_site_id
 _symmetry_equiv_pos_as_xyz
  1  'x, y, z'
loop_
 _atom_site_type_symbol
 _atom_site_label
 _atom_site_symmetry_multiplicity
 _atom_site_fract_x
 _atom_site_fract_y
 _atom_site_fract_z
 _atom_site_occupancy
 _atom_site_charge
Cd  Cd1  1  0.30978000  0.30978000  0.00000000  1.0 0.6756190412
Cd  Cd2  1  0.19022000  0.80978000  0.25000000  1.0 0.6590217702
Cd  Cd3  1  0.80978000  0.19022000  0.75000000  1.0 0.6590217702
Cd  Cd4  1  0.69022000  0.69022000  0.50000000  1.0 0.650337135
C  C1  1  0.26700000  0.11240000  0.10610000  1.0 0.1782041095
C  C2  1  0.38760000  0.76700000  0.35610000  1.0 0.1988296064
C  C3  1  0.76700000  0.38760000  0.64390000  1.0 0.1782041095
C  C4  1  0.73300000  0.88760000  0.60610000  1.0 0.1743645422
C  C5  1  0.11240000  0.26700000  0.89390000  1.0 0.1931485288
C  C6  1  0.61240000  0.23300000  0.85610000  1.0 0.1988296064
C  C7  1  0.23300000  0.61240000  0.14390000  1.0 0.1782041095
C  C8  1  0.88760000  0.73300000  0.39390000  1.0 0.1988296064
N  N1  1  0.51070000  0.26060000  0.90590000  1.0 -0.5256255664
N  N2  1  0.23940000  0.01070000  0.15590000  1.0 -0.5159081913
N  N3  1  0.01070000  0.23940000  0.84410000  1.0 -0.5159081913
N  N4  1  0.48930000  0.73940000  0.40590000  1.0 -0.5138650186
N  N5  1  0.26060000  0.51070000  0.09410000  1.0 -0.5256255664
N  N6  1  0.76060000  0.98930000  0.65590000  1.0 -0.5159081913
N  N7  1  0.98930000  0.76060000  0.34410000  1.0 -0.5159081913
N  N8  1  0.73940000  0.48930000  0.59410000  1.0 -0.5138650186
