# DDEC6 charges by PACMAN v1.1 (https://github.com/mtap-research/PACMAN-charge/)
data_ROPWOL_ASR_pacman
_symmetry_space_group_name_H-M   'P 1'
_cell_length_a   13.07970000
_cell_length_b   13.07970000
_cell_length_c   35.89990000
_cell_angle_alpha   83.39580000
_cell_angle_beta   96.60420000
_cell_angle_gamma   93.28780000
_symmetry_Int_Tables_number   1
_chemical_formula_structural   YbH18C24NO7
_chemical_formula_sum   'Yb8 H144 C192 N8 O56'
_cell_volume   6054.40286787
_cell_formula_units_Z   8
loop_
 _symmetry_equiv_pos_site_id
 _symmetry_equiv_pos_as_xyz
  1  'x, y, z'
loop_
 _atom_site_type_symbol
 _atom_site_label
 _atom_site_symmetry_multiplicity
 _atom_site_fract_x
 _atom_site_fract_y
 _atom_site_fract_z
 _atom_site_occupancy
 _atom_site_charge
Yb  Yb1  1  0.52362000  0.45406000  0.43584000  1.0 2.0738262921
Yb  Yb2  1  0.03605000  0.12877000  0.46073000  1.0 2.027940312
Yb  Yb3  1  0.45406000  0.52362000  0.06416000  1.0 2.0738262921
Yb  Yb4  1  0.12877000  0.03605000  0.03927000  1.0 2.027940312
Yb  Yb5  1  0.47638000  0.54594000  0.56416000  1.0 2.0738262921
Yb  Yb6  1  0.96395000  0.87123000  0.53927000  1.0 2.027940312
Yb  Yb7  1  0.54594000  0.47638000  0.93584000  1.0 2.0738262921
Yb  Yb8  1  0.87123000  0.96395000  0.96073000  1.0 2.027940312
H  H1  1  0.64040000  0.30140000  0.59640000  1.0 0.1196695769
H  H2  1  0.74220000  0.26680000  0.49740000  1.0 0.1303483281
H  H3  1  0.83960000  0.08260000  0.59080000  1.0 0.1303483281
H  H4  1  0.80160000  0.02300000  0.64480000  1.0 0.1196695769
H  H5  1  0.82610000  0.98950000  0.70880000  1.0 0.1102108987
H  H6  1  0.70650000  0.25570000  0.71910000  1.0 0.1102108987
H  H7  1  0.68780000  0.29220000  0.65430000  1.0 0.1196695769
H  H8  1  0.91150000  0.01230000  0.76550000  1.0 0.1102108987
H  H9  1  0.93600000  0.97020000  0.82950000  1.0 0.1196695769
H  H10  1  0.69130000  0.12870000  0.84130000  1.0 0.1196695769
H  H11  1  0.66630000  0.17150000  0.77650000  1.0 0.1102108987
H  H12  1  0.77300000  0.01440000  0.38360000  1.0 0.1196695769
H  H13  1  0.57400000  0.78020000  0.35690000  1.0 0.1102108987
H  H14  1  0.76850000  0.74930000  0.45220000  1.0 0.1397384644
H  H15  1  0.74480000  0.07040000  0.32430000  1.0 0.1102108987
H  H16  1  0.68430000  0.16110000  0.26740000  1.0 0.1020116362
H  H17  1  0.42090000  0.98690000  0.26560000  1.0 0.1020116362
H  H18  1  0.48130000  0.89630000  0.32250000  1.0 0.1102108987
H  H19  1  0.55330000  0.27830000  0.23350000  1.0 0.1102108987
H  H20  1  0.50810000  0.36090000  0.17440000  1.0 0.1303483281
H  H21  1  0.39100000  0.10120000  0.14030000  1.0 0.1196695769
H  H22  1  0.43470000  0.01850000  0.20000000  1.0 0.1020116362
H  H23  1  0.91170000  0.33730000  0.46040000  1.0 0.1397384644
H  H24  1  0.09560000  0.56100000  0.42770000  1.0 0.0908045757
H  H25  1  0.09920000  0.57680000  0.47050000  1.0 0.0801584541
H  H26  1  0.14490000  0.47850000  0.45870000  1.0 0.1303483281
H  H27  1  0.83360000  0.49600000  0.45040000  1.0 0.0801584541
H  H28  1  0.90330000  0.58890000  0.46420000  1.0 0.069057159
H  H29  1  0.89150000  0.57030000  0.42150000  1.0 0.0908045757
H  H30  1  0.99160000  0.38640000  0.43530000  1.0 0.1102108987
H  H31  1  0.22020000  0.51100000  0.48910000  1.0 0.1102108987
H  H32  1  0.14070000  0.52850000  0.51700000  1.0 0.069057159
H  H33  1  0.17000000  0.41640000  0.51240000  1.0 0.0908045757
H  H34  1  0.98350000  0.56250000  0.42710000  1.0 0.0908045757
H  H35  1  0.03030000  0.62690000  0.45970000  1.0 0.0801584541
H  H36  1  0.09980000  0.60020000  0.42970000  1.0 0.0801584541
H  H37  1  0.30140000  0.64040000  0.90360000  1.0 0.1196695769
H  H38  1  0.26680000  0.74220000  0.00260000  1.0 0.1303483281
H  H39  1  0.08260000  0.83960000  0.90920000  1.0 0.1303483281
H  H40  1  0.02300000  0.80160000  0.85520000  1.0 0.1196695769
H  H41  1  0.98950000  0.82610000  0.79120000  1.0 0.1102108987
H  H42  1  0.25570000  0.70650000  0.78090000  1.0 0.1102108987
H  H43  1  0.29220000  0.68780000  0.84570000  1.0 0.1196695769
H  H44  1  0.01230000  0.91150000  0.73450000  1.0 0.1102108987
H  H45  1  0.97020000  0.93600000  0.67050000  1.0 0.1196695769
H  H46  1  0.12870000  0.69130000  0.65870000  1.0 0.1196695769
H  H47  1  0.17150000  0.66630000  0.72350000  1.0 0.1102108987
H  H48  1  0.01440000  0.77300000  0.11640000  1.0 0.1196695769
H  H49  1  0.78020000  0.57400000  0.14310000  1.0 0.1102108987
H  H50  1  0.74930000  0.76850000  0.04780000  1.0 0.1397384644
H  H51  1  0.07040000  0.74480000  0.17570000  1.0 0.1102108987
H  H52  1  0.16110000  0.68430000  0.23260000  1.0 0.1020116362
H  H53  1  0.98690000  0.42090000  0.23440000  1.0 0.1020116362
H  H54  1  0.89630000  0.48130000  0.17750000  1.0 0.1102108987
H  H55  1  0.27830000  0.55330000  0.26650000  1.0 0.1102108987
H  H56  1  0.36090000  0.50810000  0.32560000  1.0 0.1303483281
H  H57  1  0.10120000  0.39100000  0.35970000  1.0 0.1196695769
H  H58  1  0.01850000  0.43470000  0.30000000  1.0 0.1020116362
H  H59  1  0.33730000  0.91170000  0.03960000  1.0 0.1397384644
H  H60  1  0.56100000  0.09560000  0.07230000  1.0 0.0908045757
H  H61  1  0.57680000  0.09920000  0.02950000  1.0 0.0801584541
H  H62  1  0.47850000  0.14490000  0.04130000  1.0 0.1303483281
H  H63  1  0.49600000  0.83360000  0.04960000  1.0 0.0801584541
H  H64  1  0.58890000  0.90330000  0.03580000  1.0 0.069057159
H  H65  1  0.57030000  0.89150000  0.07850000  1.0 0.0908045757
H  H66  1  0.38640000  0.99160000  0.06470000  1.0 0.1102108987
H  H67  1  0.51100000  0.22020000  0.01090000  1.0 0.1102108987
H  H68  1  0.52850000  0.14070000  0.98300000  1.0 0.069057159
H  H69  1  0.41640000  0.17000000  0.98760000  1.0 0.0908045757
H  H70  1  0.56250000  0.98350000  0.07290000  1.0 0.0908045757
H  H71  1  0.62690000  0.03030000  0.04030000  1.0 0.0801584541
H  H72  1  0.60020000  0.09980000  0.07030000  1.0 0.0801584541
H  H73  1  0.35960000  0.69860000  0.40360000  1.0 0.1196695769
H  H74  1  0.25780000  0.73320000  0.50260000  1.0 0.1303483281
H  H75  1  0.16040000  0.91740000  0.40920000  1.0 0.1303483281
H  H76  1  0.19840000  0.97700000  0.35520000  1.0 0.1196695769
H  H77  1  0.17390000  0.01050000  0.29120000  1.0 0.1102108987
H  H78  1  0.29350000  0.74430000  0.28090000  1.0 0.1102108987
H  H79  1  0.31220000  0.70780000  0.34570000  1.0 0.1196695769
H  H80  1  0.08850000  0.98770000  0.23450000  1.0 0.1102108987
H  H81  1  0.06400000  0.02980000  0.17050000  1.0 0.1196695769
H  H82  1  0.30870000  0.87130000  0.15870000  1.0 0.1196695769
H  H83  1  0.33370000  0.82850000  0.22350000  1.0 0.1102108987
H  H84  1  0.22700000  0.98560000  0.61640000  1.0 0.1196695769
H  H85  1  0.42600000  0.21980000  0.64310000  1.0 0.1102108987
H  H86  1  0.23150000  0.25070000  0.54780000  1.0 0.1397384644
H  H87  1  0.25520000  0.92960000  0.67570000  1.0 0.1102108987
H  H88  1  0.31570000  0.83890000  0.73260000  1.0 0.1020116362
H  H89  1  0.57910000  0.01310000  0.73440000  1.0 0.1020116362
H  H90  1  0.51870000  0.10370000  0.67750000  1.0 0.1102108987
H  H91  1  0.44670000  0.72170000  0.76650000  1.0 0.1102108987
H  H92  1  0.49190000  0.63910000  0.82560000  1.0 0.1303483281
H  H93  1  0.60900000  0.89880000  0.85970000  1.0 0.1196695769
H  H94  1  0.56530000  0.98150000  0.80000000  1.0 0.1020116362
H  H95  1  0.08830000  0.66270000  0.53960000  1.0 0.1397384644
H  H96  1  0.90440000  0.43900000  0.57230000  1.0 0.0908045757
H  H97  1  0.90080000  0.42320000  0.52950000  1.0 0.0801584541
H  H98  1  0.85510000  0.52150000  0.54130000  1.0 0.1303483281
H  H99  1  0.16640000  0.50400000  0.54960000  1.0 0.0801584541
H  H100  1  0.09670000  0.41110000  0.53580000  1.0 0.069057159
H  H101  1  0.10850000  0.42970000  0.57850000  1.0 0.0908045757
H  H102  1  0.00840000  0.61360000  0.56470000  1.0 0.1102108987
H  H103  1  0.77980000  0.48900000  0.51090000  1.0 0.1102108987
H  H104  1  0.85930000  0.47150000  0.48300000  1.0 0.069057159
H  H105  1  0.83000000  0.58360000  0.48760000  1.0 0.0908045757
H  H106  1  0.01650000  0.43750000  0.57290000  1.0 0.0908045757
H  H107  1  0.96970000  0.37310000  0.54030000  1.0 0.0801584541
H  H108  1  0.90020000  0.39980000  0.57030000  1.0 0.0801584541
H  H109  1  0.69860000  0.35960000  0.09640000  1.0 0.1196695769
H  H110  1  0.73320000  0.25780000  0.99740000  1.0 0.1303483281
H  H111  1  0.91740000  0.16040000  0.09080000  1.0 0.1303483281
H  H112  1  0.97700000  0.19840000  0.14480000  1.0 0.1196695769
H  H113  1  0.01050000  0.17390000  0.20880000  1.0 0.1102108987
H  H114  1  0.74430000  0.29350000  0.21910000  1.0 0.1102108987
H  H115  1  0.70780000  0.31220000  0.15430000  1.0 0.1196695769
H  H116  1  0.98770000  0.08850000  0.26550000  1.0 0.1102108987
H  H117  1  0.02980000  0.06400000  0.32950000  1.0 0.1196695769
H  H118  1  0.87130000  0.30870000  0.34130000  1.0 0.1196695769
H  H119  1  0.82850000  0.33370000  0.27650000  1.0 0.1102108987
H  H120  1  0.98560000  0.22700000  0.88360000  1.0 0.1196695769
H  H121  1  0.21980000  0.42600000  0.85690000  1.0 0.1102108987
H  H122  1  0.25070000  0.23150000  0.95220000  1.0 0.1397384644
H  H123  1  0.92960000  0.25520000  0.82430000  1.0 0.1102108987
H  H124  1  0.83890000  0.31570000  0.76740000  1.0 0.1020116362
H  H125  1  0.01310000  0.57910000  0.76560000  1.0 0.1020116362
H  H126  1  0.10370000  0.51870000  0.82250000  1.0 0.1102108987
H  H127  1  0.72170000  0.44670000  0.73350000  1.0 0.1102108987
H  H128  1  0.63910000  0.49190000  0.67440000  1.0 0.1303483281
H  H129  1  0.89880000  0.60900000  0.64030000  1.0 0.1196695769
H  H130  1  0.98150000  0.56530000  0.70000000  1.0 0.1020116362
H  H131  1  0.66270000  0.08830000  0.96040000  1.0 0.1397384644
H  H132  1  0.43900000  0.90440000  0.92770000  1.0 0.0908045757
H  H133  1  0.42320000  0.90080000  0.97050000  1.0 0.0801584541
H  H134  1  0.52150000  0.85510000  0.95870000  1.0 0.1303483281
H  H135  1  0.50400000  0.16640000  0.95040000  1.0 0.0801584541
H  H136  1  0.41110000  0.09670000  0.96420000  1.0 0.069057159
H  H137  1  0.42970000  0.10850000  0.92150000  1.0 0.0908045757
H  H138  1  0.61360000  0.00840000  0.93530000  1.0 0.1102108987
H  H139  1  0.48900000  0.77980000  0.98910000  1.0 0.1102108987
H  H140  1  0.47150000  0.85930000  0.01700000  1.0 0.069057159
H  H141  1  0.58360000  0.83000000  0.01240000  1.0 0.0908045757
H  H142  1  0.43750000  0.01650000  0.92710000  1.0 0.0908045757
H  H143  1  0.37310000  0.96970000  0.95970000  1.0 0.0801584541
H  H144  1  0.39980000  0.90020000  0.92970000  1.0 0.0801584541
C  C1  1  0.74240000  0.18860000  0.60090000  1.0 0.069057159
C  C2  1  0.68120000  0.26720000  0.58264000  1.0 -0.1579530696
C  C3  1  0.68050000  0.29470000  0.54385000  1.0 -0.0277806707
C  C4  1  0.74150000  0.24650000  0.52304000  1.0 -0.1377259627
C  C5  1  0.80230000  0.16690000  0.54081000  1.0 -0.0277806707
C  C6  1  0.80100000  0.13740000  0.57928000  1.0 -0.1579530696
C  C7  1  0.61070000  0.37710000  0.52402000  1.0 0.65661619
C  C8  1  0.86940000  0.11440000  0.51860000  1.0 0.6391668781
C  C9  1  0.74710000  0.16230000  0.64260000  1.0 0.069057159
C  C10  1  0.78420000  0.07180000  0.65962000  1.0 -0.1318645537
C  C11  1  0.79650000  0.05070000  0.69828000  1.0 -0.1495489357
C  C12  1  0.76740000  0.11520000  0.72176000  1.0 0.0607356369
C  C13  1  0.72670000  0.20830000  0.70430000  1.0 -0.1495489357
C  C14  1  0.71600000  0.23080000  0.66527000  1.0 -0.1318645537
C  C15  1  0.78390000  0.09170000  0.76358000  1.0 0.069057159
C  C16  1  0.86550000  0.03430000  0.78048000  1.0 -0.1579530696
C  C17  1  0.88020000  0.00880000  0.81899000  1.0 -0.0934456657
C  C18  1  0.81370000  0.03970000  0.84194000  1.0 -0.0277806707
C  C19  1  0.73440000  0.10340000  0.82588000  1.0 -0.0934456657
C  C20  1  0.71940000  0.12920000  0.78698000  1.0 -0.1669268332
C  C21  1  0.82880000  0.00780000  0.88337000  1.0 0.5534706205
C  C22  1  0.86680000  0.93260000  0.44897000  1.0 0.6391668781
C  C23  1  0.78250000  0.88850000  0.42202000  1.0 -0.0277806707
C  C24  1  0.74520000  0.94800000  0.38902000  1.0 -0.1495489357
C  C25  1  0.66640000  0.90880000  0.36386000  1.0 0.0607356369
C  C26  1  0.62630000  0.80770000  0.37310000  1.0 -0.1495489357
C  C27  1  0.66400000  0.74840000  0.40605000  1.0 -0.0277806707
C  C28  1  0.74260000  0.78900000  0.43032000  1.0 -0.1009144564
C  C29  1  0.61940000  0.64160000  0.41521000  1.0 0.5614406853
C  C30  1  0.61900000  0.97440000  0.32906000  1.0 0.069057159
C  C31  1  0.67990000  0.05370000  0.31255000  1.0 -0.1377259627
C  C32  1  0.64360000  0.10800000  0.27846000  1.0 -0.1495489357
C  C33  1  0.54660000  0.08300000  0.26087000  1.0 0.069057159
C  C34  1  0.48580000  0.00360000  0.27738000  1.0 -0.1495489357
C  C35  1  0.52200000  0.94940000  0.31148000  1.0 -0.1495489357
C  C36  1  0.51590000  0.13630000  0.22120000  1.0 0.0801584541
C  C37  1  0.52670000  0.23970000  0.21410000  1.0 -0.1579530696
C  C38  1  0.49900000  0.28960000  0.17840000  1.0 -0.1009144564
C  C39  1  0.45910000  0.23750000  0.14908000  1.0 -0.0277806707
C  C40  1  0.42990000  0.13710000  0.15830000  1.0 -0.10530383
C  C41  1  0.45710000  0.08670000  0.19440000  1.0 -0.1579530696
C  C42  1  0.43040000  0.29260000  0.11040000  1.0 0.6014441639
C  C43  1  0.97780000  0.36780000  0.46080000  1.0 0.1813297175
C  C44  1  0.09130000  0.52690000  0.45260000  1.0 -0.0225655468
C  C45  1  0.89560000  0.53740000  0.44690000  1.0 -0.3752426118
C  C46  1  0.04100000  0.38560000  0.45620000  1.0 0.2543461114
C  C47  1  0.15870000  0.48390000  0.49950000  1.0 -0.3642100603
C  C48  1  0.04400000  0.57580000  0.44400000  1.0 -0.1579530696
C  C49  1  0.18860000  0.74240000  0.89910000  1.0 0.069057159
C  C50  1  0.26720000  0.68120000  0.91736000  1.0 -0.1579530696
C  C51  1  0.29470000  0.68050000  0.95615000  1.0 -0.0277806707
C  C52  1  0.24650000  0.74150000  0.97696000  1.0 -0.1377259627
C  C53  1  0.16690000  0.80230000  0.95919000  1.0 -0.0277806707
C  C54  1  0.13740000  0.80100000  0.92072000  1.0 -0.1579530696
C  C55  1  0.37710000  0.61070000  0.97598000  1.0 0.65661619
C  C56  1  0.11440000  0.86940000  0.98140000  1.0 0.6391668781
C  C57  1  0.16230000  0.74710000  0.85740000  1.0 0.069057159
C  C58  1  0.07180000  0.78420000  0.84038000  1.0 -0.1318645537
C  C59  1  0.05070000  0.79650000  0.80172000  1.0 -0.1495489357
C  C60  1  0.11520000  0.76740000  0.77824000  1.0 0.0607356369
C  C61  1  0.20830000  0.72670000  0.79570000  1.0 -0.1495489357
C  C62  1  0.23080000  0.71600000  0.83473000  1.0 -0.1318645537
C  C63  1  0.09170000  0.78390000  0.73642000  1.0 0.069057159
C  C64  1  0.03430000  0.86550000  0.71952000  1.0 -0.1579530696
C  C65  1  0.00880000  0.88020000  0.68101000  1.0 -0.0934456657
C  C66  1  0.03970000  0.81370000  0.65806000  1.0 -0.0277806707
C  C67  1  0.10340000  0.73440000  0.67412000  1.0 -0.0934456657
C  C68  1  0.12920000  0.71940000  0.71302000  1.0 -0.1669268332
C  C69  1  0.00780000  0.82880000  0.61663000  1.0 0.5534706205
C  C70  1  0.93260000  0.86680000  0.05103000  1.0 0.6391668781
C  C71  1  0.88850000  0.78250000  0.07798000  1.0 -0.0277806707
C  C72  1  0.94800000  0.74520000  0.11098000  1.0 -0.1495489357
C  C73  1  0.90880000  0.66640000  0.13614000  1.0 0.0607356369
C  C74  1  0.80770000  0.62630000  0.12690000  1.0 -0.1495489357
C  C75  1  0.74840000  0.66400000  0.09395000  1.0 -0.0277806707
C  C76  1  0.78900000  0.74260000  0.06968000  1.0 -0.1009144564
C  C77  1  0.64160000  0.61940000  0.08479000  1.0 0.5614406853
C  C78  1  0.97440000  0.61900000  0.17094000  1.0 0.069057159
C  C79  1  0.05370000  0.67990000  0.18745000  1.0 -0.1377259627
C  C80  1  0.10800000  0.64360000  0.22154000  1.0 -0.1495489357
C  C81  1  0.08300000  0.54660000  0.23913000  1.0 0.069057159
C  C82  1  0.00360000  0.48580000  0.22262000  1.0 -0.1495489357
C  C83  1  0.94940000  0.52200000  0.18852000  1.0 -0.1495489357
C  C84  1  0.13630000  0.51590000  0.27880000  1.0 0.0801584541
C  C85  1  0.23970000  0.52670000  0.28590000  1.0 -0.1579530696
C  C86  1  0.28960000  0.49900000  0.32160000  1.0 -0.1009144564
C  C87  1  0.23750000  0.45910000  0.35092000  1.0 -0.0277806707
C  C88  1  0.13710000  0.42990000  0.34170000  1.0 -0.10530383
C  C89  1  0.08670000  0.45710000  0.30560000  1.0 -0.1579530696
C  C90  1  0.29260000  0.43040000  0.38960000  1.0 0.6014441639
C  C91  1  0.36780000  0.97780000  0.03920000  1.0 0.1813297175
C  C92  1  0.52690000  0.09130000  0.04740000  1.0 -0.0225655468
C  C93  1  0.53740000  0.89560000  0.05310000  1.0 -0.3752426118
C  C94  1  0.38560000  0.04100000  0.04380000  1.0 0.2543461114
C  C95  1  0.48390000  0.15870000  0.00050000  1.0 -0.3642100603
C  C96  1  0.57580000  0.04400000  0.05600000  1.0 -0.1579530696
C  C97  1  0.25760000  0.81140000  0.39910000  1.0 0.069057159
C  C98  1  0.31880000  0.73280000  0.41736000  1.0 -0.1579530696
C  C99  1  0.31950000  0.70530000  0.45615000  1.0 -0.0277806707
C  C100  1  0.25850000  0.75350000  0.47696000  1.0 -0.1377259627
C  C101  1  0.19770000  0.83310000  0.45919000  1.0 -0.0277806707
C  C102  1  0.19900000  0.86260000  0.42072000  1.0 -0.1579530696
C  C103  1  0.38930000  0.62290000  0.47598000  1.0 0.65661619
C  C104  1  0.13060000  0.88560000  0.48140000  1.0 0.6391668781
C  C105  1  0.25290000  0.83770000  0.35740000  1.0 0.069057159
C  C106  1  0.21580000  0.92820000  0.34038000  1.0 -0.1318645537
C  C107  1  0.20350000  0.94930000  0.30172000  1.0 -0.1495489357
C  C108  1  0.23260000  0.88480000  0.27824000  1.0 0.0607356369
C  C109  1  0.27330000  0.79170000  0.29570000  1.0 -0.1495489357
C  C110  1  0.28400000  0.76920000  0.33473000  1.0 -0.1318645537
C  C111  1  0.21610000  0.90830000  0.23642000  1.0 0.069057159
C  C112  1  0.13450000  0.96570000  0.21952000  1.0 -0.1579530696
C  C113  1  0.11980000  0.99120000  0.18101000  1.0 -0.0934456657
C  C114  1  0.18630000  0.96030000  0.15806000  1.0 -0.0277806707
C  C115  1  0.26560000  0.89660000  0.17412000  1.0 -0.0934456657
C  C116  1  0.28060000  0.87080000  0.21302000  1.0 -0.1669268332
C  C117  1  0.17120000  0.99220000  0.11663000  1.0 0.5534706205
C  C118  1  0.13320000  0.06740000  0.55103000  1.0 0.6391668781
C  C119  1  0.21750000  0.11150000  0.57798000  1.0 -0.0277806707
C  C120  1  0.25480000  0.05200000  0.61098000  1.0 -0.1495489357
C  C121  1  0.33360000  0.09120000  0.63614000  1.0 0.0607356369
C  C122  1  0.37370000  0.19230000  0.62690000  1.0 -0.1495489357
C  C123  1  0.33600000  0.25160000  0.59395000  1.0 -0.0277806707
C  C124  1  0.25740000  0.21100000  0.56968000  1.0 -0.1009144564
C  C125  1  0.38060000  0.35840000  0.58479000  1.0 0.5614406853
C  C126  1  0.38100000  0.02560000  0.67094000  1.0 0.069057159
C  C127  1  0.32010000  0.94630000  0.68745000  1.0 -0.1377259627
C  C128  1  0.35640000  0.89200000  0.72154000  1.0 -0.1495489357
C  C129  1  0.45340000  0.91700000  0.73913000  1.0 0.069057159
C  C130  1  0.51420000  0.99640000  0.72262000  1.0 -0.1495489357
C  C131  1  0.47800000  0.05060000  0.68852000  1.0 -0.1495489357
C  C132  1  0.48410000  0.86370000  0.77880000  1.0 0.0801584541
C  C133  1  0.47330000  0.76030000  0.78590000  1.0 -0.1579530696
C  C134  1  0.50100000  0.71040000  0.82160000  1.0 -0.1009144564
C  C135  1  0.54090000  0.76250000  0.85092000  1.0 -0.0277806707
C  C136  1  0.57010000  0.86290000  0.84170000  1.0 -0.10530383
C  C137  1  0.54290000  0.91330000  0.80560000  1.0 -0.1579530696
C  C138  1  0.56960000  0.70740000  0.88960000  1.0 0.6014441639
C  C139  1  0.02220000  0.63220000  0.53920000  1.0 0.1813297175
C  C140  1  0.90870000  0.47310000  0.54740000  1.0 -0.0225655468
C  C141  1  0.10440000  0.46260000  0.55310000  1.0 -0.3735613436
C  C142  1  0.95900000  0.61440000  0.54380000  1.0 0.2543461114
C  C143  1  0.84130000  0.51610000  0.50050000  1.0 -0.3642100603
C  C144  1  0.95600000  0.42420000  0.55600000  1.0 -0.1579530696
C  C145  1  0.81140000  0.25760000  0.10090000  1.0 0.069057159
C  C146  1  0.73280000  0.31880000  0.08264000  1.0 -0.1579530696
C  C147  1  0.70530000  0.31950000  0.04385000  1.0 -0.0277806707
C  C148  1  0.75350000  0.25850000  0.02304000  1.0 -0.1377259627
C  C149  1  0.83310000  0.19770000  0.04081000  1.0 -0.0277806707
C  C150  1  0.86260000  0.19900000  0.07928000  1.0 -0.1579530696
C  C151  1  0.62290000  0.38930000  0.02402000  1.0 0.65661619
C  C152  1  0.88560000  0.13060000  0.01860000  1.0 0.6391668781
C  C153  1  0.83770000  0.25290000  0.14260000  1.0 0.069057159
C  C154  1  0.92820000  0.21580000  0.15962000  1.0 -0.1318645537
C  C155  1  0.94930000  0.20350000  0.19828000  1.0 -0.1495489357
C  C156  1  0.88480000  0.23260000  0.22176000  1.0 0.0607356369
C  C157  1  0.79170000  0.27330000  0.20430000  1.0 -0.1495489357
C  C158  1  0.76920000  0.28400000  0.16527000  1.0 -0.1318645537
C  C159  1  0.90830000  0.21610000  0.26358000  1.0 0.069057159
C  C160  1  0.96570000  0.13450000  0.28048000  1.0 -0.1579530696
C  C161  1  0.99120000  0.11980000  0.31899000  1.0 -0.0934456657
C  C162  1  0.96030000  0.18630000  0.34194000  1.0 -0.0277806707
C  C163  1  0.89660000  0.26560000  0.32588000  1.0 -0.0934456657
C  C164  1  0.87080000  0.28060000  0.28698000  1.0 -0.1669268332
C  C165  1  0.99220000  0.17120000  0.38337000  1.0 0.5534706205
C  C166  1  0.06740000  0.13320000  0.94897000  1.0 0.6391668781
C  C167  1  0.11150000  0.21750000  0.92202000  1.0 -0.0277806707
C  C168  1  0.05200000  0.25480000  0.88902000  1.0 -0.1495489357
C  C169  1  0.09120000  0.33360000  0.86386000  1.0 0.0607356369
C  C170  1  0.19230000  0.37370000  0.87310000  1.0 -0.1495489357
C  C171  1  0.25160000  0.33600000  0.90605000  1.0 -0.0277806707
C  C172  1  0.21100000  0.25740000  0.93032000  1.0 -0.1009144564
C  C173  1  0.35840000  0.38060000  0.91521000  1.0 0.5614406853
C  C174  1  0.02560000  0.38100000  0.82906000  1.0 0.069057159
C  C175  1  0.94630000  0.32010000  0.81255000  1.0 -0.1377259627
C  C176  1  0.89200000  0.35640000  0.77846000  1.0 -0.1495489357
C  C177  1  0.91700000  0.45340000  0.76087000  1.0 0.069057159
C  C178  1  0.99640000  0.51420000  0.77738000  1.0 -0.1495489357
C  C179  1  0.05060000  0.47800000  0.81148000  1.0 -0.1495489357
C  C180  1  0.86370000  0.48410000  0.72120000  1.0 0.0801584541
C  C181  1  0.76030000  0.47330000  0.71410000  1.0 -0.1579530696
C  C182  1  0.71040000  0.50100000  0.67840000  1.0 -0.1009144564
C  C183  1  0.76250000  0.54090000  0.64908000  1.0 -0.0277806707
C  C184  1  0.86290000  0.57010000  0.65830000  1.0 -0.10530383
C  C185  1  0.91330000  0.54290000  0.69440000  1.0 -0.1579530696
C  C186  1  0.70740000  0.56960000  0.61040000  1.0 0.6014441639
C  C187  1  0.63220000  0.02220000  0.96080000  1.0 0.1813297175
C  C188  1  0.47310000  0.90870000  0.95260000  1.0 -0.0225655468
C  C189  1  0.46260000  0.10440000  0.94690000  1.0 -0.3735613436
C  C190  1  0.61440000  0.95900000  0.95620000  1.0 0.2543461114
C  C191  1  0.51610000  0.84130000  0.99950000  1.0 -0.3642100603
C  C192  1  0.42420000  0.95600000  0.94400000  1.0 -0.1579530696
N  N1  1  0.98700000  0.46980000  0.45430000  1.0 0.0908045757
N  N2  1  0.07270000  0.47750000  0.46840000  1.0 0.1020116362
N  N3  1  0.46980000  0.98700000  0.04570000  1.0 0.1020116362
N  N4  1  0.47750000  0.07270000  0.03160000  1.0 0.1020116362
N  N5  1  0.01300000  0.53020000  0.54570000  1.0 0.1020116362
N  N6  1  0.92730000  0.52250000  0.53160000  1.0 0.1020116362
N  N7  1  0.53020000  0.01300000  0.95430000  1.0 0.1020116362
N  N8  1  0.52250000  0.92730000  0.96840000  1.0 0.1020116362
O  O1  1  0.61300000  0.39720000  0.48913000  1.0 -0.737450859
O  O2  1  0.55560000  0.41860000  0.54349000  1.0 -0.6830902606
O  O3  1  0.90019000  0.16641000  0.49004000  1.0 -0.6695249588
O  O4  1  0.89080000  0.02300000  0.53014000  1.0 -0.6973242596
O  O5  1  0.77750000  0.04750000  0.90530000  1.0 -0.6465752334
O  O6  1  0.89230000  0.93970000  0.89577000  1.0 -0.6218308271
O  O7  1  0.89369000  0.87491000  0.47850000  1.0 -0.6695249588
O  O8  1  0.90340000  0.02060000  0.43970000  1.0 -0.6395619124
O  O9  1  0.64830000  0.59230000  0.44699000  1.0 -0.6340987891
O  O10  1  0.55310000  0.60270000  0.39187000  1.0 -0.6623275489
O  O11  1  0.39890000  0.24110000  0.08393000  1.0 -0.5507188052
O  O12  1  0.44030000  0.38790000  0.10751000  1.0 -0.6973242596
O  O13  1  0.05090000  0.31130000  0.46740000  1.0 -0.3224072739
O  O14  1  0.07140000  0.30200000  0.47010000  1.0 -0.4512380273
O  O15  1  0.39720000  0.61300000  0.01087000  1.0 -0.737450859
O  O16  1  0.41860000  0.55560000  0.95651000  1.0 -0.6830902606
O  O17  1  0.16641000  0.90019000  0.00996000  1.0 -0.6695249588
O  O18  1  0.02300000  0.89080000  0.96986000  1.0 -0.6973242596
O  O19  1  0.04750000  0.77750000  0.59470000  1.0 -0.6465752334
O  O20  1  0.93970000  0.89230000  0.60423000  1.0 -0.6218308271
O  O21  1  0.87491000  0.89369000  0.02150000  1.0 -0.6695249588
O  O22  1  0.02060000  0.90340000  0.06030000  1.0 -0.6395619124
O  O23  1  0.59230000  0.64830000  0.05301000  1.0 -0.6340987891
O  O24  1  0.60270000  0.55310000  0.10813000  1.0 -0.6623275489
O  O25  1  0.24110000  0.39890000  0.41607000  1.0 -0.5507188052
O  O26  1  0.38790000  0.44030000  0.39249000  1.0 -0.6973242596
O  O27  1  0.31130000  0.05090000  0.03260000  1.0 -0.3224072739
O  O28  1  0.30200000  0.07140000  0.02990000  1.0 -0.4512380273
O  O29  1  0.38700000  0.60280000  0.51087000  1.0 -0.737450859
O  O30  1  0.44440000  0.58140000  0.45651000  1.0 -0.6830902606
O  O31  1  0.09981000  0.83359000  0.50996000  1.0 -0.6695249588
O  O32  1  0.10920000  0.97700000  0.46986000  1.0 -0.6973242596
O  O33  1  0.22250000  0.95250000  0.09470000  1.0 -0.6465752334
O  O34  1  0.10770000  0.06030000  0.10423000  1.0 -0.6218308271
O  O35  1  0.10631000  0.12509000  0.52150000  1.0 -0.6695249588
O  O36  1  0.09660000  0.97940000  0.56030000  1.0 -0.6395619124
O  O37  1  0.35170000  0.40770000  0.55301000  1.0 -0.6340987891
O  O38  1  0.44690000  0.39730000  0.60813000  1.0 -0.6623275489
O  O39  1  0.60110000  0.75890000  0.91607000  1.0 -0.5507188052
O  O40  1  0.55970000  0.61210000  0.89249000  1.0 -0.6973242596
O  O41  1  0.94910000  0.68870000  0.53260000  1.0 -0.3224072739
O  O42  1  0.92860000  0.69800000  0.52990000  1.0 -0.4512380273
O  O43  1  0.60280000  0.38700000  0.98913000  1.0 -0.737450859
O  O44  1  0.58140000  0.44440000  0.04349000  1.0 -0.6830902606
O  O45  1  0.83359000  0.09981000  0.99004000  1.0 -0.6695249588
O  O46  1  0.97700000  0.10920000  0.03014000  1.0 -0.6973242596
O  O47  1  0.95250000  0.22250000  0.40530000  1.0 -0.6465752334
O  O48  1  0.06030000  0.10770000  0.39577000  1.0 -0.6218308271
O  O49  1  0.12509000  0.10631000  0.97850000  1.0 -0.6695249588
O  O50  1  0.97940000  0.09660000  0.93970000  1.0 -0.6395619124
O  O51  1  0.40770000  0.35170000  0.94699000  1.0 -0.6340987891
O  O52  1  0.39730000  0.44690000  0.89187000  1.0 -0.6623275489
O  O53  1  0.75890000  0.60110000  0.58393000  1.0 -0.5507188052
O  O54  1  0.61210000  0.55970000  0.60751000  1.0 -0.6973242596
O  O55  1  0.68870000  0.94910000  0.96740000  1.0 -0.3224072739
O  O56  1  0.69800000  0.92860000  0.97010000  1.0 -0.4512380273
