# DDEC6 charges by PACMAN v1.1 (https://github.com/mtap-research/PACMAN-charge/)
data_RORBAE03_ASR_pacman
_symmetry_space_group_name_H-M   'P 1'
_cell_length_a   25.06480000
_cell_length_b   22.03250000
_cell_length_c   16.48990000
_cell_angle_alpha   79.76570000
_cell_angle_beta   59.88670000
_cell_angle_gamma   40.34770000
_symmetry_Int_Tables_number   1
_chemical_formula_structural   Zr3H48(C35O6)2
_chemical_formula_sum   'Zr6 H96 C140 O24'
_cell_volume   4747.12702707
_cell_formula_units_Z   2
loop_
 _symmetry_equiv_pos_site_id
 _symmetry_equiv_pos_as_xyz
  1  'x, y, z'
loop_
 _atom_site_type_symbol
 _atom_site_label
 _atom_site_symmetry_multiplicity
 _atom_site_fract_x
 _atom_site_fract_y
 _atom_site_fract_z
 _atom_site_occupancy
 _atom_site_charge
Zr  Zr1  1  0.55987000  0.55987000  0.44013000  1.0 2.3612835077
Zr  Zr2  1  0.44013000  0.44013000  0.55987000  1.0 2.3612835077
Zr  Zr3  1  0.67131000  0.32869000  0.45123000  1.0 2.4812625317
Zr  Zr4  1  0.32869000  0.67131000  0.54877000  1.0 2.4812625317
Zr  Zr5  1  0.45123000  0.54877000  0.67131000  1.0 2.4812625317
Zr  Zr6  1  0.54877000  0.45123000  0.32869000  1.0 2.4812625317
H  H1  1  0.85310000  0.42970000  0.25930000  1.0 0.126701227
H  H2  1  0.00590000  0.35730000  0.18510000  1.0 0.1090103265
H  H3  1  0.10030000  0.13510000  0.28870000  1.0 0.1188695116
H  H4  1  0.95230000  0.20010000  0.35410000  1.0 0.1188695116
H  H5  1  0.18080000  0.22480000  0.05360000  1.0 0.1005275031
H  H6  1  0.34100000  0.14020000  0.97460000  1.0 0.1005275031
H  H7  1  0.32690000  0.09050000  0.22670000  1.0 0.0819948135
H  H8  1  0.17180000  0.16760000  0.30000000  1.0 0.0709232582
H  H9  1  0.12850000  0.30830000  0.16990000  1.0 0.1005275031
H  H10  1  0.28190000  0.23090000  0.10030000  1.0 0.0898203352
H  H11  1  0.40690000  0.96490000  0.09330000  1.0 0.0898203352
H  H12  1  0.24910000  0.04290000  0.16970000  1.0 0.0898203352
H  H13  1  0.42970000  0.85310000  0.45790000  1.0 0.126701227
H  H14  1  0.35730000  0.00590000  0.45170000  1.0 0.1090103265
H  H15  1  0.13510000  0.10030000  0.47590000  1.0 0.1188695116
H  H16  1  0.20010000  0.95230000  0.49350000  1.0 0.1188695116
H  H17  1  0.22480000  0.18080000  0.54080000  1.0 0.1005275031
H  H18  1  0.14020000  0.34100000  0.54420000  1.0 0.1005275031
H  H19  1  0.09050000  0.32690000  0.35590000  1.0 0.0819948135
H  H20  1  0.16760000  0.17180000  0.36060000  1.0 0.0709232582
H  H21  1  0.30830000  0.12850000  0.39330000  1.0 0.1005275031
H  H22  1  0.23090000  0.28190000  0.38690000  1.0 0.0898203352
H  H23  1  0.96490000  0.40690000  0.53490000  1.0 0.0898203352
H  H24  1  0.04290000  0.24910000  0.53830000  1.0 0.0898203352
H  H25  1  0.25930000  0.45790000  0.85310000  1.0 0.126701227
H  H26  1  0.18510000  0.45170000  0.00590000  1.0 0.1090103265
H  H27  1  0.28870000  0.47590000  0.10030000  1.0 0.1188695116
H  H28  1  0.35410000  0.49350000  0.95230000  1.0 0.1188695116
H  H29  1  0.05360000  0.54080000  0.18080000  1.0 0.1005275031
H  H30  1  0.97460000  0.54420000  0.34100000  1.0 0.1005275031
H  H31  1  0.22670000  0.35590000  0.32690000  1.0 0.0819948135
H  H32  1  0.30000000  0.36060000  0.17180000  1.0 0.0709232582
H  H33  1  0.16990000  0.39330000  0.12850000  1.0 0.1005275031
H  H34  1  0.10030000  0.38690000  0.28190000  1.0 0.0898203352
H  H35  1  0.09330000  0.53490000  0.40690000  1.0 0.0898203352
H  H36  1  0.16970000  0.53830000  0.24910000  1.0 0.0898203352
H  H37  1  0.45790000  0.25930000  0.42970000  1.0 0.126701227
H  H38  1  0.45170000  0.18510000  0.35730000  1.0 0.1090103265
H  H39  1  0.47590000  0.28870000  0.13510000  1.0 0.1188695116
H  H40  1  0.49350000  0.35410000  0.20010000  1.0 0.1188695116
H  H41  1  0.54080000  0.05360000  0.22480000  1.0 0.1005275031
H  H42  1  0.54420000  0.97460000  0.14020000  1.0 0.1005275031
H  H43  1  0.35590000  0.22670000  0.09050000  1.0 0.0819948135
H  H44  1  0.36060000  0.30000000  0.16760000  1.0 0.0709232582
H  H45  1  0.39330000  0.16990000  0.30830000  1.0 0.1005275031
H  H46  1  0.38690000  0.10030000  0.23090000  1.0 0.0898203352
H  H47  1  0.53490000  0.09330000  0.96490000  1.0 0.0898203352
H  H48  1  0.53830000  0.16970000  0.04290000  1.0 0.0898203352
H  H49  1  0.14690000  0.57030000  0.74070000  1.0 0.126701227
H  H50  1  0.99410000  0.64270000  0.81490000  1.0 0.1090103265
H  H51  1  0.89970000  0.86490000  0.71130000  1.0 0.1188695116
H  H52  1  0.04770000  0.79990000  0.64590000  1.0 0.1090103265
H  H53  1  0.81920000  0.77520000  0.94640000  1.0 0.1005275031
H  H54  1  0.65900000  0.85980000  0.02540000  1.0 0.1005275031
H  H55  1  0.67310000  0.90950000  0.77330000  1.0 0.0819948135
H  H56  1  0.82820000  0.83240000  0.70000000  1.0 0.0709232582
H  H57  1  0.87150000  0.69170000  0.83010000  1.0 0.1005275031
H  H58  1  0.71810000  0.76910000  0.89970000  1.0 0.0898203352
H  H59  1  0.59310000  0.03510000  0.90670000  1.0 0.0898203352
H  H60  1  0.75090000  0.95710000  0.83030000  1.0 0.0898203352
H  H61  1  0.57030000  0.14690000  0.54210000  1.0 0.126701227
H  H62  1  0.64270000  0.99410000  0.54830000  1.0 0.1090103265
H  H63  1  0.86490000  0.89970000  0.52410000  1.0 0.1188695116
H  H64  1  0.79990000  0.04770000  0.50650000  1.0 0.1188695116
H  H65  1  0.77520000  0.81920000  0.45920000  1.0 0.1005275031
H  H66  1  0.85980000  0.65900000  0.45580000  1.0 0.1005275031
H  H67  1  0.90950000  0.67310000  0.64410000  1.0 0.0819948135
H  H68  1  0.83240000  0.82820000  0.63940000  1.0 0.0709232582
H  H69  1  0.69170000  0.87150000  0.60670000  1.0 0.1005275031
H  H70  1  0.76910000  0.71810000  0.61310000  1.0 0.0898203352
H  H71  1  0.03510000  0.59310000  0.46510000  1.0 0.0898203352
H  H72  1  0.95710000  0.75090000  0.46170000  1.0 0.0898203352
H  H73  1  0.74070000  0.54210000  0.14690000  1.0 0.126701227
H  H74  1  0.81490000  0.54830000  0.99410000  1.0 0.1090103265
H  H75  1  0.71130000  0.52410000  0.89970000  1.0 0.1188695116
H  H76  1  0.64590000  0.50650000  0.04770000  1.0 0.1188695116
H  H77  1  0.94640000  0.45920000  0.81920000  1.0 0.1005275031
H  H78  1  0.02540000  0.45580000  0.65900000  1.0 0.1005275031
H  H79  1  0.77330000  0.64410000  0.67310000  1.0 0.0819948135
H  H80  1  0.70000000  0.63940000  0.82820000  1.0 0.0709232582
H  H81  1  0.83010000  0.60670000  0.87150000  1.0 0.1005275031
H  H82  1  0.89970000  0.61310000  0.71810000  1.0 0.0898203352
H  H83  1  0.90670000  0.46510000  0.59310000  1.0 0.0898203352
H  H84  1  0.83030000  0.46170000  0.75090000  1.0 0.0898203352
H  H85  1  0.54210000  0.74070000  0.57030000  1.0 0.126701227
H  H86  1  0.54830000  0.81490000  0.64270000  1.0 0.1090103265
H  H87  1  0.52410000  0.71130000  0.86490000  1.0 0.1188695116
H  H88  1  0.50650000  0.64590000  0.79990000  1.0 0.1188695116
H  H89  1  0.45920000  0.94640000  0.77520000  1.0 0.1005275031
H  H90  1  0.45580000  0.02540000  0.85980000  1.0 0.1005275031
H  H91  1  0.64410000  0.77330000  0.90950000  1.0 0.0819948135
H  H92  1  0.63940000  0.70000000  0.83240000  1.0 0.0709232582
H  H93  1  0.60670000  0.83010000  0.69170000  1.0 0.1005275031
H  H94  1  0.61310000  0.89970000  0.76910000  1.0 0.0898203352
H  H95  1  0.46510000  0.90670000  0.03510000  1.0 0.0898203352
H  H96  1  0.46170000  0.83030000  0.95710000  1.0 0.0898203352
C  C1  1  0.78992000  0.36718000  0.36082000  1.0 0.6309636501
C  C2  1  0.88753000  0.32195000  0.31325000  1.0 -0.0377579198
C  C3  1  0.90431000  0.36791000  0.26369000  1.0 -0.0913190122
C  C4  1  0.99524000  0.32484000  0.21996000  1.0 -0.1793825379
C  C5  1  0.07024000  0.23654000  0.22606000  1.0 0.0512409011
C  C6  1  0.05128000  0.19368000  0.27952000  1.0 -0.1722836508
C  C7  1  0.96205000  0.23365000  0.32075000  1.0 -0.0913190122
C  C8  1  0.16845000  0.18987000  0.17913000  1.0 0.0439897148
C  C9  1  0.21420000  0.19060000  0.08620000  1.0 -0.0803515133
C  C10  1  0.30890000  0.14170000  0.03970000  1.0 -0.0913190122
C  C11  1  0.35673000  0.09447000  0.08993000  1.0 0.0645952752
C  C12  1  0.30140000  0.11120000  0.18740000  1.0 -0.1016717361
C  C13  1  0.20800000  0.15800000  0.23180000  1.0 -0.1169833224
C  C14  1  0.18370000  0.23830000  0.15630000  1.0 -0.04814057
C  C15  1  0.27630000  0.19170000  0.11330000  1.0 -0.04814057
C  C16  1  0.34920000  0.03520000  0.11000000  1.0 -0.1566307949
C  C17  1  0.25590000  0.08110000  0.15510000  1.0 -0.1169833224
C  C18  1  0.36718000  0.78992000  0.48208000  1.0 0.6309636501
C  C19  1  0.32195000  0.88753000  0.47727000  1.0 -0.0377579198
C  C20  1  0.36791000  0.90431000  0.46409000  1.0 -0.0913190122
C  C21  1  0.32484000  0.99524000  0.45996000  1.0 -0.1793825379
C  C22  1  0.23654000  0.07024000  0.46716000  1.0 0.0512409011
C  C23  1  0.19368000  0.05128000  0.47552000  1.0 -0.1722836508
C  C24  1  0.23365000  0.96205000  0.48355000  1.0 -0.0913190122
C  C25  1  0.18987000  0.16845000  0.46255000  1.0 0.0439897148
C  C26  1  0.19060000  0.21420000  0.50900000  1.0 -0.0803515133
C  C27  1  0.14170000  0.30890000  0.50970000  1.0 -0.0913190122
C  C28  1  0.09447000  0.35673000  0.45887000  1.0 0.0645952752
C  C29  1  0.11120000  0.30140000  0.40000000  1.0 -0.1016717361
C  C30  1  0.15800000  0.20800000  0.40220000  1.0 -0.1169833224
C  C31  1  0.23830000  0.18370000  0.42170000  1.0 -0.04814057
C  C32  1  0.19170000  0.27630000  0.41870000  1.0 -0.04814057
C  C33  1  0.03520000  0.34920000  0.50560000  1.0 -0.1566307949
C  C34  1  0.08110000  0.25590000  0.50790000  1.0 -0.1169833224
C  C35  1  0.36082000  0.48208000  0.78992000  1.0 0.6309636501
C  C36  1  0.31325000  0.47727000  0.88753000  1.0 -0.0377579198
C  C37  1  0.26369000  0.46409000  0.90431000  1.0 -0.0913190122
C  C38  1  0.21996000  0.45996000  0.99524000  1.0 -0.1793825379
C  C39  1  0.22606000  0.46716000  0.07024000  1.0 0.0512409011
C  C40  1  0.27952000  0.47552000  0.05128000  1.0 -0.1722836508
C  C41  1  0.32075000  0.48355000  0.96205000  1.0 -0.0913190122
C  C42  1  0.17913000  0.46255000  0.16845000  1.0 0.0439897148
C  C43  1  0.08620000  0.50900000  0.21420000  1.0 -0.0803515133
C  C44  1  0.03970000  0.50970000  0.30890000  1.0 -0.0913190122
C  C45  1  0.08993000  0.45887000  0.35673000  1.0 0.0645952752
C  C46  1  0.18740000  0.40000000  0.30140000  1.0 -0.1016717361
C  C47  1  0.23180000  0.40220000  0.20800000  1.0 -0.1169833224
C  C48  1  0.15630000  0.42170000  0.18370000  1.0 -0.04814057
C  C49  1  0.11330000  0.41870000  0.27630000  1.0 -0.04814057
C  C50  1  0.11000000  0.50560000  0.34920000  1.0 -0.1566307949
C  C51  1  0.15510000  0.50790000  0.25590000  1.0 -0.1169833224
C  C52  1  0.48208000  0.36082000  0.36718000  1.0 0.6309636501
C  C53  1  0.47727000  0.31325000  0.32195000  1.0 -0.0377579198
C  C54  1  0.46409000  0.26369000  0.36791000  1.0 -0.0913190122
C  C55  1  0.45996000  0.21996000  0.32484000  1.0 -0.1793825379
C  C56  1  0.46716000  0.22606000  0.23654000  1.0 0.0512409011
C  C57  1  0.47552000  0.27952000  0.19368000  1.0 -0.1722836508
C  C58  1  0.48355000  0.32075000  0.23365000  1.0 -0.0913190122
C  C59  1  0.46255000  0.17913000  0.18987000  1.0 0.0439897148
C  C60  1  0.50900000  0.08620000  0.19060000  1.0 -0.0803515133
C  C61  1  0.50970000  0.03970000  0.14170000  1.0 -0.0913190122
C  C62  1  0.45887000  0.08993000  0.09447000  1.0 0.0645952752
C  C63  1  0.40000000  0.18740000  0.11120000  1.0 -0.1016717361
C  C64  1  0.40220000  0.23180000  0.15800000  1.0 -0.1169833224
C  C65  1  0.42170000  0.15630000  0.23830000  1.0 -0.04814057
C  C66  1  0.41870000  0.11330000  0.19170000  1.0 -0.04814057
C  C67  1  0.50560000  0.11000000  0.03520000  1.0 -0.1566307949
C  C68  1  0.50790000  0.15510000  0.08110000  1.0 -0.1169833224
C  C69  1  0.21008000  0.63282000  0.63918000  1.0 0.6309636501
C  C70  1  0.11247000  0.67805000  0.68675000  1.0 -0.0377579198
C  C71  1  0.09569000  0.63209000  0.73631000  1.0 -0.0913190122
C  C72  1  0.00476000  0.67516000  0.78004000  1.0 -0.1793825379
C  C73  1  0.92976000  0.76346000  0.77394000  1.0 0.0512409011
C  C74  1  0.94872000  0.80632000  0.72048000  1.0 -0.1722836508
C  C75  1  0.03795000  0.76635000  0.67925000  1.0 -0.0913190122
C  C76  1  0.83155000  0.81013000  0.82087000  1.0 0.0439897148
C  C77  1  0.78580000  0.80940000  0.91380000  1.0 -0.0803515133
C  C78  1  0.69110000  0.85830000  0.96030000  1.0 -0.0913190122
C  C79  1  0.64327000  0.90553000  0.91007000  1.0 0.0645952752
C  C80  1  0.69860000  0.88880000  0.81260000  1.0 -0.1016717361
C  C81  1  0.79200000  0.84200000  0.76820000  1.0 -0.1169833224
C  C82  1  0.81630000  0.76170000  0.84370000  1.0 -0.04814057
C  C83  1  0.72370000  0.80830000  0.88670000  1.0 -0.04814057
C  C84  1  0.65080000  0.96480000  0.89000000  1.0 -0.1566307949
C  C85  1  0.74410000  0.91890000  0.84490000  1.0 -0.1169833224
C  C86  1  0.63282000  0.21008000  0.51792000  1.0 0.6309636501
C  C87  1  0.67805000  0.11247000  0.52273000  1.0 -0.0377579198
C  C88  1  0.63209000  0.09569000  0.53591000  1.0 -0.0913190122
C  C89  1  0.67516000  0.00476000  0.54004000  1.0 -0.1793825379
C  C90  1  0.76346000  0.92976000  0.53284000  1.0 0.0512409011
C  C91  1  0.80632000  0.94872000  0.52448000  1.0 -0.1722836508
C  C92  1  0.76635000  0.03795000  0.51645000  1.0 -0.0913190122
C  C93  1  0.81013000  0.83155000  0.53745000  1.0 0.0439897148
C  C94  1  0.80940000  0.78580000  0.49100000  1.0 -0.0803515133
C  C95  1  0.85830000  0.69110000  0.49030000  1.0 -0.0913190122
C  C96  1  0.90553000  0.64327000  0.54113000  1.0 0.0645952752
C  C97  1  0.88880000  0.69860000  0.60000000  1.0 -0.1016717361
C  C98  1  0.84200000  0.79200000  0.59780000  1.0 -0.1169833224
C  C99  1  0.76170000  0.81630000  0.57830000  1.0 -0.04814057
C  C100  1  0.80830000  0.72370000  0.58130000  1.0 -0.04814057
C  C101  1  0.96480000  0.65080000  0.49440000  1.0 -0.1566307949
C  C102  1  0.91890000  0.74410000  0.49210000  1.0 -0.1169833224
C  C103  1  0.63918000  0.51792000  0.21008000  1.0 0.6309636501
C  C104  1  0.68675000  0.52273000  0.11247000  1.0 -0.0377579198
C  C105  1  0.73631000  0.53591000  0.09569000  1.0 -0.0913190122
C  C106  1  0.78004000  0.54004000  0.00476000  1.0 -0.1793825379
C  C107  1  0.77394000  0.53284000  0.92976000  1.0 0.0512409011
C  C108  1  0.72048000  0.52448000  0.94872000  1.0 -0.1722836508
C  C109  1  0.67925000  0.51645000  0.03795000  1.0 -0.0913190122
C  C110  1  0.82087000  0.53745000  0.83155000  1.0 0.0439897148
C  C111  1  0.91380000  0.49100000  0.78580000  1.0 -0.0803515133
C  C112  1  0.96030000  0.49030000  0.69110000  1.0 -0.0913190122
C  C113  1  0.91007000  0.54113000  0.64327000  1.0 0.0645952752
C  C114  1  0.81260000  0.60000000  0.69860000  1.0 -0.1016717361
C  C115  1  0.76820000  0.59780000  0.79200000  1.0 -0.1169833224
C  C116  1  0.84370000  0.57830000  0.81630000  1.0 -0.04814057
C  C117  1  0.88670000  0.58130000  0.72370000  1.0 -0.04814057
C  C118  1  0.89000000  0.49440000  0.65080000  1.0 -0.1566307949
C  C119  1  0.84490000  0.49210000  0.74410000  1.0 -0.1169833224
C  C120  1  0.51792000  0.63918000  0.63282000  1.0 0.6309636501
C  C121  1  0.52273000  0.68675000  0.67805000  1.0 -0.0377579198
C  C122  1  0.53591000  0.73631000  0.63209000  1.0 -0.0913190122
C  C123  1  0.54004000  0.78004000  0.67516000  1.0 -0.1793825379
C  C124  1  0.53284000  0.77394000  0.76346000  1.0 0.0512409011
C  C125  1  0.52448000  0.72048000  0.80632000  1.0 -0.1722836508
C  C126  1  0.51645000  0.67925000  0.76635000  1.0 -0.0913190122
C  C127  1  0.53745000  0.82087000  0.81013000  1.0 0.0439897148
C  C128  1  0.49100000  0.91380000  0.80940000  1.0 -0.0803515133
C  C129  1  0.49030000  0.96030000  0.85830000  1.0 -0.0913190122
C  C130  1  0.54113000  0.91007000  0.90553000  1.0 0.0645952752
C  C131  1  0.60000000  0.81260000  0.88880000  1.0 -0.1016717361
C  C132  1  0.59780000  0.76820000  0.84200000  1.0 -0.1169833224
C  C133  1  0.57830000  0.84370000  0.76170000  1.0 -0.04814057
C  C134  1  0.58130000  0.88670000  0.80830000  1.0 -0.04814057
C  C135  1  0.49440000  0.89000000  0.96480000  1.0 -0.1566307949
C  C136  1  0.49210000  0.84490000  0.91890000  1.0 -0.1169833224
C  C137  1  0.45810000  0.04190000  0.04190000  1.0 -0.2116945306
C  C138  1  0.04190000  0.45810000  0.45810000  1.0 -0.2116945306
C  C139  1  0.54190000  0.95810000  0.95810000  1.0 -0.2116945306
C  C140  1  0.95810000  0.54190000  0.54190000  1.0 -0.2116945306
O  O1  1  0.71620000  0.45882000  0.37564000  1.0 -0.5799026
O  O2  1  0.78827000  0.31073000  0.38307000  1.0 -0.6123905611
O  O3  1  0.45882000  0.71620000  0.44934000  1.0 -0.5799026
O  O4  1  0.31073000  0.78827000  0.51793000  1.0 -0.6157907577
O  O5  1  0.37564000  0.44934000  0.71620000  1.0 -0.5799026
O  O6  1  0.38307000  0.51793000  0.78827000  1.0 -0.6123905611
O  O7  1  0.44934000  0.37564000  0.45882000  1.0 -0.5799026
O  O8  1  0.51793000  0.38307000  0.31073000  1.0 -0.6123905611
O  O9  1  0.28380000  0.54118000  0.62436000  1.0 -0.5799026
O  O10  1  0.21173000  0.68927000  0.61693000  1.0 -0.6157907577
O  O11  1  0.54118000  0.28380000  0.55066000  1.0 -0.5799026
O  O12  1  0.68927000  0.21173000  0.48207000  1.0 -0.6123905611
O  O13  1  0.62436000  0.55066000  0.28380000  1.0 -0.5799026
O  O14  1  0.61693000  0.48207000  0.21173000  1.0 -0.6123905611
O  O15  1  0.55066000  0.62436000  0.54118000  1.0 -0.5799026
O  O16  1  0.48207000  0.61693000  0.68927000  1.0 -0.6123905611
O  O17  1  0.64061000  0.41741000  0.35939000  1.0 -1.1891211363
O  O18  1  0.41741000  0.64061000  0.58259000  1.0 -1.1825261049
O  O19  1  0.35939000  0.58259000  0.64061000  1.0 -1.1825261049
O  O20  1  0.58259000  0.35939000  0.41741000  1.0 -1.1825261049
O  O21  1  0.59096000  0.46756000  0.53244000  1.0 -1.1891211363
O  O22  1  0.46756000  0.59096000  0.40904000  1.0 -1.1891211363
O  O23  1  0.53244000  0.40904000  0.59096000  1.0 -1.1891211363
O  O24  1  0.40904000  0.53244000  0.46756000  1.0 -1.1891211363
