# DDEC6 charges by PACMAN v1.1 (https://github.com/mtap-research/PACMAN-charge/)
data_RORTUP_ASR_pacman
_symmetry_space_group_name_H-M   'P 1'
_cell_length_a   17.54140000
_cell_length_b   18.10040000
_cell_length_c   18.47290000
_cell_angle_alpha   90.00000000
_cell_angle_beta   91.85800000
_cell_angle_gamma   90.00000000
_symmetry_Int_Tables_number   1
_chemical_formula_structural   Zn3H30C34(NO7)2
_chemical_formula_sum   'Zn12 H120 C136 N8 O56'
_cell_volume   5862.17952037
_cell_formula_units_Z   4
loop_
 _symmetry_equiv_pos_site_id
 _symmetry_equiv_pos_as_xyz
  1  'x, y, z'
loop_
 _atom_site_type_symbol
 _atom_site_label
 _atom_site_symmetry_multiplicity
 _atom_site_fract_x
 _atom_site_fract_y
 _atom_site_fract_z
 _atom_site_occupancy
 _atom_site_charge
Zn  Zn1  1  0.60204000  0.47513000  0.79917000  1.0 0.8127785704
Zn  Zn2  1  0.39796000  0.97513000  0.70083000  1.0 0.8127785704
Zn  Zn3  1  0.39796000  0.52487000  0.20083000  1.0 0.8127785704
Zn  Zn4  1  0.60204000  0.02487000  0.29917000  1.0 0.8127785704
Zn  Zn5  1  0.60267000  0.76729000  0.93592000  1.0 0.8362371853
Zn  Zn6  1  0.39733000  0.26729000  0.56408000  1.0 0.8362371853
Zn  Zn7  1  0.39733000  0.23271000  0.06408000  1.0 0.8362371853
Zn  Zn8  1  0.60267000  0.73271000  0.43592000  1.0 0.8362371853
Zn  Zn9  1  0.67959000  0.60795000  0.87569000  1.0 0.9717763594
Zn  Zn10  1  0.32041000  0.10795000  0.62431000  1.0 0.9717763594
Zn  Zn11  1  0.32041000  0.39205000  0.12431000  1.0 0.9717763594
Zn  Zn12  1  0.67959000  0.89205000  0.37569000  1.0 0.9717763594
H  H1  1  0.33970000  0.51150000  0.92490000  1.0 0.1198413758
H  H2  1  0.66030000  0.01150000  0.57510000  1.0 0.1198413758
H  H3  1  0.66030000  0.48850000  0.07510000  1.0 0.1198413758
H  H4  1  0.33970000  0.98850000  0.42490000  1.0 0.1198413758
H  H5  1  0.51990000  0.61800000  0.01970000  1.0 0.1398920547
H  H6  1  0.48010000  0.11800000  0.48030000  1.0 0.1398920547
H  H7  1  0.48010000  0.38200000  0.98030000  1.0 0.1398920547
H  H8  1  0.51990000  0.88200000  0.51970000  1.0 0.1398920547
H  H9  1  0.63280000  0.64330000  0.66150000  1.0 0.1516621342
H  H10  1  0.36720000  0.14330000  0.83850000  1.0 0.1516621342
H  H11  1  0.36720000  0.35670000  0.33850000  1.0 0.1516621342
H  H12  1  0.63280000  0.85670000  0.16150000  1.0 0.1516621342
H  H13  1  0.38950000  0.68140000  0.74880000  1.0 0.1119312095
H  H14  1  0.61050000  0.18140000  0.75120000  1.0 0.1119312095
H  H15  1  0.61050000  0.31860000  0.25120000  1.0 0.1119312095
H  H16  1  0.38950000  0.81860000  0.24880000  1.0 0.1119312095
H  H17  1  0.37330000  0.35120000  0.70320000  1.0 0.1198413758
H  H18  1  0.62670000  0.85120000  0.79680000  1.0 0.1198413758
H  H19  1  0.62670000  0.64880000  0.29680000  1.0 0.1198413758
H  H20  1  0.37330000  0.14880000  0.20320000  1.0 0.1198413758
H  H21  1  0.42850000  0.28320000  0.72350000  1.0 0.1198413758
H  H22  1  0.57150000  0.78320000  0.77650000  1.0 0.1198413758
H  H23  1  0.57150000  0.71680000  0.27650000  1.0 0.1198413758
H  H24  1  0.42850000  0.21680000  0.22350000  1.0 0.1198413758
H  H25  1  0.49260000  0.35420000  0.80030000  1.0 0.1198413758
H  H26  1  0.50740000  0.85420000  0.69970000  1.0 0.1198413758
H  H27  1  0.50740000  0.64580000  0.19970000  1.0 0.1198413758
H  H28  1  0.49260000  0.14580000  0.30030000  1.0 0.1198413758
H  H29  1  0.43870000  0.42270000  0.77850000  1.0 0.1198413758
H  H30  1  0.56130000  0.92270000  0.72150000  1.0 0.1198413758
H  H31  1  0.56130000  0.57730000  0.22150000  1.0 0.1198413758
H  H32  1  0.43870000  0.07730000  0.27850000  1.0 0.1198413758
H  H33  1  0.37560000  0.55630000  0.81190000  1.0 0.1011620501
H  H34  1  0.62440000  0.05630000  0.68810000  1.0 0.1011620501
H  H35  1  0.62440000  0.44370000  0.18810000  1.0 0.1011620501
H  H36  1  0.37560000  0.94370000  0.31190000  1.0 0.1011620501
H  H37  1  0.47370000  0.50500000  0.68000000  1.0 0.1119312095
H  H38  1  0.52630000  0.00500000  0.82000000  1.0 0.1119312095
H  H39  1  0.52630000  0.49500000  0.32000000  1.0 0.1119312095
H  H40  1  0.47370000  0.99500000  0.18000000  1.0 0.1119312095
H  H41  1  0.54850000  0.48800000  0.63530000  1.0 0.1198413758
H  H42  1  0.45150000  0.98800000  0.86470000  1.0 0.1198413758
H  H43  1  0.45150000  0.51200000  0.36470000  1.0 0.1198413758
H  H44  1  0.54850000  0.01200000  0.13530000  1.0 0.1198413758
H  H45  1  0.41760000  0.72150000  0.63300000  1.0 0.1280490687
H  H46  1  0.58240000  0.22150000  0.86700000  1.0 0.1280490687
H  H47  1  0.58240000  0.27850000  0.36700000  1.0 0.1280490687
H  H48  1  0.41760000  0.77850000  0.13300000  1.0 0.1280490687
H  H49  1  0.63050000  0.38320000  0.66900000  1.0 0.1280490687
H  H50  1  0.36950000  0.88320000  0.83100000  1.0 0.1280490687
H  H51  1  0.36950000  0.61680000  0.33100000  1.0 0.1280490687
H  H52  1  0.63050000  0.11680000  0.16900000  1.0 0.1280490687
H  H53  1  0.60610000  0.32910000  0.73300000  1.0 0.1198413758
H  H54  1  0.39390000  0.82910000  0.76700000  1.0 0.1198413758
H  H55  1  0.39390000  0.67090000  0.26700000  1.0 0.1198413758
H  H56  1  0.60610000  0.17090000  0.23300000  1.0 0.1198413758
H  H57  1  0.54250000  0.26130000  0.65320000  1.0 0.1011620501
H  H58  1  0.45750000  0.76130000  0.84680000  1.0 0.1011620501
H  H59  1  0.45750000  0.73870000  0.34680000  1.0 0.1011620501
H  H60  1  0.54250000  0.23870000  0.15320000  1.0 0.1011620501
H  H61  1  0.56340000  0.31770000  0.59000000  1.0 0.1280490687
H  H62  1  0.43660000  0.81770000  0.91000000  1.0 0.1280490687
H  H63  1  0.43660000  0.68230000  0.41000000  1.0 0.1280490687
H  H64  1  0.56340000  0.18230000  0.09000000  1.0 0.1280490687
H  H65  1  0.47930000  0.41980000  0.55930000  1.0 0.1198413758
H  H66  1  0.52070000  0.91980000  0.94070000  1.0 0.1198413758
H  H67  1  0.52070000  0.58020000  0.44070000  1.0 0.1198413758
H  H68  1  0.47930000  0.08020000  0.05930000  1.0 0.1198413758
H  H69  1  0.40510000  0.43440000  0.60570000  1.0 0.1198413758
H  H70  1  0.59490000  0.93440000  0.89430000  1.0 0.1198413758
H  H71  1  0.59490000  0.56560000  0.39430000  1.0 0.1198413758
H  H72  1  0.40510000  0.06560000  0.10570000  1.0 0.1198413758
H  H73  1  0.01100000  0.73670000  0.72610000  1.0 0.2641359573
H  H74  1  0.98900000  0.23670000  0.77390000  1.0 0.2641359573
H  H75  1  0.98900000  0.26330000  0.27390000  1.0 0.2641359573
H  H76  1  0.01100000  0.76330000  0.22610000  1.0 0.2641359573
H  H77  1  0.09480000  0.03040000  0.67170000  1.0 0.1280490687
H  H78  1  0.90520000  0.53040000  0.82830000  1.0 0.1280490687
H  H79  1  0.90520000  0.96960000  0.32830000  1.0 0.1280490687
H  H80  1  0.09480000  0.46960000  0.17170000  1.0 0.1280490687
H  H81  1  0.20320000  0.85040000  0.75350000  1.0 0.1119312095
H  H82  1  0.79680000  0.35040000  0.74650000  1.0 0.1119312095
H  H83  1  0.79680000  0.14960000  0.24650000  1.0 0.1119312095
H  H84  1  0.20320000  0.64960000  0.25350000  1.0 0.1119312095
H  H85  1  0.08690000  0.80230000  0.78680000  1.0 0.1398920547
H  H86  1  0.91310000  0.30230000  0.71320000  1.0 0.1398920547
H  H87  1  0.91310000  0.19770000  0.21320000  1.0 0.1398920547
H  H88  1  0.08690000  0.69770000  0.28680000  1.0 0.1398920547
H  H89  1  0.95890000  0.03390000  0.71640000  1.0 0.2356141364
H  H90  1  0.04110000  0.53390000  0.78360000  1.0 0.2356141364
H  H91  1  0.04110000  0.96610000  0.28360000  1.0 0.2356141364
H  H92  1  0.95890000  0.46610000  0.21640000  1.0 0.2356141364
H  H93  1  0.84450000  0.70410000  0.76900000  1.0 0.1398920547
H  H94  1  0.15550000  0.20410000  0.73100000  1.0 0.1398920547
H  H95  1  0.15550000  0.29590000  0.23100000  1.0 0.1398920547
H  H96  1  0.84450000  0.79590000  0.26900000  1.0 0.1398920547
H  H97  1  0.80160000  0.89480000  0.87310000  1.0 0.1280490687
H  H98  1  0.19840000  0.39480000  0.62690000  1.0 0.1280490687
H  H99  1  0.19840000  0.10520000  0.12690000  1.0 0.1280490687
H  H100  1  0.80160000  0.60520000  0.37310000  1.0 0.1280490687
H  H101  1  0.91220000  0.94440000  0.82780000  1.0 0.1011620501
H  H102  1  0.08780000  0.44440000  0.67220000  1.0 0.1011620501
H  H103  1  0.08780000  0.05560000  0.17220000  1.0 0.1011620501
H  H104  1  0.91220000  0.55560000  0.32780000  1.0 0.1011620501
H  H105  1  0.11910000  0.75360000  0.79090000  1.0 0.2288666895
H  H106  1  0.88090000  0.25360000  0.70910000  1.0 0.2288666895
H  H107  1  0.88090000  0.24640000  0.20910000  1.0 0.2288666895
H  H108  1  0.11910000  0.74640000  0.29090000  1.0 0.2288666895
H  H109  1  0.89650000  0.99450000  0.79860000  1.0 0.2641359573
H  H110  1  0.10350000  0.49450000  0.70140000  1.0 0.2641359573
H  H111  1  0.10350000  0.00550000  0.20140000  1.0 0.2641359573
H  H112  1  0.89650000  0.50550000  0.29860000  1.0 0.2641359573
H  H113  1  0.95610000  0.75510000  0.72490000  1.0 0.1011620501
H  H114  1  0.04390000  0.25510000  0.77510000  1.0 0.1011620501
H  H115  1  0.04390000  0.24490000  0.27510000  1.0 0.1011620501
H  H116  1  0.95610000  0.74490000  0.22490000  1.0 0.1011620501
H  H117  1  0.97770000  0.98090000  0.70300000  1.0 0.1011620501
H  H118  1  0.02230000  0.48090000  0.79700000  1.0 0.1011620501
H  H119  1  0.02230000  0.01910000  0.29700000  1.0 0.1011620501
H  H120  1  0.97770000  0.51910000  0.20300000  1.0 0.1011620501
C  C1  1  0.40502000  0.53220000  0.05505000  1.0 0.5806100598
C  C2  1  0.59498000  0.03220000  0.44495000  1.0 0.5806100598
C  C3  1  0.59498000  0.46780000  0.94495000  1.0 0.5806100598
C  C4  1  0.40502000  0.96780000  0.55505000  1.0 0.5806100598
C  C5  1  0.38366000  0.54183000  0.92131000  1.0 -0.1267245257
C  C6  1  0.61634000  0.04183000  0.57869000  1.0 -0.1267245257
C  C7  1  0.61634000  0.45817000  0.07869000  1.0 -0.1267245257
C  C8  1  0.38366000  0.95817000  0.42131000  1.0 -0.1267245257
C  C9  1  0.47215000  0.60951000  0.84720000  1.0 -0.0473002324
C  C10  1  0.52785000  0.10951000  0.65280000  1.0 -0.0473002324
C  C11  1  0.52785000  0.39049000  0.15280000  1.0 -0.0473002324
C  C12  1  0.47215000  0.89049000  0.34720000  1.0 -0.0473002324
C  C13  1  0.49162000  0.60429000  0.97704000  1.0 -0.2256069848
C  C14  1  0.50838000  0.10429000  0.52296000  1.0 -0.2256069848
C  C15  1  0.50838000  0.39571000  0.02296000  1.0 -0.2256069848
C  C16  1  0.49162000  0.89571000  0.47704000  1.0 -0.2256069848
C  C17  1  0.58280000  0.64952000  0.67879000  1.0 -0.2434028121
C  C18  1  0.41720000  0.14952000  0.82121000  1.0 -0.2434028121
C  C19  1  0.41720000  0.35048000  0.32121000  1.0 -0.2434028121
C  C20  1  0.58280000  0.85048000  0.17879000  1.0 -0.2434028121
C  C21  1  0.43886000  0.67266000  0.73080000  1.0 -0.1584252635
C  C22  1  0.56114000  0.17266000  0.76920000  1.0 -0.1584252635
C  C23  1  0.56114000  0.32734000  0.26920000  1.0 -0.1584252635
C  C24  1  0.43886000  0.82734000  0.23080000  1.0 -0.1584252635
C  C25  1  0.52818000  0.68576000  0.63600000  1.0 -0.0090319666
C  C26  1  0.47182000  0.18576000  0.86400000  1.0 -0.0090319666
C  C27  1  0.47182000  0.31424000  0.36400000  1.0 -0.0090319666
C  C28  1  0.52818000  0.81424000  0.13600000  1.0 -0.0090319666
C  C29  1  0.51616000  0.62777000  0.90984000  1.0 0.268642672
C  C30  1  0.48384000  0.12777000  0.59016000  1.0 0.268642672
C  C31  1  0.48384000  0.37223000  0.09016000  1.0 0.268642672
C  C32  1  0.51616000  0.87223000  0.40984000  1.0 0.268642672
C  C33  1  0.56525000  0.62213000  0.74678000  1.0 0.268642672
C  C34  1  0.43475000  0.12213000  0.75322000  1.0 0.268642672
C  C35  1  0.43475000  0.37787000  0.25322000  1.0 0.268642672
C  C36  1  0.56525000  0.87787000  0.24678000  1.0 0.268642672
C  C37  1  0.42716000  0.33482000  0.70588000  1.0 -0.1203322312
C  C38  1  0.57284000  0.83482000  0.79412000  1.0 -0.1203322312
C  C39  1  0.57284000  0.66518000  0.29412000  1.0 -0.1203322312
C  C40  1  0.42716000  0.16518000  0.20588000  1.0 -0.1203322312
C  C41  1  0.42652000  0.56114000  0.98288000  1.0 -0.0090319666
C  C42  1  0.57348000  0.06114000  0.51712000  1.0 -0.0090319666
C  C43  1  0.57348000  0.43886000  0.01712000  1.0 -0.0090319666
C  C44  1  0.42652000  0.93886000  0.48288000  1.0 -0.0090319666
C  C45  1  0.47269000  0.38429000  0.75910000  1.0 -0.1203322312
C  C46  1  0.52731000  0.88429000  0.74090000  1.0 -0.1203322312
C  C47  1  0.52731000  0.61571000  0.24090000  1.0 -0.1203322312
C  C48  1  0.47269000  0.11571000  0.25910000  1.0 -0.1203322312
C  C49  1  0.49276000  0.63558000  0.77421000  1.0 -0.0422321645
C  C50  1  0.50724000  0.13558000  0.72579000  1.0 -0.0422321645
C  C51  1  0.50724000  0.36442000  0.22579000  1.0 -0.0422321645
C  C52  1  0.49276000  0.86442000  0.27421000  1.0 -0.0422321645
C  C53  1  0.81263000  0.79387000  0.82633000  1.0 -0.0090319666
C  C54  1  0.18737000  0.29387000  0.67367000  1.0 -0.0090319666
C  C55  1  0.18737000  0.20613000  0.17367000  1.0 -0.0090319666
C  C56  1  0.81263000  0.70613000  0.32633000  1.0 -0.0090319666
C  C57  1  0.40602000  0.56757000  0.85392000  1.0 -0.1454302141
C  C58  1  0.59398000  0.06757000  0.64608000  1.0 -0.1454302141
C  C59  1  0.59398000  0.43243000  0.14608000  1.0 -0.1454302141
C  C60  1  0.40602000  0.93243000  0.35392000  1.0 -0.1454302141
C  C61  1  0.23426000  0.97843000  0.68876000  1.0 0.6068890026
C  C62  1  0.76574000  0.47843000  0.81124000  1.0 0.6068890026
C  C63  1  0.76574000  0.02157000  0.31124000  1.0 0.6068890026
C  C64  1  0.23426000  0.52157000  0.18876000  1.0 0.6068890026
C  C65  1  0.50610000  0.46496000  0.66125000  1.0 -0.1203322312
C  C66  1  0.49390000  0.96496000  0.83875000  1.0 -0.1203322312
C  C67  1  0.49390000  0.53504000  0.33875000  1.0 -0.1203322312
C  C68  1  0.50610000  0.03504000  0.16125000  1.0 -0.1203322312
C  C69  1  0.45548000  0.69710000  0.66215000  1.0 -0.1454302141
C  C70  1  0.54452000  0.19710000  0.83785000  1.0 -0.1454302141
C  C71  1  0.54452000  0.30290000  0.33785000  1.0 -0.1454302141
C  C72  1  0.45548000  0.80290000  0.16215000  1.0 -0.1454302141
C  C73  1  0.58636000  0.36079000  0.69289000  1.0 -0.1203322312
C  C74  1  0.41364000  0.86079000  0.80711000  1.0 -0.1203322312
C  C75  1  0.41364000  0.63921000  0.30711000  1.0 -0.1203322312
C  C76  1  0.58636000  0.13921000  0.19289000  1.0 -0.1203322312
C  C77  1  0.54041000  0.31375000  0.63808000  1.0 -0.1203322312
C  C78  1  0.45959000  0.81375000  0.86192000  1.0 -0.1203322312
C  C79  1  0.45959000  0.68625000  0.36192000  1.0 -0.1203322312
C  C80  1  0.54041000  0.18625000  0.13808000  1.0 -0.1203322312
C  C81  1  0.45840000  0.41633000  0.60833000  1.0 -0.1116993868
C  C82  1  0.54160000  0.91633000  0.89167000  1.0 -0.1116993868
C  C83  1  0.54160000  0.58367000  0.39167000  1.0 -0.1116993868
C  C84  1  0.45840000  0.08367000  0.10833000  1.0 -0.1116993868
C  C85  1  0.92515000  0.78352000  0.75564000  1.0 0.1198413758
C  C86  1  0.07485000  0.28352000  0.74436000  1.0 0.1198413758
C  C87  1  0.07485000  0.21648000  0.24436000  1.0 0.1198413758
C  C88  1  0.92515000  0.71648000  0.25564000  1.0 0.1198413758
C  C89  1  0.15952000  0.94528000  0.70820000  1.0 -0.0090319666
C  C90  1  0.84048000  0.44528000  0.79180000  1.0 -0.0090319666
C  C91  1  0.84048000  0.05472000  0.29180000  1.0 -0.0090319666
C  C92  1  0.15952000  0.55472000  0.20820000  1.0 -0.0090319666
C  C93  1  0.94651000  0.85462000  0.77409000  1.0 -0.0863439708
C  C94  1  0.05349000  0.35462000  0.72591000  1.0 -0.0863439708
C  C95  1  0.05349000  0.14538000  0.22591000  1.0 -0.0863439708
C  C96  1  0.94651000  0.64538000  0.27409000  1.0 -0.0844773123
C  C97  1  0.09311000  0.98349000  0.69464000  1.0 -0.1894505614
C  C98  1  0.90689000  0.48349000  0.80536000  1.0 -0.1894505614
C  C99  1  0.90689000  0.01651000  0.30536000  1.0 -0.1894505614
C  C100  1  0.09311000  0.51651000  0.19464000  1.0 -0.1894505614
C  C101  1  0.02035000  0.88632000  0.75005000  1.0 -0.0473002324
C  C102  1  0.97965000  0.38632000  0.74995000  1.0 -0.0473002324
C  C103  1  0.97965000  0.11368000  0.24995000  1.0 -0.0473002324
C  C104  1  0.02035000  0.61368000  0.25005000  1.0 -0.0473002324
C  C105  1  0.02344000  0.95450000  0.71407000  1.0 0.1119312095
C  C106  1  0.97656000  0.45450000  0.78593000  1.0 0.1198413758
C  C107  1  0.97656000  0.04550000  0.28593000  1.0 0.1198413758
C  C108  1  0.02344000  0.54550000  0.21407000  1.0 0.1119312095
C  C109  1  0.15748000  0.87707000  0.74340000  1.0 -0.1894505614
C  C110  1  0.84252000  0.37707000  0.75660000  1.0 -0.1894505614
C  C111  1  0.84252000  0.12293000  0.25660000  1.0 -0.1894505614
C  C112  1  0.15748000  0.62293000  0.24340000  1.0 -0.1894505614
C  C113  1  0.08815000  0.84890000  0.76330000  1.0 0.0819766136
C  C114  1  0.91185000  0.34890000  0.73670000  1.0 0.0819766136
C  C115  1  0.91185000  0.15110000  0.23670000  1.0 0.0819766136
C  C116  1  0.08815000  0.65110000  0.26330000  1.0 0.0819766136
C  C117  1  0.54432000  0.70820000  0.56007000  1.0 0.5387041053
C  C118  1  0.45568000  0.20820000  0.93993000  1.0 0.5387041053
C  C119  1  0.45568000  0.29180000  0.43993000  1.0 0.5387041053
C  C120  1  0.54432000  0.79180000  0.06007000  1.0 0.5387041053
C  C121  1  0.74182000  0.75918000  0.85422000  1.0 0.5806100598
C  C122  1  0.25818000  0.25918000  0.64578000  1.0 0.5806100598
C  C123  1  0.25818000  0.24082000  0.14578000  1.0 0.5806100598
C  C124  1  0.74182000  0.74082000  0.35422000  1.0 0.5806100598
C  C125  1  0.85853000  0.75318000  0.78182000  1.0 -0.1894505614
C  C126  1  0.14147000  0.25318000  0.71818000  1.0 -0.1894505614
C  C127  1  0.14147000  0.24682000  0.21818000  1.0 -0.1894505614
C  C128  1  0.85853000  0.74682000  0.28182000  1.0 -0.1894505614
C  C129  1  0.83287000  0.86570000  0.84329000  1.0 -0.1894505614
C  C130  1  0.16713000  0.36570000  0.65671000  1.0 -0.1894505614
C  C131  1  0.16713000  0.13430000  0.15671000  1.0 -0.1894505614
C  C132  1  0.83287000  0.63430000  0.34329000  1.0 -0.1894505614
C  C133  1  0.89912000  0.89476000  0.81642000  1.0 0.1119312095
C  C134  1  0.10088000  0.39476000  0.68358000  1.0 0.1119312095
C  C135  1  0.10088000  0.10524000  0.18358000  1.0 0.1119312095
C  C136  1  0.89912000  0.60524000  0.31642000  1.0 0.1119312095
N  N1  1  0.53738000  0.42026000  0.72248000  1.0 -0.0975510286
N  N2  1  0.46262000  0.92026000  0.77752000  1.0 -0.0975510286
N  N3  1  0.46262000  0.57974000  0.27752000  1.0 -0.0975510286
N  N4  1  0.53738000  0.07974000  0.22248000  1.0 -0.0975510286
N  N5  1  0.45965000  0.33830000  0.63257000  1.0 -0.0975510286
N  N6  1  0.54035000  0.83830000  0.86743000  1.0 -0.0975510286
N  N7  1  0.54035000  0.66170000  0.36743000  1.0 -0.0975510286
N  N8  1  0.45965000  0.16170000  0.13257000  1.0 -0.0975510286
O  O1  1  0.61681000  0.57899000  0.78272000  1.0 -0.5826493868
O  O2  1  0.38319000  0.07899000  0.71728000  1.0 -0.5826493868
O  O3  1  0.38319000  0.42101000  0.21728000  1.0 -0.5826493868
O  O4  1  0.61681000  0.92101000  0.28272000  1.0 -0.5826493868
O  O5  1  0.35496000  0.48305000  0.05762000  1.0 -0.5663490662
O  O6  1  0.64504000  0.98305000  0.44238000  1.0 -0.5663490662
O  O7  1  0.64504000  0.51695000  0.94238000  1.0 -0.5663490662
O  O8  1  0.35496000  0.01695000  0.55762000  1.0 -0.5663490662
O  O9  1  0.58225000  0.66654000  0.90500000  1.0 -0.6143500278
O  O10  1  0.41775000  0.16654000  0.59500000  1.0 -0.6143500278
O  O11  1  0.41775000  0.33346000  0.09500000  1.0 -0.6143500278
O  O12  1  0.58225000  0.83346000  0.40500000  1.0 -0.6143500278
O  O13  1  0.70666000  0.79339000  0.90319000  1.0 -0.5521621375
O  O14  1  0.29334000  0.29339000  0.59681000  1.0 -0.5521621375
O  O15  1  0.29334000  0.20661000  0.09681000  1.0 -0.5521621375
O  O16  1  0.70666000  0.70661000  0.40319000  1.0 -0.5521621375
O  O17  1  0.43913000  0.56024000  0.11060000  1.0 -0.5521621375
O  O18  1  0.56087000  0.06024000  0.38940000  1.0 -0.5521621375
O  O19  1  0.56087000  0.43976000  0.88940000  1.0 -0.5521621375
O  O20  1  0.43913000  0.93976000  0.61060000  1.0 -0.5521621375
O  O21  1  0.29344000  0.93960000  0.70521000  1.0 -0.5663490662
O  O22  1  0.70656000  0.43960000  0.79479000  1.0 -0.5663490662
O  O23  1  0.70656000  0.06040000  0.29479000  1.0 -0.5663490662
O  O24  1  0.29344000  0.56040000  0.20521000  1.0 -0.5663490662
O  O25  1  0.23368000  0.04072000  0.65950000  1.0 -0.5383759408
O  O26  1  0.76632000  0.54072000  0.84050000  1.0 -0.5383759408
O  O27  1  0.76632000  0.95928000  0.34050000  1.0 -0.5383759408
O  O28  1  0.23368000  0.45928000  0.15950000  1.0 -0.5383759408
O  O29  1  0.61330000  0.70640000  0.53948000  1.0 -0.5383759408
O  O30  1  0.38670000  0.20640000  0.96052000  1.0 -0.5383759408
O  O31  1  0.38670000  0.29360000  0.46052000  1.0 -0.5383759408
O  O32  1  0.61330000  0.79360000  0.03948000  1.0 -0.5383759408
O  O33  1  0.72188000  0.69899000  0.82647000  1.0 -0.5383759408
O  O34  1  0.27812000  0.19899000  0.67353000  1.0 -0.5383759408
O  O35  1  0.27812000  0.30101000  0.17353000  1.0 -0.5383759408
O  O36  1  0.72188000  0.80101000  0.32647000  1.0 -0.5383759408
O  O37  1  0.49117000  0.72651000  0.51788000  1.0 -0.5521621375
O  O38  1  0.50883000  0.22651000  0.98212000  1.0 -0.5521621375
O  O39  1  0.50883000  0.27349000  0.48212000  1.0 -0.5521621375
O  O40  1  0.49117000  0.77349000  0.01788000  1.0 -0.5521621375
O  O41  1  0.96650000  0.74230000  0.70889000  1.0 -0.3597690047
O  O42  1  0.03350000  0.24230000  0.79111000  1.0 -0.3597690047
O  O43  1  0.03350000  0.25770000  0.29111000  1.0 -0.3597690047
O  O44  1  0.96650000  0.75770000  0.20889000  1.0 -0.3597690047
O  O45  1  0.95740000  0.99204000  0.69680000  1.0 -0.3597690047
O  O46  1  0.04260000  0.49204000  0.80320000  1.0 -0.3597690047
O  O47  1  0.04260000  0.00796000  0.30320000  1.0 -0.3597690047
O  O48  1  0.95740000  0.50796000  0.19680000  1.0 -0.3597690047
O  O49  1  0.08960000  0.78520000  0.80800000  1.0 -0.3764477739
O  O50  1  0.91040000  0.28520000  0.69200000  1.0 -0.3764477739
O  O51  1  0.91040000  0.21480000  0.19200000  1.0 -0.3764477739
O  O52  1  0.08960000  0.71480000  0.30800000  1.0 -0.3764477739
O  O53  1  0.91440000  0.96770000  0.83210000  1.0 -0.3516185948
O  O54  1  0.08560000  0.46770000  0.66790000  1.0 -0.3516185948
O  O55  1  0.08560000  0.03230000  0.16790000  1.0 -0.3516185948
O  O56  1  0.91440000  0.53230000  0.33210000  1.0 -0.3516185948
