# DDEC6 charges by PACMAN v1.1 (https://github.com/mtap-research/PACMAN-charge/)
data_RORTOJ_ASR_pacman
_symmetry_space_group_name_H-M   'P 1'
_cell_length_a   17.61220000
_cell_length_b   18.14050000
_cell_length_c   18.38160000
_cell_angle_alpha   90.00000000
_cell_angle_beta   91.82600000
_cell_angle_gamma   90.00000000
_symmetry_Int_Tables_number   1
_chemical_formula_structural   Co3H30C34(NO7)2
_chemical_formula_sum   'Co12 H120 C136 N8 O56'
_cell_volume   5869.83081506
_cell_formula_units_Z   4
loop_
 _symmetry_equiv_pos_site_id
 _symmetry_equiv_pos_as_xyz
  1  'x, y, z'
loop_
 _atom_site_type_symbol
 _atom_site_label
 _atom_site_symmetry_multiplicity
 _atom_site_fract_x
 _atom_site_fract_y
 _atom_site_fract_z
 _atom_site_occupancy
 _atom_site_charge
Co  Co1  1  0.60328000  0.47255000  0.80205000  1.0 0.8043631159
Co  Co2  1  0.39672000  0.97255000  0.69795000  1.0 0.8051456057
Co  Co3  1  0.39672000  0.52745000  0.19795000  1.0 0.8043631159
Co  Co4  1  0.60328000  0.02745000  0.30205000  1.0 0.8051456057
Co  Co5  1  0.67877000  0.60469000  0.87440000  1.0 1.0138200961
Co  Co6  1  0.32123000  0.10469000  0.62560000  1.0 1.0138200961
Co  Co7  1  0.32123000  0.39531000  0.12560000  1.0 1.0138200961
Co  Co8  1  0.67877000  0.89531000  0.37440000  1.0 1.0138200961
Co  Co9  1  0.60467000  0.76514000  0.93505000  1.0 0.8471267067
Co  Co10  1  0.39533000  0.26514000  0.56495000  1.0 0.8471267067
Co  Co11  1  0.39533000  0.23486000  0.06495000  1.0 0.8471267067
Co  Co12  1  0.60467000  0.73486000  0.43505000  1.0 0.8471267067
H  H1  1  0.34060000  0.51340000  0.92360000  1.0 0.1211904791
H  H2  1  0.65940000  0.01340000  0.57640000  1.0 0.1211904791
H  H3  1  0.65940000  0.48660000  0.07640000  1.0 0.1211904791
H  H4  1  0.34060000  0.98660000  0.42360000  1.0 0.1211904791
H  H5  1  0.52050000  0.61900000  0.01690000  1.0 0.1505770825
H  H6  1  0.47950000  0.11900000  0.48310000  1.0 0.1505770825
H  H7  1  0.47950000  0.38100000  0.98310000  1.0 0.1505770825
H  H8  1  0.52050000  0.88100000  0.51690000  1.0 0.1505770825
H  H9  1  0.39300000  0.67960000  0.74290000  1.0 0.1113287461
H  H10  1  0.60700000  0.17960000  0.75710000  1.0 0.1113287461
H  H11  1  0.60700000  0.32040000  0.25710000  1.0 0.1113287461
H  H12  1  0.39300000  0.82040000  0.24290000  1.0 0.1113287461
H  H13  1  0.63700000  0.63790000  0.66040000  1.0 0.1505770825
H  H14  1  0.36300000  0.13790000  0.83960000  1.0 0.1505770825
H  H15  1  0.36300000  0.36210000  0.33960000  1.0 0.1505770825
H  H16  1  0.63700000  0.86210000  0.16040000  1.0 0.1505770825
H  H17  1  0.37780000  0.55350000  0.80960000  1.0 0.1025708783
H  H18  1  0.62220000  0.05350000  0.69040000  1.0 0.1025708783
H  H19  1  0.62220000  0.44650000  0.19040000  1.0 0.1025708783
H  H20  1  0.37780000  0.94650000  0.30960000  1.0 0.1025708783
H  H21  1  0.45740000  0.75920000  0.84750000  1.0 0.1113287461
H  H22  1  0.54260000  0.25920000  0.65250000  1.0 0.1113287461
H  H23  1  0.54260000  0.24080000  0.15250000  1.0 0.1113287461
H  H24  1  0.45740000  0.74080000  0.34750000  1.0 0.1113287461
H  H25  1  0.43760000  0.81610000  0.91080000  1.0 0.1211904791
H  H26  1  0.56240000  0.31610000  0.58920000  1.0 0.1211904791
H  H27  1  0.56240000  0.18390000  0.08920000  1.0 0.1211904791
H  H28  1  0.43760000  0.68390000  0.41080000  1.0 0.1211904791
H  H29  1  0.42420000  0.72010000  0.62810000  1.0 0.128831322
H  H30  1  0.57580000  0.22010000  0.87190000  1.0 0.128831322
H  H31  1  0.57580000  0.27990000  0.37190000  1.0 0.128831322
H  H32  1  0.42420000  0.77990000  0.12810000  1.0 0.128831322
H  H33  1  0.52600000  0.00120000  0.81780000  1.0 0.1113287461
H  H34  1  0.47400000  0.50120000  0.68220000  1.0 0.1113287461
H  H35  1  0.47400000  0.99880000  0.18220000  1.0 0.1113287461
H  H36  1  0.52600000  0.49880000  0.31780000  1.0 0.1113287461
H  H37  1  0.45200000  0.98510000  0.86370000  1.0 0.1211904791
H  H38  1  0.54800000  0.48510000  0.63630000  1.0 0.1211904791
H  H39  1  0.54800000  0.01490000  0.13630000  1.0 0.1211904791
H  H40  1  0.45200000  0.51490000  0.36370000  1.0 0.1211904791
H  H41  1  0.62520000  0.84970000  0.79510000  1.0 0.1211904791
H  H42  1  0.37480000  0.34970000  0.70490000  1.0 0.1211904791
H  H43  1  0.37480000  0.15030000  0.20490000  1.0 0.1211904791
H  H44  1  0.62520000  0.65030000  0.29510000  1.0 0.1211904791
H  H45  1  0.57100000  0.78120000  0.77520000  1.0 0.1211904791
H  H46  1  0.42900000  0.28120000  0.72480000  1.0 0.1211904791
H  H47  1  0.42900000  0.21880000  0.22480000  1.0 0.1211904791
H  H48  1  0.57100000  0.71880000  0.27520000  1.0 0.1211904791
H  H49  1  0.50620000  0.85050000  0.69880000  1.0 0.1211904791
H  H50  1  0.49380000  0.35050000  0.80120000  1.0 0.1211904791
H  H51  1  0.49380000  0.14950000  0.30120000  1.0 0.1211904791
H  H52  1  0.50620000  0.64950000  0.19880000  1.0 0.1211904791
H  H53  1  0.55960000  0.91930000  0.71970000  1.0 0.1211904791
H  H54  1  0.44040000  0.41930000  0.78030000  1.0 0.1211904791
H  H55  1  0.44040000  0.08070000  0.28030000  1.0 0.1211904791
H  H56  1  0.55960000  0.58070000  0.21970000  1.0 0.1211904791
H  H57  1  0.84670000  0.70010000  0.76510000  1.0 0.128831322
H  H58  1  0.15330000  0.20010000  0.73490000  1.0 0.128831322
H  H59  1  0.15330000  0.29990000  0.23490000  1.0 0.128831322
H  H60  1  0.84670000  0.79990000  0.26510000  1.0 0.1211904791
H  H61  1  0.79970000  0.89050000  0.86790000  1.0 0.128831322
H  H62  1  0.20030000  0.39050000  0.63210000  1.0 0.128831322
H  H63  1  0.20030000  0.10950000  0.13210000  1.0 0.128831322
H  H64  1  0.79970000  0.60950000  0.36790000  1.0 0.128831322
H  H65  1  0.52100000  0.91770000  0.94010000  1.0 0.1211904791
H  H66  1  0.47900000  0.41770000  0.55990000  1.0 0.1211904791
H  H67  1  0.47900000  0.08230000  0.05990000  1.0 0.1211904791
H  H68  1  0.52100000  0.58230000  0.44010000  1.0 0.1211904791
H  H69  1  0.59460000  0.93220000  0.89300000  1.0 0.1211904791
H  H70  1  0.40540000  0.43220000  0.60700000  1.0 0.1211904791
H  H71  1  0.40540000  0.06780000  0.10700000  1.0 0.1211904791
H  H72  1  0.59460000  0.56780000  0.39300000  1.0 0.1211904791
H  H73  1  0.37010000  0.88060000  0.83180000  1.0 0.128831322
H  H74  1  0.62990000  0.38060000  0.66820000  1.0 0.128831322
H  H75  1  0.62990000  0.11940000  0.16820000  1.0 0.128831322
H  H76  1  0.37010000  0.61940000  0.33180000  1.0 0.128831322
H  H77  1  0.39360000  0.82620000  0.76770000  1.0 0.1211904791
H  H78  1  0.60640000  0.32620000  0.73230000  1.0 0.1211904791
H  H79  1  0.60640000  0.17380000  0.23230000  1.0 0.1211904791
H  H80  1  0.39360000  0.67380000  0.26770000  1.0 0.1211904791
H  H81  1  0.09390000  0.02730000  0.67010000  1.0 0.128831322
H  H82  1  0.90610000  0.52730000  0.82990000  1.0 0.128831322
H  H83  1  0.90610000  0.97270000  0.32990000  1.0 0.128831322
H  H84  1  0.09390000  0.47270000  0.17010000  1.0 0.128831322
H  H85  1  0.91050000  0.94150000  0.82410000  1.0 0.1364891944
H  H86  1  0.08950000  0.44150000  0.67590000  1.0 0.1364891944
H  H87  1  0.08950000  0.05850000  0.17590000  1.0 0.128831322
H  H88  1  0.91050000  0.55850000  0.32410000  1.0 0.128831322
H  H89  1  0.08640000  0.79980000  0.78480000  1.0 0.1364891944
H  H90  1  0.91360000  0.29980000  0.71520000  1.0 0.1364891944
H  H91  1  0.91360000  0.20020000  0.21520000  1.0 0.1364891944
H  H92  1  0.08640000  0.70020000  0.28480000  1.0 0.1364891944
H  H93  1  0.20250000  0.84850000  0.75230000  1.0 0.1113287461
H  H94  1  0.79750000  0.34850000  0.74770000  1.0 0.1113287461
H  H95  1  0.79750000  0.15150000  0.24770000  1.0 0.1113287461
H  H96  1  0.20250000  0.65150000  0.25230000  1.0 0.1113287461
H  H97  1  0.95010000  0.69810000  0.69930000  1.0 0.2489141144
H  H98  1  0.04990000  0.19810000  0.80070000  1.0 0.2489141144
H  H99  1  0.04990000  0.30190000  0.30070000  1.0 0.2489141144
H  H100  1  0.95010000  0.80190000  0.19930000  1.0 0.2489141144
H  H101  1  0.96930000  0.03290000  0.68260000  1.0 0.2489141144
H  H102  1  0.03070000  0.53290000  0.81740000  1.0 0.2489141144
H  H103  1  0.03070000  0.96710000  0.31740000  1.0 0.2489141144
H  H104  1  0.96930000  0.46710000  0.18260000  1.0 0.2489141144
H  H105  1  0.13340000  0.76120000  0.80100000  1.0 0.2341942892
H  H106  1  0.86660000  0.26120000  0.69900000  1.0 0.2341942892
H  H107  1  0.86660000  0.23880000  0.19900000  1.0 0.2341942892
H  H108  1  0.13340000  0.73880000  0.30100000  1.0 0.2341942892
H  H109  1  0.91900000  0.99110000  0.79410000  1.0 0.2791189619
H  H110  1  0.08100000  0.49110000  0.70590000  1.0 0.2791189619
H  H111  1  0.08100000  0.00890000  0.20590000  1.0 0.2791189619
H  H112  1  0.91900000  0.50890000  0.29410000  1.0 0.2791189619
H  H113  1  0.95790000  0.75150000  0.72250000  1.0 0.1025708783
H  H114  1  0.04210000  0.25150000  0.77750000  1.0 0.1025708783
H  H115  1  0.04210000  0.24850000  0.27750000  1.0 0.1025708783
H  H116  1  0.95790000  0.74850000  0.22250000  1.0 0.1025708783
H  H117  1  0.97830000  0.97720000  0.70170000  1.0 0.1211904791
H  H118  1  0.02170000  0.47720000  0.79830000  1.0 0.1211904791
H  H119  1  0.02170000  0.02280000  0.29830000  1.0 0.1211904791
H  H120  1  0.97830000  0.52280000  0.20170000  1.0 0.1211904791
C  C1  1  0.40647000  0.53507000  0.05378000  1.0 0.5777774744
C  C2  1  0.59353000  0.03507000  0.44622000  1.0 0.5777774744
C  C3  1  0.59353000  0.46493000  0.94622000  1.0 0.5777774744
C  C4  1  0.40647000  0.96493000  0.55378000  1.0 0.5777774744
C  C5  1  0.47389000  0.60770000  0.84402000  1.0 -0.0380108489
C  C6  1  0.52611000  0.10770000  0.65598000  1.0 -0.0380108489
C  C7  1  0.52611000  0.39230000  0.15598000  1.0 -0.0380108489
C  C8  1  0.47389000  0.89230000  0.34402000  1.0 -0.0380108489
C  C9  1  0.38521000  0.54232000  0.91955000  1.0 -0.1181709757
C  C10  1  0.61479000  0.04232000  0.58045000  1.0 -0.1181709757
C  C11  1  0.61479000  0.45768000  0.08045000  1.0 -0.1181709757
C  C12  1  0.38521000  0.95768000  0.41955000  1.0 -0.1181709757
C  C13  1  0.49257000  0.60428000  0.97431000  1.0 -0.2113532282
C  C14  1  0.50743000  0.10428000  0.52569000  1.0 -0.2113532282
C  C15  1  0.50743000  0.39572000  0.02569000  1.0 -0.2113532282
C  C16  1  0.49257000  0.89572000  0.47431000  1.0 -0.2113532282
C  C17  1  0.51724000  0.62630000  0.90698000  1.0 0.2587506019
C  C18  1  0.48276000  0.12630000  0.59302000  1.0 0.2587506019
C  C19  1  0.48276000  0.37370000  0.09302000  1.0 0.2587506019
C  C20  1  0.51724000  0.87370000  0.40698000  1.0 0.2587506019
C  C21  1  0.42785000  0.56104000  0.98120000  1.0 -0.0196763694
C  C22  1  0.57215000  0.06104000  0.51880000  1.0 -0.0196763694
C  C23  1  0.57215000  0.43896000  0.01880000  1.0 -0.0196763694
C  C24  1  0.42785000  0.93896000  0.48120000  1.0 -0.0196763694
C  C25  1  0.74283000  0.75424000  0.84943000  1.0 0.5777774744
C  C26  1  0.25717000  0.25424000  0.65057000  1.0 0.5777774744
C  C27  1  0.25717000  0.24576000  0.15057000  1.0 0.5777774744
C  C28  1  0.74283000  0.74576000  0.34943000  1.0 0.5777774744
C  C29  1  0.44253000  0.67073000  0.72600000  1.0 -0.1621872045
C  C30  1  0.55747000  0.17073000  0.77400000  1.0 -0.1621872045
C  C31  1  0.55747000  0.32927000  0.27400000  1.0 -0.1621872045
C  C32  1  0.44253000  0.82927000  0.22600000  1.0 -0.1621872045
C  C33  1  0.58702000  0.64544000  0.67679000  1.0 -0.2409140028
C  C34  1  0.41298000  0.14544000  0.82321000  1.0 -0.2409140028
C  C35  1  0.41298000  0.35456000  0.32321000  1.0 -0.2409140028
C  C36  1  0.58702000  0.85456000  0.17679000  1.0 -0.2409140028
C  C37  1  0.53387000  0.68341000  0.63254000  1.0 -0.0082929607
C  C38  1  0.46613000  0.18341000  0.86746000  1.0 -0.0082929607
C  C39  1  0.46613000  0.31659000  0.36746000  1.0 -0.0082929607
C  C40  1  0.53387000  0.81659000  0.13254000  1.0 -0.0082929607
C  C41  1  0.81291000  0.79032000  0.82129000  1.0 -0.003381686
C  C42  1  0.18709000  0.29032000  0.67871000  1.0 -0.003381686
C  C43  1  0.18709000  0.20968000  0.17871000  1.0 -0.003381686
C  C44  1  0.81291000  0.70968000  0.32129000  1.0 -0.003381686
C  C45  1  0.56744000  0.61894000  0.74401000  1.0 0.2587506019
C  C46  1  0.43256000  0.11894000  0.75599000  1.0 0.2587506019
C  C47  1  0.43256000  0.38106000  0.25599000  1.0 0.2587506019
C  C48  1  0.56744000  0.88106000  0.24401000  1.0 0.2587506019
C  C49  1  0.23354000  0.97605000  0.68816000  1.0 0.6025358283
C  C50  1  0.76646000  0.47605000  0.81184000  1.0 0.6025358283
C  C51  1  0.76646000  0.02395000  0.31184000  1.0 0.6025358283
C  C52  1  0.23354000  0.52395000  0.18816000  1.0 0.6025358283
C  C53  1  0.40777000  0.56593000  0.85166000  1.0 -0.150199766
C  C54  1  0.59223000  0.06593000  0.64834000  1.0 -0.150199766
C  C55  1  0.59223000  0.43407000  0.14834000  1.0 -0.150199766
C  C56  1  0.40777000  0.93407000  0.35166000  1.0 -0.150199766
C  C57  1  0.55391000  0.70719000  0.55793000  1.0 0.5247403823
C  C58  1  0.44609000  0.20719000  0.94207000  1.0 0.5247403823
C  C59  1  0.44609000  0.29281000  0.44207000  1.0 0.5247403823
C  C60  1  0.55391000  0.79281000  0.05793000  1.0 0.5247403823
C  C61  1  0.49517000  0.63309000  0.77079000  1.0 -0.0380108489
C  C62  1  0.50483000  0.13309000  0.72921000  1.0 -0.0380108489
C  C63  1  0.50483000  0.36691000  0.22921000  1.0 -0.0380108489
C  C64  1  0.49517000  0.86691000  0.27079000  1.0 -0.0380108489
C  C65  1  0.45987000  0.81164000  0.86220000  1.0 -0.1181709757
C  C66  1  0.54013000  0.31164000  0.63780000  1.0 -0.1181709757
C  C67  1  0.54013000  0.18836000  0.13780000  1.0 -0.1181709757
C  C68  1  0.45987000  0.68836000  0.36220000  1.0 -0.1181709757
C  C69  1  0.46105000  0.69517000  0.65783000  1.0 -0.150199766
C  C70  1  0.53895000  0.19517000  0.84217000  1.0 -0.150199766
C  C71  1  0.53895000  0.30483000  0.34217000  1.0 -0.150199766
C  C72  1  0.46105000  0.80483000  0.15783000  1.0 -0.150199766
C  C73  1  0.49380000  0.96156000  0.83740000  1.0 -0.1181709757
C  C74  1  0.50620000  0.46156000  0.66260000  1.0 -0.1181709757
C  C75  1  0.50620000  0.03844000  0.16260000  1.0 -0.1181709757
C  C76  1  0.49380000  0.53844000  0.33740000  1.0 -0.1181709757
C  C77  1  0.57175000  0.83280000  0.79278000  1.0 -0.1181709757
C  C78  1  0.42825000  0.33280000  0.70722000  1.0 -0.1181709757
C  C79  1  0.42825000  0.16720000  0.20722000  1.0 -0.1181709757
C  C80  1  0.57175000  0.66720000  0.29278000  1.0 -0.1181709757
C  C81  1  0.52608000  0.88105000  0.73978000  1.0 -0.1181709757
C  C82  1  0.47392000  0.38105000  0.76022000  1.0 -0.1181709757
C  C83  1  0.47392000  0.11895000  0.26022000  1.0 -0.1181709757
C  C84  1  0.52608000  0.61895000  0.23978000  1.0 -0.1181709757
C  C85  1  0.85992000  0.74935000  0.77773000  1.0 -0.1992157705
C  C86  1  0.14008000  0.24935000  0.72227000  1.0 -0.1992157705
C  C87  1  0.14008000  0.25065000  0.22227000  1.0 -0.1992157705
C  C88  1  0.85992000  0.75065000  0.27773000  1.0 -0.1992157705
C  C89  1  0.83182000  0.86181000  0.83850000  1.0 -0.1833393283
C  C90  1  0.16818000  0.36181000  0.66150000  1.0 -0.1833393283
C  C91  1  0.16818000  0.13819000  0.16150000  1.0 -0.1833393283
C  C92  1  0.83182000  0.63819000  0.33850000  1.0 -0.1833393283
C  C93  1  0.54159000  0.91405000  0.89076000  1.0 -0.1181709757
C  C94  1  0.45841000  0.41405000  0.60924000  1.0 -0.1181709757
C  C95  1  0.45841000  0.08595000  0.10924000  1.0 -0.1181709757
C  C96  1  0.54159000  0.58595000  0.39076000  1.0 -0.1181709757
C  C97  1  0.41375000  0.85816000  0.80741000  1.0 -0.1181709757
C  C98  1  0.58625000  0.35816000  0.69259000  1.0 -0.1181709757
C  C99  1  0.58625000  0.14184000  0.19259000  1.0 -0.1181709757
C  C100  1  0.41375000  0.64184000  0.30741000  1.0 -0.1181709757
C  C101  1  0.15946000  0.94342000  0.70750000  1.0 -0.0082929607
C  C102  1  0.84054000  0.44342000  0.79250000  1.0 -0.0082929607
C  C103  1  0.84054000  0.05658000  0.29250000  1.0 -0.0082929607
C  C104  1  0.15946000  0.55658000  0.20750000  1.0 -0.0082929607
C  C105  1  0.92617000  0.77990000  0.75250000  1.0 0.1113287461
C  C106  1  0.07383000  0.27990000  0.74750000  1.0 0.1113287461
C  C107  1  0.07383000  0.22010000  0.24750000  1.0 0.1113287461
C  C108  1  0.92617000  0.72010000  0.25250000  1.0 0.1113287461
C  C109  1  0.94670000  0.85180000  0.77070000  1.0 -0.0757086209
C  C110  1  0.05330000  0.35180000  0.72930000  1.0 -0.0757086209
C  C111  1  0.05330000  0.14820000  0.22930000  1.0 -0.0757086209
C  C112  1  0.94670000  0.64820000  0.27070000  1.0 -0.0709281571
C  C113  1  0.09279000  0.98050000  0.69340000  1.0 -0.1902734812
C  C114  1  0.90721000  0.48050000  0.80660000  1.0 -0.1902734812
C  C115  1  0.90721000  0.01950000  0.30660000  1.0 -0.1902734812
C  C116  1  0.09279000  0.51950000  0.19340000  1.0 -0.1902734812
C  C117  1  0.89820000  0.89179000  0.81260000  1.0 0.0893470992
C  C118  1  0.10180000  0.39179000  0.68740000  1.0 0.0893470992
C  C119  1  0.10180000  0.10821000  0.18740000  1.0 0.0893470992
C  C120  1  0.89820000  0.60821000  0.31260000  1.0 0.0893470992
C  C121  1  0.02043000  0.88320000  0.74730000  1.0 -0.0709281571
C  C122  1  0.97957000  0.38320000  0.75270000  1.0 -0.0709281571
C  C123  1  0.97957000  0.11680000  0.25270000  1.0 -0.0625696152
C  C124  1  0.02043000  0.61680000  0.24730000  1.0 -0.0709281571
C  C125  1  0.08760000  0.84640000  0.76130000  1.0 0.0893470992
C  C126  1  0.91240000  0.34640000  0.73870000  1.0 0.0893470992
C  C127  1  0.91240000  0.15360000  0.23870000  1.0 0.0893470992
C  C128  1  0.08760000  0.65360000  0.26130000  1.0 0.0893470992
C  C129  1  0.15700000  0.87510000  0.74200000  1.0 -0.1902734812
C  C130  1  0.84300000  0.37510000  0.75800000  1.0 -0.1902734812
C  C131  1  0.84300000  0.12490000  0.25800000  1.0 -0.1902734812
C  C132  1  0.15700000  0.62490000  0.24200000  1.0 -0.1902734812
C  C133  1  0.02386000  0.95090000  0.71250000  1.0 0.1025708783
C  C134  1  0.97614000  0.45090000  0.78750000  1.0 0.1025708783
C  C135  1  0.97614000  0.04910000  0.28750000  1.0 0.1025708783
C  C136  1  0.02386000  0.54910000  0.21250000  1.0 0.1025708783
N  N1  1  0.54017000  0.83592000  0.86642000  1.0 -0.1079033471
N  N2  1  0.45983000  0.33592000  0.63358000  1.0 -0.1079033471
N  N3  1  0.45983000  0.16408000  0.13358000  1.0 -0.1079033471
N  N4  1  0.54017000  0.66408000  0.36642000  1.0 -0.1079033471
N  N5  1  0.46149000  0.91721000  0.77642000  1.0 -0.1079033471
N  N6  1  0.53851000  0.41721000  0.72358000  1.0 -0.1079033471
N  N7  1  0.53851000  0.08279000  0.22358000  1.0 -0.1079033471
N  N8  1  0.46149000  0.58279000  0.27642000  1.0 -0.1079033471
O  O1  1  0.61762000  0.57511000  0.78129000  1.0 -0.5864233332
O  O2  1  0.38238000  0.07511000  0.71871000  1.0 -0.5864233332
O  O3  1  0.38238000  0.42489000  0.21871000  1.0 -0.5864233332
O  O4  1  0.61762000  0.92489000  0.28129000  1.0 -0.5849702514
O  O5  1  0.35624000  0.48651000  0.05884000  1.0 -0.5693589009
O  O6  1  0.64376000  0.98651000  0.44116000  1.0 -0.5693589009
O  O7  1  0.64376000  0.51349000  0.94116000  1.0 -0.5693589009
O  O8  1  0.35624000  0.01349000  0.55884000  1.0 -0.5693589009
O  O9  1  0.44108000  0.56358000  0.10933000  1.0 -0.5501097597
O  O10  1  0.55892000  0.06358000  0.39067000  1.0 -0.5501097597
O  O11  1  0.55892000  0.43642000  0.89067000  1.0 -0.5501097597
O  O12  1  0.44108000  0.93642000  0.60933000  1.0 -0.5501097597
O  O13  1  0.70688000  0.78927000  0.89754000  1.0 -0.5693589009
O  O14  1  0.29312000  0.28927000  0.60246000  1.0 -0.5693589009
O  O15  1  0.29312000  0.21073000  0.10246000  1.0 -0.5693589009
O  O16  1  0.70688000  0.71073000  0.39754000  1.0 -0.5693589009
O  O17  1  0.23323000  0.03749000  0.65769000  1.0 -0.5501097597
O  O18  1  0.76677000  0.53749000  0.84231000  1.0 -0.5501097597
O  O19  1  0.76677000  0.96251000  0.34231000  1.0 -0.5501097597
O  O20  1  0.23323000  0.46251000  0.15769000  1.0 -0.5501097597
O  O21  1  0.58327000  0.66518000  0.90175000  1.0 -0.6279684163
O  O22  1  0.41673000  0.16518000  0.59825000  1.0 -0.6279684163
O  O23  1  0.41673000  0.33482000  0.09825000  1.0 -0.6279684163
O  O24  1  0.58327000  0.83482000  0.40175000  1.0 -0.6279684163
O  O25  1  0.29256000  0.93827000  0.70567000  1.0 -0.5638038672
O  O26  1  0.70744000  0.43827000  0.79433000  1.0 -0.5638038672
O  O27  1  0.70744000  0.06173000  0.29433000  1.0 -0.5638038672
O  O28  1  0.29256000  0.56173000  0.20567000  1.0 -0.5638038672
O  O29  1  0.72424000  0.69334000  0.82272000  1.0 -0.5402445204
O  O30  1  0.27576000  0.19334000  0.67728000  1.0 -0.5402445204
O  O31  1  0.27576000  0.30666000  0.17728000  1.0 -0.5402445204
O  O32  1  0.72424000  0.80666000  0.32272000  1.0 -0.5402445204
O  O33  1  0.50442000  0.73206000  0.51491000  1.0 -0.5402445204
O  O34  1  0.49558000  0.23206000  0.98509000  1.0 -0.5402445204
O  O35  1  0.49558000  0.26794000  0.48509000  1.0 -0.5402445204
O  O36  1  0.50442000  0.76794000  0.01491000  1.0 -0.5402445204
O  O37  1  0.62206000  0.70020000  0.53787000  1.0 -0.5298981822
O  O38  1  0.37794000  0.20020000  0.96213000  1.0 -0.5298981822
O  O39  1  0.37794000  0.29980000  0.46213000  1.0 -0.5298981822
O  O40  1  0.62206000  0.79980000  0.03787000  1.0 -0.5298981822
O  O41  1  0.97020000  0.73960000  0.70670000  1.0 -0.3487571485
O  O42  1  0.02980000  0.23960000  0.79330000  1.0 -0.3487571485
O  O43  1  0.02980000  0.26040000  0.29330000  1.0 -0.3487571485
O  O44  1  0.97020000  0.76040000  0.20670000  1.0 -0.3487571485
O  O45  1  0.95799000  0.99060000  0.69750000  1.0 -0.3699931882
O  O46  1  0.04201000  0.49060000  0.80250000  1.0 -0.3699931882
O  O47  1  0.04201000  0.00940000  0.30250000  1.0 -0.3699931882
O  O48  1  0.95799000  0.50940000  0.19750000  1.0 -0.3699931882
O  O49  1  0.08990000  0.77990000  0.80250000  1.0 -0.3699931882
O  O50  1  0.91010000  0.27990000  0.69750000  1.0 -0.3699931882
O  O51  1  0.91010000  0.22010000  0.19750000  1.0 -0.3699931882
O  O52  1  0.08990000  0.72010000  0.30250000  1.0 -0.3699931882
O  O53  1  0.90920000  0.96670000  0.83150000  1.0 -0.3699931882
O  O54  1  0.09080000  0.46670000  0.66850000  1.0 -0.3699931882
O  O55  1  0.09080000  0.03330000  0.16850000  1.0 -0.3699931882
O  O56  1  0.90920000  0.53330000  0.33150000  1.0 -0.3699931882
