# DDEC6 charges by PACMAN v1.1 (https://github.com/mtap-research/PACMAN-charge/)
data_ROTTOL_ASR_pacman
_symmetry_space_group_name_H-M   'P 1'
_cell_length_a   11.36100000
_cell_length_b   15.53200000
_cell_length_c   16.26900000
_cell_angle_alpha   90.00000000
_cell_angle_beta   94.66100000
_cell_angle_gamma   90.00000000
_symmetry_Int_Tables_number   1
_chemical_formula_structural   ZnH12C21N2O5
_chemical_formula_sum   'Zn4 H48 C84 N8 O20'
_cell_volume   2861.31833885
_cell_formula_units_Z   4
loop_
 _symmetry_equiv_pos_site_id
 _symmetry_equiv_pos_as_xyz
  1  'x, y, z'
loop_
 _atom_site_type_symbol
 _atom_site_label
 _atom_site_symmetry_multiplicity
 _atom_site_fract_x
 _atom_site_fract_y
 _atom_site_fract_z
 _atom_site_occupancy
 _atom_site_charge
Zn  Zn1  1  0.97579000  0.87401000  0.96189000  1.0 0.7981722167
Zn  Zn2  1  0.02421000  0.37401000  0.53811000  1.0 0.7981722167
Zn  Zn3  1  0.02421000  0.12599000  0.03811000  1.0 0.7981722167
Zn  Zn4  1  0.97579000  0.62599000  0.46189000  1.0 0.7981722167
H  H1  1  0.01400000  0.57800000  0.95000000  1.0 0.1461027673
H  H2  1  0.98600000  0.07800000  0.55000000  1.0 0.1461027673
H  H3  1  0.98600000  0.42200000  0.05000000  1.0 0.1461027673
H  H4  1  0.01400000  0.92200000  0.45000000  1.0 0.1461027673
H  H5  1  0.98200000  0.68600000  0.72300000  1.0 0.1240363008
H  H6  1  0.01800000  0.18600000  0.77700000  1.0 0.1240363008
H  H7  1  0.01800000  0.31400000  0.27700000  1.0 0.1240363008
H  H8  1  0.98200000  0.81400000  0.22300000  1.0 0.1240363008
H  H9  1  0.05400000  0.43500000  0.74600000  1.0 0.1390249095
H  H10  1  0.94600000  0.93500000  0.75400000  1.0 0.1390249095
H  H11  1  0.94600000  0.56500000  0.25400000  1.0 0.1390249095
H  H12  1  0.05400000  0.06500000  0.24600000  1.0 0.1390249095
H  H13  1  0.37900000  0.97400000  0.86600000  1.0 0.1022147006
H  H14  1  0.62100000  0.47400000  0.63400000  1.0 0.1022147006
H  H15  1  0.62100000  0.02600000  0.13400000  1.0 0.1022147006
H  H16  1  0.37900000  0.52600000  0.36600000  1.0 0.1022147006
H  H17  1  0.77700000  0.83600000  0.07200000  1.0 0.1122639737
H  H18  1  0.22300000  0.33600000  0.42800000  1.0 0.1122639737
H  H19  1  0.22300000  0.16400000  0.92800000  1.0 0.1122639737
H  H20  1  0.77700000  0.66400000  0.57200000  1.0 0.1122639737
H  H21  1  0.56400000  0.90100000  0.83400000  1.0 0.1390249095
H  H22  1  0.43600000  0.40100000  0.66600000  1.0 0.1390249095
H  H23  1  0.43600000  0.09900000  0.16600000  1.0 0.1390249095
H  H24  1  0.56400000  0.59900000  0.33400000  1.0 0.1390249095
H  H25  1  0.76800000  0.88300000  0.84300000  1.0 0.1122639737
H  H26  1  0.23200000  0.38300000  0.65700000  1.0 0.1122639737
H  H27  1  0.23200000  0.11700000  0.15700000  1.0 0.1122639737
H  H28  1  0.76800000  0.61700000  0.34300000  1.0 0.1122639737
H  H29  1  0.17200000  0.95900000  0.86000000  1.0 0.1022147006
H  H30  1  0.82800000  0.45900000  0.64000000  1.0 0.1022147006
H  H31  1  0.82800000  0.04100000  0.14000000  1.0 0.1022147006
H  H32  1  0.17200000  0.54100000  0.36000000  1.0 0.1022147006
H  H33  1  0.58200000  0.84700000  0.07700000  1.0 0.1316842622
H  H34  1  0.41800000  0.34700000  0.42300000  1.0 0.1316842622
H  H35  1  0.41800000  0.15300000  0.92300000  1.0 0.1316842622
H  H36  1  0.58200000  0.65300000  0.57700000  1.0 0.1316842622
H  H37  1  0.39400000  0.79600000  0.05300000  1.0 0.1316842622
H  H38  1  0.60600000  0.29600000  0.44700000  1.0 0.1316842622
H  H39  1  0.60600000  0.20400000  0.94700000  1.0 0.1316842622
H  H40  1  0.39400000  0.70400000  0.55300000  1.0 0.1316842622
H  H41  1  0.18400000  0.78900000  0.05000000  1.0 0.1022147006
H  H42  1  0.81600000  0.28900000  0.45000000  1.0 0.1022147006
H  H43  1  0.81600000  0.21100000  0.95000000  1.0 0.1022147006
H  H44  1  0.18400000  0.71100000  0.55000000  1.0 0.1022147006
H  H45  1  0.37100000  0.31900000  0.80200000  1.0 0.2105290292
H  H46  1  0.62900000  0.81900000  0.69800000  1.0 0.2105290292
H  H47  1  0.62900000  0.68100000  0.19800000  1.0 0.2105290292
H  H48  1  0.37100000  0.18100000  0.30200000  1.0 0.2105290292
C  C1  1  0.99900000  0.64820000  0.84180000  1.0 0.0145691934
C  C2  1  0.00100000  0.14820000  0.65820000  1.0 0.0145691934
C  C3  1  0.00100000  0.35180000  0.15820000  1.0 0.0145691934
C  C4  1  0.99900000  0.85180000  0.34180000  1.0 0.0145691934
C  C5  1  0.01600000  0.56400000  0.71970000  1.0 -0.0235317428
C  C6  1  0.98400000  0.06400000  0.78030000  1.0 -0.0235317428
C  C7  1  0.98400000  0.43600000  0.28030000  1.0 -0.0235317428
C  C8  1  0.01600000  0.93600000  0.21970000  1.0 -0.0235317428
C  C9  1  0.54080000  0.87510000  0.96010000  1.0 0.1022147006
C  C10  1  0.45920000  0.37510000  0.53990000  1.0 0.1022147006
C  C11  1  0.45920000  0.12490000  0.03990000  1.0 0.1022147006
C  C12  1  0.54080000  0.62490000  0.46010000  1.0 0.1022147006
C  C13  1  0.98400000  0.73470000  0.88200000  1.0 0.5376834979
C  C14  1  0.01600000  0.23470000  0.61800000  1.0 0.5376834979
C  C15  1  0.01600000  0.26530000  0.11800000  1.0 0.5376834979
C  C16  1  0.98400000  0.76530000  0.38200000  1.0 0.5376834979
C  C17  1  0.41030000  0.87790000  0.95980000  1.0 0.0936142199
C  C18  1  0.58970000  0.37790000  0.54020000  1.0 0.0936142199
C  C19  1  0.58970000  0.12210000  0.04020000  1.0 0.0936142199
C  C20  1  0.41030000  0.62210000  0.45980000  1.0 0.0936142199
C  C21  1  0.99690000  0.64260000  0.75670000  1.0 -0.1327422039
C  C22  1  0.00310000  0.14260000  0.74330000  1.0 -0.1327422039
C  C23  1  0.00310000  0.35740000  0.24330000  1.0 -0.1327422039
C  C24  1  0.99690000  0.85740000  0.25670000  1.0 -0.1327422039
C  C25  1  0.01810000  0.57600000  0.89030000  1.0 -0.2062601523
C  C26  1  0.98190000  0.07600000  0.60970000  1.0 -0.2062601523
C  C27  1  0.98190000  0.42400000  0.10970000  1.0 -0.2062601523
C  C28  1  0.01810000  0.92400000  0.39030000  1.0 -0.2062601523
C  C29  1  0.03600000  0.49640000  0.85300000  1.0 0.283917684
C  C30  1  0.96400000  0.99640000  0.64700000  1.0 0.283917684
C  C31  1  0.96400000  0.50360000  0.14700000  1.0 0.283917684
C  C32  1  0.03600000  0.00360000  0.35300000  1.0 0.283917684
C  C33  1  0.03740000  0.49030000  0.76750000  1.0 -0.2319756971
C  C34  1  0.96260000  0.99030000  0.73250000  1.0 -0.2319756971
C  C35  1  0.96260000  0.50970000  0.23250000  1.0 -0.2319756971
C  C36  1  0.03740000  0.00970000  0.26750000  1.0 -0.2319756971
C  C37  1  0.34200000  0.92090000  0.90060000  1.0 -0.160852451
C  C38  1  0.65800000  0.42090000  0.59940000  1.0 -0.160852451
C  C39  1  0.65800000  0.07910000  0.09940000  1.0 -0.160852451
C  C40  1  0.34200000  0.57910000  0.40060000  1.0 -0.160852451
C  C41  1  0.61070000  0.85350000  0.02950000  1.0 -0.1989005833
C  C42  1  0.38930000  0.35350000  0.47050000  1.0 -0.1989005833
C  C43  1  0.38930000  0.14650000  0.97050000  1.0 -0.1989005833
C  C44  1  0.61070000  0.64650000  0.52950000  1.0 -0.1989005833
C  C45  1  0.22070000  0.92140000  0.90230000  1.0 0.0830310396
C  C46  1  0.77930000  0.42140000  0.59770000  1.0 0.0830310396
C  C47  1  0.77930000  0.07860000  0.09770000  1.0 0.0830310396
C  C48  1  0.22070000  0.57860000  0.40230000  1.0 0.0830310396
C  C49  1  0.73240000  0.85260000  0.02780000  1.0 0.0936142199
C  C50  1  0.26760000  0.35260000  0.47220000  1.0 0.0936142199
C  C51  1  0.26760000  0.14740000  0.97220000  1.0 0.0936142199
C  C52  1  0.73240000  0.64740000  0.52780000  1.0 0.0936142199
C  C53  1  0.35130000  0.83300000  0.01790000  1.0 -0.1889353135
C  C54  1  0.64870000  0.33300000  0.48210000  1.0 -0.1889353135
C  C55  1  0.64870000  0.16700000  0.98210000  1.0 -0.1889353135
C  C56  1  0.35130000  0.66700000  0.51790000  1.0 -0.1889353135
C  C57  1  0.59740000  0.88940000  0.88950000  1.0 -0.1989005833
C  C58  1  0.40260000  0.38940000  0.61050000  1.0 -0.1989005833
C  C59  1  0.40260000  0.11060000  0.11050000  1.0 -0.1989005833
C  C60  1  0.59740000  0.61060000  0.38950000  1.0 -0.1989005833
C  C61  1  0.71960000  0.88630000  0.89260000  1.0 0.0936142199
C  C62  1  0.28040000  0.38630000  0.60740000  1.0 0.0936142199
C  C63  1  0.28040000  0.11370000  0.10740000  1.0 0.0936142199
C  C64  1  0.71960000  0.61370000  0.39260000  1.0 0.0936142199
C  C65  1  0.22950000  0.83520000  0.01470000  1.0 0.1022147006
C  C66  1  0.77050000  0.33520000  0.48530000  1.0 0.1022147006
C  C67  1  0.77050000  0.16480000  0.98530000  1.0 0.1022147006
C  C68  1  0.22950000  0.66480000  0.51470000  1.0 0.1022147006
C  C69  1  0.07590000  0.34630000  0.87100000  1.0 0.0656093916
C  C70  1  0.92410000  0.84630000  0.62900000  1.0 0.0656093916
C  C71  1  0.92410000  0.65370000  0.12900000  1.0 0.0656093916
C  C72  1  0.07590000  0.15370000  0.37100000  1.0 0.0656093916
C  C73  1  0.19920000  0.34110000  0.84930000  1.0 -0.0263699239
C  C74  1  0.80080000  0.84110000  0.65070000  1.0 -0.0235317428
C  C75  1  0.80080000  0.65890000  0.15070000  1.0 -0.0235317428
C  C76  1  0.19920000  0.15890000  0.34930000  1.0 -0.0235317428
C  C77  1  0.01700000  0.55780000  0.62800000  1.0 0.5647729746
C  C78  1  0.98300000  0.05780000  0.87200000  1.0 0.5647729746
C  C79  1  0.98300000  0.44220000  0.37200000  1.0 0.5647729746
C  C80  1  0.01700000  0.94220000  0.12800000  1.0 0.5647729746
C  C81  1  0.29960000  0.33350000  0.83310000  1.0 -0.2997434476
C  C82  1  0.70040000  0.83350000  0.66690000  1.0 -0.2997434476
C  C83  1  0.70040000  0.66650000  0.16690000  1.0 -0.2997434476
C  C84  1  0.29960000  0.16650000  0.33310000  1.0 -0.2997434476
N  N1  1  0.16400000  0.88160000  0.95930000  1.0 -0.1989005833
N  N2  1  0.83600000  0.38160000  0.54070000  1.0 -0.1989005833
N  N3  1  0.83600000  0.11840000  0.04070000  1.0 -0.1989005833
N  N4  1  0.16400000  0.61840000  0.45930000  1.0 -0.1989005833
N  N5  1  0.78720000  0.87100000  0.96100000  1.0 -0.1989005833
N  N6  1  0.21280000  0.37100000  0.53900000  1.0 -0.1989005833
N  N7  1  0.21280000  0.12900000  0.03900000  1.0 -0.1989005833
N  N8  1  0.78720000  0.62900000  0.46100000  1.0 -0.1989005833
O  O1  1  0.96980000  0.80075000  0.83843000  1.0 -0.5488655531
O  O2  1  0.03020000  0.30075000  0.66157000  1.0 -0.5488655531
O  O3  1  0.03020000  0.19925000  0.16157000  1.0 -0.5488655531
O  O4  1  0.96980000  0.69925000  0.33843000  1.0 -0.5488655531
O  O5  1  0.98850000  0.73806000  0.95920000  1.0 -0.529423196
O  O6  1  0.01150000  0.23806000  0.54080000  1.0 -0.529423196
O  O7  1  0.01150000  0.26194000  0.04080000  1.0 -0.529423196
O  O8  1  0.98850000  0.76194000  0.45920000  1.0 -0.529423196
O  O9  1  0.05050000  0.42840000  0.90564000  1.0 -0.1327422039
O  O10  1  0.94950000  0.92840000  0.59436000  1.0 -0.1327422039
O  O11  1  0.94950000  0.57160000  0.09436000  1.0 -0.1327422039
O  O12  1  0.05050000  0.07160000  0.40564000  1.0 -0.1327422039
O  O13  1  0.98740000  0.62405000  0.58692000  1.0 -0.5488655531
O  O14  1  0.01260000  0.12405000  0.91308000  1.0 -0.5488655531
O  O15  1  0.01260000  0.37595000  0.41308000  1.0 -0.5488655531
O  O16  1  0.98740000  0.87595000  0.08692000  1.0 -0.5488655531
O  O17  1  0.04740000  0.48806000  0.59754000  1.0 -0.562505413
O  O18  1  0.95260000  0.98806000  0.90246000  1.0 -0.562505413
O  O19  1  0.95260000  0.51194000  0.40246000  1.0 -0.562505413
O  O20  1  0.04740000  0.01194000  0.09754000  1.0 -0.562505413
