# DDEC6 charges by PACMAN v1.1 (https://github.com/mtap-research/PACMAN-charge/)
data_ROYREE_FSR_pacman
_symmetry_space_group_name_H-M   'P 1'
_cell_length_a   14.41800000
_cell_length_b   19.09940000
_cell_length_c   30.59300000
_cell_angle_alpha   90.00000000
_cell_angle_beta   90.00000000
_cell_angle_gamma   90.00000000
_symmetry_Int_Tables_number   1
_chemical_formula_structural   Ho2H54C77(NO11)2
_chemical_formula_sum   'Ho8 H216 C308 N8 O88'
_cell_volume   8424.55193948
_cell_formula_units_Z   4
loop_
 _symmetry_equiv_pos_site_id
 _symmetry_equiv_pos_as_xyz
  1  'x, y, z'
loop_
 _atom_site_type_symbol
 _atom_site_label
 _atom_site_symmetry_multiplicity
 _atom_site_fract_x
 _atom_site_fract_y
 _atom_site_fract_z
 _atom_site_occupancy
 _atom_site_charge
Ho  Ho1  1  0.02725000  0.31145000  0.37080000  1.0 2.0696376255
Ho  Ho2  1  0.97275000  0.68855000  0.87080000  1.0 2.0696376255
Ho  Ho3  1  0.52725000  0.18855000  0.87080000  1.0 2.0696376255
Ho  Ho4  1  0.47275000  0.81145000  0.37080000  1.0 2.0696376255
Ho  Ho5  1  0.96480000  0.35751000  0.24681000  1.0 2.0347798756
Ho  Ho6  1  0.03520000  0.64249000  0.74681000  1.0 2.0347798756
Ho  Ho7  1  0.46480000  0.14249000  0.74681000  1.0 2.0347798756
Ho  Ho8  1  0.53520000  0.85751000  0.24681000  1.0 2.0347798756
H  H1  1  0.72720000  0.40280000  0.27070000  1.0 0.3490415188
H  H2  1  0.27280000  0.59720000  0.77070000  1.0 0.3490415188
H  H3  1  0.22720000  0.09720000  0.77070000  1.0 0.3490415188
H  H4  1  0.77280000  0.90280000  0.27070000  1.0 0.3490415188
H  H5  1  0.50490000  0.59960000  0.35690000  1.0 0.3490415188
H  H6  1  0.49510000  0.40040000  0.85690000  1.0 0.3490415188
H  H7  1  0.00490000  0.90040000  0.85690000  1.0 0.3490415188
H  H8  1  0.99510000  0.09960000  0.35690000  1.0 0.3490415188
H  H9  1  0.35960000  0.20110000  0.95190000  1.0 0.3490415188
H  H10  1  0.64040000  0.79890000  0.45190000  1.0 0.3490415188
H  H11  1  0.85960000  0.29890000  0.45190000  1.0 0.3490415188
H  H12  1  0.14040000  0.70110000  0.95190000  1.0 0.3490415188
H  H13  1  0.03180000  0.25440000  0.12910000  1.0 0.3432207098
H  H14  1  0.96820000  0.74560000  0.62910000  1.0 0.3432207098
H  H15  1  0.53180000  0.24560000  0.62910000  1.0 0.3432207098
H  H16  1  0.46820000  0.75440000  0.12910000  1.0 0.3432207098
H  H17  1  0.22490000  0.73980000  0.34830000  1.0 0.3490415188
H  H18  1  0.77510000  0.26020000  0.84830000  1.0 0.3490415188
H  H19  1  0.72490000  0.76020000  0.84830000  1.0 0.3490415188
H  H20  1  0.27510000  0.23980000  0.34830000  1.0 0.3490415188
H  H21  1  0.00170000  0.56890000  0.26460000  1.0 0.3432207098
H  H22  1  0.99830000  0.43110000  0.76460000  1.0 0.3432207098
H  H23  1  0.50170000  0.93110000  0.76460000  1.0 0.3432207098
H  H24  1  0.49830000  0.06890000  0.26460000  1.0 0.3432207098
H  H25  1  0.17220000  0.40560000  0.38480000  1.0 0.3781997031
H  H26  1  0.82780000  0.59440000  0.88480000  1.0 0.3781997031
H  H27  1  0.67220000  0.09440000  0.88480000  1.0 0.3781997031
H  H28  1  0.32780000  0.90560000  0.38480000  1.0 0.3781997031
H  H29  1  0.19100000  0.34810000  0.41250000  1.0 0.360841482
H  H30  1  0.80900000  0.65190000  0.91250000  1.0 0.360841482
H  H31  1  0.69100000  0.15190000  0.91250000  1.0 0.360841482
H  H32  1  0.30900000  0.84810000  0.41250000  1.0 0.360841482
H  H33  1  0.81770000  0.26160000  0.24590000  1.0 0.3781997031
H  H34  1  0.18230000  0.73840000  0.74590000  1.0 0.3781997031
H  H35  1  0.31770000  0.23840000  0.74590000  1.0 0.3781997031
H  H36  1  0.68230000  0.76160000  0.24590000  1.0 0.3781997031
H  H37  1  0.86360000  0.25080000  0.20580000  1.0 0.3717005244
H  H38  1  0.13640000  0.74920000  0.70580000  1.0 0.3717005244
H  H39  1  0.36360000  0.24920000  0.70580000  1.0 0.3717005244
H  H40  1  0.63640000  0.75080000  0.20580000  1.0 0.3717005244
H  H41  1  0.74600000  0.36660000  0.41170000  1.0 0.1286622053
H  H42  1  0.25400000  0.63340000  0.91170000  1.0 0.1286622053
H  H43  1  0.24600000  0.13340000  0.91170000  1.0 0.1286622053
H  H44  1  0.75400000  0.86660000  0.41170000  1.0 0.1286622053
H  H45  1  0.63680000  0.38190000  0.47280000  1.0 0.1180277882
H  H46  1  0.36320000  0.61810000  0.97280000  1.0 0.1180277882
H  H47  1  0.13680000  0.11810000  0.97280000  1.0 0.1180277882
H  H48  1  0.86320000  0.88190000  0.47280000  1.0 0.1180277882
H  H49  1  0.48940000  0.39710000  0.49730000  1.0 0.1102589765
H  H50  1  0.51060000  0.60290000  0.99730000  1.0 0.1102589765
H  H51  1  0.98940000  0.10290000  0.99730000  1.0 0.1102589765
H  H52  1  0.01060000  0.89710000  0.49730000  1.0 0.1102589765
H  H53  1  0.37090000  0.42030000  0.44730000  1.0 0.104901447
H  H54  1  0.62910000  0.57970000  0.94730000  1.0 0.104901447
H  H55  1  0.87090000  0.07970000  0.94730000  1.0 0.104901447
H  H56  1  0.12910000  0.92030000  0.44730000  1.0 0.104901447
H  H57  1  0.39920000  0.43290000  0.37540000  1.0 0.1102589765
H  H58  1  0.60080000  0.56710000  0.87540000  1.0 0.1102589765
H  H59  1  0.89920000  0.06710000  0.87540000  1.0 0.1102589765
H  H60  1  0.10080000  0.93290000  0.37540000  1.0 0.1102589765
H  H61  1  0.42980000  0.43680000  0.31120000  1.0 0.1102589765
H  H62  1  0.57020000  0.56320000  0.81120000  1.0 0.1102589765
H  H63  1  0.92980000  0.06320000  0.81120000  1.0 0.1102589765
H  H64  1  0.07020000  0.93680000  0.31120000  1.0 0.1102589765
H  H65  1  0.49130000  0.40300000  0.27480000  1.0 0.1102589765
H  H66  1  0.50870000  0.59700000  0.77480000  1.0 0.1102589765
H  H67  1  0.99130000  0.09700000  0.77480000  1.0 0.1102589765
H  H68  1  0.00870000  0.90300000  0.27480000  1.0 0.1102589765
H  H69  1  0.48450000  0.41520000  0.21160000  1.0 0.1180277882
H  H70  1  0.51550000  0.58480000  0.71160000  1.0 0.1180277882
H  H71  1  0.98450000  0.08480000  0.71160000  1.0 0.1180277882
H  H72  1  0.01550000  0.91520000  0.21160000  1.0 0.1180277882
H  H73  1  0.46790000  0.43360000  0.13800000  1.0 0.1102589765
H  H74  1  0.53210000  0.56640000  0.63800000  1.0 0.1102589765
H  H75  1  0.96790000  0.06640000  0.63800000  1.0 0.1102589765
H  H76  1  0.03210000  0.93360000  0.13800000  1.0 0.1102589765
H  H77  1  0.47360000  0.54550000  0.10800000  1.0 0.1180277882
H  H78  1  0.52640000  0.45450000  0.60800000  1.0 0.1180277882
H  H79  1  0.97360000  0.95450000  0.60800000  1.0 0.1180277882
H  H80  1  0.02640000  0.04550000  0.10800000  1.0 0.1180277882
H  H81  1  0.49640000  0.63830000  0.15220000  1.0 0.1180277882
H  H82  1  0.50360000  0.36170000  0.65220000  1.0 0.1180277882
H  H83  1  0.99640000  0.86170000  0.65220000  1.0 0.1180277882
H  H84  1  0.00360000  0.13830000  0.15220000  1.0 0.1180277882
H  H85  1  0.51370000  0.68870000  0.22550000  1.0 0.1102589765
H  H86  1  0.48630000  0.31130000  0.72550000  1.0 0.1102589765
H  H87  1  0.01370000  0.81130000  0.72550000  1.0 0.1102589765
H  H88  1  0.98630000  0.18870000  0.22550000  1.0 0.1102589765
H  H89  1  0.00620000  0.48510000  0.39750000  1.0 0.1286622053
H  H90  1  0.99380000  0.51490000  0.89750000  1.0 0.1286622053
H  H91  1  0.50620000  0.01490000  0.89750000  1.0 0.1286622053
H  H92  1  0.49380000  0.98510000  0.39750000  1.0 0.1286622053
H  H93  1  0.98590000  0.53880000  0.46920000  1.0 0.1180277882
H  H94  1  0.01410000  0.46120000  0.96920000  1.0 0.1180277882
H  H95  1  0.48590000  0.96120000  0.96920000  1.0 0.1180277882
H  H96  1  0.51410000  0.03880000  0.46920000  1.0 0.1180277882
H  H97  1  0.97280000  0.63540000  0.51250000  1.0 0.1180277882
H  H98  1  0.02720000  0.36460000  0.01250000  1.0 0.1180277882
H  H99  1  0.47280000  0.86460000  0.01250000  1.0 0.1180277882
H  H100  1  0.52720000  0.13540000  0.51250000  1.0 0.1180277882
H  H101  1  0.98090000  0.74620000  0.48080000  1.0 0.1102589765
H  H102  1  0.01910000  0.25380000  0.98080000  1.0 0.1102589765
H  H103  1  0.48090000  0.75380000  0.98080000  1.0 0.1102589765
H  H104  1  0.51910000  0.24620000  0.48080000  1.0 0.1102589765
H  H105  1  0.00190000  0.75980000  0.40860000  1.0 0.1102589765
H  H106  1  0.99810000  0.24020000  0.90860000  1.0 0.1102589765
H  H107  1  0.50190000  0.74020000  0.90860000  1.0 0.1102589765
H  H108  1  0.49810000  0.25980000  0.40860000  1.0 0.1102589765
H  H109  1  0.93660000  0.73410000  0.30720000  1.0 0.1102589765
H  H110  1  0.06340000  0.26590000  0.80720000  1.0 0.1102589765
H  H111  1  0.43660000  0.76590000  0.80720000  1.0 0.1102589765
H  H112  1  0.56340000  0.23410000  0.30720000  1.0 0.1102589765
H  H113  1  0.99780000  0.76890000  0.34330000  1.0 0.1102589765
H  H114  1  0.00220000  0.23110000  0.84330000  1.0 0.1102589765
H  H115  1  0.49780000  0.73110000  0.84330000  1.0 0.1102589765
H  H116  1  0.50220000  0.26890000  0.34330000  1.0 0.1102589765
H  H117  1  0.90850000  0.73780000  0.24190000  1.0 0.1180277882
H  H118  1  0.09150000  0.26220000  0.74190000  1.0 0.1180277882
H  H119  1  0.40850000  0.76220000  0.74190000  1.0 0.1180277882
H  H120  1  0.59150000  0.23780000  0.24190000  1.0 0.1180277882
H  H121  1  0.88000000  0.75860000  0.17030000  1.0 0.1102589765
H  H122  1  0.12000000  0.24140000  0.67030000  1.0 0.1102589765
H  H123  1  0.38000000  0.74140000  0.67030000  1.0 0.1102589765
H  H124  1  0.62000000  0.25860000  0.17030000  1.0 0.1102589765
H  H125  1  0.99800000  0.78500000  0.12220000  1.0 0.1180277882
H  H126  1  0.00200000  0.21500000  0.62220000  1.0 0.1180277882
H  H127  1  0.49800000  0.71500000  0.62220000  1.0 0.1180277882
H  H128  1  0.50200000  0.28500000  0.12220000  1.0 0.1180277882
H  H129  1  0.14600000  0.80300000  0.14850000  1.0 0.1180277882
H  H130  1  0.85400000  0.19700000  0.64850000  1.0 0.1180277882
H  H131  1  0.64600000  0.69700000  0.64850000  1.0 0.1180277882
H  H132  1  0.35400000  0.30300000  0.14850000  1.0 0.1180277882
H  H133  1  0.25480000  0.80820000  0.20910000  1.0 0.1286622053
H  H134  1  0.74520000  0.19180000  0.70910000  1.0 0.1286622053
H  H135  1  0.75480000  0.69180000  0.70910000  1.0 0.1286622053
H  H136  1  0.24520000  0.30820000  0.20910000  1.0 0.1286622053
H  H137  1  0.17130000  0.45560000  0.13600000  1.0 0.1180277882
H  H138  1  0.82870000  0.54440000  0.63600000  1.0 0.1180277882
H  H139  1  0.67130000  0.04440000  0.63600000  1.0 0.1180277882
H  H140  1  0.32870000  0.95560000  0.13600000  1.0 0.1180277882
H  H141  1  0.28230000  0.51600000  0.08850000  1.0 0.1180277882
H  H142  1  0.71770000  0.48400000  0.58850000  1.0 0.1180277882
H  H143  1  0.78230000  0.98400000  0.58850000  1.0 0.1180277882
H  H144  1  0.21770000  0.01600000  0.08850000  1.0 0.1180277882
H  H145  1  0.37890000  0.51590000  0.03010000  1.0 0.1102589765
H  H146  1  0.62110000  0.48410000  0.53010000  1.0 0.1102589765
H  H147  1  0.87890000  0.98410000  0.53010000  1.0 0.1102589765
H  H148  1  0.12110000  0.01590000  0.03010000  1.0 0.1102589765
H  H149  1  0.38540000  0.42080000  0.98460000  1.0 0.1180277882
H  H150  1  0.61460000  0.57920000  0.48460000  1.0 0.1180277882
H  H151  1  0.88540000  0.07920000  0.48460000  1.0 0.1180277882
H  H152  1  0.11460000  0.92080000  0.98460000  1.0 0.1180277882
H  H153  1  0.30490000  0.31880000  0.00060000  1.0 0.1180277882
H  H154  1  0.69510000  0.68120000  0.50060000  1.0 0.1180277882
H  H155  1  0.80490000  0.18120000  0.50060000  1.0 0.1180277882
H  H156  1  0.19510000  0.81880000  0.00060000  1.0 0.1180277882
H  H157  1  0.18950000  0.23700000  0.00960000  1.0 0.1102589765
H  H158  1  0.81050000  0.76300000  0.50960000  1.0 0.1102589765
H  H159  1  0.68950000  0.26300000  0.50960000  1.0 0.1102589765
H  H160  1  0.31050000  0.73700000  0.00960000  1.0 0.1102589765
H  H161  1  0.14780000  0.19490000  0.04880000  1.0 0.1102589765
H  H162  1  0.85220000  0.80510000  0.54880000  1.0 0.1102589765
H  H163  1  0.64780000  0.30510000  0.54880000  1.0 0.1102589765
H  H164  1  0.35220000  0.69490000  0.04880000  1.0 0.1102589765
H  H165  1  0.19850000  0.17950000  0.12190000  1.0 0.1102589765
H  H166  1  0.80150000  0.82050000  0.62190000  1.0 0.1102589765
H  H167  1  0.69850000  0.32050000  0.62190000  1.0 0.1102589765
H  H168  1  0.30150000  0.67950000  0.12190000  1.0 0.1102589765
H  H169  1  0.24700000  0.13170000  0.18600000  1.0 0.1180277882
H  H170  1  0.75300000  0.86830000  0.68600000  1.0 0.1180277882
H  H171  1  0.74700000  0.36830000  0.68600000  1.0 0.1180277882
H  H172  1  0.25300000  0.63170000  0.18600000  1.0 0.1180277882
H  H173  1  0.39200000  0.08190000  0.19290000  1.0 0.1180277882
H  H174  1  0.60800000  0.91810000  0.69290000  1.0 0.1180277882
H  H175  1  0.89200000  0.41810000  0.69290000  1.0 0.1180277882
H  H176  1  0.10800000  0.58190000  0.19290000  1.0 0.1180277882
H  H177  1  0.48730000  0.07220000  0.13350000  1.0 0.1102589765
H  H178  1  0.51270000  0.92780000  0.63350000  1.0 0.1102589765
H  H179  1  0.98730000  0.42780000  0.63350000  1.0 0.1102589765
H  H180  1  0.01270000  0.57220000  0.13350000  1.0 0.1102589765
H  H181  1  0.51830000  0.09900000  0.05570000  1.0 0.1180277882
H  H182  1  0.48170000  0.90100000  0.55570000  1.0 0.1180277882
H  H183  1  0.01830000  0.40100000  0.55570000  1.0 0.1180277882
H  H184  1  0.98170000  0.59900000  0.05570000  1.0 0.1180277882
H  H185  1  0.22280000  0.22650000  0.41950000  1.0 0.1102589765
H  H186  1  0.77720000  0.77350000  0.91950000  1.0 0.1102589765
H  H187  1  0.72280000  0.27350000  0.91950000  1.0 0.1102589765
H  H188  1  0.27720000  0.72650000  0.41950000  1.0 0.1102589765
H  H189  1  0.10100000  0.06240000  0.44020000  1.0 0.1286622053
H  H190  1  0.89900000  0.93760000  0.94020000  1.0 0.1286622053
H  H191  1  0.60100000  0.43760000  0.94020000  1.0 0.1286622053
H  H192  1  0.39900000  0.56240000  0.44020000  1.0 0.1286622053
H  H193  1  0.10510000  0.09270000  0.48770000  1.0 0.1377965352
H  H194  1  0.89490000  0.90730000  0.98770000  1.0 0.1377965352
H  H195  1  0.60510000  0.40730000  0.98770000  1.0 0.1377965352
H  H196  1  0.39490000  0.59270000  0.48770000  1.0 0.1377965352
H  H197  1  0.04680000  0.13100000  0.45170000  1.0 0.1485746948
H  H198  1  0.95320000  0.86900000  0.95170000  1.0 0.1485746948
H  H199  1  0.54680000  0.36900000  0.95170000  1.0 0.1485746948
H  H200  1  0.45320000  0.63100000  0.45170000  1.0 0.1485746948
H  H201  1  0.32170000  0.14280000  0.44380000  1.0 0.1180277882
H  H202  1  0.67830000  0.85720000  0.94380000  1.0 0.1180277882
H  H203  1  0.82170000  0.35720000  0.94380000  1.0 0.1180277882
H  H204  1  0.17830000  0.64280000  0.44380000  1.0 0.1180277882
H  H205  1  0.27890000  0.09550000  0.48050000  1.0 0.1485746948
H  H206  1  0.72110000  0.90450000  0.98050000  1.0 0.1485746948
H  H207  1  0.77890000  0.40450000  0.98050000  1.0 0.1485746948
H  H208  1  0.22110000  0.59550000  0.48050000  1.0 0.1485746948
H  H209  1  0.27540000  0.07110000  0.43160000  1.0 0.1377965352
H  H210  1  0.72460000  0.92890000  0.93160000  1.0 0.1377965352
H  H211  1  0.77540000  0.42890000  0.93160000  1.0 0.1377965352
H  H212  1  0.22460000  0.57110000  0.43160000  1.0 0.1377965352
H  H213  1  0.91830000  0.51030000  0.20500000  1.0 0.1485746948
H  H214  1  0.08170000  0.48970000  0.70500000  1.0 0.1485746948
H  H215  1  0.41830000  0.98970000  0.70500000  1.0 0.1485746948
H  H216  1  0.58170000  0.01030000  0.20500000  1.0 0.1485746948
C  C1  1  0.81840000  0.36360000  0.33488000  1.0 0.6589029721
C  C2  1  0.18160000  0.63640000  0.83488000  1.0 0.6589029721
C  C3  1  0.31840000  0.13640000  0.83488000  1.0 0.6589029721
C  C4  1  0.68160000  0.86360000  0.33488000  1.0 0.6589029721
C  C5  1  0.72260000  0.38230000  0.34869000  1.0 -0.1573569039
C  C6  1  0.27740000  0.61770000  0.84869000  1.0 -0.1573569039
C  C7  1  0.22260000  0.11770000  0.84869000  1.0 -0.1573569039
C  C8  1  0.77740000  0.88230000  0.34869000  1.0 -0.1573569039
C  C9  1  0.70030000  0.37930000  0.39183000  1.0 -0.1335717709
C  C10  1  0.29970000  0.62070000  0.89183000  1.0 -0.1335717709
C  C11  1  0.20030000  0.12070000  0.89183000  1.0 -0.1335717709
C  C12  1  0.79970000  0.87930000  0.39183000  1.0 -0.1335717709
C  C13  1  0.61130000  0.39460000  0.40763000  1.0 0.0583390926
C  C14  1  0.38870000  0.60540000  0.90763000  1.0 0.0583390926
C  C15  1  0.11130000  0.10540000  0.90763000  1.0 0.0583390926
C  C16  1  0.88870000  0.89460000  0.40763000  1.0 0.0583390926
C  C17  1  0.58960000  0.39100000  0.45284000  1.0 -0.1400665393
C  C18  1  0.41040000  0.60900000  0.95284000  1.0 -0.1400665393
C  C19  1  0.08960000  0.10900000  0.95284000  1.0 -0.1400665393
C  C20  1  0.91040000  0.89100000  0.45284000  1.0 -0.1400665393
C  C21  1  0.50250000  0.40030000  0.46760000  1.0 -0.1115081909
C  C22  1  0.49750000  0.59970000  0.96760000  1.0 -0.1115081909
C  C23  1  0.00250000  0.09970000  0.96760000  1.0 -0.1115081909
C  C24  1  0.99750000  0.90030000  0.46760000  1.0 -0.1115081909
C  C25  1  0.43130000  0.41520000  0.43720000  1.0 -0.1115081909
C  C26  1  0.56870000  0.58480000  0.93720000  1.0 -0.1115081909
C  C27  1  0.93130000  0.08480000  0.93720000  1.0 -0.1115081909
C  C28  1  0.06870000  0.91520000  0.43720000  1.0 -0.1115081909
C  C29  1  0.44780000  0.42200000  0.39420000  1.0 -0.1400665393
C  C30  1  0.55220000  0.57800000  0.89420000  1.0 -0.1400665393
C  C31  1  0.94780000  0.07800000  0.89420000  1.0 -0.1400665393
C  C32  1  0.05220000  0.92200000  0.39420000  1.0 -0.1400665393
C  C33  1  0.54040000  0.41276000  0.37682000  1.0 0.0419446884
C  C34  1  0.45960000  0.58724000  0.87682000  1.0 0.0419446884
C  C35  1  0.04040000  0.08724000  0.87682000  1.0 0.0419446884
C  C36  1  0.95960000  0.91276000  0.37682000  1.0 0.0419446884
C  C37  1  0.56390000  0.41898000  0.33204000  1.0 -0.0199405979
C  C38  1  0.43610000  0.58102000  0.83204000  1.0 -0.0199405979
C  C39  1  0.06390000  0.08102000  0.83204000  1.0 -0.0199405979
C  C40  1  0.93610000  0.91898000  0.33204000  1.0 -0.0199405979
C  C41  1  0.65250000  0.40324000  0.31831000  1.0 0.2076276035
C  C42  1  0.34750000  0.59676000  0.81831000  1.0 0.2076276035
C  C43  1  0.15250000  0.09676000  0.81831000  1.0 0.2076276035
C  C44  1  0.84750000  0.90324000  0.31831000  1.0 0.2076276035
C  C45  1  0.49040000  0.43850000  0.29748000  1.0 -0.2505053607
C  C46  1  0.50960000  0.56150000  0.79748000  1.0 -0.2505053607
C  C47  1  0.99040000  0.06150000  0.79748000  1.0 -0.2505053607
C  C48  1  0.00960000  0.93850000  0.29748000  1.0 -0.2505053607
C  C49  1  0.50180000  0.50960000  0.27602000  1.0 -0.0312808755
C  C50  1  0.49820000  0.49040000  0.77602000  1.0 -0.0312808755
C  C51  1  0.00180000  0.99040000  0.77602000  1.0 -0.0312808755
C  C52  1  0.99820000  0.00960000  0.27602000  1.0 -0.0312808755
C  C53  1  0.49630000  0.51670000  0.22922000  1.0 0.0523633138
C  C54  1  0.50370000  0.48330000  0.72922000  1.0 0.0523633138
C  C55  1  0.99630000  0.98330000  0.72922000  1.0 0.0523633138
C  C56  1  0.00370000  0.01670000  0.22922000  1.0 0.0523633138
C  C57  1  0.48560000  0.46070000  0.20067000  1.0 -0.1162362108
C  C58  1  0.51440000  0.53930000  0.70067000  1.0 -0.1162362108
C  C59  1  0.98560000  0.03930000  0.70067000  1.0 -0.1162362108
C  C60  1  0.01440000  0.96070000  0.20067000  1.0 -0.1162362108
C  C61  1  0.47650000  0.47190000  0.15630000  1.0 -0.0984847952
C  C62  1  0.52350000  0.52810000  0.65630000  1.0 -0.0984847952
C  C63  1  0.97650000  0.02810000  0.65630000  1.0 -0.0984847952
C  C64  1  0.02350000  0.97190000  0.15630000  1.0 -0.0984847952
C  C65  1  0.48000000  0.53910000  0.13790000  1.0 -0.0897209447
C  C66  1  0.52000000  0.46090000  0.63790000  1.0 -0.0897209447
C  C67  1  0.98000000  0.96090000  0.63790000  1.0 -0.0897209447
C  C68  1  0.02000000  0.03910000  0.13790000  1.0 -0.0897209447
C  C69  1  0.49250000  0.59380000  0.16436000  1.0 -0.1400665393
C  C70  1  0.50750000  0.40620000  0.66436000  1.0 -0.1400665393
C  C71  1  0.99250000  0.90620000  0.66436000  1.0 -0.1400665393
C  C72  1  0.00750000  0.09380000  0.16436000  1.0 -0.1400665393
C  C73  1  0.50030000  0.58640000  0.21097000  1.0 0.0761423474
C  C74  1  0.49970000  0.41360000  0.71097000  1.0 0.0761423474
C  C75  1  0.00030000  0.91360000  0.71097000  1.0 0.0761423474
C  C76  1  0.99970000  0.08640000  0.21097000  1.0 0.0761423474
C  C77  1  0.51040000  0.64430000  0.23788000  1.0 -0.1782047161
C  C78  1  0.48960000  0.35570000  0.73788000  1.0 -0.1782047161
C  C79  1  0.01040000  0.85570000  0.73788000  1.0 -0.1782047161
C  C80  1  0.98960000  0.14430000  0.23788000  1.0 -0.1782047161
C  C81  1  0.51570000  0.63740000  0.28273000  1.0 -0.1504673296
C  C82  1  0.48430000  0.36260000  0.78273000  1.0 -0.1504673296
C  C83  1  0.01570000  0.86260000  0.78273000  1.0 -0.1504673296
C  C84  1  0.98430000  0.13740000  0.28273000  1.0 -0.1504673296
C  C85  1  0.50830000  0.56910000  0.30148000  1.0 0.2210690184
C  C86  1  0.49170000  0.43090000  0.80148000  1.0 0.2210690184
C  C87  1  0.00830000  0.93090000  0.80148000  1.0 0.2210690184
C  C88  1  0.99170000  0.06910000  0.30148000  1.0 0.2210690184
C  C89  1  0.52280000  0.70110000  0.31024000  1.0 0.6331754019
C  C90  1  0.47720000  0.29890000  0.81024000  1.0 0.6331754019
C  C91  1  0.02280000  0.79890000  0.81024000  1.0 0.6331754019
C  C92  1  0.97720000  0.20110000  0.31024000  1.0 0.6331754019
C  C93  1  0.01100000  0.46920000  0.31272000  1.0 0.6496946505
C  C94  1  0.98900000  0.53080000  0.81272000  1.0 0.6496946505
C  C95  1  0.51100000  0.03080000  0.81272000  1.0 0.6496946505
C  C96  1  0.48900000  0.96920000  0.31272000  1.0 0.6496946505
C  C97  1  0.00980000  0.53420000  0.33950000  1.0 -0.1573569039
C  C98  1  0.99020000  0.46580000  0.83950000  1.0 -0.1650350848
C  C99  1  0.50980000  0.96580000  0.83950000  1.0 -0.1650350848
C  C100  1  0.49020000  0.03420000  0.33950000  1.0 -0.1573569039
C  C101  1  0.00550000  0.52920000  0.38457000  1.0 -0.1504673296
C  C102  1  0.99450000  0.47080000  0.88457000  1.0 -0.1504673296
C  C103  1  0.50550000  0.97080000  0.88457000  1.0 -0.1504673296
C  C104  1  0.49450000  0.02920000  0.38457000  1.0 -0.1504673296
C  C105  1  0.00010000  0.58820000  0.41110000  1.0 0.0583390926
C  C106  1  0.99990000  0.41180000  0.91110000  1.0 0.0583390926
C  C107  1  0.50010000  0.91180000  0.91110000  1.0 0.0583390926
C  C108  1  0.49990000  0.08820000  0.41110000  1.0 0.0583390926
C  C109  1  0.98850000  0.58300000  0.45650000  1.0 -0.1335717709
C  C110  1  0.01150000  0.41700000  0.95650000  1.0 -0.1335717709
C  C111  1  0.48850000  0.91700000  0.95650000  1.0 -0.1335717709
C  C112  1  0.51150000  0.08300000  0.45650000  1.0 -0.1335717709
C  C113  1  0.98100000  0.64020000  0.48250000  1.0 -0.0897209447
C  C114  1  0.01900000  0.35980000  0.98250000  1.0 -0.0984847952
C  C115  1  0.48100000  0.85980000  0.98250000  1.0 -0.0984847952
C  C116  1  0.51900000  0.14020000  0.48250000  1.0 -0.0897209447
C  C117  1  0.98580000  0.70670000  0.46320000  1.0 -0.0897209447
C  C118  1  0.01420000  0.29330000  0.96320000  1.0 -0.0897209447
C  C119  1  0.48580000  0.79330000  0.96320000  1.0 -0.0897209447
C  C120  1  0.51420000  0.20670000  0.46320000  1.0 -0.0897209447
C  C121  1  0.99720000  0.71470000  0.41990000  1.0 -0.1400665393
C  C122  1  0.00280000  0.28530000  0.91990000  1.0 -0.1400665393
C  C123  1  0.49720000  0.78530000  0.91990000  1.0 -0.1400665393
C  C124  1  0.50280000  0.21470000  0.41990000  1.0 -0.1400665393
C  C125  1  0.00250000  0.65610000  0.39040000  1.0 0.0419446884
C  C126  1  0.99750000  0.34390000  0.89040000  1.0 0.0419446884
C  C127  1  0.50250000  0.84390000  0.89040000  1.0 0.0419446884
C  C128  1  0.49750000  0.15610000  0.39040000  1.0 0.0419446884
C  C129  1  0.00520000  0.66280000  0.34423000  1.0 -0.0312808755
C  C130  1  0.99480000  0.33720000  0.84423000  1.0 -0.0312808755
C  C131  1  0.50520000  0.83720000  0.84423000  1.0 -0.0312808755
C  C132  1  0.49480000  0.16280000  0.34423000  1.0 -0.0312808755
C  C133  1  0.00630000  0.60120000  0.31968000  1.0 0.2250587037
C  C134  1  0.99370000  0.39880000  0.81968000  1.0 0.2250587037
C  C135  1  0.50630000  0.89880000  0.81968000  1.0 0.2250587037
C  C136  1  0.49370000  0.10120000  0.31968000  1.0 0.2250587037
C  C137  1  0.99700000  0.73250000  0.32113000  1.0 -0.2505053607
C  C138  1  0.00300000  0.26750000  0.82113000  1.0 -0.2505053607
C  C139  1  0.49700000  0.76750000  0.82113000  1.0 -0.2505053607
C  C140  1  0.50300000  0.23250000  0.32113000  1.0 -0.2505053607
C  C141  1  0.06870000  0.75120000  0.28706000  1.0 -0.0312808755
C  C142  1  0.93130000  0.24880000  0.78706000  1.0 -0.0312808755
C  C143  1  0.56870000  0.74880000  0.78706000  1.0 -0.0312808755
C  C144  1  0.43130000  0.25120000  0.28706000  1.0 -0.0312808755
C  C145  1  0.04750000  0.76070000  0.24187000  1.0 0.0419446884
C  C146  1  0.95250000  0.23930000  0.74187000  1.0 0.0419446884
C  C147  1  0.54750000  0.73930000  0.74187000  1.0 0.0419446884
C  C148  1  0.45250000  0.26070000  0.24187000  1.0 0.0419446884
C  C149  1  0.95700000  0.75160000  0.22380000  1.0 -0.1335717709
C  C150  1  0.04300000  0.24840000  0.72380000  1.0 -0.1335717709
C  C151  1  0.45700000  0.74840000  0.72380000  1.0 -0.1335717709
C  C152  1  0.54300000  0.25160000  0.22380000  1.0 -0.1335717709
C  C153  1  0.94040000  0.76280000  0.18070000  1.0 -0.0984847952
C  C154  1  0.05960000  0.23720000  0.68070000  1.0 -0.0984847952
C  C155  1  0.44040000  0.73720000  0.68070000  1.0 -0.0984847952
C  C156  1  0.55960000  0.26280000  0.18070000  1.0 -0.0984847952
C  C157  1  0.01050000  0.78010000  0.15190000  1.0 -0.0984847952
C  C158  1  0.98950000  0.21990000  0.65190000  1.0 -0.0984847952
C  C159  1  0.51050000  0.71990000  0.65190000  1.0 -0.0984847952
C  C160  1  0.48950000  0.28010000  0.15190000  1.0 -0.0984847952
C  C161  1  0.09870000  0.79010000  0.16753000  1.0 -0.1335717709
C  C162  1  0.90130000  0.20990000  0.66753000  1.0 -0.1335717709
C  C163  1  0.59870000  0.70990000  0.66753000  1.0 -0.1335717709
C  C164  1  0.40130000  0.29010000  0.16753000  1.0 -0.1335717709
C  C165  1  0.11770000  0.78090000  0.21223000  1.0 0.0523633138
C  C166  1  0.88230000  0.21910000  0.71223000  1.0 0.0523633138
C  C167  1  0.61770000  0.71910000  0.71223000  1.0 0.0523633138
C  C168  1  0.38230000  0.28090000  0.21223000  1.0 0.0523633138
C  C169  1  0.20830000  0.79400000  0.22826000  1.0 -0.1400665393
C  C170  1  0.79170000  0.20600000  0.72826000  1.0 -0.1400665393
C  C171  1  0.70830000  0.70600000  0.72826000  1.0 -0.1400665393
C  C172  1  0.29170000  0.29400000  0.22826000  1.0 -0.1400665393
C  C173  1  0.22760000  0.78600000  0.27157000  1.0 -0.1504673296
C  C174  1  0.77240000  0.21400000  0.77157000  1.0 -0.1504673296
C  C175  1  0.72760000  0.71400000  0.77157000  1.0 -0.1504673296
C  C176  1  0.27240000  0.28600000  0.27157000  1.0 -0.1504673296
C  C177  1  0.15750000  0.76550000  0.30157000  1.0 0.2076276035
C  C178  1  0.84250000  0.23450000  0.80157000  1.0 0.2076276035
C  C179  1  0.65750000  0.73450000  0.80157000  1.0 0.2076276035
C  C180  1  0.34250000  0.26550000  0.30157000  1.0 0.2076276035
C  C181  1  0.32560000  0.80360000  0.28667000  1.0 0.6589029721
C  C182  1  0.67440000  0.19640000  0.78667000  1.0 0.6589029721
C  C183  1  0.82560000  0.69640000  0.78667000  1.0 0.6589029721
C  C184  1  0.17440000  0.30360000  0.28667000  1.0 0.6589029721
C  C185  1  0.05950000  0.36290000  0.16735000  1.0 0.5873230985
C  C186  1  0.94050000  0.63710000  0.66735000  1.0 0.5873230985
C  C187  1  0.55950000  0.13710000  0.66735000  1.0 0.5873230985
C  C188  1  0.44050000  0.86290000  0.16735000  1.0 0.5873230985
C  C189  1  0.12030000  0.35980000  0.12822000  1.0 -0.1573569039
C  C190  1  0.87970000  0.64020000  0.62822000  1.0 -0.1573569039
C  C191  1  0.62030000  0.14020000  0.62822000  1.0 -0.1573569039
C  C192  1  0.37970000  0.85980000  0.12822000  1.0 -0.1573569039
C  C193  1  0.17460000  0.41610000  0.11829000  1.0 -0.1400665393
C  C194  1  0.82540000  0.58390000  0.61829000  1.0 -0.1400665393
C  C195  1  0.67460000  0.08390000  0.61829000  1.0 -0.1400665393
C  C196  1  0.32540000  0.91610000  0.11829000  1.0 -0.1400665393
C  C197  1  0.23520000  0.41710000  0.08250000  1.0 0.0523633138
C  C198  1  0.76480000  0.58290000  0.58250000  1.0 0.0523633138
C  C199  1  0.73520000  0.08290000  0.58250000  1.0 0.0523633138
C  C200  1  0.26480000  0.91710000  0.08250000  1.0 0.0523633138
C  C201  1  0.28680000  0.47600000  0.07130000  1.0 -0.1400665393
C  C202  1  0.71320000  0.52400000  0.57130000  1.0 -0.1400665393
C  C203  1  0.78680000  0.02400000  0.57130000  1.0 -0.1400665393
C  C204  1  0.21320000  0.97600000  0.07130000  1.0 -0.1400665393
C  C205  1  0.34340000  0.47650000  0.03620000  1.0 -0.1115081909
C  C206  1  0.65660000  0.52350000  0.53620000  1.0 -0.1115081909
C  C207  1  0.84340000  0.02350000  0.53620000  1.0 -0.1115081909
C  C208  1  0.15660000  0.97650000  0.03620000  1.0 -0.1115081909
C  C209  1  0.34850000  0.41890000  0.00950000  1.0 -0.0984847952
C  C210  1  0.65150000  0.58110000  0.50950000  1.0 -0.0984847952
C  C211  1  0.84850000  0.08110000  0.50950000  1.0 -0.0984847952
C  C212  1  0.15150000  0.91890000  0.00950000  1.0 -0.0984847952
C  C213  1  0.29980000  0.35750000  0.01888000  1.0 -0.1400665393
C  C214  1  0.70020000  0.64250000  0.51888000  1.0 -0.1400665393
C  C215  1  0.79980000  0.14250000  0.51888000  1.0 -0.1400665393
C  C216  1  0.20020000  0.85750000  0.01888000  1.0 -0.1400665393
C  C217  1  0.24280000  0.35460000  0.05638000  1.0 0.0419446884
C  C218  1  0.75720000  0.64540000  0.55638000  1.0 0.0419446884
C  C219  1  0.74280000  0.14540000  0.55638000  1.0 0.0419446884
C  C220  1  0.25720000  0.85460000  0.05638000  1.0 0.0419446884
C  C221  1  0.18760000  0.29430000  0.06657000  1.0 -0.0312808755
C  C222  1  0.81240000  0.70570000  0.56657000  1.0 -0.0312808755
C  C223  1  0.68760000  0.20570000  0.56657000  1.0 -0.0312808755
C  C224  1  0.31240000  0.79430000  0.06657000  1.0 -0.0312808755
C  C225  1  0.12370000  0.29980000  0.10054000  1.0 0.2076276035
C  C226  1  0.87630000  0.70020000  0.60054000  1.0 0.2076276035
C  C227  1  0.62370000  0.20020000  0.60054000  1.0 0.2076276035
C  C228  1  0.37630000  0.79980000  0.10054000  1.0 0.2076276035
C  C229  1  0.19760000  0.22620000  0.04035000  1.0 -0.2611552784
C  C230  1  0.80240000  0.77380000  0.54035000  1.0 -0.2611552784
C  C231  1  0.69760000  0.27380000  0.54035000  1.0 -0.2611552784
C  C232  1  0.30240000  0.72620000  0.04035000  1.0 -0.2611552784
C  C233  1  0.28790000  0.18800000  0.04566000  1.0 -0.0312808755
C  C234  1  0.71210000  0.81200000  0.54566000  1.0 -0.0312808755
C  C235  1  0.78790000  0.31200000  0.54566000  1.0 -0.0312808755
C  C236  1  0.21210000  0.68800000  0.04566000  1.0 -0.0312808755
C  C237  1  0.31550000  0.15830000  0.08638000  1.0 0.0326335756
C  C238  1  0.68450000  0.84170000  0.58638000  1.0 0.0326335756
C  C239  1  0.81550000  0.34170000  0.58638000  1.0 0.0326335756
C  C240  1  0.18450000  0.65830000  0.08638000  1.0 0.0326335756
C  C241  1  0.25700000  0.15920000  0.12366000  1.0 -0.1400665393
C  C242  1  0.74300000  0.84080000  0.62366000  1.0 -0.1400665393
C  C243  1  0.75700000  0.34080000  0.62366000  1.0 -0.1400665393
C  C244  1  0.24300000  0.65920000  0.12366000  1.0 -0.1400665393
C  C245  1  0.28620000  0.13060000  0.16185000  1.0 -0.0897209447
C  C246  1  0.71380000  0.86940000  0.66185000  1.0 -0.0897209447
C  C247  1  0.78620000  0.36940000  0.66185000  1.0 -0.0897209447
C  C248  1  0.21380000  0.63060000  0.16185000  1.0 -0.0897209447
C  C249  1  0.37310000  0.09950000  0.16596000  1.0 -0.0897209447
C  C250  1  0.62690000  0.90050000  0.66596000  1.0 -0.0897209447
C  C251  1  0.87310000  0.40050000  0.66596000  1.0 -0.0897209447
C  C252  1  0.12690000  0.59950000  0.16596000  1.0 -0.0897209447
C  C253  1  0.43040000  0.09470000  0.13090000  1.0 -0.1504673296
C  C254  1  0.56960000  0.90530000  0.63090000  1.0 -0.1504673296
C  C255  1  0.93040000  0.40530000  0.63090000  1.0 -0.1504673296
C  C256  1  0.06960000  0.59470000  0.13090000  1.0 -0.1504673296
C  C257  1  0.40300000  0.12410000  0.09004000  1.0 0.0583390926
C  C258  1  0.59700000  0.87590000  0.59004000  1.0 0.0583390926
C  C259  1  0.90300000  0.37590000  0.59004000  1.0 0.0583390926
C  C260  1  0.09700000  0.62410000  0.09004000  1.0 0.0583390926
C  C261  1  0.46040000  0.12010000  0.05303000  1.0 -0.1504673296
C  C262  1  0.53960000  0.87990000  0.55303000  1.0 -0.1504673296
C  C263  1  0.96040000  0.37990000  0.55303000  1.0 -0.1504673296
C  C264  1  0.03960000  0.62010000  0.05303000  1.0 -0.1504673296
C  C265  1  0.43420000  0.14610000  0.01337000  1.0 -0.1400665393
C  C266  1  0.56580000  0.85390000  0.51337000  1.0 -0.1400665393
C  C267  1  0.93420000  0.35390000  0.51337000  1.0 -0.1400665393
C  C268  1  0.06580000  0.64610000  0.01337000  1.0 -0.1400665393
C  C269  1  0.34690000  0.18010000  0.00965000  1.0 0.1995233139
C  C270  1  0.65310000  0.81990000  0.50965000  1.0 0.1995233139
C  C271  1  0.84690000  0.31990000  0.50965000  1.0 0.1995233139
C  C272  1  0.15310000  0.68010000  0.00965000  1.0 0.1995233139
C  C273  1  0.50020000  0.13680000  0.97579000  1.0 0.6030376843
C  C274  1  0.49980000  0.86320000  0.47579000  1.0 0.6030376843
C  C275  1  0.00020000  0.36320000  0.47579000  1.0 0.6030376843
C  C276  1  0.99980000  0.63680000  0.97579000  1.0 0.6030376843
C  C277  1  0.16870000  0.20250000  0.42660000  1.0 0.2368007889
C  C278  1  0.83130000  0.79750000  0.92660000  1.0 0.2368007889
C  C279  1  0.66870000  0.29750000  0.92660000  1.0 0.2368007889
C  C280  1  0.33130000  0.70250000  0.42660000  1.0 0.2368007889
C  C281  1  0.10210000  0.10450000  0.45730000  1.0 -0.3121722648
C  C282  1  0.89790000  0.89550000  0.95730000  1.0 -0.3121722648
C  C283  1  0.60210000  0.39550000  0.95730000  1.0 -0.3121722648
C  C284  1  0.39790000  0.60450000  0.45730000  1.0 -0.3121722648
C  C285  1  0.27250000  0.11090000  0.45080000  1.0 -0.3332990715
C  C286  1  0.72750000  0.88910000  0.95080000  1.0 -0.3332990715
C  C287  1  0.77250000  0.38910000  0.95080000  1.0 -0.3332990715
C  C288  1  0.22750000  0.61090000  0.45080000  1.0 -0.3332990715
C  C289  1  0.86190000  0.48850000  0.19920000  1.0 0.1485746948
C  C290  1  0.13810000  0.51150000  0.69920000  1.0 0.1485746948
C  C291  1  0.36190000  0.01150000  0.69920000  1.0 0.1485746948
C  C292  1  0.63810000  0.98850000  0.19920000  1.0 0.1485746948
C  C293  1  0.71670000  0.48810000  0.16870000  1.0 -0.0199405979
C  C294  1  0.28330000  0.51190000  0.66870000  1.0 -0.0199405979
C  C295  1  0.21670000  0.01190000  0.66870000  1.0 -0.0199405979
C  C296  1  0.78330000  0.98810000  0.16870000  1.0 -0.0199405979
C  C297  1  0.78810000  0.60580000  0.17920000  1.0 0.0049234629
C  C298  1  0.21190000  0.39420000  0.67920000  1.0 0.0049234629
C  C299  1  0.28810000  0.89420000  0.67920000  1.0 0.0049234629
C  C300  1  0.71190000  0.10580000  0.17920000  1.0 0.0049234629
C  C301  1  0.70520000  0.52600000  0.20170000  1.0 -0.0897209447
C  C302  1  0.29480000  0.47400000  0.70170000  1.0 -0.0897209447
C  C303  1  0.20520000  0.97400000  0.70170000  1.0 -0.0897209447
C  C304  1  0.79480000  0.02600000  0.20170000  1.0 -0.0897209447
C  C305  1  0.83320000  0.60040000  0.17320000  1.0 0.0104932161
C  C306  1  0.16680000  0.39960000  0.67320000  1.0 0.0104932161
C  C307  1  0.33320000  0.89960000  0.67320000  1.0 0.0104932161
C  C308  1  0.66680000  0.10040000  0.17320000  1.0 0.0104932161
N  N1  1  0.18310000  0.14610000  0.44530000  1.0 0.0419446884
N  N2  1  0.81690000  0.85390000  0.94530000  1.0 0.0419446884
N  N3  1  0.68310000  0.35390000  0.94530000  1.0 0.0419446884
N  N4  1  0.31690000  0.64610000  0.44530000  1.0 0.0419446884
N  N5  1  0.79700000  0.53000000  0.18220000  1.0 0.1485746948
N  N6  1  0.20300000  0.47000000  0.68220000  1.0 0.1485746948
N  N7  1  0.29700000  0.97000000  0.68220000  1.0 0.1485746948
N  N8  1  0.70300000  0.03000000  0.18220000  1.0 0.1485746948
O  O1  1  0.84146000  0.37794000  0.29536000  1.0 -0.6891169408
O  O2  1  0.15854000  0.62206000  0.79536000  1.0 -0.6891169408
O  O3  1  0.34146000  0.12206000  0.79536000  1.0 -0.6891169408
O  O4  1  0.65854000  0.87794000  0.29536000  1.0 -0.6891169408
O  O5  1  0.87090000  0.33428000  0.36247000  1.0 -0.6451794812
O  O6  1  0.12910000  0.66572000  0.86247000  1.0 -0.6451794812
O  O7  1  0.37090000  0.16572000  0.86247000  1.0 -0.6451794812
O  O8  1  0.62910000  0.83428000  0.36247000  1.0 -0.6451794812
O  O9  1  0.67140000  0.40855000  0.27474000  1.0 -0.4203681694
O  O10  1  0.32860000  0.59145000  0.77474000  1.0 -0.4203681694
O  O11  1  0.17140000  0.09145000  0.77474000  1.0 -0.4203681694
O  O12  1  0.82860000  0.90855000  0.27474000  1.0 -0.4203681694
O  O13  1  0.51840000  0.69554000  0.35140000  1.0 -0.6216017911
O  O14  1  0.48160000  0.30446000  0.85140000  1.0 -0.6216017911
O  O15  1  0.01840000  0.80446000  0.85140000  1.0 -0.6216017911
O  O16  1  0.98160000  0.19554000  0.35140000  1.0 -0.6216017911
O  O17  1  0.52758000  0.76124000  0.29330000  1.0 -0.7285845885
O  O18  1  0.47242000  0.23876000  0.79330000  1.0 -0.7285845885
O  O19  1  0.02758000  0.73876000  0.79330000  1.0 -0.7285845885
O  O20  1  0.97242000  0.26124000  0.29330000  1.0 -0.7285845885
O  O21  1  0.50580000  0.56104000  0.34517000  1.0 -0.4203681694
O  O22  1  0.49420000  0.43896000  0.84517000  1.0 -0.4203681694
O  O23  1  0.00580000  0.93896000  0.84517000  1.0 -0.4203681694
O  O24  1  0.99420000  0.06104000  0.34517000  1.0 -0.4203681694
O  O25  1  0.57460000  0.10950000  0.98081000  1.0 -0.4901512572
O  O26  1  0.42540000  0.89050000  0.48081000  1.0 -0.4901512572
O  O27  1  0.07460000  0.39050000  0.48081000  1.0 -0.4901512572
O  O28  1  0.92540000  0.60950000  0.98081000  1.0 -0.4901512572
O  O29  1  0.47050000  0.16060000  0.93828000  1.0 -0.7084008762
O  O30  1  0.52950000  0.83940000  0.43828000  1.0 -0.7084008762
O  O31  1  0.97050000  0.33940000  0.43828000  1.0 -0.7084008762
O  O32  1  0.02950000  0.66060000  0.93828000  1.0 -0.7084008762
O  O33  1  0.31840000  0.20670000  0.97004000  1.0 -0.4362966427
O  O34  1  0.68160000  0.79330000  0.47004000  1.0 -0.4362966427
O  O35  1  0.81840000  0.29330000  0.47004000  1.0 -0.4362966427
O  O36  1  0.18160000  0.70670000  0.97004000  1.0 -0.4362966427
O  O37  1  0.05530000  0.41622000  0.19032000  1.0 -0.5771836349
O  O38  1  0.94470000  0.58378000  0.69032000  1.0 -0.5771836349
O  O39  1  0.55530000  0.08378000  0.69032000  1.0 -0.5771836349
O  O40  1  0.44470000  0.91622000  0.19032000  1.0 -0.5771836349
O  O41  1  0.01180000  0.30847000  0.17735000  1.0 -0.6595717976
O  O42  1  0.98820000  0.69153000  0.67735000  1.0 -0.6595717976
O  O43  1  0.51180000  0.19153000  0.67735000  1.0 -0.6595717976
O  O44  1  0.48820000  0.80847000  0.17735000  1.0 -0.6595717976
O  O45  1  0.06600000  0.24481000  0.10856000  1.0 -0.433356137
O  O46  1  0.93400000  0.75519000  0.60856000  1.0 -0.433356137
O  O47  1  0.56600000  0.25519000  0.60856000  1.0 -0.433356137
O  O48  1  0.43400000  0.74481000  0.10856000  1.0 -0.433356137
O  O49  1  0.37940000  0.83027000  0.25981000  1.0 -0.6216017911
O  O50  1  0.62060000  0.16973000  0.75981000  1.0 -0.6216017911
O  O51  1  0.87940000  0.66973000  0.75981000  1.0 -0.6216017911
O  O52  1  0.12060000  0.33027000  0.25981000  1.0 -0.6216017911
O  O53  1  0.34670000  0.79021000  0.32651000  1.0 -0.7285845885
O  O54  1  0.65330000  0.20979000  0.82651000  1.0 -0.7285845885
O  O55  1  0.84670000  0.70979000  0.82651000  1.0 -0.7285845885
O  O56  1  0.15330000  0.29021000  0.32651000  1.0 -0.7285845885
O  O57  1  0.17460000  0.75892000  0.34478000  1.0 -0.4203681694
O  O58  1  0.82540000  0.24108000  0.84478000  1.0 -0.4203681694
O  O59  1  0.67460000  0.74108000  0.84478000  1.0 -0.4203681694
O  O60  1  0.32540000  0.25892000  0.34478000  1.0 -0.4203681694
O  O61  1  0.02300000  0.41057000  0.33083000  1.0 -0.7285845885
O  O62  1  0.97700000  0.58943000  0.83083000  1.0 -0.7285845885
O  O63  1  0.52300000  0.08943000  0.83083000  1.0 -0.7285845885
O  O64  1  0.47700000  0.91057000  0.33083000  1.0 -0.7285845885
O  O65  1  0.99950000  0.47297000  0.27189000  1.0 -0.628517718
O  O66  1  0.00050000  0.52703000  0.77189000  1.0 -0.628517718
O  O67  1  0.49950000  0.02703000  0.77189000  1.0 -0.628517718
O  O68  1  0.50050000  0.97297000  0.27189000  1.0 -0.628517718
O  O69  1  0.00580000  0.60775000  0.27579000  1.0 -0.4362966427
O  O70  1  0.99420000  0.39225000  0.77579000  1.0 -0.4362966427
O  O71  1  0.50580000  0.89225000  0.77579000  1.0 -0.4362966427
O  O72  1  0.49420000  0.10775000  0.27579000  1.0 -0.4362966427
O  O73  1  0.14790000  0.37640000  0.40358000  1.0 -0.7634935686
O  O74  1  0.85210000  0.62360000  0.90358000  1.0 -0.7634935686
O  O75  1  0.64790000  0.12360000  0.90358000  1.0 -0.7634935686
O  O76  1  0.35210000  0.87640000  0.40358000  1.0 -0.7634935686
O  O77  1  0.84220000  0.28247000  0.22358000  1.0 -0.7634935686
O  O78  1  0.15780000  0.71753000  0.72358000  1.0 -0.7634935686
O  O79  1  0.34220000  0.21753000  0.72358000  1.0 -0.7634935686
O  O80  1  0.65780000  0.78247000  0.22358000  1.0 -0.7634935686
O  O81  1  0.10170000  0.23160000  0.41602000  1.0 -0.4830304989
O  O82  1  0.89830000  0.76840000  0.91602000  1.0 -0.4830304989
O  O83  1  0.60170000  0.26840000  0.91602000  1.0 -0.4830304989
O  O84  1  0.39830000  0.73160000  0.41602000  1.0 -0.4830304989
O  O85  1  0.85920000  0.42874000  0.20814000  1.0 -0.4203681694
O  O86  1  0.14080000  0.57126000  0.70814000  1.0 -0.4203681694
O  O87  1  0.35920000  0.07126000  0.70814000  1.0 -0.4203681694
O  O88  1  0.64080000  0.92874000  0.20814000  1.0 -0.4203681694
