# DDEC6 charges by PACMAN v1.1 (https://github.com/mtap-research/PACMAN-charge/)
data_RUBDUP_ASR_pacman
_symmetry_space_group_name_H-M   'P 1'
_cell_length_a   33.26100000
_cell_length_b   33.26100000
_cell_length_c   33.26100000
_cell_angle_alpha   90.00000000
_cell_angle_beta   90.00000000
_cell_angle_gamma   90.00000000
_symmetry_Int_Tables_number   1
_chemical_formula_structural   ZnH14(C17O2)2
_chemical_formula_sum   'Zn12 H168 C408 O48'
_cell_volume   36796.44875858
_cell_formula_units_Z   12
loop_
 _symmetry_equiv_pos_site_id
 _symmetry_equiv_pos_as_xyz
  1  'x, y, z'
loop_
 _atom_site_type_symbol
 _atom_site_label
 _atom_site_symmetry_multiplicity
 _atom_site_fract_x
 _atom_site_fract_y
 _atom_site_fract_z
 _atom_site_occupancy
 _atom_site_charge
Zn  Zn1  1  0.37500000  0.62500000  0.12500000  1.0 1.0432689066
Zn  Zn2  1  0.12500000  0.37500000  0.62500000  1.0 1.0432689066
Zn  Zn3  1  0.62500000  0.12500000  0.37500000  1.0 1.0432689066
Zn  Zn4  1  0.87500000  0.87500000  0.87500000  1.0 1.0432689066
Zn  Zn5  1  0.43692000  0.56308000  0.06308000  1.0 0.9122452835
Zn  Zn6  1  0.06308000  0.43692000  0.56308000  1.0 0.9122452835
Zn  Zn7  1  0.56308000  0.06308000  0.43692000  1.0 0.9122452835
Zn  Zn8  1  0.93692000  0.93692000  0.93692000  1.0 0.9122452835
Zn  Zn9  1  0.31308000  0.68692000  0.18692000  1.0 0.9122452835
Zn  Zn10  1  0.18692000  0.31308000  0.68692000  1.0 0.9122452835
Zn  Zn11  1  0.81308000  0.81308000  0.81308000  1.0 0.9122452835
Zn  Zn12  1  0.68692000  0.18692000  0.31308000  1.0 0.9122452835
H  H1  1  0.32210000  0.66790000  0.02930000  1.0 0.1385476375
H  H2  1  0.17790000  0.33210000  0.52930000  1.0 0.1385476375
H  H3  1  0.67790000  0.16790000  0.47070000  1.0 0.1385476375
H  H4  1  0.82210000  0.83210000  0.97070000  1.0 0.1385476375
H  H5  1  0.02930000  0.32210000  0.66790000  1.0 0.1385476375
H  H6  1  0.52930000  0.17790000  0.33210000  1.0 0.1385476375
H  H7  1  0.47070000  0.67790000  0.16790000  1.0 0.1385476375
H  H8  1  0.97070000  0.82210000  0.83210000  1.0 0.1385476375
H  H9  1  0.66790000  0.02930000  0.32210000  1.0 0.1385476375
H  H10  1  0.33210000  0.52930000  0.17790000  1.0 0.1385476375
H  H11  1  0.16790000  0.47070000  0.67790000  1.0 0.1385476375
H  H12  1  0.83210000  0.97070000  0.82210000  1.0 0.1385476375
H  H13  1  0.41790000  0.57210000  0.22070000  1.0 0.1385476375
H  H14  1  0.08210000  0.42790000  0.72070000  1.0 0.1385476375
H  H15  1  0.91790000  0.92790000  0.77930000  1.0 0.1385476375
H  H16  1  0.58210000  0.07210000  0.27930000  1.0 0.1385476375
H  H17  1  0.07210000  0.27930000  0.58210000  1.0 0.1385476375
H  H18  1  0.92790000  0.77930000  0.91790000  1.0 0.1385476375
H  H19  1  0.42790000  0.72070000  0.08210000  1.0 0.1385476375
H  H20  1  0.57210000  0.22070000  0.41790000  1.0 0.1385476375
H  H21  1  0.77930000  0.91790000  0.92790000  1.0 0.1385476375
H  H22  1  0.27930000  0.58210000  0.07210000  1.0 0.1385476375
H  H23  1  0.22070000  0.41790000  0.57210000  1.0 0.1385476375
H  H24  1  0.72070000  0.08210000  0.42790000  1.0 0.1385476375
H  H25  1  0.35110000  0.56880000  0.96670000  1.0 0.1295735217
H  H26  1  0.14890000  0.43120000  0.46670000  1.0 0.1295735217
H  H27  1  0.64890000  0.06880000  0.53330000  1.0 0.1295735217
H  H28  1  0.85110000  0.93120000  0.03330000  1.0 0.1295735217
H  H29  1  0.96670000  0.35110000  0.56880000  1.0 0.1295735217
H  H30  1  0.46670000  0.14890000  0.43120000  1.0 0.1295735217
H  H31  1  0.53330000  0.64890000  0.06880000  1.0 0.1295735217
H  H32  1  0.03330000  0.85110000  0.93120000  1.0 0.1295735217
H  H33  1  0.56880000  0.96670000  0.35110000  1.0 0.1295735217
H  H34  1  0.43120000  0.46670000  0.14890000  1.0 0.1295735217
H  H35  1  0.06880000  0.53330000  0.64890000  1.0 0.1295735217
H  H36  1  0.93120000  0.03330000  0.85110000  1.0 0.1295735217
H  H37  1  0.31880000  0.60110000  0.28330000  1.0 0.1295735217
H  H38  1  0.18120000  0.39890000  0.78330000  1.0 0.1295735217
H  H39  1  0.81880000  0.89890000  0.71670000  1.0 0.1295735217
H  H40  1  0.68120000  0.10110000  0.21670000  1.0 0.1295735217
H  H41  1  0.10110000  0.21670000  0.68120000  1.0 0.1295735217
H  H42  1  0.89890000  0.71670000  0.81880000  1.0 0.1295735217
H  H43  1  0.39890000  0.78330000  0.18120000  1.0 0.1295735217
H  H44  1  0.60110000  0.28330000  0.31880000  1.0 0.1295735217
H  H45  1  0.71670000  0.81880000  0.89890000  1.0 0.1295735217
H  H46  1  0.21670000  0.68120000  0.10110000  1.0 0.1295735217
H  H47  1  0.28330000  0.31880000  0.60110000  1.0 0.1295735217
H  H48  1  0.78330000  0.18120000  0.39890000  1.0 0.1295735217
H  H49  1  0.26580000  0.64360000  0.92520000  1.0 0.1385476375
H  H50  1  0.23420000  0.35640000  0.42520000  1.0 0.1385476375
H  H51  1  0.73420000  0.14360000  0.57480000  1.0 0.1385476375
H  H52  1  0.76580000  0.85640000  0.07480000  1.0 0.1385476375
H  H53  1  0.92520000  0.26580000  0.64360000  1.0 0.1385476375
H  H54  1  0.42520000  0.23420000  0.35640000  1.0 0.1385476375
H  H55  1  0.57480000  0.73420000  0.14360000  1.0 0.1385476375
H  H56  1  0.07480000  0.76580000  0.85640000  1.0 0.1385476375
H  H57  1  0.64360000  0.92520000  0.26580000  1.0 0.1385476375
H  H58  1  0.35640000  0.42520000  0.23420000  1.0 0.1385476375
H  H59  1  0.14360000  0.57480000  0.73420000  1.0 0.1385476375
H  H60  1  0.85640000  0.07480000  0.76580000  1.0 0.1385476375
H  H61  1  0.39360000  0.51580000  0.32480000  1.0 0.1385476375
H  H62  1  0.10640000  0.48420000  0.82480000  1.0 0.1385476375
H  H63  1  0.89360000  0.98420000  0.67520000  1.0 0.1385476375
H  H64  1  0.60640000  0.01580000  0.17520000  1.0 0.1385476375
H  H65  1  0.01580000  0.17520000  0.60640000  1.0 0.1385476375
H  H66  1  0.98420000  0.67520000  0.89360000  1.0 0.1385476375
H  H67  1  0.48420000  0.82480000  0.10640000  1.0 0.1385476375
H  H68  1  0.51580000  0.32480000  0.39360000  1.0 0.1385476375
H  H69  1  0.67520000  0.89360000  0.98420000  1.0 0.1385476375
H  H70  1  0.17520000  0.60640000  0.01580000  1.0 0.1385476375
H  H71  1  0.32480000  0.39360000  0.51580000  1.0 0.1385476375
H  H72  1  0.82480000  0.10640000  0.48420000  1.0 0.1385476375
H  H73  1  0.17260000  0.73780000  0.94570000  1.0 0.1385476375
H  H74  1  0.32740000  0.26220000  0.44570000  1.0 0.1385476375
H  H75  1  0.82740000  0.23780000  0.55430000  1.0 0.1385476375
H  H76  1  0.67260000  0.76220000  0.05430000  1.0 0.1385476375
H  H77  1  0.94570000  0.17260000  0.73780000  1.0 0.1385476375
H  H78  1  0.44570000  0.32740000  0.26220000  1.0 0.1385476375
H  H79  1  0.55430000  0.82740000  0.23780000  1.0 0.1385476375
H  H80  1  0.05430000  0.67260000  0.76220000  1.0 0.1385476375
H  H81  1  0.73780000  0.94570000  0.17260000  1.0 0.1385476375
H  H82  1  0.26220000  0.44570000  0.32740000  1.0 0.1385476375
H  H83  1  0.23780000  0.55430000  0.82740000  1.0 0.1385476375
H  H84  1  0.76220000  0.05430000  0.67260000  1.0 0.1385476375
H  H85  1  0.48780000  0.42260000  0.30430000  1.0 0.1385476375
H  H86  1  0.01220000  0.57740000  0.80430000  1.0 0.1385476375
H  H87  1  0.98780000  0.07740000  0.69570000  1.0 0.1385476375
H  H88  1  0.51220000  0.92260000  0.19570000  1.0 0.1385476375
H  H89  1  0.92260000  0.19570000  0.51220000  1.0 0.1385476375
H  H90  1  0.07740000  0.69570000  0.98780000  1.0 0.1385476375
H  H91  1  0.57740000  0.80430000  0.01220000  1.0 0.1385476375
H  H92  1  0.42260000  0.30430000  0.48780000  1.0 0.1385476375
H  H93  1  0.69570000  0.98780000  0.07740000  1.0 0.1385476375
H  H94  1  0.19570000  0.51220000  0.92260000  1.0 0.1385476375
H  H95  1  0.30430000  0.48780000  0.42260000  1.0 0.1385476375
H  H96  1  0.80430000  0.01220000  0.57740000  1.0 0.1385476375
H  H97  1  0.13590000  0.82820000  0.01700000  1.0 0.1128999045
H  H98  1  0.36410000  0.17180000  0.51700000  1.0 0.1128999045
H  H99  1  0.86410000  0.32820000  0.48300000  1.0 0.1128999045
H  H100  1  0.63590000  0.67180000  0.98300000  1.0 0.1128999045
H  H101  1  0.01700000  0.13590000  0.82820000  1.0 0.1128999045
H  H102  1  0.51700000  0.36410000  0.17180000  1.0 0.1128999045
H  H103  1  0.48300000  0.86410000  0.32820000  1.0 0.1128999045
H  H104  1  0.98300000  0.63590000  0.67180000  1.0 0.1128999045
H  H105  1  0.82820000  0.01700000  0.13590000  1.0 0.1128999045
H  H106  1  0.17180000  0.51700000  0.36410000  1.0 0.1128999045
H  H107  1  0.32820000  0.48300000  0.86410000  1.0 0.1128999045
H  H108  1  0.67180000  0.98300000  0.63590000  1.0 0.1128999045
H  H109  1  0.57820000  0.38590000  0.23300000  1.0 0.1128999045
H  H110  1  0.92180000  0.61410000  0.73300000  1.0 0.1128999045
H  H111  1  0.07820000  0.11410000  0.76700000  1.0 0.1128999045
H  H112  1  0.42180000  0.88590000  0.26700000  1.0 0.1128999045
H  H113  1  0.88590000  0.26700000  0.42180000  1.0 0.1128999045
H  H114  1  0.11410000  0.76700000  0.07820000  1.0 0.1128999045
H  H115  1  0.61410000  0.73300000  0.92180000  1.0 0.1128999045
H  H116  1  0.38590000  0.23300000  0.57820000  1.0 0.1128999045
H  H117  1  0.76700000  0.07820000  0.11410000  1.0 0.1128999045
H  H118  1  0.26700000  0.42180000  0.88590000  1.0 0.1128999045
H  H119  1  0.23300000  0.57820000  0.38590000  1.0 0.1128999045
H  H120  1  0.73300000  0.92180000  0.61410000  1.0 0.1128999045
H  H121  1  0.18760000  0.81400000  0.06160000  1.0 0.1222448235
H  H122  1  0.31240000  0.18600000  0.56160000  1.0 0.1222448235
H  H123  1  0.81240000  0.31400000  0.43840000  1.0 0.1222448235
H  H124  1  0.68760000  0.68600000  0.93840000  1.0 0.1222448235
H  H125  1  0.06160000  0.18760000  0.81400000  1.0 0.1222448235
H  H126  1  0.56160000  0.31240000  0.18600000  1.0 0.1222448235
H  H127  1  0.43840000  0.81240000  0.31400000  1.0 0.1222448235
H  H128  1  0.93840000  0.68760000  0.68600000  1.0 0.1222448235
H  H129  1  0.81400000  0.06160000  0.18760000  1.0 0.1222448235
H  H130  1  0.18600000  0.56160000  0.31240000  1.0 0.1222448235
H  H131  1  0.31400000  0.43840000  0.81240000  1.0 0.1222448235
H  H132  1  0.68600000  0.93840000  0.68760000  1.0 0.1222448235
H  H133  1  0.56400000  0.43760000  0.18840000  1.0 0.1222448235
H  H134  1  0.93600000  0.56240000  0.68840000  1.0 0.1222448235
H  H135  1  0.06400000  0.06240000  0.81160000  1.0 0.1222448235
H  H136  1  0.43600000  0.93760000  0.31160000  1.0 0.1222448235
H  H137  1  0.93760000  0.31160000  0.43600000  1.0 0.1222448235
H  H138  1  0.06240000  0.81160000  0.06400000  1.0 0.1222448235
H  H139  1  0.56240000  0.68840000  0.93600000  1.0 0.1222448235
H  H140  1  0.43760000  0.18840000  0.56400000  1.0 0.1222448235
H  H141  1  0.81160000  0.06400000  0.06240000  1.0 0.1222448235
H  H142  1  0.31160000  0.43600000  0.93760000  1.0 0.1222448235
H  H143  1  0.18840000  0.56400000  0.43760000  1.0 0.1222448235
H  H144  1  0.68840000  0.93600000  0.56240000  1.0 0.1222448235
H  H145  1  0.23180000  0.76170000  0.04830000  1.0 0.1222448235
H  H146  1  0.26820000  0.23830000  0.54830000  1.0 0.1222448235
H  H147  1  0.76820000  0.26170000  0.45170000  1.0 0.1295735217
H  H148  1  0.73180000  0.73830000  0.95170000  1.0 0.1222448235
H  H149  1  0.04830000  0.23180000  0.76170000  1.0 0.1222448235
H  H150  1  0.54830000  0.26820000  0.23830000  1.0 0.1222448235
H  H151  1  0.45170000  0.76820000  0.26170000  1.0 0.1222448235
H  H152  1  0.95170000  0.73180000  0.73830000  1.0 0.1222448235
H  H153  1  0.76170000  0.04830000  0.23180000  1.0 0.1222448235
H  H154  1  0.23830000  0.54830000  0.26820000  1.0 0.1222448235
H  H155  1  0.26170000  0.45170000  0.76820000  1.0 0.1295735217
H  H156  1  0.73830000  0.95170000  0.73180000  1.0 0.1222448235
H  H157  1  0.51170000  0.48180000  0.20170000  1.0 0.1222448235
H  H158  1  0.98830000  0.51820000  0.70170000  1.0 0.1222448235
H  H159  1  0.01170000  0.01820000  0.79830000  1.0 0.1222448235
H  H160  1  0.48830000  0.98180000  0.29830000  1.0 0.1222448235
H  H161  1  0.98180000  0.29830000  0.48830000  1.0 0.1222448235
H  H162  1  0.01820000  0.79830000  0.01170000  1.0 0.1222448235
H  H163  1  0.51820000  0.70170000  0.98830000  1.0 0.1222448235
H  H164  1  0.48180000  0.20170000  0.51170000  1.0 0.1222448235
H  H165  1  0.79830000  0.01170000  0.01820000  1.0 0.1222448235
H  H166  1  0.29830000  0.48830000  0.98180000  1.0 0.1222448235
H  H167  1  0.20170000  0.51170000  0.48180000  1.0 0.1222448235
H  H168  1  0.70170000  0.98830000  0.51820000  1.0 0.1222448235
C  C1  1  0.31840000  0.65140000  0.00701000  1.0 -0.1419380816
C  C2  1  0.18160000  0.34860000  0.50701000  1.0 -0.1419380816
C  C3  1  0.68160000  0.15140000  0.49299000  1.0 -0.1419380816
C  C4  1  0.81840000  0.84860000  0.99299000  1.0 -0.1419380816
C  C5  1  0.00701000  0.31840000  0.65140000  1.0 -0.1419380816
C  C6  1  0.50701000  0.18160000  0.34860000  1.0 -0.1419380816
C  C7  1  0.49299000  0.68160000  0.15140000  1.0 -0.1419380816
C  C8  1  0.99299000  0.81840000  0.84860000  1.0 -0.1419380816
C  C9  1  0.65140000  0.00701000  0.31840000  1.0 -0.1419380816
C  C10  1  0.34860000  0.50701000  0.18160000  1.0 -0.1419380816
C  C11  1  0.15140000  0.49299000  0.68160000  1.0 -0.1419380816
C  C12  1  0.84860000  0.99299000  0.81840000  1.0 -0.1419380816
C  C13  1  0.40140000  0.56840000  0.24299000  1.0 -0.1419380816
C  C14  1  0.09860000  0.43160000  0.74299000  1.0 -0.1419380816
C  C15  1  0.90140000  0.93160000  0.75701000  1.0 -0.1419380816
C  C16  1  0.59860000  0.06840000  0.25701000  1.0 -0.1419380816
C  C17  1  0.06840000  0.25701000  0.59860000  1.0 -0.1419380816
C  C18  1  0.93160000  0.75701000  0.90140000  1.0 -0.1419380816
C  C19  1  0.43160000  0.74299000  0.09860000  1.0 -0.1419380816
C  C20  1  0.56840000  0.24299000  0.40140000  1.0 -0.1419380816
C  C21  1  0.75701000  0.90140000  0.93160000  1.0 -0.1419380816
C  C22  1  0.25701000  0.59860000  0.06840000  1.0 -0.1419380816
C  C23  1  0.24299000  0.40140000  0.56840000  1.0 -0.1419380816
C  C24  1  0.74299000  0.09860000  0.43160000  1.0 -0.1419380816
C  C25  1  0.34127000  0.61670000  0.00280000  1.0 -0.0075100494
C  C26  1  0.15873000  0.38330000  0.50280000  1.0 -0.0075100494
C  C27  1  0.65873000  0.11670000  0.49720000  1.0 -0.0075100494
C  C28  1  0.84127000  0.88330000  0.99720000  1.0 -0.0075100494
C  C29  1  0.00280000  0.34127000  0.61670000  1.0 -0.0075100494
C  C30  1  0.50280000  0.15873000  0.38330000  1.0 -0.0075100494
C  C31  1  0.49720000  0.65873000  0.11670000  1.0 -0.0075100494
C  C32  1  0.99720000  0.84127000  0.88330000  1.0 -0.0075100494
C  C33  1  0.61670000  0.00280000  0.34127000  1.0 -0.0075100494
C  C34  1  0.38330000  0.50280000  0.15873000  1.0 -0.0075100494
C  C35  1  0.11670000  0.49720000  0.65873000  1.0 -0.0075100494
C  C36  1  0.88330000  0.99720000  0.84127000  1.0 -0.0075100494
C  C37  1  0.36670000  0.59127000  0.24720000  1.0 -0.0075100494
C  C38  1  0.13330000  0.40873000  0.74720000  1.0 -0.0075100494
C  C39  1  0.86670000  0.90873000  0.75280000  1.0 -0.0075100494
C  C40  1  0.63330000  0.09127000  0.25280000  1.0 -0.0075100494
C  C41  1  0.09127000  0.25280000  0.63330000  1.0 -0.0075100494
C  C42  1  0.90873000  0.75280000  0.86670000  1.0 -0.0075100494
C  C43  1  0.40873000  0.74720000  0.13330000  1.0 -0.0075100494
C  C44  1  0.59127000  0.24720000  0.36670000  1.0 -0.0075100494
C  C45  1  0.75280000  0.86670000  0.90873000  1.0 -0.0075100494
C  C46  1  0.25280000  0.63330000  0.09127000  1.0 -0.0075100494
C  C47  1  0.24720000  0.36670000  0.59127000  1.0 -0.0075100494
C  C48  1  0.74720000  0.13330000  0.40873000  1.0 -0.0075100494
C  C49  1  0.33580000  0.59201000  0.96950000  1.0 -0.1674883142
C  C50  1  0.16420000  0.40799000  0.46950000  1.0 -0.1674883142
C  C51  1  0.66420000  0.09201000  0.53050000  1.0 -0.1674883142
C  C52  1  0.83580000  0.90799000  0.03050000  1.0 -0.1674883142
C  C53  1  0.96950000  0.33580000  0.59201000  1.0 -0.1674883142
C  C54  1  0.46950000  0.16420000  0.40799000  1.0 -0.1674883142
C  C55  1  0.53050000  0.66420000  0.09201000  1.0 -0.1674883142
C  C56  1  0.03050000  0.83580000  0.90799000  1.0 -0.1674883142
C  C57  1  0.59201000  0.96950000  0.33580000  1.0 -0.1674883142
C  C58  1  0.40799000  0.46950000  0.16420000  1.0 -0.1674883142
C  C59  1  0.09201000  0.53050000  0.66420000  1.0 -0.1674883142
C  C60  1  0.90799000  0.03050000  0.83580000  1.0 -0.1674883142
C  C61  1  0.34201000  0.58580000  0.28050000  1.0 -0.1674883142
C  C62  1  0.15799000  0.41420000  0.78050000  1.0 -0.1674883142
C  C63  1  0.84201000  0.91420000  0.71950000  1.0 -0.1674883142
C  C64  1  0.65799000  0.08580000  0.21950000  1.0 -0.1674883142
C  C65  1  0.08580000  0.21950000  0.65799000  1.0 -0.1674883142
C  C66  1  0.91420000  0.71950000  0.84201000  1.0 -0.1674883142
C  C67  1  0.41420000  0.78050000  0.15799000  1.0 -0.1674883142
C  C68  1  0.58580000  0.28050000  0.34201000  1.0 -0.1674883142
C  C69  1  0.71950000  0.84201000  0.91420000  1.0 -0.1674883142
C  C70  1  0.21950000  0.65799000  0.08580000  1.0 -0.1674883142
C  C71  1  0.28050000  0.34201000  0.58580000  1.0 -0.1674883142
C  C72  1  0.78050000  0.15799000  0.41420000  1.0 -0.1674883142
C  C73  1  0.30750000  0.60210000  0.94040000  1.0 0.1385476375
C  C74  1  0.19250000  0.39790000  0.44040000  1.0 0.1385476375
C  C75  1  0.69250000  0.10210000  0.55960000  1.0 0.1385476375
C  C76  1  0.80750000  0.89790000  0.05960000  1.0 0.1385476375
C  C77  1  0.94040000  0.30750000  0.60210000  1.0 0.1385476375
C  C78  1  0.44040000  0.19250000  0.39790000  1.0 0.1385476375
C  C79  1  0.55960000  0.69250000  0.10210000  1.0 0.1385476375
C  C80  1  0.05960000  0.80750000  0.89790000  1.0 0.1385476375
C  C81  1  0.60210000  0.94040000  0.30750000  1.0 0.1385476375
C  C82  1  0.39790000  0.44040000  0.19250000  1.0 0.1385476375
C  C83  1  0.10210000  0.55960000  0.69250000  1.0 0.1385476375
C  C84  1  0.89790000  0.05960000  0.80750000  1.0 0.1385476375
C  C85  1  0.35210000  0.55750000  0.30960000  1.0 0.1385476375
C  C86  1  0.14790000  0.44250000  0.80960000  1.0 0.1385476375
C  C87  1  0.85210000  0.94250000  0.69040000  1.0 0.1385476375
C  C88  1  0.64790000  0.05750000  0.19040000  1.0 0.1385476375
C  C89  1  0.05750000  0.19040000  0.64790000  1.0 0.1385476375
C  C90  1  0.94250000  0.69040000  0.85210000  1.0 0.1385476375
C  C91  1  0.44250000  0.80960000  0.14790000  1.0 0.1385476375
C  C92  1  0.55750000  0.30960000  0.35210000  1.0 0.1385476375
C  C93  1  0.69040000  0.85210000  0.94250000  1.0 0.1385476375
C  C94  1  0.19040000  0.64790000  0.05750000  1.0 0.1385476375
C  C95  1  0.30960000  0.35210000  0.55750000  1.0 0.1385476375
C  C96  1  0.80960000  0.14790000  0.44250000  1.0 0.1385476375
C  C97  1  0.28470000  0.63680000  0.94460000  1.0 -0.1786919112
C  C98  1  0.21530000  0.36320000  0.44460000  1.0 -0.1786919112
C  C99  1  0.71530000  0.13680000  0.55540000  1.0 -0.1786919112
C  C100  1  0.78470000  0.86320000  0.05540000  1.0 -0.1786919112
C  C101  1  0.94460000  0.28470000  0.63680000  1.0 -0.1786919112
C  C102  1  0.44460000  0.21530000  0.36320000  1.0 -0.1786919112
C  C103  1  0.55540000  0.71530000  0.13680000  1.0 -0.1786919112
C  C104  1  0.05540000  0.78470000  0.86320000  1.0 -0.1786919112
C  C105  1  0.63680000  0.94460000  0.28470000  1.0 -0.1786919112
C  C106  1  0.36320000  0.44460000  0.21530000  1.0 -0.1786919112
C  C107  1  0.13680000  0.55540000  0.71530000  1.0 -0.1786919112
C  C108  1  0.86320000  0.05540000  0.78470000  1.0 -0.1786919112
C  C109  1  0.38680000  0.53470000  0.30540000  1.0 -0.1786919112
C  C110  1  0.11320000  0.46530000  0.80540000  1.0 -0.1786919112
C  C111  1  0.88680000  0.96530000  0.69460000  1.0 -0.1786919112
C  C112  1  0.61320000  0.03470000  0.19460000  1.0 -0.1786919112
C  C113  1  0.03470000  0.19460000  0.61320000  1.0 -0.1786919112
C  C114  1  0.96530000  0.69460000  0.88680000  1.0 -0.1786919112
C  C115  1  0.46530000  0.80540000  0.11320000  1.0 -0.1786919112
C  C116  1  0.53470000  0.30540000  0.38680000  1.0 -0.1786919112
C  C117  1  0.69460000  0.88680000  0.96530000  1.0 -0.1786919112
C  C118  1  0.19460000  0.61320000  0.03470000  1.0 -0.1786919112
C  C119  1  0.30540000  0.38680000  0.53470000  1.0 -0.1786919112
C  C120  1  0.80540000  0.11320000  0.46530000  1.0 -0.1786919112
C  C121  1  0.29020000  0.66150000  0.97790000  1.0 0.1222448235
C  C122  1  0.20980000  0.33850000  0.47790000  1.0 0.1222448235
C  C123  1  0.70980000  0.16150000  0.52210000  1.0 0.1222448235
C  C124  1  0.79020000  0.83850000  0.02210000  1.0 0.1222448235
C  C125  1  0.97790000  0.29020000  0.66150000  1.0 0.1222448235
C  C126  1  0.47790000  0.20980000  0.33850000  1.0 0.1222448235
C  C127  1  0.52210000  0.70980000  0.16150000  1.0 0.1222448235
C  C128  1  0.02210000  0.79020000  0.83850000  1.0 0.1222448235
C  C129  1  0.66150000  0.97790000  0.29020000  1.0 0.1222448235
C  C130  1  0.33850000  0.47790000  0.20980000  1.0 0.1222448235
C  C131  1  0.16150000  0.52210000  0.70980000  1.0 0.1222448235
C  C132  1  0.83850000  0.02210000  0.79020000  1.0 0.1222448235
C  C133  1  0.41150000  0.54020000  0.27210000  1.0 0.1222448235
C  C134  1  0.08850000  0.45980000  0.77210000  1.0 0.1222448235
C  C135  1  0.91150000  0.95980000  0.72790000  1.0 0.1222448235
C  C136  1  0.58850000  0.04020000  0.22790000  1.0 0.1222448235
C  C137  1  0.04020000  0.22790000  0.58850000  1.0 0.1222448235
C  C138  1  0.95980000  0.72790000  0.91150000  1.0 0.1222448235
C  C139  1  0.45980000  0.77210000  0.08850000  1.0 0.1222448235
C  C140  1  0.54020000  0.27210000  0.41150000  1.0 0.1222448235
C  C141  1  0.72790000  0.91150000  0.95980000  1.0 0.1222448235
C  C142  1  0.22790000  0.58850000  0.04020000  1.0 0.1222448235
C  C143  1  0.27210000  0.41150000  0.54020000  1.0 0.1222448235
C  C144  1  0.77210000  0.08850000  0.45980000  1.0 0.1222448235
C  C145  1  0.37370000  0.60220000  0.03170000  1.0 0.5925467784
C  C146  1  0.12630000  0.39780000  0.53170000  1.0 0.5925467784
C  C147  1  0.62630000  0.10220000  0.46830000  1.0 0.5925467784
C  C148  1  0.87370000  0.89780000  0.96830000  1.0 0.5925467784
C  C149  1  0.03170000  0.37370000  0.60220000  1.0 0.5925467784
C  C150  1  0.53170000  0.12630000  0.39780000  1.0 0.5925467784
C  C151  1  0.46830000  0.62630000  0.10220000  1.0 0.5925467784
C  C152  1  0.96830000  0.87370000  0.89780000  1.0 0.5925467784
C  C153  1  0.60220000  0.03170000  0.37370000  1.0 0.5925467784
C  C154  1  0.39780000  0.53170000  0.12630000  1.0 0.5925467784
C  C155  1  0.10220000  0.46830000  0.62630000  1.0 0.5925467784
C  C156  1  0.89780000  0.96830000  0.87370000  1.0 0.5925467784
C  C157  1  0.35220000  0.62370000  0.21830000  1.0 0.5925467784
C  C158  1  0.14780000  0.37630000  0.71830000  1.0 0.5925467784
C  C159  1  0.85220000  0.87630000  0.78170000  1.0 0.5925467784
C  C160  1  0.64780000  0.12370000  0.28170000  1.0 0.5925467784
C  C161  1  0.12370000  0.28170000  0.64780000  1.0 0.5925467784
C  C162  1  0.87630000  0.78170000  0.85220000  1.0 0.5925467784
C  C163  1  0.37630000  0.71830000  0.14780000  1.0 0.5925467784
C  C164  1  0.62370000  0.21830000  0.35220000  1.0 0.5925467784
C  C165  1  0.78170000  0.85220000  0.87630000  1.0 0.5925467784
C  C166  1  0.28170000  0.64780000  0.12370000  1.0 0.5925467784
C  C167  1  0.21830000  0.35220000  0.62370000  1.0 0.5925467784
C  C168  1  0.71830000  0.14780000  0.37630000  1.0 0.5925467784
C  C169  1  0.26340000  0.69260000  0.98370000  1.0 -0.0987220566
C  C170  1  0.23660000  0.30740000  0.48370000  1.0 -0.0987220566
C  C171  1  0.73660000  0.19260000  0.51630000  1.0 -0.0987220566
C  C172  1  0.76340000  0.80740000  0.01630000  1.0 -0.0987220566
C  C173  1  0.98370000  0.26340000  0.69260000  1.0 -0.0987220566
C  C174  1  0.48370000  0.23660000  0.30740000  1.0 -0.0987220566
C  C175  1  0.51630000  0.73660000  0.19260000  1.0 -0.0987220566
C  C176  1  0.01630000  0.76340000  0.80740000  1.0 -0.0987220566
C  C177  1  0.69260000  0.98370000  0.26340000  1.0 -0.0987220566
C  C178  1  0.30740000  0.48370000  0.23660000  1.0 -0.0987220566
C  C179  1  0.19260000  0.51630000  0.73660000  1.0 -0.0987220566
C  C180  1  0.80740000  0.01630000  0.76340000  1.0 -0.0987220566
C  C181  1  0.44260000  0.51340000  0.26630000  1.0 -0.0987220566
C  C182  1  0.05740000  0.48660000  0.76630000  1.0 -0.0987220566
C  C183  1  0.94260000  0.98660000  0.73370000  1.0 -0.0987220566
C  C184  1  0.55740000  0.01340000  0.23370000  1.0 -0.0987220566
C  C185  1  0.01340000  0.23370000  0.55740000  1.0 -0.0987220566
C  C186  1  0.98660000  0.73370000  0.94260000  1.0 -0.0987220566
C  C187  1  0.48660000  0.76630000  0.05740000  1.0 -0.0987220566
C  C188  1  0.51340000  0.26630000  0.44260000  1.0 -0.0987220566
C  C189  1  0.73370000  0.94260000  0.98660000  1.0 -0.0987220566
C  C190  1  0.23370000  0.55740000  0.01340000  1.0 -0.0987220566
C  C191  1  0.26630000  0.44260000  0.51340000  1.0 -0.0987220566
C  C192  1  0.76630000  0.05740000  0.48660000  1.0 -0.0987220566
C  C193  1  0.24010000  0.71970000  0.98580000  1.0 -0.0933650278
C  C194  1  0.25990000  0.28030000  0.48580000  1.0 -0.0933650278
C  C195  1  0.75990000  0.21970000  0.51420000  1.0 -0.0933650278
C  C196  1  0.74010000  0.78030000  0.01420000  1.0 -0.0933650278
C  C197  1  0.98580000  0.24010000  0.71970000  1.0 -0.0933650278
C  C198  1  0.48580000  0.25990000  0.28030000  1.0 -0.0933650278
C  C199  1  0.51420000  0.75990000  0.21970000  1.0 -0.0933650278
C  C200  1  0.01420000  0.74010000  0.78030000  1.0 -0.0933650278
C  C201  1  0.71970000  0.98580000  0.24010000  1.0 -0.0933650278
C  C202  1  0.28030000  0.48580000  0.25990000  1.0 -0.0933650278
C  C203  1  0.21970000  0.51420000  0.75990000  1.0 -0.0933650278
C  C204  1  0.78030000  0.01420000  0.74010000  1.0 -0.0933650278
C  C205  1  0.46970000  0.49010000  0.26420000  1.0 -0.0933650278
C  C206  1  0.03030000  0.50990000  0.76420000  1.0 -0.0933650278
C  C207  1  0.96970000  0.00990000  0.73580000  1.0 -0.0933650278
C  C208  1  0.53030000  0.99010000  0.23580000  1.0 -0.0933650278
C  C209  1  0.99010000  0.23580000  0.53030000  1.0 -0.0933650278
C  C210  1  0.00990000  0.73580000  0.96970000  1.0 -0.0933650278
C  C211  1  0.50990000  0.76420000  0.03030000  1.0 -0.0933650278
C  C212  1  0.49010000  0.26420000  0.46970000  1.0 -0.0933650278
C  C213  1  0.73580000  0.96970000  0.00990000  1.0 -0.0933650278
C  C214  1  0.23580000  0.53030000  0.99010000  1.0 -0.0933650278
C  C215  1  0.26420000  0.46970000  0.49010000  1.0 -0.0933650278
C  C216  1  0.76420000  0.03030000  0.50990000  1.0 -0.0933650278
C  C217  1  0.17560000  0.75310000  0.96890000  1.0 -0.1909642828
C  C218  1  0.32440000  0.24690000  0.46890000  1.0 -0.1909642828
C  C219  1  0.82440000  0.25310000  0.53110000  1.0 -0.1909642828
C  C220  1  0.67560000  0.74690000  0.03110000  1.0 -0.1909642828
C  C221  1  0.96890000  0.17560000  0.75310000  1.0 -0.1909642828
C  C222  1  0.46890000  0.32440000  0.24690000  1.0 -0.1909642828
C  C223  1  0.53110000  0.82440000  0.25310000  1.0 -0.1909642828
C  C224  1  0.03110000  0.67560000  0.74690000  1.0 -0.1909642828
C  C225  1  0.75310000  0.96890000  0.17560000  1.0 -0.1909642828
C  C226  1  0.24690000  0.46890000  0.32440000  1.0 -0.1909642828
C  C227  1  0.25310000  0.53110000  0.82440000  1.0 -0.1909642828
C  C228  1  0.74690000  0.03110000  0.67560000  1.0 -0.1909642828
C  C229  1  0.50310000  0.42560000  0.28110000  1.0 -0.1909642828
C  C230  1  0.99690000  0.57440000  0.78110000  1.0 -0.1909642828
C  C231  1  0.00310000  0.07440000  0.71890000  1.0 -0.1909642828
C  C232  1  0.49690000  0.92560000  0.21890000  1.0 -0.1909642828
C  C233  1  0.92560000  0.21890000  0.49690000  1.0 -0.1909642828
C  C234  1  0.07440000  0.71890000  0.00310000  1.0 -0.1909642828
C  C235  1  0.57440000  0.78110000  0.99690000  1.0 -0.1909642828
C  C236  1  0.42560000  0.28110000  0.50310000  1.0 -0.1909642828
C  C237  1  0.71890000  0.00310000  0.07440000  1.0 -0.1909642828
C  C238  1  0.21890000  0.49690000  0.92560000  1.0 -0.1909642828
C  C239  1  0.28110000  0.50310000  0.42560000  1.0 -0.1909642828
C  C240  1  0.78110000  0.99690000  0.57440000  1.0 -0.1909642828
C  C241  1  0.14910000  0.78440000  0.97690000  1.0 0.1295735217
C  C242  1  0.35090000  0.21560000  0.47690000  1.0 0.1295735217
C  C243  1  0.85090000  0.28440000  0.52310000  1.0 0.1295735217
C  C244  1  0.64910000  0.71560000  0.02310000  1.0 0.1295735217
C  C245  1  0.97690000  0.14910000  0.78440000  1.0 0.1295735217
C  C246  1  0.47690000  0.35090000  0.21560000  1.0 0.1295735217
C  C247  1  0.52310000  0.85090000  0.28440000  1.0 0.1295735217
C  C248  1  0.02310000  0.64910000  0.71560000  1.0 0.1295735217
C  C249  1  0.78440000  0.97690000  0.14910000  1.0 0.1295735217
C  C250  1  0.21560000  0.47690000  0.35090000  1.0 0.1295735217
C  C251  1  0.28440000  0.52310000  0.85090000  1.0 0.1295735217
C  C252  1  0.71560000  0.02310000  0.64910000  1.0 0.1295735217
C  C253  1  0.53440000  0.39910000  0.27310000  1.0 0.1295735217
C  C254  1  0.96560000  0.60090000  0.77310000  1.0 0.1295735217
C  C255  1  0.03440000  0.10090000  0.72690000  1.0 0.1295735217
C  C256  1  0.46560000  0.89910000  0.22690000  1.0 0.1295735217
C  C257  1  0.89910000  0.22690000  0.46560000  1.0 0.1295735217
C  C258  1  0.10090000  0.72690000  0.03440000  1.0 0.1295735217
C  C259  1  0.60090000  0.77310000  0.96560000  1.0 0.1295735217
C  C260  1  0.39910000  0.27310000  0.53440000  1.0 0.1295735217
C  C261  1  0.72690000  0.03440000  0.10090000  1.0 0.1295735217
C  C262  1  0.22690000  0.46560000  0.89910000  1.0 0.1295735217
C  C263  1  0.27310000  0.53440000  0.39910000  1.0 0.1295735217
C  C264  1  0.77310000  0.96560000  0.60090000  1.0 0.1295735217
C  C265  1  0.15360000  0.80720000  0.01170000  1.0 -0.1492011271
C  C266  1  0.34640000  0.19280000  0.51170000  1.0 -0.1492011271
C  C267  1  0.84640000  0.30720000  0.48830000  1.0 -0.1492011271
C  C268  1  0.65360000  0.69280000  0.98830000  1.0 -0.1492011271
C  C269  1  0.01170000  0.15360000  0.80720000  1.0 -0.1492011271
C  C270  1  0.51170000  0.34640000  0.19280000  1.0 -0.1492011271
C  C271  1  0.48830000  0.84640000  0.30720000  1.0 -0.1492011271
C  C272  1  0.98830000  0.65360000  0.69280000  1.0 -0.1492011271
C  C273  1  0.80720000  0.01170000  0.15360000  1.0 -0.1492011271
C  C274  1  0.19280000  0.51170000  0.34640000  1.0 -0.1492011271
C  C275  1  0.30720000  0.48830000  0.84640000  1.0 -0.1492011271
C  C276  1  0.69280000  0.98830000  0.65360000  1.0 -0.1492011271
C  C277  1  0.55720000  0.40360000  0.23830000  1.0 -0.1492011271
C  C278  1  0.94280000  0.59640000  0.73830000  1.0 -0.1492011271
C  C279  1  0.05720000  0.09640000  0.76170000  1.0 -0.1492011271
C  C280  1  0.44280000  0.90360000  0.26170000  1.0 -0.1492011271
C  C281  1  0.90360000  0.26170000  0.44280000  1.0 -0.1492011271
C  C282  1  0.09640000  0.76170000  0.05720000  1.0 -0.1492011271
C  C283  1  0.59640000  0.73830000  0.94280000  1.0 -0.1492011271
C  C284  1  0.40360000  0.23830000  0.55720000  1.0 -0.1492011271
C  C285  1  0.76170000  0.05720000  0.09640000  1.0 -0.1492011271
C  C286  1  0.26170000  0.44280000  0.90360000  1.0 -0.1492011271
C  C287  1  0.23830000  0.55720000  0.40360000  1.0 -0.1492011271
C  C288  1  0.73830000  0.94280000  0.59640000  1.0 -0.1492011271
C  C289  1  0.18460000  0.79870000  0.03840000  1.0 -0.0933650278
C  C290  1  0.31540000  0.20130000  0.53840000  1.0 -0.0933650278
C  C291  1  0.81540000  0.29870000  0.46160000  1.0 -0.0933650278
C  C292  1  0.68460000  0.70130000  0.96160000  1.0 -0.0933650278
C  C293  1  0.03840000  0.18460000  0.79870000  1.0 -0.0933650278
C  C294  1  0.53840000  0.31540000  0.20130000  1.0 -0.0933650278
C  C295  1  0.46160000  0.81540000  0.29870000  1.0 -0.0933650278
C  C296  1  0.96160000  0.68460000  0.70130000  1.0 -0.0933650278
C  C297  1  0.79870000  0.03840000  0.18460000  1.0 -0.0933650278
C  C298  1  0.20130000  0.53840000  0.31540000  1.0 -0.0933650278
C  C299  1  0.29870000  0.46160000  0.81540000  1.0 -0.0933650278
C  C300  1  0.70130000  0.96160000  0.68460000  1.0 -0.0933650278
C  C301  1  0.54870000  0.43460000  0.21160000  1.0 -0.0933650278
C  C302  1  0.95130000  0.56540000  0.71160000  1.0 -0.0933650278
C  C303  1  0.04870000  0.06540000  0.78840000  1.0 -0.0933650278
C  C304  1  0.45130000  0.93460000  0.28840000  1.0 -0.0933650278
C  C305  1  0.93460000  0.28840000  0.45130000  1.0 -0.0933650278
C  C306  1  0.06540000  0.78840000  0.04870000  1.0 -0.0933650278
C  C307  1  0.56540000  0.71160000  0.95130000  1.0 -0.0933650278
C  C308  1  0.43460000  0.21160000  0.54870000  1.0 -0.0933650278
C  C309  1  0.78840000  0.04870000  0.06540000  1.0 -0.0933650278
C  C310  1  0.28840000  0.45130000  0.93460000  1.0 -0.0933650278
C  C311  1  0.21160000  0.54870000  0.43460000  1.0 -0.0933650278
C  C312  1  0.71160000  0.95130000  0.56540000  1.0 -0.0933650278
C  C313  1  0.21110000  0.76740000  0.03040000  1.0 -0.1492011271
C  C314  1  0.28890000  0.23260000  0.53040000  1.0 -0.1492011271
C  C315  1  0.78890000  0.26740000  0.46960000  1.0 -0.1492011271
C  C316  1  0.71110000  0.73260000  0.96960000  1.0 -0.1492011271
C  C317  1  0.03040000  0.21110000  0.76740000  1.0 -0.1492011271
C  C318  1  0.53040000  0.28890000  0.23260000  1.0 -0.1492011271
C  C319  1  0.46960000  0.78890000  0.26740000  1.0 -0.1492011271
C  C320  1  0.96960000  0.71110000  0.73260000  1.0 -0.1492011271
C  C321  1  0.76740000  0.03040000  0.21110000  1.0 -0.1492011271
C  C322  1  0.23260000  0.53040000  0.28890000  1.0 -0.1492011271
C  C323  1  0.26740000  0.46960000  0.78890000  1.0 -0.1492011271
C  C324  1  0.73260000  0.96960000  0.71110000  1.0 -0.1492011271
C  C325  1  0.51740000  0.46110000  0.21960000  1.0 -0.1492011271
C  C326  1  0.98260000  0.53890000  0.71960000  1.0 -0.1492011271
C  C327  1  0.01740000  0.03890000  0.78040000  1.0 -0.1492011271
C  C328  1  0.48260000  0.96110000  0.28040000  1.0 -0.1492011271
C  C329  1  0.96110000  0.28040000  0.48260000  1.0 -0.1492011271
C  C330  1  0.03890000  0.78040000  0.01740000  1.0 -0.1492011271
C  C331  1  0.53890000  0.71960000  0.98260000  1.0 -0.1492011271
C  C332  1  0.46110000  0.21960000  0.51740000  1.0 -0.1492011271
C  C333  1  0.78040000  0.01740000  0.03890000  1.0 -0.1492011271
C  C334  1  0.28040000  0.48260000  0.96110000  1.0 -0.1492011271
C  C335  1  0.21960000  0.51740000  0.46110000  1.0 -0.1492011271
C  C336  1  0.71960000  0.98260000  0.53890000  1.0 -0.1492011271
C  C337  1  0.20660000  0.74460000  0.99570000  1.0 0.1295735217
C  C338  1  0.29340000  0.25540000  0.49570000  1.0 0.1295735217
C  C339  1  0.79340000  0.24460000  0.50430000  1.0 0.1222448235
C  C340  1  0.70660000  0.75540000  0.00430000  1.0 0.1295735217
C  C341  1  0.99570000  0.20660000  0.74460000  1.0 0.1295735217
C  C342  1  0.49570000  0.29340000  0.25540000  1.0 0.1295735217
C  C343  1  0.50430000  0.79340000  0.24460000  1.0 0.1222448235
C  C344  1  0.00430000  0.70660000  0.75540000  1.0 0.1222448235
C  C345  1  0.74460000  0.99570000  0.20660000  1.0 0.1295735217
C  C346  1  0.25540000  0.49570000  0.29340000  1.0 0.1295735217
C  C347  1  0.24460000  0.50430000  0.79340000  1.0 0.1222448235
C  C348  1  0.75540000  0.00430000  0.70660000  1.0 0.1295735217
C  C349  1  0.49460000  0.45660000  0.25430000  1.0 0.1295735217
C  C350  1  0.00540000  0.54340000  0.75430000  1.0 0.1222448235
C  C351  1  0.99460000  0.04340000  0.74570000  1.0 0.1295735217
C  C352  1  0.50540000  0.95660000  0.24570000  1.0 0.1295735217
C  C353  1  0.95660000  0.24570000  0.50540000  1.0 0.1295735217
C  C354  1  0.04340000  0.74570000  0.99460000  1.0 0.1295735217
C  C355  1  0.54340000  0.75430000  0.00540000  1.0 0.1295735217
C  C356  1  0.45660000  0.25430000  0.49460000  1.0 0.1295735217
C  C357  1  0.74570000  0.99460000  0.04340000  1.0 0.1295735217
C  C358  1  0.24570000  0.50540000  0.95660000  1.0 0.1295735217
C  C359  1  0.25430000  0.49460000  0.45660000  1.0 0.1295735217
C  C360  1  0.75430000  0.00540000  0.54340000  1.0 0.1295735217
C  C361  1  0.29960000  0.55330000  0.87780000  1.0 -0.0933650278
C  C362  1  0.20040000  0.44670000  0.37780000  1.0 -0.0933650278
C  C363  1  0.70040000  0.05330000  0.62220000  1.0 -0.0933650278
C  C364  1  0.79960000  0.94670000  0.12220000  1.0 -0.0933650278
C  C365  1  0.87780000  0.29960000  0.55330000  1.0 -0.0933650278
C  C366  1  0.37780000  0.20040000  0.44670000  1.0 -0.0933650278
C  C367  1  0.62220000  0.70040000  0.05330000  1.0 -0.0933650278
C  C368  1  0.12220000  0.79960000  0.94670000  1.0 -0.0933650278
C  C369  1  0.55330000  0.87780000  0.29960000  1.0 -0.0933650278
C  C370  1  0.44670000  0.37780000  0.20040000  1.0 -0.0933650278
C  C371  1  0.05330000  0.62220000  0.70040000  1.0 -0.0933650278
C  C372  1  0.94670000  0.12220000  0.79960000  1.0 -0.0933650278
C  C373  1  0.30330000  0.54960000  0.37220000  1.0 -0.0933650278
C  C374  1  0.19670000  0.45040000  0.87220000  1.0 -0.0933650278
C  C375  1  0.80330000  0.95040000  0.62780000  1.0 -0.0933650278
C  C376  1  0.69670000  0.04960000  0.12780000  1.0 -0.0933650278
C  C377  1  0.04960000  0.12780000  0.69670000  1.0 -0.0933650278
C  C378  1  0.95040000  0.62780000  0.80330000  1.0 -0.0933650278
C  C379  1  0.45040000  0.87220000  0.19670000  1.0 -0.0933650278
C  C380  1  0.54960000  0.37220000  0.30330000  1.0 -0.0933650278
C  C381  1  0.62780000  0.80330000  0.95040000  1.0 -0.0933650278
C  C382  1  0.12780000  0.69670000  0.04960000  1.0 -0.0933650278
C  C383  1  0.37220000  0.30330000  0.54960000  1.0 -0.0933650278
C  C384  1  0.87220000  0.19670000  0.45040000  1.0 -0.0933650278
C  C385  1  0.30310000  0.57610000  0.90480000  1.0 -0.0987220566
C  C386  1  0.19690000  0.42390000  0.40480000  1.0 -0.0987220566
C  C387  1  0.69690000  0.07610000  0.59520000  1.0 -0.0987220566
C  C388  1  0.80310000  0.92390000  0.09520000  1.0 -0.0987220566
C  C389  1  0.90480000  0.30310000  0.57610000  1.0 -0.0987220566
C  C390  1  0.40480000  0.19690000  0.42390000  1.0 -0.0987220566
C  C391  1  0.59520000  0.69690000  0.07610000  1.0 -0.0987220566
C  C392  1  0.09520000  0.80310000  0.92390000  1.0 -0.0987220566
C  C393  1  0.57610000  0.90480000  0.30310000  1.0 -0.0987220566
C  C394  1  0.42390000  0.40480000  0.19690000  1.0 -0.0987220566
C  C395  1  0.07610000  0.59520000  0.69690000  1.0 -0.0987220566
C  C396  1  0.92390000  0.09520000  0.80310000  1.0 -0.0987220566
C  C397  1  0.32610000  0.55310000  0.34520000  1.0 -0.0987220566
C  C398  1  0.17390000  0.44690000  0.84520000  1.0 -0.0987220566
C  C399  1  0.82610000  0.94690000  0.65480000  1.0 -0.0987220566
C  C400  1  0.67390000  0.05310000  0.15480000  1.0 -0.0987220566
C  C401  1  0.05310000  0.15480000  0.67390000  1.0 -0.0987220566
C  C402  1  0.94690000  0.65480000  0.82610000  1.0 -0.0987220566
C  C403  1  0.44690000  0.84520000  0.17390000  1.0 -0.0987220566
C  C404  1  0.55310000  0.34520000  0.32610000  1.0 -0.0987220566
C  C405  1  0.65480000  0.82610000  0.94690000  1.0 -0.0987220566
C  C406  1  0.15480000  0.67390000  0.05310000  1.0 -0.0987220566
C  C407  1  0.34520000  0.32610000  0.55310000  1.0 -0.0987220566
C  C408  1  0.84520000  0.17390000  0.44690000  1.0 -0.0987220566
O  O1  1  0.37364000  0.62649000  0.06079000  1.0 -0.5685587501
O  O2  1  0.12636000  0.37351000  0.56079000  1.0 -0.5685587501
O  O3  1  0.62636000  0.12649000  0.43921000  1.0 -0.5685587501
O  O4  1  0.87364000  0.87351000  0.93921000  1.0 -0.5685587501
O  O5  1  0.06079000  0.37364000  0.62649000  1.0 -0.5685587501
O  O6  1  0.56079000  0.12636000  0.37351000  1.0 -0.5685587501
O  O7  1  0.43921000  0.62636000  0.12649000  1.0 -0.5685587501
O  O8  1  0.93921000  0.87364000  0.87351000  1.0 -0.5685587501
O  O9  1  0.62649000  0.06079000  0.37364000  1.0 -0.5685587501
O  O10  1  0.37351000  0.56079000  0.12636000  1.0 -0.5685587501
O  O11  1  0.12649000  0.43921000  0.62636000  1.0 -0.5685587501
O  O12  1  0.87351000  0.93921000  0.87364000  1.0 -0.5685587501
O  O13  1  0.37649000  0.62364000  0.18921000  1.0 -0.5685587501
O  O14  1  0.12351000  0.37636000  0.68921000  1.0 -0.5685587501
O  O15  1  0.87649000  0.87636000  0.81079000  1.0 -0.5685587501
O  O16  1  0.62351000  0.12364000  0.31079000  1.0 -0.5685587501
O  O17  1  0.12364000  0.31079000  0.62351000  1.0 -0.5685587501
O  O18  1  0.87636000  0.81079000  0.87649000  1.0 -0.5685587501
O  O19  1  0.37636000  0.68921000  0.12351000  1.0 -0.5685587501
O  O20  1  0.62364000  0.18921000  0.37649000  1.0 -0.5685587501
O  O21  1  0.81079000  0.87649000  0.87636000  1.0 -0.5685587501
O  O22  1  0.31079000  0.62351000  0.12364000  1.0 -0.5685587501
O  O23  1  0.18921000  0.37649000  0.62364000  1.0 -0.5685587501
O  O24  1  0.68921000  0.12351000  0.37636000  1.0 -0.5685587501
O  O25  1  0.39440000  0.57440000  0.02630000  1.0 -0.4610432535
O  O26  1  0.10560000  0.42560000  0.52630000  1.0 -0.4610432535
O  O27  1  0.60560000  0.07440000  0.47370000  1.0 -0.4610432535
O  O28  1  0.89440000  0.92560000  0.97370000  1.0 -0.4610432535
O  O29  1  0.02630000  0.39440000  0.57440000  1.0 -0.4610432535
O  O30  1  0.52630000  0.10560000  0.42560000  1.0 -0.4610432535
O  O31  1  0.47370000  0.60560000  0.07440000  1.0 -0.4610432535
O  O32  1  0.97370000  0.89440000  0.92560000  1.0 -0.4610432535
O  O33  1  0.57440000  0.02630000  0.39440000  1.0 -0.4610432535
O  O34  1  0.42560000  0.52630000  0.10560000  1.0 -0.4610432535
O  O35  1  0.07440000  0.47370000  0.60560000  1.0 -0.4610432535
O  O36  1  0.92560000  0.97370000  0.89440000  1.0 -0.4610432535
O  O37  1  0.32440000  0.64440000  0.22370000  1.0 -0.4610432535
O  O38  1  0.17560000  0.35560000  0.72370000  1.0 -0.4610432535
O  O39  1  0.82440000  0.85560000  0.77630000  1.0 -0.4610432535
O  O40  1  0.67560000  0.14440000  0.27630000  1.0 -0.4610432535
O  O41  1  0.14440000  0.27630000  0.67560000  1.0 -0.4610432535
O  O42  1  0.85560000  0.77630000  0.82440000  1.0 -0.4610432535
O  O43  1  0.35560000  0.72370000  0.17560000  1.0 -0.4610432535
O  O44  1  0.64440000  0.22370000  0.32440000  1.0 -0.4610432535
O  O45  1  0.77630000  0.82440000  0.85560000  1.0 -0.4610432535
O  O46  1  0.27630000  0.67560000  0.14440000  1.0 -0.4610432535
O  O47  1  0.22370000  0.32440000  0.64440000  1.0 -0.4610432535
O  O48  1  0.72370000  0.17560000  0.35560000  1.0 -0.4610432535
