# DDEC6 charges by PACMAN v1.1 (https://github.com/mtap-research/PACMAN-charge/)
data_RUBGUS_ASR_pacman
_symmetry_space_group_name_H-M   'P 1'
_cell_length_a   13.91290000
_cell_length_b   13.91290000
_cell_length_c   9.70460000
_cell_angle_alpha   86.73210000
_cell_angle_beta   93.26790000
_cell_angle_gamma   109.60900000
_symmetry_Int_Tables_number   1
_chemical_formula_structural   MnH6C12S2(NO2)2
_chemical_formula_sum   'Mn4 H24 C48 S8 N8 O16'
_cell_volume   1765.25249527
_cell_formula_units_Z   4
loop_
 _symmetry_equiv_pos_site_id
 _symmetry_equiv_pos_as_xyz
  1  'x, y, z'
loop_
 _atom_site_type_symbol
 _atom_site_label
 _atom_site_symmetry_multiplicity
 _atom_site_fract_x
 _atom_site_fract_y
 _atom_site_fract_z
 _atom_site_occupancy
 _atom_site_charge
Mn  Mn1  1  0.00000000  0.00000000  0.00000000  1.0 1.0608917488
Mn  Mn2  1  0.00000000  0.00000000  0.50000000  1.0 1.0608917488
Mn  Mn3  1  0.83078000  0.83078000  0.75000000  1.0 1.031867267
Mn  Mn4  1  0.16922000  0.16922000  0.25000000  1.0 1.031867267
H  H1  1  0.88460000  0.76920000  0.31940000  1.0 0.1118060363
H  H2  1  0.76920000  0.88460000  0.18060000  1.0 0.1118060363
H  H3  1  0.11540000  0.23080000  0.68060000  1.0 0.1118060363
H  H4  1  0.23080000  0.11540000  0.81940000  1.0 0.1118060363
H  H5  1  0.73890000  0.43550000  0.18740000  1.0 0.1118060363
H  H6  1  0.43550000  0.73890000  0.31260000  1.0 0.1118060363
H  H7  1  0.26110000  0.56450000  0.81260000  1.0 0.1118060363
H  H8  1  0.56450000  0.26110000  0.68740000  1.0 0.1118060363
H  H9  1  0.80030000  0.56610000  0.01820000  1.0 0.1197638276
H  H10  1  0.56610000  0.80030000  0.48180000  1.0 0.1197638276
H  H11  1  0.19970000  0.43390000  0.98180000  1.0 0.1197638276
H  H12  1  0.43390000  0.19970000  0.51820000  1.0 0.1197638276
H  H13  1  0.96190000  0.25770000  0.41650000  1.0 0.1197638276
H  H14  1  0.25770000  0.96190000  0.08350000  1.0 0.1197638276
H  H15  1  0.03810000  0.74230000  0.58350000  1.0 0.1197638276
H  H16  1  0.74230000  0.03810000  0.91650000  1.0 0.1197638276
H  H17  1  0.73680000  0.06860000  0.18440000  1.0 0.1197638276
H  H18  1  0.06860000  0.73680000  0.31560000  1.0 0.1197638276
H  H19  1  0.26320000  0.93140000  0.81560000  1.0 0.1197638276
H  H20  1  0.93140000  0.26320000  0.68440000  1.0 0.1197638276
H  H21  1  0.62530000  0.14890000  0.25150000  1.0 0.1299606127
H  H22  1  0.14890000  0.62530000  0.24850000  1.0 0.1299606127
H  H23  1  0.37470000  0.85110000  0.74850000  1.0 0.1299606127
H  H24  1  0.85110000  0.37470000  0.75150000  1.0 0.1299606127
C  C1  1  0.88301000  0.76843000  0.04680000  1.0 0.5872115803
C  C2  1  0.76843000  0.88301000  0.45320000  1.0 0.5872115803
C  C3  1  0.11699000  0.23157000  0.95320000  1.0 0.5872115803
C  C4  1  0.23157000  0.11699000  0.54680000  1.0 0.5872115803
C  C5  1  0.84710000  0.68194000  0.15180000  1.0 -0.0818499277
C  C6  1  0.68194000  0.84710000  0.34820000  1.0 -0.0818499277
C  C7  1  0.15290000  0.31806000  0.84820000  1.0 -0.0818499277
C  C8  1  0.31806000  0.15290000  0.65180000  1.0 -0.0818499277
C  C9  1  0.85284000  0.70092000  0.29160000  1.0 0.0767458653
C  C10  1  0.70092000  0.85284000  0.20840000  1.0 0.0767458653
C  C11  1  0.14716000  0.29908000  0.70840000  1.0 0.0767458653
C  C12  1  0.29908000  0.14716000  0.79160000  1.0 0.0767458653
C  C13  1  0.77319000  0.53191000  0.34810000  1.0 0.1994029296
C  C14  1  0.53191000  0.77319000  0.15190000  1.0 0.1994029296
C  C15  1  0.22681000  0.46809000  0.65190000  1.0 0.1994029296
C  C16  1  0.46809000  0.22681000  0.84810000  1.0 0.1994029296
C  C17  1  0.76736000  0.50484000  0.21180000  1.0 -0.2067631657
C  C18  1  0.50484000  0.76736000  0.28820000  1.0 -0.2067631657
C  C19  1  0.23264000  0.49516000  0.78820000  1.0 -0.2067631657
C  C20  1  0.49516000  0.23264000  0.71180000  1.0 -0.2067631657
C  C21  1  0.80422000  0.58178000  0.11280000  1.0 -0.0417965484
C  C22  1  0.58178000  0.80422000  0.38720000  1.0 -0.0417965484
C  C23  1  0.19578000  0.41822000  0.88720000  1.0 -0.0417965484
C  C24  1  0.41822000  0.19578000  0.61280000  1.0 -0.0417965484
C  C25  1  0.73389000  0.25347000  0.36340000  1.0 0.1749219907
C  C26  1  0.25347000  0.73389000  0.13660000  1.0 0.1749219907
C  C27  1  0.26611000  0.74653000  0.63660000  1.0 0.1749219907
C  C28  1  0.74653000  0.26611000  0.86340000  1.0 0.1749219907
C  C29  1  0.89379000  0.23701000  0.37930000  1.0 0.0767458653
C  C30  1  0.23701000  0.89379000  0.12070000  1.0 0.0767458653
C  C31  1  0.10621000  0.76299000  0.62070000  1.0 0.0767458653
C  C32  1  0.76299000  0.10621000  0.87930000  1.0 0.0767458653
C  C33  1  0.86148000  0.15604000  0.29220000  1.0 -0.0640958386
C  C34  1  0.15604000  0.86148000  0.20780000  1.0 -0.0640958386
C  C35  1  0.13852000  0.84396000  0.70780000  1.0 -0.0640958386
C  C36  1  0.84396000  0.13852000  0.79220000  1.0 -0.0640958386
C  C37  1  0.76082000  0.12422000  0.24410000  1.0 -0.0417965484
C  C38  1  0.12422000  0.76082000  0.25590000  1.0 -0.0417965484
C  C39  1  0.23918000  0.87578000  0.75590000  1.0 -0.0417965484
C  C40  1  0.87578000  0.23918000  0.74410000  1.0 -0.0417965484
C  C41  1  0.69525000  0.17191000  0.28150000  1.0 -0.1912610667
C  C42  1  0.17191000  0.69525000  0.21850000  1.0 -0.1912610667
C  C43  1  0.30475000  0.82809000  0.71850000  1.0 -0.1912610667
C  C44  1  0.82809000  0.30475000  0.78150000  1.0 -0.1912610667
C  C45  1  0.93658000  0.10926000  0.24660000  1.0 0.6092051877
C  C46  1  0.10926000  0.93658000  0.25340000  1.0 0.6092051877
C  C47  1  0.06342000  0.89074000  0.75340000  1.0 0.6092051877
C  C48  1  0.89074000  0.06342000  0.74660000  1.0 0.6092051877
S  S1  1  0.72677000  0.44451000  0.48971000  1.0 0.0199701622
S  S2  1  0.44451000  0.72677000  0.01029000  1.0 0.0199701622
S  S3  1  0.27323000  0.55549000  0.51029000  1.0 0.0199701622
S  S4  1  0.55549000  0.27323000  0.98971000  1.0 0.0199701622
S  S5  1  0.64310000  0.31318000  0.39989000  1.0 -0.0177025366
S  S6  1  0.31318000  0.64310000  0.10011000  1.0 -0.0177025366
S  S7  1  0.35690000  0.68682000  0.60011000  1.0 -0.0177025366
S  S8  1  0.68682000  0.35690000  0.89989000  1.0 -0.0177025366
N  N1  1  0.81582000  0.62788000  0.38860000  1.0 -0.2981154049
N  N2  1  0.62788000  0.81582000  0.11140000  1.0 -0.2981154049
N  N3  1  0.18418000  0.37212000  0.61140000  1.0 -0.2981154049
N  N4  1  0.37212000  0.18418000  0.88860000  1.0 -0.2981154049
N  N5  1  0.83102000  0.28802000  0.41350000  1.0 -0.2981154049
N  N6  1  0.28802000  0.83102000  0.08650000  1.0 -0.2981154049
N  N7  1  0.16898000  0.71198000  0.58650000  1.0 -0.2981154049
N  N8  1  0.71198000  0.16898000  0.91350000  1.0 -0.2981154049
O  O1  1  0.92166000  0.85606000  0.09220000  1.0 -0.55016142
O  O2  1  0.85606000  0.92166000  0.40780000  1.0 -0.55016142
O  O3  1  0.07834000  0.14394000  0.90780000  1.0 -0.55016142
O  O4  1  0.14394000  0.07834000  0.59220000  1.0 -0.55016142
O  O5  1  0.86842000  0.74670000  0.92200000  1.0 -0.5684331941
O  O6  1  0.74670000  0.86842000  0.57800000  1.0 -0.5684331941
O  O7  1  0.13158000  0.25330000  0.07800000  1.0 -0.5684331941
O  O8  1  0.25330000  0.13158000  0.42200000  1.0 -0.5684331941
O  O9  1  0.01476000  0.11904000  0.32883000  1.0 -0.6104091989
O  O10  1  0.11904000  0.01476000  0.17117000  1.0 -0.6104091989
O  O11  1  0.98524000  0.88096000  0.67117000  1.0 -0.6104091989
O  O12  1  0.88096000  0.98524000  0.82883000  1.0 -0.6104091989
O  O13  1  0.91937000  0.06781000  0.13316000  1.0 -0.5329470026
O  O14  1  0.06781000  0.91937000  0.36684000  1.0 -0.5329470026
O  O15  1  0.08063000  0.93219000  0.86684000  1.0 -0.5329470026
O  O16  1  0.93219000  0.08063000  0.63316000  1.0 -0.5329470026
