# DDEC6 charges by PACMAN v1.1 (https://github.com/mtap-research/PACMAN-charge/)
data_RUBLAD_ASR_pacman
_symmetry_space_group_name_H-M   'P 1'
_cell_length_a   24.34800000
_cell_length_b   24.34800000
_cell_length_c   14.91800000
_cell_angle_alpha   90.00000000
_cell_angle_beta   90.00000000
_cell_angle_gamma   90.00000000
_symmetry_Int_Tables_number   1
_chemical_formula_structural   Zr3H30(C16O9)2
_chemical_formula_sum   'Zr12 H120 C128 O72'
_cell_volume   8843.76490147
_cell_formula_units_Z   4
loop_
 _symmetry_equiv_pos_site_id
 _symmetry_equiv_pos_as_xyz
  1  'x, y, z'
loop_
 _atom_site_type_symbol
 _atom_site_label
 _atom_site_symmetry_multiplicity
 _atom_site_fract_x
 _atom_site_fract_y
 _atom_site_fract_z
 _atom_site_occupancy
 _atom_site_charge
Zr  Zr1  1  0.60054000  0.00000000  0.50000000  1.0 2.107635408
Zr  Zr2  1  0.00000000  0.39946000  0.00000000  1.0 2.107635408
Zr  Zr3  1  0.39946000  0.00000000  0.50000000  1.0 2.107635408
Zr  Zr4  1  0.00000000  0.60054000  0.00000000  1.0 2.107635408
Zr  Zr5  1  0.50000000  0.92740000  0.61849000  1.0 2.1028809601
Zr  Zr6  1  0.92740000  0.50000000  0.11849000  1.0 2.107635408
Zr  Zr7  1  0.50000000  0.07260000  0.61849000  1.0 2.1028809601
Zr  Zr8  1  0.07260000  0.50000000  0.11849000  1.0 2.107635408
Zr  Zr9  1  0.50000000  0.92740000  0.38151000  1.0 2.107635408
Zr  Zr10  1  0.50000000  0.07260000  0.38151000  1.0 2.107635408
Zr  Zr11  1  0.92740000  0.50000000  0.88151000  1.0 2.107635408
Zr  Zr12  1  0.07260000  0.50000000  0.88151000  1.0 2.107635408
H  H1  1  0.56910000  0.00000000  0.69210000  1.0 0.3105572217
H  H2  1  0.00000000  0.43090000  0.19210000  1.0 0.3105572217
H  H3  1  0.43090000  0.00000000  0.69210000  1.0 0.3105572217
H  H4  1  0.00000000  0.56910000  0.19210000  1.0 0.3105572217
H  H5  1  0.43090000  0.00000000  0.30790000  1.0 0.3105572217
H  H6  1  0.56910000  0.00000000  0.30790000  1.0 0.3105572217
H  H7  1  0.00000000  0.56910000  0.80790000  1.0 0.3105572217
H  H8  1  0.00000000  0.43090000  0.80790000  1.0 0.3105572217
H  H9  1  0.26410000  0.89890000  0.59870000  1.0 0.1191468414
H  H10  1  0.89890000  0.73590000  0.09870000  1.0 0.1191468414
H  H11  1  0.73590000  0.10110000  0.59870000  1.0 0.1191468414
H  H12  1  0.10110000  0.26410000  0.09870000  1.0 0.1191468414
H  H13  1  0.73590000  0.89890000  0.40130000  1.0 0.1191468414
H  H14  1  0.26410000  0.10110000  0.40130000  1.0 0.1191468414
H  H15  1  0.89890000  0.26410000  0.90130000  1.0 0.1191468414
H  H16  1  0.10110000  0.73590000  0.90130000  1.0 0.1191468414
H  H17  1  0.73590000  0.10110000  0.40130000  1.0 0.1191468414
H  H18  1  0.10110000  0.26410000  0.90130000  1.0 0.1191468414
H  H19  1  0.26410000  0.89890000  0.40130000  1.0 0.1191468414
H  H20  1  0.89890000  0.73590000  0.90130000  1.0 0.1191468414
H  H21  1  0.26410000  0.10110000  0.59870000  1.0 0.1191468414
H  H22  1  0.73590000  0.89890000  0.59870000  1.0 0.1191468414
H  H23  1  0.10110000  0.73590000  0.09870000  1.0 0.1191468414
H  H24  1  0.89890000  0.26410000  0.09870000  1.0 0.1191468414
H  H25  1  0.30550000  0.76920000  0.81590000  1.0 0.1132508193
H  H26  1  0.76920000  0.69450000  0.31590000  1.0 0.1132508193
H  H27  1  0.69450000  0.23080000  0.81590000  1.0 0.1132508193
H  H28  1  0.23080000  0.30550000  0.31590000  1.0 0.1132508193
H  H29  1  0.69450000  0.76920000  0.18410000  1.0 0.1132508193
H  H30  1  0.30550000  0.23080000  0.18410000  1.0 0.1132508193
H  H31  1  0.76920000  0.30550000  0.68410000  1.0 0.1132508193
H  H32  1  0.23080000  0.69450000  0.68410000  1.0 0.1132508193
H  H33  1  0.69450000  0.23080000  0.18410000  1.0 0.1132508193
H  H34  1  0.23080000  0.30550000  0.68410000  1.0 0.1132508193
H  H35  1  0.30550000  0.76920000  0.18410000  1.0 0.1132508193
H  H36  1  0.76920000  0.69450000  0.68410000  1.0 0.1132508193
H  H37  1  0.30550000  0.23080000  0.81590000  1.0 0.1132508193
H  H38  1  0.69450000  0.76920000  0.81590000  1.0 0.1132508193
H  H39  1  0.23080000  0.69450000  0.31590000  1.0 0.1132508193
H  H40  1  0.76920000  0.30550000  0.31590000  1.0 0.1132508193
H  H41  1  0.37340000  0.82930000  0.76400000  1.0 0.1132508193
H  H42  1  0.82930000  0.62660000  0.26400000  1.0 0.1132508193
H  H43  1  0.62660000  0.17070000  0.76400000  1.0 0.1132508193
H  H44  1  0.17070000  0.37340000  0.26400000  1.0 0.1132508193
H  H45  1  0.62660000  0.82930000  0.23600000  1.0 0.1132508193
H  H46  1  0.37340000  0.17070000  0.23600000  1.0 0.1132508193
H  H47  1  0.82930000  0.37340000  0.73600000  1.0 0.1132508193
H  H48  1  0.17070000  0.62660000  0.73600000  1.0 0.1132508193
H  H49  1  0.62660000  0.17070000  0.23600000  1.0 0.1132508193
H  H50  1  0.17070000  0.37340000  0.73600000  1.0 0.1132508193
H  H51  1  0.37340000  0.82930000  0.23600000  1.0 0.1132508193
H  H52  1  0.82930000  0.62660000  0.73600000  1.0 0.1132508193
H  H53  1  0.37340000  0.17070000  0.76400000  1.0 0.1132508193
H  H54  1  0.62660000  0.82930000  0.76400000  1.0 0.1132508193
H  H55  1  0.17070000  0.62660000  0.26400000  1.0 0.1132508193
H  H56  1  0.82930000  0.37340000  0.26400000  1.0 0.1132508193
H  H57  1  0.17460000  0.86380000  0.57760000  1.0 0.1132508193
H  H58  1  0.86380000  0.82540000  0.07760000  1.0 0.1132508193
H  H59  1  0.82540000  0.13620000  0.57760000  1.0 0.1191468414
H  H60  1  0.13620000  0.17460000  0.07760000  1.0 0.1132508193
H  H61  1  0.82540000  0.86380000  0.42240000  1.0 0.1132508193
H  H62  1  0.17460000  0.13620000  0.42240000  1.0 0.1132508193
H  H63  1  0.86380000  0.17460000  0.92240000  1.0 0.1132508193
H  H64  1  0.13620000  0.82540000  0.92240000  1.0 0.1132508193
H  H65  1  0.82540000  0.13620000  0.42240000  1.0 0.1132508193
H  H66  1  0.13620000  0.17460000  0.92240000  1.0 0.1132508193
H  H67  1  0.17460000  0.86380000  0.42240000  1.0 0.1132508193
H  H68  1  0.86380000  0.82540000  0.92240000  1.0 0.1132508193
H  H69  1  0.17460000  0.13620000  0.57760000  1.0 0.1191468414
H  H70  1  0.82540000  0.86380000  0.57760000  1.0 0.1132508193
H  H71  1  0.13620000  0.82540000  0.07760000  1.0 0.1132508193
H  H72  1  0.86380000  0.17460000  0.07760000  1.0 0.1132508193
H  H73  1  0.16880000  0.79910000  0.59490000  1.0 0.1191468414
H  H74  1  0.79910000  0.83120000  0.09490000  1.0 0.1191468414
H  H75  1  0.83120000  0.20090000  0.59490000  1.0 0.1191468414
H  H76  1  0.20090000  0.16880000  0.09490000  1.0 0.1191468414
H  H77  1  0.83120000  0.79910000  0.40510000  1.0 0.1191468414
H  H78  1  0.16880000  0.20090000  0.40510000  1.0 0.1191468414
H  H79  1  0.79910000  0.16880000  0.90510000  1.0 0.1191468414
H  H80  1  0.20090000  0.83120000  0.90510000  1.0 0.1191468414
H  H81  1  0.83120000  0.20090000  0.40510000  1.0 0.1191468414
H  H82  1  0.20090000  0.16880000  0.90510000  1.0 0.1191468414
H  H83  1  0.16880000  0.79910000  0.40510000  1.0 0.1191468414
H  H84  1  0.79910000  0.83120000  0.90510000  1.0 0.1191468414
H  H85  1  0.16880000  0.20090000  0.59490000  1.0 0.1191468414
H  H86  1  0.83120000  0.79910000  0.59490000  1.0 0.1191468414
H  H87  1  0.20090000  0.83120000  0.09490000  1.0 0.1191468414
H  H88  1  0.79910000  0.16880000  0.09490000  1.0 0.1191468414
H  H89  1  0.14720000  0.84190000  0.66840000  1.0 0.1191468414
H  H90  1  0.84190000  0.85280000  0.16840000  1.0 0.1191468414
H  H91  1  0.85280000  0.15810000  0.66840000  1.0 0.1191468414
H  H92  1  0.15810000  0.14720000  0.16840000  1.0 0.1191468414
H  H93  1  0.85280000  0.84190000  0.33160000  1.0 0.1191468414
H  H94  1  0.14720000  0.15810000  0.33160000  1.0 0.1191468414
H  H95  1  0.84190000  0.14720000  0.83160000  1.0 0.1191468414
H  H96  1  0.15810000  0.85280000  0.83160000  1.0 0.1191468414
H  H97  1  0.85280000  0.15810000  0.33160000  1.0 0.1191468414
H  H98  1  0.15810000  0.14720000  0.83160000  1.0 0.1191468414
H  H99  1  0.14720000  0.84190000  0.33160000  1.0 0.1191468414
H  H100  1  0.84190000  0.85280000  0.83160000  1.0 0.1191468414
H  H101  1  0.14720000  0.15810000  0.66840000  1.0 0.1191468414
H  H102  1  0.85280000  0.84190000  0.66840000  1.0 0.1191468414
H  H103  1  0.15810000  0.85280000  0.16840000  1.0 0.1191468414
H  H104  1  0.84190000  0.14720000  0.16840000  1.0 0.1191468414
H  H105  1  0.50000000  0.82970000  0.54870000  1.0 0.3495433681
H  H106  1  0.82970000  0.50000000  0.04870000  1.0 0.3495433681
H  H107  1  0.50000000  0.17030000  0.54870000  1.0 0.3495433681
H  H108  1  0.17030000  0.50000000  0.04870000  1.0 0.3495433681
H  H109  1  0.50000000  0.82970000  0.45130000  1.0 0.3495433681
H  H110  1  0.50000000  0.17030000  0.45130000  1.0 0.3495433681
H  H111  1  0.82970000  0.50000000  0.95130000  1.0 0.3495433681
H  H112  1  0.17030000  0.50000000  0.95130000  1.0 0.3495433681
H  H113  1  0.57870000  0.11490000  0.50000000  1.0 0.3495433681
H  H114  1  0.11490000  0.42130000  0.00000000  1.0 0.3447053485
H  H115  1  0.42130000  0.88510000  0.50000000  1.0 0.3495433681
H  H116  1  0.88510000  0.57870000  0.00000000  1.0 0.3447053485
H  H117  1  0.42130000  0.11490000  0.50000000  1.0 0.3495433681
H  H118  1  0.57870000  0.88510000  0.50000000  1.0 0.3495433681
H  H119  1  0.11490000  0.57870000  0.00000000  1.0 0.3447053485
H  H120  1  0.88510000  0.42130000  0.00000000  1.0 0.3447053485
C  C1  1  0.36788000  0.90741000  0.64140000  1.0 0.5953879409
C  C2  1  0.90741000  0.63212000  0.14140000  1.0 0.5945182496
C  C3  1  0.63212000  0.09259000  0.64140000  1.0 0.5953879409
C  C4  1  0.09259000  0.36788000  0.14140000  1.0 0.5945182496
C  C5  1  0.63212000  0.90741000  0.35860000  1.0 0.5945182496
C  C6  1  0.36788000  0.09259000  0.35860000  1.0 0.5945182496
C  C7  1  0.90741000  0.36788000  0.85860000  1.0 0.5945182496
C  C8  1  0.09259000  0.63212000  0.85860000  1.0 0.5945182496
C  C9  1  0.63212000  0.09259000  0.35860000  1.0 0.5945182496
C  C10  1  0.09259000  0.36788000  0.85860000  1.0 0.5945182496
C  C11  1  0.36788000  0.90741000  0.35860000  1.0 0.5945182496
C  C12  1  0.90741000  0.63212000  0.85860000  1.0 0.5945182496
C  C13  1  0.36788000  0.09259000  0.64140000  1.0 0.5953879409
C  C14  1  0.63212000  0.90741000  0.64140000  1.0 0.5953879409
C  C15  1  0.09259000  0.63212000  0.14140000  1.0 0.5945182496
C  C16  1  0.90741000  0.36788000  0.14140000  1.0 0.5945182496
C  C17  1  0.32478000  0.86927000  0.67560000  1.0 -0.0398448355
C  C18  1  0.86927000  0.67522000  0.17560000  1.0 -0.0398448355
C  C19  1  0.67522000  0.13073000  0.67560000  1.0 -0.0398448355
C  C20  1  0.13073000  0.32478000  0.17560000  1.0 -0.0398448355
C  C21  1  0.67522000  0.86927000  0.32440000  1.0 -0.0398448355
C  C22  1  0.32478000  0.13073000  0.32440000  1.0 -0.0398448355
C  C23  1  0.86927000  0.32478000  0.82440000  1.0 -0.0398448355
C  C24  1  0.13073000  0.67522000  0.82440000  1.0 -0.0398448355
C  C25  1  0.67522000  0.13073000  0.32440000  1.0 -0.0398448355
C  C26  1  0.13073000  0.32478000  0.82440000  1.0 -0.0398448355
C  C27  1  0.32478000  0.86927000  0.32440000  1.0 -0.0398448355
C  C28  1  0.86927000  0.67522000  0.82440000  1.0 -0.0398448355
C  C29  1  0.32478000  0.13073000  0.67560000  1.0 -0.0398448355
C  C30  1  0.67522000  0.86927000  0.67560000  1.0 -0.0398448355
C  C31  1  0.13073000  0.67522000  0.17560000  1.0 -0.0398448355
C  C32  1  0.86927000  0.32478000  0.17560000  1.0 -0.0398448355
C  C33  1  0.27291000  0.87150000  0.64160000  1.0 -0.1740850874
C  C34  1  0.87150000  0.72709000  0.14160000  1.0 -0.1740850874
C  C35  1  0.72709000  0.12850000  0.64160000  1.0 -0.1740850874
C  C36  1  0.12850000  0.27291000  0.14160000  1.0 -0.1740850874
C  C37  1  0.72709000  0.87150000  0.35840000  1.0 -0.1740850874
C  C38  1  0.27291000  0.12850000  0.35840000  1.0 -0.1740850874
C  C39  1  0.87150000  0.27291000  0.85840000  1.0 -0.1740850874
C  C40  1  0.12850000  0.72709000  0.85840000  1.0 -0.1740850874
C  C41  1  0.72709000  0.12850000  0.35840000  1.0 -0.1740850874
C  C42  1  0.12850000  0.27291000  0.85840000  1.0 -0.1740850874
C  C43  1  0.27291000  0.87150000  0.35840000  1.0 -0.1740850874
C  C44  1  0.87150000  0.72709000  0.85840000  1.0 -0.1740850874
C  C45  1  0.27291000  0.12850000  0.64160000  1.0 -0.1740850874
C  C46  1  0.72709000  0.87150000  0.64160000  1.0 -0.1740850874
C  C47  1  0.12850000  0.72709000  0.14160000  1.0 -0.1740850874
C  C48  1  0.87150000  0.27291000  0.14160000  1.0 -0.1740850874
C  C49  1  0.23241000  0.83431000  0.66860000  1.0 0.1191468414
C  C50  1  0.83431000  0.76759000  0.16860000  1.0 0.1191468414
C  C51  1  0.76759000  0.16569000  0.66860000  1.0 0.1191468414
C  C52  1  0.16569000  0.23241000  0.16860000  1.0 0.1191468414
C  C53  1  0.76759000  0.83431000  0.33140000  1.0 0.1191468414
C  C54  1  0.23241000  0.16569000  0.33140000  1.0 0.1191468414
C  C55  1  0.83431000  0.23241000  0.83140000  1.0 0.1191468414
C  C56  1  0.16569000  0.76759000  0.83140000  1.0 0.1191468414
C  C57  1  0.76759000  0.16569000  0.33140000  1.0 0.1191468414
C  C58  1  0.16569000  0.23241000  0.83140000  1.0 0.1191468414
C  C59  1  0.23241000  0.83431000  0.33140000  1.0 0.1191468414
C  C60  1  0.83431000  0.76759000  0.83140000  1.0 0.1191468414
C  C61  1  0.23241000  0.16569000  0.66860000  1.0 0.1191468414
C  C62  1  0.76759000  0.83431000  0.66860000  1.0 0.1191468414
C  C63  1  0.16569000  0.76759000  0.16860000  1.0 0.1191468414
C  C64  1  0.83431000  0.23241000  0.16860000  1.0 0.1191468414
C  C65  1  0.24564000  0.79610000  0.73370000  1.0 0.0138874532
C  C66  1  0.79610000  0.75436000  0.23370000  1.0 0.0138874532
C  C67  1  0.75436000  0.20390000  0.73370000  1.0 0.0138874532
C  C68  1  0.20390000  0.24564000  0.23370000  1.0 0.0138874532
C  C69  1  0.75436000  0.79610000  0.26630000  1.0 0.0138874532
C  C70  1  0.24564000  0.20390000  0.26630000  1.0 0.0138874532
C  C71  1  0.79610000  0.24564000  0.76630000  1.0 0.0138874532
C  C72  1  0.20390000  0.75436000  0.76630000  1.0 0.0138874532
C  C73  1  0.75436000  0.20390000  0.26630000  1.0 0.0138874532
C  C74  1  0.20390000  0.24564000  0.76630000  1.0 0.0138874532
C  C75  1  0.24564000  0.79610000  0.26630000  1.0 0.0138874532
C  C76  1  0.79610000  0.75436000  0.76630000  1.0 0.0138874532
C  C77  1  0.24564000  0.20390000  0.73370000  1.0 0.0138874532
C  C78  1  0.75436000  0.79610000  0.73370000  1.0 0.0138874532
C  C79  1  0.20390000  0.75436000  0.23370000  1.0 0.0138874532
C  C80  1  0.79610000  0.24564000  0.23370000  1.0 0.0138874532
C  C81  1  0.29711000  0.79490000  0.77000000  1.0 -0.1566616784
C  C82  1  0.79490000  0.70289000  0.27000000  1.0 -0.1566616784
C  C83  1  0.70289000  0.20510000  0.77000000  1.0 -0.1566616784
C  C84  1  0.20510000  0.29711000  0.27000000  1.0 -0.1566616784
C  C85  1  0.70289000  0.79490000  0.23000000  1.0 -0.1566616784
C  C86  1  0.29711000  0.20510000  0.23000000  1.0 -0.1566616784
C  C87  1  0.79490000  0.29711000  0.73000000  1.0 -0.1566616784
C  C88  1  0.20510000  0.70289000  0.73000000  1.0 -0.1566616784
C  C89  1  0.70289000  0.20510000  0.23000000  1.0 -0.1566616784
C  C90  1  0.20510000  0.29711000  0.73000000  1.0 -0.1566616784
C  C91  1  0.29711000  0.79490000  0.23000000  1.0 -0.1566616784
C  C92  1  0.79490000  0.70289000  0.73000000  1.0 -0.1566616784
C  C93  1  0.29711000  0.20510000  0.77000000  1.0 -0.1566616784
C  C94  1  0.70289000  0.79490000  0.77000000  1.0 -0.1566616784
C  C95  1  0.20510000  0.70289000  0.27000000  1.0 -0.1566616784
C  C96  1  0.79490000  0.29711000  0.27000000  1.0 -0.1566616784
C  C97  1  0.33735000  0.83110000  0.74000000  1.0 -0.1125964996
C  C98  1  0.83110000  0.66265000  0.24000000  1.0 -0.1125964996
C  C99  1  0.66265000  0.16890000  0.74000000  1.0 -0.1125964996
C  C100  1  0.16890000  0.33735000  0.24000000  1.0 -0.1125964996
C  C101  1  0.66265000  0.83110000  0.26000000  1.0 -0.1125964996
C  C102  1  0.33735000  0.16890000  0.26000000  1.0 -0.1125964996
C  C103  1  0.83110000  0.33735000  0.76000000  1.0 -0.1125964996
C  C104  1  0.16890000  0.66265000  0.76000000  1.0 -0.1125964996
C  C105  1  0.66265000  0.16890000  0.26000000  1.0 -0.1125964996
C  C106  1  0.16890000  0.33735000  0.76000000  1.0 -0.1125964996
C  C107  1  0.33735000  0.83110000  0.26000000  1.0 -0.1125964996
C  C108  1  0.83110000  0.66265000  0.76000000  1.0 -0.1125964996
C  C109  1  0.33735000  0.16890000  0.74000000  1.0 -0.1125964996
C  C110  1  0.66265000  0.83110000  0.74000000  1.0 -0.1125964996
C  C111  1  0.16890000  0.66265000  0.24000000  1.0 -0.1125964996
C  C112  1  0.83110000  0.33735000  0.24000000  1.0 -0.1125964996
C  C113  1  0.17560000  0.83480000  0.62320000  1.0 -0.4524828515
C  C114  1  0.83480000  0.82440000  0.12320000  1.0 -0.4524828515
C  C115  1  0.82440000  0.16520000  0.62320000  1.0 -0.4524828515
C  C116  1  0.16520000  0.17560000  0.12320000  1.0 -0.4524828515
C  C117  1  0.82440000  0.83480000  0.37680000  1.0 -0.4524828515
C  C118  1  0.17560000  0.16520000  0.37680000  1.0 -0.4524828515
C  C119  1  0.83480000  0.17560000  0.87680000  1.0 -0.4524828515
C  C120  1  0.16520000  0.82440000  0.87680000  1.0 -0.4524828515
C  C121  1  0.82440000  0.16520000  0.37680000  1.0 -0.4524828515
C  C122  1  0.16520000  0.17560000  0.87680000  1.0 -0.4524828515
C  C123  1  0.17560000  0.83480000  0.37680000  1.0 -0.4524828515
C  C124  1  0.83480000  0.82440000  0.87680000  1.0 -0.4524828515
C  C125  1  0.17560000  0.16520000  0.62320000  1.0 -0.4524828515
C  C126  1  0.82440000  0.83480000  0.62320000  1.0 -0.4524828515
C  C127  1  0.16520000  0.82440000  0.12320000  1.0 -0.4524828515
C  C128  1  0.83480000  0.17560000  0.12320000  1.0 -0.4524828515
O  O1  1  0.55410000  0.00000000  0.63380000  1.0 -0.42862081
O  O2  1  0.00000000  0.44590000  0.13380000  1.0 -0.42862081
O  O3  1  0.44590000  0.00000000  0.63380000  1.0 -0.42862081
O  O4  1  0.00000000  0.55410000  0.13380000  1.0 -0.42862081
O  O5  1  0.44590000  0.00000000  0.36620000  1.0 -0.42862081
O  O6  1  0.55410000  0.00000000  0.36620000  1.0 -0.42862081
O  O7  1  0.00000000  0.55410000  0.86620000  1.0 -0.42862081
O  O8  1  0.00000000  0.44590000  0.86620000  1.0 -0.42862081
O  O9  1  0.55650000  0.08320000  0.50000000  1.0 -0.3844117543
O  O10  1  0.08320000  0.44350000  0.00000000  1.0 -0.3844117543
O  O11  1  0.44350000  0.91680000  0.50000000  1.0 -0.3844117543
O  O12  1  0.91680000  0.55650000  0.00000000  1.0 -0.3844117543
O  O13  1  0.44350000  0.08320000  0.50000000  1.0 -0.3844117543
O  O14  1  0.55650000  0.91680000  0.50000000  1.0 -0.3844117543
O  O15  1  0.08320000  0.55650000  0.00000000  1.0 -0.3844117543
O  O16  1  0.91680000  0.44350000  0.00000000  1.0 -0.3844117543
O  O17  1  0.35259000  0.94512000  0.58896000  1.0 -0.622584591
O  O18  1  0.94512000  0.64741000  0.08896000  1.0 -0.622584591
O  O19  1  0.64741000  0.05488000  0.58896000  1.0 -0.622584591
O  O20  1  0.05488000  0.35259000  0.08896000  1.0 -0.622584591
O  O21  1  0.64741000  0.94512000  0.41104000  1.0 -0.622584591
O  O22  1  0.35259000  0.05488000  0.41104000  1.0 -0.622584591
O  O23  1  0.94512000  0.35259000  0.91104000  1.0 -0.622584591
O  O24  1  0.05488000  0.64741000  0.91104000  1.0 -0.622584591
O  O25  1  0.64741000  0.05488000  0.41104000  1.0 -0.622584591
O  O26  1  0.05488000  0.35259000  0.91104000  1.0 -0.622584591
O  O27  1  0.35259000  0.94512000  0.41104000  1.0 -0.622584591
O  O28  1  0.94512000  0.64741000  0.91104000  1.0 -0.622584591
O  O29  1  0.35259000  0.05488000  0.58896000  1.0 -0.622584591
O  O30  1  0.64741000  0.94512000  0.58896000  1.0 -0.622584591
O  O31  1  0.05488000  0.64741000  0.08896000  1.0 -0.622584591
O  O32  1  0.94512000  0.35259000  0.08896000  1.0 -0.622584591
O  O33  1  0.50000000  0.83784000  0.60340000  1.0 -0.8987119219
O  O34  1  0.83784000  0.50000000  0.10340000  1.0 -0.8987119219
O  O35  1  0.50000000  0.16216000  0.60340000  1.0 -0.8987119219
O  O36  1  0.16216000  0.50000000  0.10340000  1.0 -0.8987119219
O  O37  1  0.50000000  0.83784000  0.39660000  1.0 -0.8987119219
O  O38  1  0.50000000  0.16216000  0.39660000  1.0 -0.8987119219
O  O39  1  0.83784000  0.50000000  0.89660000  1.0 -0.8987119219
O  O40  1  0.16216000  0.50000000  0.89660000  1.0 -0.8987119219
O  O41  1  0.41690000  0.89768000  0.66510000  1.0 -0.6619231387
O  O42  1  0.89768000  0.58310000  0.16510000  1.0 -0.6619231387
O  O43  1  0.58310000  0.10232000  0.66510000  1.0 -0.6619231387
O  O44  1  0.10232000  0.41690000  0.16510000  1.0 -0.6619231387
O  O45  1  0.58310000  0.89768000  0.33490000  1.0 -0.6619231387
O  O46  1  0.41690000  0.10232000  0.33490000  1.0 -0.6619231387
O  O47  1  0.89768000  0.41690000  0.83490000  1.0 -0.6619231387
O  O48  1  0.10232000  0.58310000  0.83490000  1.0 -0.6619231387
O  O49  1  0.58310000  0.10232000  0.33490000  1.0 -0.6619231387
O  O50  1  0.10232000  0.41690000  0.83490000  1.0 -0.6619231387
O  O51  1  0.41690000  0.89768000  0.33490000  1.0 -0.6619231387
O  O52  1  0.89768000  0.58310000  0.83490000  1.0 -0.6619231387
O  O53  1  0.41690000  0.10232000  0.66510000  1.0 -0.6619231387
O  O54  1  0.58310000  0.89768000  0.66510000  1.0 -0.6619231387
O  O55  1  0.10232000  0.58310000  0.16510000  1.0 -0.6619231387
O  O56  1  0.89768000  0.41690000  0.16510000  1.0 -0.6619231387
O  O57  1  0.54440000  0.00000000  0.60160000  1.0 -0.4648845739
O  O58  1  0.00000000  0.45560000  0.10160000  1.0 -0.4659647889
O  O59  1  0.45560000  0.00000000  0.60160000  1.0 -0.4648845739
O  O60  1  0.00000000  0.54440000  0.10160000  1.0 -0.4659647889
O  O61  1  0.45560000  0.00000000  0.39840000  1.0 -0.4648845739
O  O62  1  0.54440000  0.00000000  0.39840000  1.0 -0.4648845739
O  O63  1  0.00000000  0.54440000  0.89840000  1.0 -0.4659647889
O  O64  1  0.00000000  0.45560000  0.89840000  1.0 -0.4659647889
O  O65  1  0.54220000  0.06180000  0.50000000  1.0 -0.4013628199
O  O66  1  0.06180000  0.45780000  0.00000000  1.0 -0.4013628199
O  O67  1  0.45780000  0.93820000  0.50000000  1.0 -0.4013628199
O  O68  1  0.93820000  0.54220000  0.00000000  1.0 -0.4013628199
O  O69  1  0.45780000  0.06180000  0.50000000  1.0 -0.4013628199
O  O70  1  0.54220000  0.93820000  0.50000000  1.0 -0.4013628199
O  O71  1  0.06180000  0.54220000  0.00000000  1.0 -0.4013628199
O  O72  1  0.93820000  0.45780000  0.00000000  1.0 -0.4013628199
