# DDEC6 charges by PACMAN v1.1 (https://github.com/mtap-research/PACMAN-charge/)
data_RUBTAK04_FSR_pacman
_symmetry_space_group_name_H-M   'P 1'
_cell_length_a   14.66140000
_cell_length_b   14.66140000
_cell_length_c   14.66140000
_cell_angle_alpha   60.00000000
_cell_angle_beta   60.00000000
_cell_angle_gamma   60.00000000
_symmetry_Int_Tables_number   1
_chemical_formula_structural   Zr3H16(C3O4)8
_chemical_formula_sum   'Zr6 H32 C48 O64'
_cell_volume   2228.49328530
_cell_formula_units_Z   2
loop_
 _symmetry_equiv_pos_site_id
 _symmetry_equiv_pos_as_xyz
  1  'x, y, z'
loop_
 _atom_site_type_symbol
 _atom_site_label
 _atom_site_symmetry_multiplicity
 _atom_site_fract_x
 _atom_site_fract_y
 _atom_site_fract_z
 _atom_site_occupancy
 _atom_site_charge
Zr  Zr1  1  0.88043000  0.11957000  0.11957000  1.0 1.7506153191
Zr  Zr2  1  0.11957000  0.88043000  0.88043000  1.0 1.7506153191
Zr  Zr3  1  0.11957000  0.88043000  0.11957000  1.0 1.7506153191
Zr  Zr4  1  0.88043000  0.11957000  0.88043000  1.0 1.7506153191
Zr  Zr5  1  0.11957000  0.11957000  0.88043000  1.0 1.7506153191
Zr  Zr6  1  0.88043000  0.88043000  0.11957000  1.0 1.7506153191
H  H1  1  0.86360000  0.13640000  0.41960000  1.0 0.1353418434
H  H2  1  0.13640000  0.86360000  0.58040000  1.0 0.1353418434
H  H3  1  0.41960000  0.58040000  0.86360000  1.0 0.1353418434
H  H4  1  0.58040000  0.41960000  0.13640000  1.0 0.1353418434
H  H5  1  0.41960000  0.86360000  0.13640000  1.0 0.1353418434
H  H6  1  0.58040000  0.13640000  0.86360000  1.0 0.1353418434
H  H7  1  0.86360000  0.41960000  0.58040000  1.0 0.1353418434
H  H8  1  0.13640000  0.58040000  0.41960000  1.0 0.1349477077
H  H9  1  0.13640000  0.41960000  0.86360000  1.0 0.1353418434
H  H10  1  0.86360000  0.58040000  0.13640000  1.0 0.1353418434
H  H11  1  0.58040000  0.86360000  0.41960000  1.0 0.1353418434
H  H12  1  0.41960000  0.13640000  0.58040000  1.0 0.1353418434
H  H13  1  0.13640000  0.86360000  0.41960000  1.0 0.1353418434
H  H14  1  0.86360000  0.13640000  0.58040000  1.0 0.1353418434
H  H15  1  0.58040000  0.41960000  0.86360000  1.0 0.1353418434
H  H16  1  0.41960000  0.58040000  0.13640000  1.0 0.1353418434
H  H17  1  0.58040000  0.13640000  0.41960000  1.0 0.1353418434
H  H18  1  0.41960000  0.86360000  0.58040000  1.0 0.1353418434
H  H19  1  0.13640000  0.58040000  0.86360000  1.0 0.1349477077
H  H20  1  0.86360000  0.41960000  0.13640000  1.0 0.1353418434
H  H21  1  0.86360000  0.58040000  0.41960000  1.0 0.1349477077
H  H22  1  0.13640000  0.41960000  0.58040000  1.0 0.1353418434
H  H23  1  0.41960000  0.13640000  0.86360000  1.0 0.1353418434
H  H24  1  0.58040000  0.86360000  0.13640000  1.0 0.1353418434
H  H25  1  0.09630000  0.09630000  0.09630000  1.0 0.2744103873
H  H26  1  0.09630000  0.09630000  0.71110000  1.0 0.2744103873
H  H27  1  0.09630000  0.71110000  0.09630000  1.0 0.2755462015
H  H28  1  0.71110000  0.09630000  0.09630000  1.0 0.2744103873
H  H29  1  0.90370000  0.90370000  0.28890000  1.0 0.2755462015
H  H30  1  0.90370000  0.90370000  0.90370000  1.0 0.2755462015
H  H31  1  0.90370000  0.28890000  0.90370000  1.0 0.2755462015
H  H32  1  0.28890000  0.90370000  0.90370000  1.0 0.2755462015
C  C1  1  0.00000000  0.00000000  0.30360000  1.0 0.1669177184
C  C2  1  0.00000000  0.00000000  0.69640000  1.0 0.1669177184
C  C3  1  0.30360000  0.69640000  0.00000000  1.0 0.1643127704
C  C4  1  0.69640000  0.30360000  0.00000000  1.0 0.1669177184
C  C5  1  0.30360000  0.00000000  0.00000000  1.0 0.1669177184
C  C6  1  0.69640000  0.00000000  0.00000000  1.0 0.1669177184
C  C7  1  0.00000000  0.30360000  0.69640000  1.0 0.1669177184
C  C8  1  0.00000000  0.69640000  0.30360000  1.0 0.1669177184
C  C9  1  0.00000000  0.30360000  0.00000000  1.0 0.1669177184
C  C10  1  0.00000000  0.69640000  0.00000000  1.0 0.1643127704
C  C11  1  0.69640000  0.00000000  0.30360000  1.0 0.1669177184
C  C12  1  0.30360000  0.00000000  0.69640000  1.0 0.1669177184
C  C13  1  0.00000000  0.00000000  0.40580000  1.0 -0.0060579693
C  C14  1  0.00000000  0.00000000  0.59420000  1.0 -0.0060579693
C  C15  1  0.40580000  0.59420000  0.00000000  1.0 -0.0060579693
C  C16  1  0.59420000  0.40580000  0.00000000  1.0 -0.0060579693
C  C17  1  0.40580000  0.00000000  0.00000000  1.0 -0.0060579693
C  C18  1  0.59420000  0.00000000  0.00000000  1.0 -0.0060579693
C  C19  1  0.00000000  0.40580000  0.59420000  1.0 -0.0060579693
C  C20  1  0.00000000  0.59420000  0.40580000  1.0 -0.0060579693
C  C21  1  0.00000000  0.40580000  0.00000000  1.0 -0.0060579693
C  C22  1  0.00000000  0.59420000  0.00000000  1.0 -0.0060579693
C  C23  1  0.59420000  0.00000000  0.40580000  1.0 -0.0060579693
C  C24  1  0.40580000  0.00000000  0.59420000  1.0 -0.0060579693
C  C25  1  0.91970000  0.08030000  0.45190000  1.0 -0.0975677186
C  C26  1  0.08030000  0.91970000  0.54810000  1.0 -0.0975677186
C  C27  1  0.45190000  0.54810000  0.91970000  1.0 -0.0975677186
C  C28  1  0.54810000  0.45190000  0.08030000  1.0 -0.0975677186
C  C29  1  0.45190000  0.91970000  0.08030000  1.0 -0.0975677186
C  C30  1  0.54810000  0.08030000  0.91970000  1.0 -0.0975677186
C  C31  1  0.91970000  0.45190000  0.54810000  1.0 -0.0975677186
C  C32  1  0.08030000  0.54810000  0.45190000  1.0 -0.0975677186
C  C33  1  0.08030000  0.45190000  0.91970000  1.0 -0.0975677186
C  C34  1  0.91970000  0.54810000  0.08030000  1.0 -0.0975677186
C  C35  1  0.54810000  0.91970000  0.45190000  1.0 -0.0975677186
C  C36  1  0.45190000  0.08030000  0.54810000  1.0 -0.0975677186
C  C37  1  0.08030000  0.91970000  0.45190000  1.0 -0.0975677186
C  C38  1  0.91970000  0.08030000  0.54810000  1.0 -0.0975677186
C  C39  1  0.54810000  0.45190000  0.91970000  1.0 -0.0975677186
C  C40  1  0.45190000  0.54810000  0.08030000  1.0 -0.0975677186
C  C41  1  0.54810000  0.08030000  0.45190000  1.0 -0.0975677186
C  C42  1  0.45190000  0.91970000  0.54810000  1.0 -0.0975677186
C  C43  1  0.08030000  0.54810000  0.91970000  1.0 -0.0975677186
C  C44  1  0.91970000  0.45190000  0.08030000  1.0 -0.0975677186
C  C45  1  0.91970000  0.54810000  0.45190000  1.0 -0.0975677186
C  C46  1  0.08030000  0.45190000  0.54810000  1.0 -0.0975677186
C  C47  1  0.45190000  0.08030000  0.91970000  1.0 -0.0975677186
C  C48  1  0.54810000  0.91970000  0.08030000  1.0 -0.0975677186
O  O1  1  0.92250000  0.07750000  0.26510000  1.0 -0.1572690511
O  O2  1  0.07750000  0.92250000  0.73490000  1.0 -0.1572690511
O  O3  1  0.26510000  0.73490000  0.92250000  1.0 -0.1572690511
O  O4  1  0.73490000  0.26510000  0.07750000  1.0 -0.1572690511
O  O5  1  0.26510000  0.92250000  0.07750000  1.0 -0.1572690511
O  O6  1  0.73490000  0.07750000  0.92250000  1.0 -0.1532289108
O  O7  1  0.92250000  0.26510000  0.73490000  1.0 -0.1572690511
O  O8  1  0.07750000  0.73490000  0.26510000  1.0 -0.1572690511
O  O9  1  0.07750000  0.26510000  0.92250000  1.0 -0.1572690511
O  O10  1  0.92250000  0.73490000  0.07750000  1.0 -0.1572690511
O  O11  1  0.73490000  0.92250000  0.26510000  1.0 -0.1572690511
O  O12  1  0.26510000  0.07750000  0.73490000  1.0 -0.1572690511
O  O13  1  0.07750000  0.92250000  0.26510000  1.0 -0.1572690511
O  O14  1  0.92250000  0.07750000  0.73490000  1.0 -0.1572690511
O  O15  1  0.73490000  0.26510000  0.92250000  1.0 -0.1572690511
O  O16  1  0.26510000  0.73490000  0.07750000  1.0 -0.1572690511
O  O17  1  0.73490000  0.07750000  0.26510000  1.0 -0.1572690511
O  O18  1  0.26510000  0.92250000  0.73490000  1.0 -0.1572690511
O  O19  1  0.07750000  0.73490000  0.92250000  1.0 -0.1572690511
O  O20  1  0.92250000  0.26510000  0.07750000  1.0 -0.1572690511
O  O21  1  0.92250000  0.73490000  0.26510000  1.0 -0.1532289108
O  O22  1  0.07750000  0.26510000  0.73490000  1.0 -0.1572690511
O  O23  1  0.26510000  0.07750000  0.92250000  1.0 -0.1572690511
O  O24  1  0.73490000  0.92250000  0.07750000  1.0 -0.1572690511
O  O25  1  0.06850000  0.06850000  0.06850000  1.0 -0.3977062882
O  O26  1  0.06850000  0.06850000  0.79450000  1.0 -0.3977062882
O  O27  1  0.06850000  0.79450000  0.06850000  1.0 -0.3977062882
O  O28  1  0.79450000  0.06850000  0.06850000  1.0 -0.3943082487
O  O29  1  0.93150000  0.93150000  0.20550000  1.0 -0.3977062882
O  O30  1  0.93150000  0.93150000  0.93150000  1.0 -0.3977062882
O  O31  1  0.93150000  0.20550000  0.93150000  1.0 -0.3977062882
O  O32  1  0.20550000  0.93150000  0.93150000  1.0 -0.3977062882
O  O33  1  0.88100000  0.11900000  0.26900000  1.0 -0.2180805822
O  O34  1  0.11900000  0.88100000  0.73100000  1.0 -0.2180805822
O  O35  1  0.26900000  0.73100000  0.88100000  1.0 -0.2180805822
O  O36  1  0.73100000  0.26900000  0.11900000  1.0 -0.2180805822
O  O37  1  0.26900000  0.88100000  0.11900000  1.0 -0.2180805822
O  O38  1  0.73100000  0.11900000  0.88100000  1.0 -0.2180805822
O  O39  1  0.88100000  0.26900000  0.73100000  1.0 -0.2180805822
O  O40  1  0.11900000  0.73100000  0.26900000  1.0 -0.2180805822
O  O41  1  0.11900000  0.26900000  0.88100000  1.0 -0.2180805822
O  O42  1  0.88100000  0.73100000  0.11900000  1.0 -0.2180805822
O  O43  1  0.73100000  0.88100000  0.26900000  1.0 -0.2180805822
O  O44  1  0.26900000  0.11900000  0.73100000  1.0 -0.2180805822
O  O45  1  0.11900000  0.88100000  0.26900000  1.0 -0.2180805822
O  O46  1  0.88100000  0.11900000  0.73100000  1.0 -0.2180805822
O  O47  1  0.73100000  0.26900000  0.88100000  1.0 -0.2180805822
O  O48  1  0.26900000  0.73100000  0.11900000  1.0 -0.2180805822
O  O49  1  0.73100000  0.11900000  0.26900000  1.0 -0.2180805822
O  O50  1  0.26900000  0.88100000  0.73100000  1.0 -0.2180805822
O  O51  1  0.11900000  0.73100000  0.88100000  1.0 -0.2180805822
O  O52  1  0.88100000  0.26900000  0.11900000  1.0 -0.2180805822
O  O53  1  0.88100000  0.73100000  0.26900000  1.0 -0.2180805822
O  O54  1  0.11900000  0.26900000  0.73100000  1.0 -0.2180805822
O  O55  1  0.26900000  0.11900000  0.88100000  1.0 -0.2180805822
O  O56  1  0.73100000  0.88100000  0.11900000  1.0 -0.2180805822
O  O57  1  0.05090000  0.05090000  0.05090000  1.0 -0.4195743223
O  O58  1  0.05090000  0.05090000  0.84730000  1.0 -0.4195743223
O  O59  1  0.05090000  0.84730000  0.05090000  1.0 -0.4195743223
O  O60  1  0.84730000  0.05090000  0.05090000  1.0 -0.4195743223
O  O61  1  0.94910000  0.94910000  0.15270000  1.0 -0.4195743223
O  O62  1  0.94910000  0.94910000  0.94910000  1.0 -0.4195743223
O  O63  1  0.94910000  0.15270000  0.94910000  1.0 -0.4195743223
O  O64  1  0.15270000  0.94910000  0.94910000  1.0 -0.4195743223
