# DDEC6 charges by PACMAN v1.1 (https://github.com/mtap-research/PACMAN-charge/)
data_RUBTAK09_FSR_pacman
_symmetry_space_group_name_H-M   'P 1'
_cell_length_a   14.67740000
_cell_length_b   14.67740000
_cell_length_c   14.67740000
_cell_angle_alpha   60.00000000
_cell_angle_beta   60.00000000
_cell_angle_gamma   60.00000000
_symmetry_Int_Tables_number   1
_chemical_formula_structural   Zr3H16(C3O4)8
_chemical_formula_sum   'Zr6 H32 C48 O64'
_cell_volume   2235.79712082
_cell_formula_units_Z   2
loop_
 _symmetry_equiv_pos_site_id
 _symmetry_equiv_pos_as_xyz
  1  'x, y, z'
loop_
 _atom_site_type_symbol
 _atom_site_label
 _atom_site_symmetry_multiplicity
 _atom_site_fract_x
 _atom_site_fract_y
 _atom_site_fract_z
 _atom_site_occupancy
 _atom_site_charge
Zr  Zr1  1  0.88060000  0.11940000  0.11940000  1.0 1.7607036487
Zr  Zr2  1  0.11940000  0.88060000  0.88060000  1.0 1.7663954949
Zr  Zr3  1  0.11940000  0.88060000  0.11940000  1.0 1.7663954949
Zr  Zr4  1  0.88060000  0.11940000  0.88060000  1.0 1.7607036487
Zr  Zr5  1  0.11940000  0.11940000  0.88060000  1.0 1.7663954949
Zr  Zr6  1  0.88060000  0.88060000  0.11940000  1.0 1.7607036487
H  H1  1  0.86340000  0.13660000  0.42060000  1.0 0.1391835988
H  H2  1  0.13660000  0.86340000  0.57940000  1.0 0.1391835988
H  H3  1  0.42060000  0.57940000  0.86340000  1.0 0.1391835988
H  H4  1  0.57940000  0.42060000  0.13660000  1.0 0.1391835988
H  H5  1  0.42060000  0.86340000  0.13660000  1.0 0.1391835988
H  H6  1  0.57940000  0.13660000  0.86340000  1.0 0.1391835988
H  H7  1  0.86340000  0.42060000  0.57940000  1.0 0.1391835988
H  H8  1  0.13660000  0.57940000  0.42060000  1.0 0.1391835988
H  H9  1  0.13660000  0.42060000  0.86340000  1.0 0.1391835988
H  H10  1  0.86340000  0.57940000  0.13660000  1.0 0.1391835988
H  H11  1  0.57940000  0.86340000  0.42060000  1.0 0.1391835988
H  H12  1  0.42060000  0.13660000  0.57940000  1.0 0.1391835988
H  H13  1  0.13660000  0.86340000  0.42060000  1.0 0.1391835988
H  H14  1  0.86340000  0.13660000  0.57940000  1.0 0.1391835988
H  H15  1  0.57940000  0.42060000  0.86340000  1.0 0.1391835988
H  H16  1  0.42060000  0.57940000  0.13660000  1.0 0.1391835988
H  H17  1  0.57940000  0.13660000  0.42060000  1.0 0.1391835988
H  H18  1  0.42060000  0.86340000  0.57940000  1.0 0.1391835988
H  H19  1  0.13660000  0.57940000  0.86340000  1.0 0.1391835988
H  H20  1  0.86340000  0.42060000  0.13660000  1.0 0.1391835988
H  H21  1  0.86340000  0.57940000  0.42060000  1.0 0.1391835988
H  H22  1  0.13660000  0.42060000  0.57940000  1.0 0.1391835988
H  H23  1  0.42060000  0.13660000  0.86340000  1.0 0.1391835988
H  H24  1  0.57940000  0.86340000  0.13660000  1.0 0.1391835988
H  H25  1  0.09480000  0.09480000  0.09480000  1.0 0.2818981688
H  H26  1  0.09480000  0.09480000  0.71560000  1.0 0.2818981688
H  H27  1  0.09480000  0.71560000  0.09480000  1.0 0.2818981688
H  H28  1  0.71560000  0.09480000  0.09480000  1.0 0.2818981688
H  H29  1  0.90520000  0.90520000  0.28440000  1.0 0.2818981688
H  H30  1  0.90520000  0.90520000  0.90520000  1.0 0.2818981688
H  H31  1  0.90520000  0.28440000  0.90520000  1.0 0.2818981688
H  H32  1  0.28440000  0.90520000  0.90520000  1.0 0.2818981688
C  C1  1  0.00000000  0.00000000  0.30340000  1.0 0.15280593
C  C2  1  0.00000000  0.00000000  0.69660000  1.0 0.15280593
C  C3  1  0.30340000  0.69660000  0.00000000  1.0 0.15280593
C  C4  1  0.69660000  0.30340000  0.00000000  1.0 0.15280593
C  C5  1  0.30340000  0.00000000  0.00000000  1.0 0.15280593
C  C6  1  0.69660000  0.00000000  0.00000000  1.0 0.15280593
C  C7  1  0.00000000  0.30340000  0.69660000  1.0 0.15280593
C  C8  1  0.00000000  0.69660000  0.30340000  1.0 0.15280593
C  C9  1  0.00000000  0.30340000  0.00000000  1.0 0.15280593
C  C10  1  0.00000000  0.69660000  0.00000000  1.0 0.15280593
C  C11  1  0.69660000  0.00000000  0.30340000  1.0 0.15280593
C  C12  1  0.30340000  0.00000000  0.69660000  1.0 0.15280593
C  C13  1  0.00000000  0.00000000  0.40520000  1.0 -0.0031269916
C  C14  1  0.00000000  0.00000000  0.59480000  1.0 -0.0031269916
C  C15  1  0.40520000  0.59480000  0.00000000  1.0 -0.0031269916
C  C16  1  0.59480000  0.40520000  0.00000000  1.0 -0.0031269916
C  C17  1  0.40520000  0.00000000  0.00000000  1.0 -0.0031269916
C  C18  1  0.59480000  0.00000000  0.00000000  1.0 -0.0031269916
C  C19  1  0.00000000  0.40520000  0.59480000  1.0 -0.0031269916
C  C20  1  0.00000000  0.59480000  0.40520000  1.0 -0.0031269916
C  C21  1  0.00000000  0.40520000  0.00000000  1.0 -0.0031269916
C  C22  1  0.00000000  0.59480000  0.00000000  1.0 -0.0031269916
C  C23  1  0.59480000  0.00000000  0.40520000  1.0 -0.0031269916
C  C24  1  0.40520000  0.00000000  0.59480000  1.0 -0.0031269916
C  C25  1  0.91950000  0.08050000  0.45270000  1.0 -0.0966537055
C  C26  1  0.08050000  0.91950000  0.54730000  1.0 -0.0966537055
C  C27  1  0.45270000  0.54730000  0.91950000  1.0 -0.0966537055
C  C28  1  0.54730000  0.45270000  0.08050000  1.0 -0.0966537055
C  C29  1  0.45270000  0.91950000  0.08050000  1.0 -0.0966537055
C  C30  1  0.54730000  0.08050000  0.91950000  1.0 -0.0966537055
C  C31  1  0.91950000  0.45270000  0.54730000  1.0 -0.0966537055
C  C32  1  0.08050000  0.54730000  0.45270000  1.0 -0.0966537055
C  C33  1  0.08050000  0.45270000  0.91950000  1.0 -0.0966537055
C  C34  1  0.91950000  0.54730000  0.08050000  1.0 -0.0966537055
C  C35  1  0.54730000  0.91950000  0.45270000  1.0 -0.0966537055
C  C36  1  0.45270000  0.08050000  0.54730000  1.0 -0.0966537055
C  C37  1  0.08050000  0.91950000  0.45270000  1.0 -0.0966537055
C  C38  1  0.91950000  0.08050000  0.54730000  1.0 -0.0966537055
C  C39  1  0.54730000  0.45270000  0.91950000  1.0 -0.0966537055
C  C40  1  0.45270000  0.54730000  0.08050000  1.0 -0.0966537055
C  C41  1  0.54730000  0.08050000  0.45270000  1.0 -0.0966537055
C  C42  1  0.45270000  0.91950000  0.54730000  1.0 -0.0966537055
C  C43  1  0.08050000  0.54730000  0.91950000  1.0 -0.0966537055
C  C44  1  0.91950000  0.45270000  0.08050000  1.0 -0.0966537055
C  C45  1  0.91950000  0.54730000  0.45270000  1.0 -0.0966537055
C  C46  1  0.08050000  0.45270000  0.54730000  1.0 -0.0966537055
C  C47  1  0.45270000  0.08050000  0.91950000  1.0 -0.0966537055
C  C48  1  0.54730000  0.91950000  0.08050000  1.0 -0.0966537055
O  O1  1  0.92210000  0.07790000  0.26470000  1.0 -0.1540299241
O  O2  1  0.07790000  0.92210000  0.73530000  1.0 -0.1584481134
O  O3  1  0.26470000  0.73530000  0.92210000  1.0 -0.1584481134
O  O4  1  0.73530000  0.26470000  0.07790000  1.0 -0.1584481134
O  O5  1  0.26470000  0.92210000  0.07790000  1.0 -0.1584481134
O  O6  1  0.73530000  0.07790000  0.92210000  1.0 -0.1540299241
O  O7  1  0.92210000  0.26470000  0.73530000  1.0 -0.1584481134
O  O8  1  0.07790000  0.73530000  0.26470000  1.0 -0.1584481134
O  O9  1  0.07790000  0.26470000  0.92210000  1.0 -0.1584481134
O  O10  1  0.92210000  0.73530000  0.07790000  1.0 -0.1584481134
O  O11  1  0.73530000  0.92210000  0.26470000  1.0 -0.1540299241
O  O12  1  0.26470000  0.07790000  0.73530000  1.0 -0.1584481134
O  O13  1  0.07790000  0.92210000  0.26470000  1.0 -0.1584481134
O  O14  1  0.92210000  0.07790000  0.73530000  1.0 -0.1584481134
O  O15  1  0.73530000  0.26470000  0.92210000  1.0 -0.1540299241
O  O16  1  0.26470000  0.73530000  0.07790000  1.0 -0.1584481134
O  O17  1  0.73530000  0.07790000  0.26470000  1.0 -0.1584481134
O  O18  1  0.26470000  0.92210000  0.73530000  1.0 -0.1584481134
O  O19  1  0.07790000  0.73530000  0.92210000  1.0 -0.1584481134
O  O20  1  0.92210000  0.26470000  0.07790000  1.0 -0.1584481134
O  O21  1  0.92210000  0.73530000  0.26470000  1.0 -0.1540299241
O  O22  1  0.07790000  0.26470000  0.73530000  1.0 -0.1584481134
O  O23  1  0.26470000  0.07790000  0.92210000  1.0 -0.1584481134
O  O24  1  0.73530000  0.92210000  0.07790000  1.0 -0.1584481134
O  O25  1  0.05070000  0.05070000  0.05070000  1.0 -0.4023142269
O  O26  1  0.05070000  0.05070000  0.84790000  1.0 -0.4023142269
O  O27  1  0.05070000  0.84790000  0.05070000  1.0 -0.4023142269
O  O28  1  0.84790000  0.05070000  0.05070000  1.0 -0.4023142269
O  O29  1  0.94930000  0.94930000  0.15210000  1.0 -0.4023142269
O  O30  1  0.94930000  0.94930000  0.94930000  1.0 -0.4023142269
O  O31  1  0.94930000  0.15210000  0.94930000  1.0 -0.4023142269
O  O32  1  0.15210000  0.94930000  0.94930000  1.0 -0.4023142269
O  O33  1  0.87730000  0.12270000  0.27150000  1.0 -0.2241193696
O  O34  1  0.12270000  0.87730000  0.72850000  1.0 -0.2255773812
O  O35  1  0.27150000  0.72850000  0.87730000  1.0 -0.2255773812
O  O36  1  0.72850000  0.27150000  0.12270000  1.0 -0.2241193696
O  O37  1  0.27150000  0.87730000  0.12270000  1.0 -0.2255773812
O  O38  1  0.72850000  0.12270000  0.87730000  1.0 -0.2241193696
O  O39  1  0.87730000  0.27150000  0.72850000  1.0 -0.2255773812
O  O40  1  0.12270000  0.72850000  0.27150000  1.0 -0.2255773812
O  O41  1  0.12270000  0.27150000  0.87730000  1.0 -0.2255773812
O  O42  1  0.87730000  0.72850000  0.12270000  1.0 -0.2241193696
O  O43  1  0.72850000  0.87730000  0.27150000  1.0 -0.2255773812
O  O44  1  0.27150000  0.12270000  0.72850000  1.0 -0.2255773812
O  O45  1  0.12270000  0.87730000  0.27150000  1.0 -0.2255773812
O  O46  1  0.87730000  0.12270000  0.72850000  1.0 -0.2255773812
O  O47  1  0.72850000  0.27150000  0.87730000  1.0 -0.2255773812
O  O48  1  0.27150000  0.72850000  0.12270000  1.0 -0.2255773812
O  O49  1  0.72850000  0.12270000  0.27150000  1.0 -0.2241193696
O  O50  1  0.27150000  0.87730000  0.72850000  1.0 -0.2255773812
O  O51  1  0.12270000  0.72850000  0.87730000  1.0 -0.2255773812
O  O52  1  0.87730000  0.27150000  0.12270000  1.0 -0.2241193696
O  O53  1  0.87730000  0.72850000  0.27150000  1.0 -0.2255773812
O  O54  1  0.12270000  0.27150000  0.72850000  1.0 -0.2255773812
O  O55  1  0.27150000  0.12270000  0.87730000  1.0 -0.2255773812
O  O56  1  0.72850000  0.87730000  0.12270000  1.0 -0.2255773812
O  O57  1  0.06750000  0.06750000  0.06750000  1.0 -0.4066780836
O  O58  1  0.06750000  0.06750000  0.79750000  1.0 -0.4066780836
O  O59  1  0.06750000  0.79750000  0.06750000  1.0 -0.4066780836
O  O60  1  0.79750000  0.06750000  0.06750000  1.0 -0.4023142269
O  O61  1  0.93250000  0.93250000  0.20250000  1.0 -0.4066780836
O  O62  1  0.93250000  0.93250000  0.93250000  1.0 -0.4066780836
O  O63  1  0.93250000  0.20250000  0.93250000  1.0 -0.4066780836
O  O64  1  0.20250000  0.93250000  0.93250000  1.0 -0.4066780836
