# DDEC6 charges by PACMAN v1.1 (https://github.com/mtap-research/PACMAN-charge/)
data_RUBTAK02_ASR_pacman
_symmetry_space_group_name_H-M   'P 1'
_cell_length_a   14.66750000
_cell_length_b   14.66750000
_cell_length_c   14.66750000
_cell_angle_alpha   60.00000000
_cell_angle_beta   60.00000000
_cell_angle_gamma   60.00000000
_symmetry_Int_Tables_number   1
_chemical_formula_structural   Zr3H14(C3O2)8
_chemical_formula_sum   'Zr6 H28 C48 O32'
_cell_volume   2231.27599342
_cell_formula_units_Z   2
loop_
 _symmetry_equiv_pos_site_id
 _symmetry_equiv_pos_as_xyz
  1  'x, y, z'
loop_
 _atom_site_type_symbol
 _atom_site_label
 _atom_site_symmetry_multiplicity
 _atom_site_fract_x
 _atom_site_fract_y
 _atom_site_fract_z
 _atom_site_occupancy
 _atom_site_charge
Zr  Zr1  1  0.87960000  0.12040000  0.12040000  1.0 2.2542633847
Zr  Zr2  1  0.12040000  0.87960000  0.87960000  1.0 2.2566006497
Zr  Zr3  1  0.12040000  0.87960000  0.12040000  1.0 2.2542633847
Zr  Zr4  1  0.87960000  0.12040000  0.87960000  1.0 2.2542633847
Zr  Zr5  1  0.12040000  0.12040000  0.87960000  1.0 2.2542633847
Zr  Zr6  1  0.87960000  0.87960000  0.12040000  1.0 2.2542633847
H  H1  1  0.85249000  0.14751000  0.40954000  1.0 0.0896617389
H  H2  1  0.14751000  0.85249000  0.59046000  1.0 0.0896617389
H  H3  1  0.40954000  0.59046000  0.85249000  1.0 0.0896617389
H  H4  1  0.59046000  0.40954000  0.14751000  1.0 0.0896617389
H  H5  1  0.40954000  0.85249000  0.14751000  1.0 0.0896617389
H  H6  1  0.59046000  0.14751000  0.85249000  1.0 0.0896617389
H  H7  1  0.85249000  0.40954000  0.59046000  1.0 0.0896617389
H  H8  1  0.14751000  0.59046000  0.40954000  1.0 0.0896617389
H  H9  1  0.14751000  0.40954000  0.85249000  1.0 0.0896617389
H  H10  1  0.85249000  0.59046000  0.14751000  1.0 0.0896617389
H  H11  1  0.59046000  0.85249000  0.40954000  1.0 0.0896617389
H  H12  1  0.40954000  0.14751000  0.59046000  1.0 0.0896617389
H  H13  1  0.14751000  0.85249000  0.40954000  1.0 0.0896617389
H  H14  1  0.85249000  0.14751000  0.59046000  1.0 0.0896617389
H  H15  1  0.59046000  0.40954000  0.85249000  1.0 0.0896617389
H  H16  1  0.40954000  0.59046000  0.14751000  1.0 0.0896617389
H  H17  1  0.85249000  0.40954000  0.14751000  1.0 0.0896617389
H  H18  1  0.14751000  0.59046000  0.85249000  1.0 0.0896617389
H  H19  1  0.40954000  0.85249000  0.59046000  1.0 0.0896617389
H  H20  1  0.59046000  0.14751000  0.40954000  1.0 0.0896617389
H  H21  1  0.40954000  0.14751000  0.85249000  1.0 0.0896617389
H  H22  1  0.59046000  0.85249000  0.14751000  1.0 0.0896617389
H  H23  1  0.85249000  0.59046000  0.40954000  1.0 0.0896617389
H  H24  1  0.14751000  0.40954000  0.59046000  1.0 0.0896617389
H  H25  1  0.09200000  0.09200000  0.09200000  1.0 0.3780311809
H  H26  1  0.09200000  0.09200000  0.72400000  1.0 0.3780311809
H  H27  1  0.09200000  0.72400000  0.09200000  1.0 0.3780311809
H  H28  1  0.72400000  0.09200000  0.09200000  1.0 0.3780311809
C  C1  1  0.91980000  0.08020000  0.44840000  1.0 -0.0884365824
C  C2  1  0.08020000  0.91980000  0.55160000  1.0 -0.0884365824
C  C3  1  0.44840000  0.55160000  0.91980000  1.0 -0.0884365824
C  C4  1  0.55160000  0.44840000  0.08020000  1.0 -0.0884365824
C  C5  1  0.44840000  0.91980000  0.08020000  1.0 -0.0884365824
C  C6  1  0.55160000  0.08020000  0.91980000  1.0 -0.0884365824
C  C7  1  0.91980000  0.44840000  0.55160000  1.0 -0.0884365824
C  C8  1  0.08020000  0.55160000  0.44840000  1.0 -0.0884365824
C  C9  1  0.08020000  0.44840000  0.91980000  1.0 -0.0884365824
C  C10  1  0.91980000  0.55160000  0.08020000  1.0 -0.0884365824
C  C11  1  0.55160000  0.91980000  0.44840000  1.0 -0.0884365824
C  C12  1  0.44840000  0.08020000  0.55160000  1.0 -0.0884365824
C  C13  1  0.08020000  0.91980000  0.44840000  1.0 -0.0884365824
C  C14  1  0.91980000  0.08020000  0.55160000  1.0 -0.0884365824
C  C15  1  0.55160000  0.44840000  0.91980000  1.0 -0.0884365824
C  C16  1  0.44840000  0.55160000  0.08020000  1.0 -0.0884365824
C  C17  1  0.91980000  0.44840000  0.08020000  1.0 -0.0884365824
C  C18  1  0.08020000  0.55160000  0.91980000  1.0 -0.0884365824
C  C19  1  0.44840000  0.91980000  0.55160000  1.0 -0.0884365824
C  C20  1  0.55160000  0.08020000  0.44840000  1.0 -0.0884365824
C  C21  1  0.44840000  0.08020000  0.91980000  1.0 -0.0884365824
C  C22  1  0.55160000  0.91980000  0.08020000  1.0 -0.0884365824
C  C23  1  0.91980000  0.55160000  0.44840000  1.0 -0.0884365824
C  C24  1  0.08020000  0.44840000  0.55160000  1.0 -0.0884365824
C  C25  1  0.00000000  0.00000000  0.29460000  1.0 0.561782163
C  C26  1  0.00000000  0.00000000  0.40380000  1.0 -0.0281827429
C  C27  1  0.00000000  0.00000000  0.70540000  1.0 0.561782163
C  C28  1  0.00000000  0.00000000  0.59620000  1.0 -0.0281827429
C  C29  1  0.29460000  0.70540000  0.00000000  1.0 0.561782163
C  C30  1  0.40380000  0.59620000  0.00000000  1.0 -0.0281827429
C  C31  1  0.70540000  0.29460000  0.00000000  1.0 0.561782163
C  C32  1  0.59620000  0.40380000  0.00000000  1.0 -0.0281827429
C  C33  1  0.29460000  0.00000000  0.00000000  1.0 0.561782163
C  C34  1  0.40380000  0.00000000  0.00000000  1.0 -0.0281827429
C  C35  1  0.70540000  0.00000000  0.00000000  1.0 0.561782163
C  C36  1  0.59620000  0.00000000  0.00000000  1.0 -0.0281827429
C  C37  1  0.00000000  0.29460000  0.70540000  1.0 0.561782163
C  C38  1  0.00000000  0.40380000  0.59620000  1.0 -0.0281827429
C  C39  1  0.00000000  0.70540000  0.29460000  1.0 0.561782163
C  C40  1  0.00000000  0.59620000  0.40380000  1.0 -0.0281827429
C  C41  1  0.00000000  0.29460000  0.00000000  1.0 0.561782163
C  C42  1  0.00000000  0.40380000  0.00000000  1.0 -0.0281827429
C  C43  1  0.00000000  0.70540000  0.00000000  1.0 0.561782163
C  C44  1  0.00000000  0.59620000  0.00000000  1.0 -0.0281827429
C  C45  1  0.70540000  0.00000000  0.29460000  1.0 0.561782163
C  C46  1  0.59620000  0.00000000  0.40380000  1.0 -0.0281827429
C  C47  1  0.29460000  0.00000000  0.70540000  1.0 0.561782163
C  C48  1  0.40380000  0.00000000  0.59620000  1.0 -0.0281827429
O  O1  1  0.92340000  0.07660000  0.26860000  1.0 -0.5509334936
O  O2  1  0.07660000  0.92340000  0.73140000  1.0 -0.5509334936
O  O3  1  0.26860000  0.73140000  0.92340000  1.0 -0.5509334936
O  O4  1  0.73140000  0.26860000  0.07660000  1.0 -0.5509334936
O  O5  1  0.26860000  0.92340000  0.07660000  1.0 -0.5509334936
O  O6  1  0.73140000  0.07660000  0.92340000  1.0 -0.5509334936
O  O7  1  0.92340000  0.26860000  0.73140000  1.0 -0.5509334936
O  O8  1  0.07660000  0.73140000  0.26860000  1.0 -0.5509334936
O  O9  1  0.07660000  0.26860000  0.92340000  1.0 -0.5509334936
O  O10  1  0.92340000  0.73140000  0.07660000  1.0 -0.5509334936
O  O11  1  0.73140000  0.92340000  0.26860000  1.0 -0.5509334936
O  O12  1  0.26860000  0.07660000  0.73140000  1.0 -0.5509334936
O  O13  1  0.07660000  0.92340000  0.26860000  1.0 -0.5509334936
O  O14  1  0.92340000  0.07660000  0.73140000  1.0 -0.5509334936
O  O15  1  0.73140000  0.26860000  0.92340000  1.0 -0.5509334936
O  O16  1  0.26860000  0.73140000  0.07660000  1.0 -0.5509334936
O  O17  1  0.92340000  0.26860000  0.07660000  1.0 -0.5509334936
O  O18  1  0.07660000  0.73140000  0.92340000  1.0 -0.5509334936
O  O19  1  0.26860000  0.92340000  0.73140000  1.0 -0.5509334936
O  O20  1  0.73140000  0.07660000  0.26860000  1.0 -0.5509334936
O  O21  1  0.26860000  0.07660000  0.92340000  1.0 -0.5509334936
O  O22  1  0.73140000  0.92340000  0.07660000  1.0 -0.5509334936
O  O23  1  0.92340000  0.73140000  0.26860000  1.0 -0.5509334936
O  O24  1  0.07660000  0.26860000  0.73140000  1.0 -0.5509334936
O  O25  1  0.94390000  0.16830000  0.94390000  1.0 -1.0854893609
O  O26  1  0.05610000  0.83170000  0.05610000  1.0 -0.9794436529
O  O27  1  0.16830000  0.94390000  0.94390000  1.0 -1.0823237582
O  O28  1  0.83170000  0.05610000  0.05610000  1.0 -0.9794436529
O  O29  1  0.94390000  0.94390000  0.94390000  1.0 -1.0823237582
O  O30  1  0.05610000  0.05610000  0.05610000  1.0 -0.9794436529
O  O31  1  0.94390000  0.94390000  0.16830000  1.0 -1.0823237582
O  O32  1  0.05610000  0.05610000  0.83170000  1.0 -0.9794436529
