# DDEC6 charges by PACMAN v1.1 (https://github.com/mtap-research/PACMAN-charge/)
data_RUBTAK06_ASR_pacman
_symmetry_space_group_name_H-M   'P 1'
_cell_length_a   14.66300000
_cell_length_b   14.66300000
_cell_length_c   14.66300000
_cell_angle_alpha   60.00000000
_cell_angle_beta   60.00000000
_cell_angle_gamma   60.00000000
_symmetry_Int_Tables_number   1
_chemical_formula_structural   Zr3H16(C3O4)8
_chemical_formula_sum   'Zr6 H32 C48 O64'
_cell_volume   2229.22295198
_cell_formula_units_Z   2
loop_
 _symmetry_equiv_pos_site_id
 _symmetry_equiv_pos_as_xyz
  1  'x, y, z'
loop_
 _atom_site_type_symbol
 _atom_site_label
 _atom_site_symmetry_multiplicity
 _atom_site_fract_x
 _atom_site_fract_y
 _atom_site_fract_z
 _atom_site_occupancy
 _atom_site_charge
Zr  Zr1  1  0.88059000  0.11941000  0.11941000  1.0 1.7514488178
Zr  Zr2  1  0.11941000  0.88059000  0.88059000  1.0 1.7514488178
Zr  Zr3  1  0.11941000  0.88059000  0.11941000  1.0 1.7514488178
Zr  Zr4  1  0.88059000  0.11941000  0.88059000  1.0 1.7514488178
Zr  Zr5  1  0.11941000  0.11941000  0.88059000  1.0 1.7550311046
Zr  Zr6  1  0.88059000  0.88059000  0.11941000  1.0 1.7514488178
H  H1  1  0.86360000  0.13640000  0.42060000  1.0 0.1378907072
H  H2  1  0.13640000  0.86360000  0.57940000  1.0 0.1378907072
H  H3  1  0.42060000  0.57940000  0.86360000  1.0 0.1378907072
H  H4  1  0.57940000  0.42060000  0.13640000  1.0 0.1378907072
H  H5  1  0.42060000  0.86360000  0.13640000  1.0 0.1378907072
H  H6  1  0.57940000  0.13640000  0.86360000  1.0 0.1378907072
H  H7  1  0.86360000  0.42060000  0.57940000  1.0 0.1378907072
H  H8  1  0.13640000  0.57940000  0.42060000  1.0 0.1378907072
H  H9  1  0.13640000  0.42060000  0.86360000  1.0 0.1378907072
H  H10  1  0.86360000  0.57940000  0.13640000  1.0 0.1378907072
H  H11  1  0.57940000  0.86360000  0.42060000  1.0 0.1378907072
H  H12  1  0.42060000  0.13640000  0.57940000  1.0 0.1378907072
H  H13  1  0.13640000  0.86360000  0.42060000  1.0 0.1378907072
H  H14  1  0.86360000  0.13640000  0.57940000  1.0 0.1378907072
H  H15  1  0.57940000  0.42060000  0.86360000  1.0 0.1378907072
H  H16  1  0.42060000  0.57940000  0.13640000  1.0 0.1378907072
H  H17  1  0.57940000  0.13640000  0.42060000  1.0 0.1378907072
H  H18  1  0.42060000  0.86360000  0.57940000  1.0 0.1378907072
H  H19  1  0.13640000  0.57940000  0.86360000  1.0 0.1378907072
H  H20  1  0.86360000  0.42060000  0.13640000  1.0 0.1378907072
H  H21  1  0.86360000  0.57940000  0.42060000  1.0 0.1378907072
H  H22  1  0.13640000  0.42060000  0.57940000  1.0 0.1378907072
H  H23  1  0.42060000  0.13640000  0.86360000  1.0 0.1378907072
H  H24  1  0.57940000  0.86360000  0.13640000  1.0 0.1378907072
H  H25  1  0.09530000  0.09530000  0.09530000  1.0 0.2724299612
H  H26  1  0.09530000  0.09530000  0.71410000  1.0 0.2724299612
H  H27  1  0.09530000  0.71410000  0.09530000  1.0 0.2724299612
H  H28  1  0.71410000  0.09530000  0.09530000  1.0 0.2724299612
H  H29  1  0.90470000  0.90470000  0.28590000  1.0 0.2724299612
H  H30  1  0.90470000  0.90470000  0.90470000  1.0 0.2724299612
H  H31  1  0.90470000  0.28590000  0.90470000  1.0 0.2724299612
H  H32  1  0.28590000  0.90470000  0.90470000  1.0 0.2724299612
C  C1  1  0.00000000  0.00000000  0.30300000  1.0 0.1896443275
C  C2  1  0.00000000  0.00000000  0.69700000  1.0 0.1896443275
C  C3  1  0.30300000  0.69700000  0.00000000  1.0 0.1896443275
C  C4  1  0.69700000  0.30300000  0.00000000  1.0 0.1896443275
C  C5  1  0.30300000  0.00000000  0.00000000  1.0 0.1896443275
C  C6  1  0.69700000  0.00000000  0.00000000  1.0 0.1896443275
C  C7  1  0.00000000  0.30300000  0.69700000  1.0 0.1896443275
C  C8  1  0.00000000  0.69700000  0.30300000  1.0 0.1896443275
C  C9  1  0.00000000  0.30300000  0.00000000  1.0 0.1896443275
C  C10  1  0.00000000  0.69700000  0.00000000  1.0 0.1896443275
C  C11  1  0.69700000  0.00000000  0.30300000  1.0 0.1896443275
C  C12  1  0.30300000  0.00000000  0.69700000  1.0 0.1896443275
C  C13  1  0.00000000  0.00000000  0.40560000  1.0 -0.010550436
C  C14  1  0.00000000  0.00000000  0.59440000  1.0 -0.010550436
C  C15  1  0.40560000  0.59440000  0.00000000  1.0 -0.010550436
C  C16  1  0.59440000  0.40560000  0.00000000  1.0 -0.010550436
C  C17  1  0.40560000  0.00000000  0.00000000  1.0 -0.010550436
C  C18  1  0.59440000  0.00000000  0.00000000  1.0 -0.010550436
C  C19  1  0.00000000  0.40560000  0.59440000  1.0 -0.010550436
C  C20  1  0.00000000  0.59440000  0.40560000  1.0 -0.010550436
C  C21  1  0.00000000  0.40560000  0.00000000  1.0 -0.010550436
C  C22  1  0.00000000  0.59440000  0.00000000  1.0 -0.010550436
C  C23  1  0.59440000  0.00000000  0.40560000  1.0 -0.010550436
C  C24  1  0.40560000  0.00000000  0.59440000  1.0 -0.010550436
C  C25  1  0.91840000  0.08160000  0.45240000  1.0 -0.1012814953
C  C26  1  0.08160000  0.91840000  0.54760000  1.0 -0.1012814953
C  C27  1  0.45240000  0.54760000  0.91840000  1.0 -0.1012814953
C  C28  1  0.54760000  0.45240000  0.08160000  1.0 -0.1012814953
C  C29  1  0.45240000  0.91840000  0.08160000  1.0 -0.1012814953
C  C30  1  0.54760000  0.08160000  0.91840000  1.0 -0.1012814953
C  C31  1  0.91840000  0.45240000  0.54760000  1.0 -0.1012814953
C  C32  1  0.08160000  0.54760000  0.45240000  1.0 -0.1012814953
C  C33  1  0.08160000  0.45240000  0.91840000  1.0 -0.1012814953
C  C34  1  0.91840000  0.54760000  0.08160000  1.0 -0.1012814953
C  C35  1  0.54760000  0.91840000  0.45240000  1.0 -0.1012814953
C  C36  1  0.45240000  0.08160000  0.54760000  1.0 -0.1012814953
C  C37  1  0.08160000  0.91840000  0.45240000  1.0 -0.1012814953
C  C38  1  0.91840000  0.08160000  0.54760000  1.0 -0.1012814953
C  C39  1  0.54760000  0.45240000  0.91840000  1.0 -0.1012814953
C  C40  1  0.45240000  0.54760000  0.08160000  1.0 -0.1012814953
C  C41  1  0.54760000  0.08160000  0.45240000  1.0 -0.1012814953
C  C42  1  0.45240000  0.91840000  0.54760000  1.0 -0.1012814953
C  C43  1  0.08160000  0.54760000  0.91840000  1.0 -0.1012814953
C  C44  1  0.91840000  0.45240000  0.08160000  1.0 -0.1012814953
C  C45  1  0.91840000  0.54760000  0.45240000  1.0 -0.1012814953
C  C46  1  0.08160000  0.45240000  0.54760000  1.0 -0.1012814953
C  C47  1  0.45240000  0.08160000  0.91840000  1.0 -0.1012814953
C  C48  1  0.54760000  0.91840000  0.08160000  1.0 -0.1012814953
O  O1  1  0.92285000  0.07715000  0.26461000  1.0 -0.1644772036
O  O2  1  0.07715000  0.92285000  0.73539000  1.0 -0.1663910868
O  O3  1  0.26461000  0.73539000  0.92285000  1.0 -0.1663910868
O  O4  1  0.73539000  0.26461000  0.07715000  1.0 -0.1644772036
O  O5  1  0.26461000  0.92285000  0.07715000  1.0 -0.1663910868
O  O6  1  0.73539000  0.07715000  0.92285000  1.0 -0.1644772036
O  O7  1  0.92285000  0.26461000  0.73539000  1.0 -0.1644772036
O  O8  1  0.07715000  0.73539000  0.26461000  1.0 -0.1663910868
O  O9  1  0.07715000  0.26461000  0.92285000  1.0 -0.1663910868
O  O10  1  0.92285000  0.73539000  0.07715000  1.0 -0.1663910868
O  O11  1  0.73539000  0.92285000  0.26461000  1.0 -0.1663910868
O  O12  1  0.26461000  0.07715000  0.73539000  1.0 -0.1663910868
O  O13  1  0.07715000  0.92285000  0.26461000  1.0 -0.1663910868
O  O14  1  0.92285000  0.07715000  0.73539000  1.0 -0.1644772036
O  O15  1  0.73539000  0.26461000  0.92285000  1.0 -0.1663910868
O  O16  1  0.26461000  0.73539000  0.07715000  1.0 -0.1663910868
O  O17  1  0.73539000  0.07715000  0.26461000  1.0 -0.1644772036
O  O18  1  0.26461000  0.92285000  0.73539000  1.0 -0.1663910868
O  O19  1  0.07715000  0.73539000  0.92285000  1.0 -0.1663910868
O  O20  1  0.92285000  0.26461000  0.07715000  1.0 -0.1644772036
O  O21  1  0.92285000  0.73539000  0.26461000  1.0 -0.1663910868
O  O22  1  0.07715000  0.26461000  0.73539000  1.0 -0.1663910868
O  O23  1  0.26461000  0.07715000  0.92285000  1.0 -0.1663910868
O  O24  1  0.73539000  0.92285000  0.07715000  1.0 -0.1663910868
O  O25  1  0.06750000  0.06750000  0.06750000  1.0 -0.4109075521
O  O26  1  0.06750000  0.06750000  0.79750000  1.0 -0.4109075521
O  O27  1  0.06750000  0.79750000  0.06750000  1.0 -0.4109075521
O  O28  1  0.79750000  0.06750000  0.06750000  1.0 -0.4109075521
O  O29  1  0.93250000  0.93250000  0.20250000  1.0 -0.4109075521
O  O30  1  0.93250000  0.93250000  0.93250000  1.0 -0.4109075521
O  O31  1  0.93250000  0.20250000  0.93250000  1.0 -0.4109075521
O  O32  1  0.20250000  0.93250000  0.93250000  1.0 -0.4109075521
O  O33  1  0.87930000  0.12070000  0.27210000  1.0 -0.2234023597
O  O34  1  0.12070000  0.87930000  0.72790000  1.0 -0.2234023597
O  O35  1  0.27210000  0.72790000  0.87930000  1.0 -0.2234023597
O  O36  1  0.72790000  0.27210000  0.12070000  1.0 -0.2234023597
O  O37  1  0.27210000  0.87930000  0.12070000  1.0 -0.2234023597
O  O38  1  0.72790000  0.12070000  0.87930000  1.0 -0.2234023597
O  O39  1  0.87930000  0.27210000  0.72790000  1.0 -0.2234023597
O  O40  1  0.12070000  0.72790000  0.27210000  1.0 -0.2234023597
O  O41  1  0.12070000  0.27210000  0.87930000  1.0 -0.2234023597
O  O42  1  0.87930000  0.72790000  0.12070000  1.0 -0.2234023597
O  O43  1  0.72790000  0.87930000  0.27210000  1.0 -0.2234023597
O  O44  1  0.27210000  0.12070000  0.72790000  1.0 -0.2234023597
O  O45  1  0.12070000  0.87930000  0.27210000  1.0 -0.2234023597
O  O46  1  0.87930000  0.12070000  0.72790000  1.0 -0.2234023597
O  O47  1  0.72790000  0.27210000  0.87930000  1.0 -0.2234023597
O  O48  1  0.27210000  0.72790000  0.12070000  1.0 -0.2234023597
O  O49  1  0.72790000  0.12070000  0.27210000  1.0 -0.2234023597
O  O50  1  0.27210000  0.87930000  0.72790000  1.0 -0.2234023597
O  O51  1  0.12070000  0.72790000  0.87930000  1.0 -0.2234023597
O  O52  1  0.87930000  0.27210000  0.12070000  1.0 -0.2234023597
O  O53  1  0.87930000  0.72790000  0.27210000  1.0 -0.2234023597
O  O54  1  0.12070000  0.27210000  0.72790000  1.0 -0.2234023597
O  O55  1  0.27210000  0.12070000  0.87930000  1.0 -0.2234023597
O  O56  1  0.72790000  0.87930000  0.12070000  1.0 -0.2234023597
O  O57  1  0.05010000  0.05010000  0.05010000  1.0 -0.3863195894
O  O58  1  0.05010000  0.05010000  0.84970000  1.0 -0.3863195894
O  O59  1  0.05010000  0.84970000  0.05010000  1.0 -0.3863195894
O  O60  1  0.84970000  0.05010000  0.05010000  1.0 -0.3863195894
O  O61  1  0.94990000  0.94990000  0.15030000  1.0 -0.3863195894
O  O62  1  0.94990000  0.94990000  0.94990000  1.0 -0.3863195894
O  O63  1  0.94990000  0.15030000  0.94990000  1.0 -0.3863195894
O  O64  1  0.15030000  0.94990000  0.94990000  1.0 -0.3863195894
