# DDEC6 charges by PACMAN v1.1 (https://github.com/mtap-research/PACMAN-charge/)
data_RUFPUF_ASR_pacman
_symmetry_space_group_name_H-M   'P 1'
_cell_length_a   28.97300000
_cell_length_b   28.97300000
_cell_length_c   28.97300000
_cell_angle_alpha   90.00000000
_cell_angle_beta   90.00000000
_cell_angle_gamma   90.00000000
_symmetry_Int_Tables_number   1
_chemical_formula_structural   CuB16H18(C5O2)2
_chemical_formula_sum   'Cu12 B192 H216 C120 O48'
_cell_volume   24320.94240332
_cell_formula_units_Z   12
loop_
 _symmetry_equiv_pos_site_id
 _symmetry_equiv_pos_as_xyz
  1  'x, y, z'
loop_
 _atom_site_type_symbol
 _atom_site_label
 _atom_site_symmetry_multiplicity
 _atom_site_fract_x
 _atom_site_fract_y
 _atom_site_fract_z
 _atom_site_occupancy
 _atom_site_charge
Cu  Cu1  1  0.50000000  0.70375000  0.00000000  1.0 0.9454176125
Cu  Cu2  1  0.50000000  0.29625000  0.00000000  1.0 0.9454176125
Cu  Cu3  1  0.00000000  0.50000000  0.70375000  1.0 0.9454176125
Cu  Cu4  1  0.00000000  0.50000000  0.29625000  1.0 0.943632215
Cu  Cu5  1  0.70375000  0.00000000  0.50000000  1.0 0.943632215
Cu  Cu6  1  0.29625000  0.00000000  0.50000000  1.0 0.9454176125
Cu  Cu7  1  0.20375000  0.00000000  0.50000000  1.0 0.9454176125
Cu  Cu8  1  0.79625000  0.00000000  0.50000000  1.0 0.943632215
Cu  Cu9  1  0.00000000  0.50000000  0.79625000  1.0 0.9454176125
Cu  Cu10  1  0.00000000  0.50000000  0.20375000  1.0 0.943632215
Cu  Cu11  1  0.50000000  0.20375000  0.00000000  1.0 0.9454176125
Cu  Cu12  1  0.50000000  0.79625000  0.00000000  1.0 0.9454176125
B  B1  1  0.62740000  0.75830000  0.18660000  1.0 0.0486737552
B  B2  1  0.37260000  0.24170000  0.18660000  1.0 0.0486737552
B  B3  1  0.37260000  0.75830000  0.81340000  1.0 0.0486737552
B  B4  1  0.62740000  0.24170000  0.81340000  1.0 0.0486737552
B  B5  1  0.18660000  0.62740000  0.75830000  1.0 0.0486737552
B  B6  1  0.18660000  0.37260000  0.24170000  1.0 0.0486737552
B  B7  1  0.81340000  0.37260000  0.75830000  1.0 0.0486737552
B  B8  1  0.81340000  0.62740000  0.24170000  1.0 0.0486737552
B  B9  1  0.75830000  0.18660000  0.62740000  1.0 0.0486737552
B  B10  1  0.24170000  0.18660000  0.37260000  1.0 0.0486737552
B  B11  1  0.75830000  0.81340000  0.37260000  1.0 0.0486737552
B  B12  1  0.24170000  0.81340000  0.62740000  1.0 0.0486737552
B  B13  1  0.25830000  0.12740000  0.31340000  1.0 0.0486737552
B  B14  1  0.74170000  0.87260000  0.31340000  1.0 0.0486737552
B  B15  1  0.25830000  0.87260000  0.68660000  1.0 0.0486737552
B  B16  1  0.74170000  0.12740000  0.68660000  1.0 0.0486737552
B  B17  1  0.12740000  0.68660000  0.74170000  1.0 0.0486737552
B  B18  1  0.87260000  0.68660000  0.25830000  1.0 0.0486737552
B  B19  1  0.87260000  0.31340000  0.74170000  1.0 0.0486737552
B  B20  1  0.12740000  0.31340000  0.25830000  1.0 0.0486737552
B  B21  1  0.68660000  0.25830000  0.87260000  1.0 0.0486737552
B  B22  1  0.68660000  0.74170000  0.12740000  1.0 0.0486737552
B  B23  1  0.31340000  0.25830000  0.12740000  1.0 0.0486737552
B  B24  1  0.31340000  0.74170000  0.87260000  1.0 0.0486737552
B  B25  1  0.37260000  0.24170000  0.81340000  1.0 0.0486737552
B  B26  1  0.62740000  0.75830000  0.81340000  1.0 0.0486737552
B  B27  1  0.62740000  0.24170000  0.18660000  1.0 0.0486737552
B  B28  1  0.37260000  0.75830000  0.18660000  1.0 0.0486737552
B  B29  1  0.81340000  0.37260000  0.24170000  1.0 0.0486737552
B  B30  1  0.81340000  0.62740000  0.75830000  1.0 0.0486737552
B  B31  1  0.18660000  0.62740000  0.24170000  1.0 0.0486737552
B  B32  1  0.18660000  0.37260000  0.75830000  1.0 0.0486737552
B  B33  1  0.24170000  0.81340000  0.37260000  1.0 0.0486737552
B  B34  1  0.75830000  0.81340000  0.62740000  1.0 0.0486737552
B  B35  1  0.24170000  0.18660000  0.62740000  1.0 0.0486737552
B  B36  1  0.75830000  0.18660000  0.37260000  1.0 0.0486737552
B  B37  1  0.74170000  0.87260000  0.68660000  1.0 0.0486737552
B  B38  1  0.25830000  0.12740000  0.68660000  1.0 0.0486737552
B  B39  1  0.74170000  0.12740000  0.31340000  1.0 0.0486737552
B  B40  1  0.25830000  0.87260000  0.31340000  1.0 0.0486737552
B  B41  1  0.87260000  0.31340000  0.25830000  1.0 0.0486737552
B  B42  1  0.12740000  0.31340000  0.74170000  1.0 0.0486737552
B  B43  1  0.12740000  0.68660000  0.25830000  1.0 0.0486737552
B  B44  1  0.87260000  0.68660000  0.74170000  1.0 0.0486737552
B  B45  1  0.31340000  0.74170000  0.12740000  1.0 0.0486737552
B  B46  1  0.31340000  0.25830000  0.87260000  1.0 0.0486737552
B  B47  1  0.68660000  0.74170000  0.87260000  1.0 0.0486737552
B  B48  1  0.68660000  0.25830000  0.12740000  1.0 0.0486737552
B  B49  1  0.64600000  0.76650000  0.09280000  1.0 0.0486737552
B  B50  1  0.35400000  0.23350000  0.09280000  1.0 0.0486737552
B  B51  1  0.35400000  0.76650000  0.90720000  1.0 0.0486737552
B  B52  1  0.64600000  0.23350000  0.90720000  1.0 0.0486737552
B  B53  1  0.09280000  0.64600000  0.76650000  1.0 0.0486737552
B  B54  1  0.09280000  0.35400000  0.23350000  1.0 0.0486737552
B  B55  1  0.90720000  0.35400000  0.76650000  1.0 0.0486737552
B  B56  1  0.90720000  0.64600000  0.23350000  1.0 0.0486737552
B  B57  1  0.76650000  0.09280000  0.64600000  1.0 0.0486737552
B  B58  1  0.23350000  0.09280000  0.35400000  1.0 0.0486737552
B  B59  1  0.76650000  0.90720000  0.35400000  1.0 0.0486737552
B  B60  1  0.23350000  0.90720000  0.64600000  1.0 0.0486737552
B  B61  1  0.26650000  0.14600000  0.40720000  1.0 0.0486737552
B  B62  1  0.73350000  0.85400000  0.40720000  1.0 0.0486737552
B  B63  1  0.26650000  0.85400000  0.59280000  1.0 0.0486737552
B  B64  1  0.73350000  0.14600000  0.59280000  1.0 0.0486737552
B  B65  1  0.14600000  0.59280000  0.73350000  1.0 0.0486737552
B  B66  1  0.85400000  0.59280000  0.26650000  1.0 0.0486737552
B  B67  1  0.85400000  0.40720000  0.73350000  1.0 0.0486737552
B  B68  1  0.14600000  0.40720000  0.26650000  1.0 0.0486737552
B  B69  1  0.59280000  0.26650000  0.85400000  1.0 0.0486737552
B  B70  1  0.59280000  0.73350000  0.14600000  1.0 0.0486737552
B  B71  1  0.40720000  0.26650000  0.14600000  1.0 0.0486737552
B  B72  1  0.40720000  0.73350000  0.85400000  1.0 0.0486737552
B  B73  1  0.35400000  0.23350000  0.90720000  1.0 0.0486737552
B  B74  1  0.64600000  0.76650000  0.90720000  1.0 0.0486737552
B  B75  1  0.64600000  0.23350000  0.09280000  1.0 0.0486737552
B  B76  1  0.35400000  0.76650000  0.09280000  1.0 0.0486737552
B  B77  1  0.90720000  0.35400000  0.23350000  1.0 0.0486737552
B  B78  1  0.90720000  0.64600000  0.76650000  1.0 0.0486737552
B  B79  1  0.09280000  0.64600000  0.23350000  1.0 0.0486737552
B  B80  1  0.09280000  0.35400000  0.76650000  1.0 0.0486737552
B  B81  1  0.23350000  0.90720000  0.35400000  1.0 0.0486737552
B  B82  1  0.76650000  0.90720000  0.64600000  1.0 0.0486737552
B  B83  1  0.23350000  0.09280000  0.64600000  1.0 0.0486737552
B  B84  1  0.76650000  0.09280000  0.35400000  1.0 0.0486737552
B  B85  1  0.73350000  0.85400000  0.59280000  1.0 0.0486737552
B  B86  1  0.26650000  0.14600000  0.59280000  1.0 0.0486737552
B  B87  1  0.73350000  0.14600000  0.40720000  1.0 0.0486737552
B  B88  1  0.26650000  0.85400000  0.40720000  1.0 0.0486737552
B  B89  1  0.85400000  0.40720000  0.26650000  1.0 0.0486737552
B  B90  1  0.14600000  0.40720000  0.73350000  1.0 0.0486737552
B  B91  1  0.14600000  0.59280000  0.26650000  1.0 0.0486737552
B  B92  1  0.85400000  0.59280000  0.73350000  1.0 0.0486737552
B  B93  1  0.40720000  0.73350000  0.14600000  1.0 0.0486737552
B  B94  1  0.40720000  0.26650000  0.85400000  1.0 0.0486737552
B  B95  1  0.59280000  0.73350000  0.85400000  1.0 0.0486737552
B  B96  1  0.59280000  0.26650000  0.14600000  1.0 0.0486737552
B  B97  1  0.60850000  0.78930000  0.12940000  1.0 0.0322329935
B  B98  1  0.39150000  0.21070000  0.12940000  1.0 0.0322329935
B  B99  1  0.39150000  0.78930000  0.87060000  1.0 0.0322329935
B  B100  1  0.60850000  0.21070000  0.87060000  1.0 0.024271617
B  B101  1  0.12940000  0.60850000  0.78930000  1.0 0.0322329935
B  B102  1  0.12940000  0.39150000  0.21070000  1.0 0.0322329935
B  B103  1  0.87060000  0.39150000  0.78930000  1.0 0.0322329935
B  B104  1  0.87060000  0.60850000  0.21070000  1.0 0.024271617
B  B105  1  0.78930000  0.12940000  0.60850000  1.0 0.0322329935
B  B106  1  0.21070000  0.12940000  0.39150000  1.0 0.0322329935
B  B107  1  0.78930000  0.87060000  0.39150000  1.0 0.0322329935
B  B108  1  0.21070000  0.87060000  0.60850000  1.0 0.024271617
B  B109  1  0.28930000  0.10850000  0.37060000  1.0 0.0322329935
B  B110  1  0.71070000  0.89150000  0.37060000  1.0 0.0322329935
B  B111  1  0.28930000  0.89150000  0.62940000  1.0 0.0322329935
B  B112  1  0.71070000  0.10850000  0.62940000  1.0 0.0322329935
B  B113  1  0.10850000  0.62940000  0.71070000  1.0 0.0322329935
B  B114  1  0.89150000  0.62940000  0.28930000  1.0 0.0322329935
B  B115  1  0.89150000  0.37060000  0.71070000  1.0 0.0322329935
B  B116  1  0.10850000  0.37060000  0.28930000  1.0 0.0322329935
B  B117  1  0.62940000  0.28930000  0.89150000  1.0 0.0322329935
B  B118  1  0.62940000  0.71070000  0.10850000  1.0 0.0322329935
B  B119  1  0.37060000  0.28930000  0.10850000  1.0 0.0322329935
B  B120  1  0.37060000  0.71070000  0.89150000  1.0 0.0322329935
B  B121  1  0.39150000  0.21070000  0.87060000  1.0 0.0322329935
B  B122  1  0.60850000  0.78930000  0.87060000  1.0 0.0322329935
B  B123  1  0.60850000  0.21070000  0.12940000  1.0 0.0322329935
B  B124  1  0.39150000  0.78930000  0.12940000  1.0 0.0322329935
B  B125  1  0.87060000  0.39150000  0.21070000  1.0 0.0322329935
B  B126  1  0.87060000  0.60850000  0.78930000  1.0 0.0322329935
B  B127  1  0.12940000  0.60850000  0.21070000  1.0 0.0322329935
B  B128  1  0.12940000  0.39150000  0.78930000  1.0 0.0322329935
B  B129  1  0.21070000  0.87060000  0.39150000  1.0 0.0322329935
B  B130  1  0.78930000  0.87060000  0.60850000  1.0 0.0322329935
B  B131  1  0.21070000  0.12940000  0.60850000  1.0 0.0322329935
B  B132  1  0.78930000  0.12940000  0.39150000  1.0 0.0322329935
B  B133  1  0.71070000  0.89150000  0.62940000  1.0 0.0322329935
B  B134  1  0.28930000  0.10850000  0.62940000  1.0 0.0322329935
B  B135  1  0.71070000  0.10850000  0.37060000  1.0 0.0322329935
B  B136  1  0.28930000  0.89150000  0.37060000  1.0 0.0322329935
B  B137  1  0.89150000  0.37060000  0.28930000  1.0 0.0322329935
B  B138  1  0.10850000  0.37060000  0.71070000  1.0 0.0322329935
B  B139  1  0.10850000  0.62940000  0.28930000  1.0 0.0322329935
B  B140  1  0.89150000  0.62940000  0.71070000  1.0 0.0322329935
B  B141  1  0.37060000  0.71070000  0.10850000  1.0 0.0322329935
B  B142  1  0.37060000  0.28930000  0.89150000  1.0 0.0322329935
B  B143  1  0.62940000  0.71070000  0.89150000  1.0 0.0322329935
B  B144  1  0.62940000  0.28930000  0.10850000  1.0 0.0322329935
B  B145  1  0.66530000  0.79110000  0.14750000  1.0 0.0383529337
B  B146  1  0.33470000  0.20890000  0.14750000  1.0 0.0383529337
B  B147  1  0.33470000  0.79110000  0.85250000  1.0 0.0322329935
B  B148  1  0.66530000  0.20890000  0.85250000  1.0 0.0383529337
B  B149  1  0.14750000  0.66530000  0.79110000  1.0 0.0383529337
B  B150  1  0.14750000  0.33470000  0.20890000  1.0 0.0383529337
B  B151  1  0.85250000  0.33470000  0.79110000  1.0 0.0322329935
B  B152  1  0.85250000  0.66530000  0.20890000  1.0 0.0383529337
B  B153  1  0.79110000  0.14750000  0.66530000  1.0 0.0383529337
B  B154  1  0.20890000  0.14750000  0.33470000  1.0 0.0383529337
B  B155  1  0.79110000  0.85250000  0.33470000  1.0 0.0322329935
B  B156  1  0.20890000  0.85250000  0.66530000  1.0 0.0383529337
B  B157  1  0.29110000  0.16530000  0.35250000  1.0 0.0322329935
B  B158  1  0.70890000  0.83470000  0.35250000  1.0 0.0383529337
B  B159  1  0.29110000  0.83470000  0.64750000  1.0 0.0383529337
B  B160  1  0.70890000  0.16530000  0.64750000  1.0 0.0383529337
B  B161  1  0.16530000  0.64750000  0.70890000  1.0 0.0383529337
B  B162  1  0.83470000  0.64750000  0.29110000  1.0 0.0383529337
B  B163  1  0.83470000  0.35250000  0.70890000  1.0 0.0383529337
B  B164  1  0.16530000  0.35250000  0.29110000  1.0 0.0322329935
B  B165  1  0.64750000  0.29110000  0.83470000  1.0 0.0383529337
B  B166  1  0.64750000  0.70890000  0.16530000  1.0 0.0383529337
B  B167  1  0.35250000  0.29110000  0.16530000  1.0 0.0322329935
B  B168  1  0.35250000  0.70890000  0.83470000  1.0 0.0383529337
B  B169  1  0.33470000  0.20890000  0.85250000  1.0 0.0383529337
B  B170  1  0.66530000  0.79110000  0.85250000  1.0 0.0322329935
B  B171  1  0.66530000  0.20890000  0.14750000  1.0 0.0383529337
B  B172  1  0.33470000  0.79110000  0.14750000  1.0 0.0383529337
B  B173  1  0.85250000  0.33470000  0.20890000  1.0 0.0383529337
B  B174  1  0.85250000  0.66530000  0.79110000  1.0 0.0322329935
B  B175  1  0.14750000  0.66530000  0.20890000  1.0 0.0383529337
B  B176  1  0.14750000  0.33470000  0.79110000  1.0 0.0383529337
B  B177  1  0.20890000  0.85250000  0.33470000  1.0 0.0383529337
B  B178  1  0.79110000  0.85250000  0.66530000  1.0 0.0322329935
B  B179  1  0.20890000  0.14750000  0.66530000  1.0 0.0383529337
B  B180  1  0.79110000  0.14750000  0.33470000  1.0 0.0383529337
B  B181  1  0.70890000  0.83470000  0.64750000  1.0 0.0383529337
B  B182  1  0.29110000  0.16530000  0.64750000  1.0 0.0322329935
B  B183  1  0.70890000  0.16530000  0.35250000  1.0 0.0383529337
B  B184  1  0.29110000  0.83470000  0.35250000  1.0 0.0383529337
B  B185  1  0.83470000  0.35250000  0.29110000  1.0 0.0383529337
B  B186  1  0.16530000  0.35250000  0.70890000  1.0 0.0383529337
B  B187  1  0.16530000  0.64750000  0.29110000  1.0 0.0322329935
B  B188  1  0.83470000  0.64750000  0.70890000  1.0 0.0383529337
B  B189  1  0.35250000  0.70890000  0.16530000  1.0 0.0383529337
B  B190  1  0.35250000  0.29110000  0.83470000  1.0 0.0383529337
B  B191  1  0.64750000  0.70890000  0.83470000  1.0 0.0383529337
B  B192  1  0.64750000  0.29110000  0.16530000  1.0 0.0322329935
H  H1  1  0.69320000  0.80680000  0.25000000  1.0 0.2644747306
H  H2  1  0.30680000  0.19320000  0.25000000  1.0 0.2678590104
H  H3  1  0.30680000  0.80680000  0.75000000  1.0 0.2678590104
H  H4  1  0.69320000  0.19320000  0.75000000  1.0 0.2678590104
H  H5  1  0.25000000  0.69320000  0.80680000  1.0 0.2678590104
H  H6  1  0.25000000  0.30680000  0.19320000  1.0 0.2678590104
H  H7  1  0.75000000  0.30680000  0.80680000  1.0 0.2678590104
H  H8  1  0.75000000  0.69320000  0.19320000  1.0 0.2644747306
H  H9  1  0.80680000  0.25000000  0.69320000  1.0 0.2678590104
H  H10  1  0.19320000  0.25000000  0.30680000  1.0 0.2678590104
H  H11  1  0.80680000  0.75000000  0.30680000  1.0 0.2644747306
H  H12  1  0.19320000  0.75000000  0.69320000  1.0 0.2678590104
H  H13  1  0.30680000  0.19320000  0.75000000  1.0 0.2678590104
H  H14  1  0.69320000  0.80680000  0.75000000  1.0 0.2678590104
H  H15  1  0.69320000  0.19320000  0.25000000  1.0 0.2644747306
H  H16  1  0.30680000  0.80680000  0.25000000  1.0 0.2678590104
H  H17  1  0.75000000  0.30680000  0.19320000  1.0 0.2644747306
H  H18  1  0.75000000  0.69320000  0.80680000  1.0 0.2678590104
H  H19  1  0.25000000  0.69320000  0.19320000  1.0 0.2678590104
H  H20  1  0.25000000  0.30680000  0.80680000  1.0 0.2678590104
H  H21  1  0.19320000  0.75000000  0.30680000  1.0 0.2678590104
H  H22  1  0.80680000  0.75000000  0.69320000  1.0 0.2678590104
H  H23  1  0.19320000  0.25000000  0.69320000  1.0 0.2678590104
H  H24  1  0.80680000  0.25000000  0.30680000  1.0 0.2644747306
H  H25  1  0.61360000  0.76450000  0.22180000  1.0 -0.1495824266
H  H26  1  0.38640000  0.23550000  0.22180000  1.0 -0.1495824266
H  H27  1  0.38640000  0.76450000  0.77820000  1.0 -0.1495824266
H  H28  1  0.61360000  0.23550000  0.77820000  1.0 -0.1495824266
H  H29  1  0.22180000  0.61360000  0.76450000  1.0 -0.1495824266
H  H30  1  0.22180000  0.38640000  0.23550000  1.0 -0.1495824266
H  H31  1  0.77820000  0.38640000  0.76450000  1.0 -0.1495824266
H  H32  1  0.77820000  0.61360000  0.23550000  1.0 -0.1495824266
H  H33  1  0.76450000  0.22180000  0.61360000  1.0 -0.1495824266
H  H34  1  0.23550000  0.22180000  0.38640000  1.0 -0.1495824266
H  H35  1  0.76450000  0.77820000  0.38640000  1.0 -0.1495824266
H  H36  1  0.23550000  0.77820000  0.61360000  1.0 -0.1495824266
H  H37  1  0.26450000  0.11360000  0.27820000  1.0 -0.1495824266
H  H38  1  0.73550000  0.88640000  0.27820000  1.0 -0.1495824266
H  H39  1  0.26450000  0.88640000  0.72180000  1.0 -0.1495824266
H  H40  1  0.73550000  0.11360000  0.72180000  1.0 -0.1495824266
H  H41  1  0.11360000  0.72180000  0.73550000  1.0 -0.1495824266
H  H42  1  0.88640000  0.72180000  0.26450000  1.0 -0.1495824266
H  H43  1  0.88640000  0.27820000  0.73550000  1.0 -0.1495824266
H  H44  1  0.11360000  0.27820000  0.26450000  1.0 -0.1495824266
H  H45  1  0.72180000  0.26450000  0.88640000  1.0 -0.1495824266
H  H46  1  0.72180000  0.73550000  0.11360000  1.0 -0.1495824266
H  H47  1  0.27820000  0.26450000  0.11360000  1.0 -0.1495824266
H  H48  1  0.27820000  0.73550000  0.88640000  1.0 -0.1495824266
H  H49  1  0.38640000  0.23550000  0.77820000  1.0 -0.1495824266
H  H50  1  0.61360000  0.76450000  0.77820000  1.0 -0.1495824266
H  H51  1  0.61360000  0.23550000  0.22180000  1.0 -0.1495824266
H  H52  1  0.38640000  0.76450000  0.22180000  1.0 -0.1495824266
H  H53  1  0.77820000  0.38640000  0.23550000  1.0 -0.1495824266
H  H54  1  0.77820000  0.61360000  0.76450000  1.0 -0.1495824266
H  H55  1  0.22180000  0.61360000  0.23550000  1.0 -0.1495824266
H  H56  1  0.22180000  0.38640000  0.76450000  1.0 -0.1495824266
H  H57  1  0.23550000  0.77820000  0.38640000  1.0 -0.1495824266
H  H58  1  0.76450000  0.77820000  0.61360000  1.0 -0.1495824266
H  H59  1  0.23550000  0.22180000  0.61360000  1.0 -0.1495824266
H  H60  1  0.76450000  0.22180000  0.38640000  1.0 -0.1495824266
H  H61  1  0.73550000  0.88640000  0.72180000  1.0 -0.1495824266
H  H62  1  0.26450000  0.11360000  0.72180000  1.0 -0.1495824266
H  H63  1  0.73550000  0.11360000  0.27820000  1.0 -0.1495824266
H  H64  1  0.26450000  0.88640000  0.27820000  1.0 -0.1495824266
H  H65  1  0.88640000  0.27820000  0.26450000  1.0 -0.1495824266
H  H66  1  0.11360000  0.27820000  0.73550000  1.0 -0.1495824266
H  H67  1  0.11360000  0.72180000  0.26450000  1.0 -0.1495824266
H  H68  1  0.88640000  0.72180000  0.73550000  1.0 -0.1495824266
H  H69  1  0.27820000  0.73550000  0.11360000  1.0 -0.1495824266
H  H70  1  0.27820000  0.26450000  0.88640000  1.0 -0.1495824266
H  H71  1  0.72180000  0.73550000  0.88640000  1.0 -0.1495824266
H  H72  1  0.72180000  0.26450000  0.11360000  1.0 -0.1495824266
H  H73  1  0.65830000  0.77870000  0.05870000  1.0 -0.0487937214
H  H74  1  0.34170000  0.22130000  0.05870000  1.0 -0.0487937214
H  H75  1  0.34170000  0.77870000  0.94130000  1.0 -0.0487937214
H  H76  1  0.65830000  0.22130000  0.94130000  1.0 -0.0487937214
H  H77  1  0.05870000  0.65830000  0.77870000  1.0 -0.0487937214
H  H78  1  0.05870000  0.34170000  0.22130000  1.0 -0.0487937214
H  H79  1  0.94130000  0.34170000  0.77870000  1.0 -0.0487937214
H  H80  1  0.94130000  0.65830000  0.22130000  1.0 -0.0487937214
H  H81  1  0.77870000  0.05870000  0.65830000  1.0 -0.0487937214
H  H82  1  0.22130000  0.05870000  0.34170000  1.0 -0.0487937214
H  H83  1  0.77870000  0.94130000  0.34170000  1.0 -0.0487937214
H  H84  1  0.22130000  0.94130000  0.65830000  1.0 -0.0487937214
H  H85  1  0.27870000  0.15830000  0.44130000  1.0 -0.0487937214
H  H86  1  0.72130000  0.84170000  0.44130000  1.0 -0.0487937214
H  H87  1  0.27870000  0.84170000  0.55870000  1.0 -0.0487937214
H  H88  1  0.72130000  0.15830000  0.55870000  1.0 -0.0487937214
H  H89  1  0.15830000  0.55870000  0.72130000  1.0 -0.0487937214
H  H90  1  0.84170000  0.55870000  0.27870000  1.0 -0.0487937214
H  H91  1  0.84170000  0.44130000  0.72130000  1.0 -0.0487937214
H  H92  1  0.15830000  0.44130000  0.27870000  1.0 -0.0487937214
H  H93  1  0.55870000  0.27870000  0.84170000  1.0 -0.0487937214
H  H94  1  0.55870000  0.72130000  0.15830000  1.0 -0.0487937214
H  H95  1  0.44130000  0.27870000  0.15830000  1.0 -0.0487937214
H  H96  1  0.44130000  0.72130000  0.84170000  1.0 -0.0487937214
H  H97  1  0.34170000  0.22130000  0.94130000  1.0 -0.0487937214
H  H98  1  0.65830000  0.77870000  0.94130000  1.0 -0.0487937214
H  H99  1  0.65830000  0.22130000  0.05870000  1.0 -0.0487937214
H  H100  1  0.34170000  0.77870000  0.05870000  1.0 -0.0487937214
H  H101  1  0.94130000  0.34170000  0.22130000  1.0 -0.0487937214
H  H102  1  0.94130000  0.65830000  0.77870000  1.0 -0.0487937214
H  H103  1  0.05870000  0.65830000  0.22130000  1.0 -0.0487937214
H  H104  1  0.05870000  0.34170000  0.77870000  1.0 -0.0487937214
H  H105  1  0.22130000  0.94130000  0.34170000  1.0 -0.0487937214
H  H106  1  0.77870000  0.94130000  0.65830000  1.0 -0.0487937214
H  H107  1  0.22130000  0.05870000  0.65830000  1.0 -0.0487937214
H  H108  1  0.77870000  0.05870000  0.34170000  1.0 -0.0487937214
H  H109  1  0.72130000  0.84170000  0.55870000  1.0 -0.0487937214
H  H110  1  0.27870000  0.15830000  0.55870000  1.0 -0.0487937214
H  H111  1  0.72130000  0.15830000  0.44130000  1.0 -0.0487937214
H  H112  1  0.27870000  0.84170000  0.44130000  1.0 -0.0487937214
H  H113  1  0.84170000  0.44130000  0.27870000  1.0 -0.0487937214
H  H114  1  0.15830000  0.44130000  0.72130000  1.0 -0.0487937214
H  H115  1  0.15830000  0.55870000  0.27870000  1.0 -0.0487937214
H  H116  1  0.84170000  0.55870000  0.72130000  1.0 -0.0487937214
H  H117  1  0.44130000  0.72130000  0.15830000  1.0 -0.0487937214
H  H118  1  0.44130000  0.27870000  0.84170000  1.0 -0.0487937214
H  H119  1  0.55870000  0.72130000  0.84170000  1.0 -0.0487937214
H  H120  1  0.55870000  0.27870000  0.15830000  1.0 -0.0487937214
H  H121  1  0.58990000  0.82270000  0.12740000  1.0 -0.0487937214
H  H122  1  0.41010000  0.17730000  0.12740000  1.0 -0.0487937214
H  H123  1  0.41010000  0.82270000  0.87260000  1.0 -0.0487937214
H  H124  1  0.58990000  0.17730000  0.87260000  1.0 -0.0448517057
H  H125  1  0.12740000  0.58990000  0.82270000  1.0 -0.0487937214
H  H126  1  0.12740000  0.41010000  0.17730000  1.0 -0.0487937214
H  H127  1  0.87260000  0.41010000  0.82270000  1.0 -0.0487937214
H  H128  1  0.87260000  0.58990000  0.17730000  1.0 -0.0487937214
H  H129  1  0.82270000  0.12740000  0.58990000  1.0 -0.0487937214
H  H130  1  0.17730000  0.12740000  0.41010000  1.0 -0.0487937214
H  H131  1  0.82270000  0.87260000  0.41010000  1.0 -0.0487937214
H  H132  1  0.17730000  0.87260000  0.58990000  1.0 -0.0448517057
H  H133  1  0.32270000  0.08990000  0.37260000  1.0 -0.0487937214
H  H134  1  0.67730000  0.91010000  0.37260000  1.0 -0.0487937214
H  H135  1  0.32270000  0.91010000  0.62740000  1.0 -0.0487937214
H  H136  1  0.67730000  0.08990000  0.62740000  1.0 -0.0487937214
H  H137  1  0.08990000  0.62740000  0.67730000  1.0 -0.0487937214
H  H138  1  0.91010000  0.62740000  0.32270000  1.0 -0.0487937214
H  H139  1  0.91010000  0.37260000  0.67730000  1.0 -0.0487937214
H  H140  1  0.08990000  0.37260000  0.32270000  1.0 -0.0487937214
H  H141  1  0.62740000  0.32270000  0.91010000  1.0 -0.0487937214
H  H142  1  0.62740000  0.67730000  0.08990000  1.0 -0.0487937214
H  H143  1  0.37260000  0.32270000  0.08990000  1.0 -0.0487937214
H  H144  1  0.37260000  0.67730000  0.91010000  1.0 -0.0487937214
H  H145  1  0.41010000  0.17730000  0.87260000  1.0 -0.0487937214
H  H146  1  0.58990000  0.82270000  0.87260000  1.0 -0.0487937214
H  H147  1  0.58990000  0.17730000  0.12740000  1.0 -0.0487937214
H  H148  1  0.41010000  0.82270000  0.12740000  1.0 -0.0487937214
H  H149  1  0.87260000  0.41010000  0.17730000  1.0 -0.0487937214
H  H150  1  0.87260000  0.58990000  0.82270000  1.0 -0.0487937214
H  H151  1  0.12740000  0.58990000  0.17730000  1.0 -0.0487937214
H  H152  1  0.12740000  0.41010000  0.82270000  1.0 -0.0487937214
H  H153  1  0.17730000  0.87260000  0.41010000  1.0 -0.0487937214
H  H154  1  0.82270000  0.87260000  0.58990000  1.0 -0.0487937214
H  H155  1  0.17730000  0.12740000  0.58990000  1.0 -0.0487937214
H  H156  1  0.82270000  0.12740000  0.41010000  1.0 -0.0487937214
H  H157  1  0.67730000  0.91010000  0.62740000  1.0 -0.0487937214
H  H158  1  0.32270000  0.08990000  0.62740000  1.0 -0.0487937214
H  H159  1  0.67730000  0.08990000  0.37260000  1.0 -0.0487937214
H  H160  1  0.32270000  0.91010000  0.37260000  1.0 -0.0487937214
H  H161  1  0.91010000  0.37260000  0.32270000  1.0 -0.0487937214
H  H162  1  0.08990000  0.37260000  0.67730000  1.0 -0.0487937214
H  H163  1  0.08990000  0.62740000  0.32270000  1.0 -0.0487937214
H  H164  1  0.91010000  0.62740000  0.67730000  1.0 -0.0487937214
H  H165  1  0.37260000  0.67730000  0.08990000  1.0 -0.0487937214
H  H166  1  0.37260000  0.32270000  0.91010000  1.0 -0.0487937214
H  H167  1  0.62740000  0.67730000  0.91010000  1.0 -0.0487937214
H  H168  1  0.62740000  0.32270000  0.08990000  1.0 -0.0487937214
H  H169  1  0.68180000  0.82540000  0.15190000  1.0 -0.1364971377
H  H170  1  0.31820000  0.17460000  0.15190000  1.0 -0.1364971377
H  H171  1  0.31820000  0.82540000  0.84810000  1.0 -0.132507019
H  H172  1  0.68180000  0.17460000  0.84810000  1.0 -0.1364971377
H  H173  1  0.15190000  0.68180000  0.82540000  1.0 -0.1364971377
H  H174  1  0.15190000  0.31820000  0.17460000  1.0 -0.1364971377
H  H175  1  0.84810000  0.31820000  0.82540000  1.0 -0.132507019
H  H176  1  0.84810000  0.68180000  0.17460000  1.0 -0.1364971377
H  H177  1  0.82540000  0.15190000  0.68180000  1.0 -0.1364971377
H  H178  1  0.17460000  0.15190000  0.31820000  1.0 -0.1364971377
H  H179  1  0.82540000  0.84810000  0.31820000  1.0 -0.132507019
H  H180  1  0.17460000  0.84810000  0.68180000  1.0 -0.1364971377
H  H181  1  0.32540000  0.18180000  0.34810000  1.0 -0.132507019
H  H182  1  0.67460000  0.81820000  0.34810000  1.0 -0.1364971377
H  H183  1  0.32540000  0.81820000  0.65190000  1.0 -0.1364971377
H  H184  1  0.67460000  0.18180000  0.65190000  1.0 -0.1364971377
H  H185  1  0.18180000  0.65190000  0.67460000  1.0 -0.1364971377
H  H186  1  0.81820000  0.65190000  0.32540000  1.0 -0.1364971377
H  H187  1  0.81820000  0.34810000  0.67460000  1.0 -0.1364971377
H  H188  1  0.18180000  0.34810000  0.32540000  1.0 -0.132507019
H  H189  1  0.65190000  0.32540000  0.81820000  1.0 -0.1364971377
H  H190  1  0.65190000  0.67460000  0.18180000  1.0 -0.1364971377
H  H191  1  0.34810000  0.32540000  0.18180000  1.0 -0.132507019
H  H192  1  0.34810000  0.67460000  0.81820000  1.0 -0.1364971377
H  H193  1  0.31820000  0.17460000  0.84810000  1.0 -0.1364971377
H  H194  1  0.68180000  0.82540000  0.84810000  1.0 -0.132507019
H  H195  1  0.68180000  0.17460000  0.15190000  1.0 -0.1364971377
H  H196  1  0.31820000  0.82540000  0.15190000  1.0 -0.1364971377
H  H197  1  0.84810000  0.31820000  0.17460000  1.0 -0.1364971377
H  H198  1  0.84810000  0.68180000  0.82540000  1.0 -0.132507019
H  H199  1  0.15190000  0.68180000  0.17460000  1.0 -0.1364971377
H  H200  1  0.15190000  0.31820000  0.82540000  1.0 -0.1364971377
H  H201  1  0.17460000  0.84810000  0.31820000  1.0 -0.1364971377
H  H202  1  0.82540000  0.84810000  0.68180000  1.0 -0.132507019
H  H203  1  0.17460000  0.15190000  0.68180000  1.0 -0.1364971377
H  H204  1  0.82540000  0.15190000  0.31820000  1.0 -0.1364971377
H  H205  1  0.67460000  0.81820000  0.65190000  1.0 -0.1364971377
H  H206  1  0.32540000  0.18180000  0.65190000  1.0 -0.132507019
H  H207  1  0.67460000  0.18180000  0.34810000  1.0 -0.1364971377
H  H208  1  0.32540000  0.81820000  0.34810000  1.0 -0.1364971377
H  H209  1  0.81820000  0.34810000  0.32540000  1.0 -0.1364971377
H  H210  1  0.18180000  0.34810000  0.67460000  1.0 -0.1364971377
H  H211  1  0.18180000  0.65190000  0.32540000  1.0 -0.132507019
H  H212  1  0.81820000  0.65190000  0.67460000  1.0 -0.1364971377
H  H213  1  0.34810000  0.67460000  0.18180000  1.0 -0.1364971377
H  H214  1  0.34810000  0.32540000  0.81820000  1.0 -0.1364971377
H  H215  1  0.65190000  0.67460000  0.81820000  1.0 -0.1364971377
H  H216  1  0.65190000  0.32540000  0.18180000  1.0 -0.132507019
C  C1  1  0.59660000  0.75000000  0.09660000  1.0 -0.0955091668
C  C2  1  0.40340000  0.25000000  0.09660000  1.0 -0.0955091668
C  C3  1  0.40340000  0.75000000  0.90340000  1.0 -0.0936416182
C  C4  1  0.59660000  0.25000000  0.90340000  1.0 -0.0936416182
C  C5  1  0.09660000  0.59660000  0.75000000  1.0 -0.0936416182
C  C6  1  0.09660000  0.40340000  0.25000000  1.0 -0.0936416182
C  C7  1  0.90340000  0.40340000  0.75000000  1.0 -0.0936416182
C  C8  1  0.90340000  0.59660000  0.25000000  1.0 -0.0936416182
C  C9  1  0.75000000  0.09660000  0.59660000  1.0 -0.0955091668
C  C10  1  0.25000000  0.09660000  0.40340000  1.0 -0.0955091668
C  C11  1  0.75000000  0.90340000  0.40340000  1.0 -0.0936416182
C  C12  1  0.25000000  0.90340000  0.59660000  1.0 -0.0936416182
C  C13  1  0.40340000  0.25000000  0.90340000  1.0 -0.0936416182
C  C14  1  0.59660000  0.75000000  0.90340000  1.0 -0.0936416182
C  C15  1  0.59660000  0.25000000  0.09660000  1.0 -0.0955091668
C  C16  1  0.40340000  0.75000000  0.09660000  1.0 -0.0955091668
C  C17  1  0.90340000  0.40340000  0.25000000  1.0 -0.0955091668
C  C18  1  0.90340000  0.59660000  0.75000000  1.0 -0.0936416182
C  C19  1  0.09660000  0.59660000  0.25000000  1.0 -0.0936416182
C  C20  1  0.09660000  0.40340000  0.75000000  1.0 -0.0936416182
C  C21  1  0.25000000  0.90340000  0.40340000  1.0 -0.0936416182
C  C22  1  0.75000000  0.90340000  0.59660000  1.0 -0.0936416182
C  C23  1  0.25000000  0.09660000  0.59660000  1.0 -0.0955091668
C  C24  1  0.75000000  0.09660000  0.40340000  1.0 -0.0955091668
C  C25  1  0.67800000  0.75000000  0.17800000  1.0 0.1020064276
C  C26  1  0.32200000  0.25000000  0.17800000  1.0 0.1020064276
C  C27  1  0.32200000  0.75000000  0.82200000  1.0 0.1020064276
C  C28  1  0.67800000  0.25000000  0.82200000  1.0 0.1020064276
C  C29  1  0.17800000  0.67800000  0.75000000  1.0 0.1020064276
C  C30  1  0.17800000  0.32200000  0.25000000  1.0 0.1020064276
C  C31  1  0.82200000  0.32200000  0.75000000  1.0 0.1020064276
C  C32  1  0.82200000  0.67800000  0.25000000  1.0 0.1020064276
C  C33  1  0.75000000  0.17800000  0.67800000  1.0 0.1020064276
C  C34  1  0.25000000  0.17800000  0.32200000  1.0 0.1020064276
C  C35  1  0.75000000  0.82200000  0.32200000  1.0 0.1020064276
C  C36  1  0.25000000  0.82200000  0.67800000  1.0 0.1020064276
C  C37  1  0.32200000  0.25000000  0.82200000  1.0 0.1020064276
C  C38  1  0.67800000  0.75000000  0.82200000  1.0 0.1020064276
C  C39  1  0.67800000  0.25000000  0.17800000  1.0 0.1020064276
C  C40  1  0.32200000  0.75000000  0.17800000  1.0 0.1020064276
C  C41  1  0.82200000  0.32200000  0.25000000  1.0 0.1020064276
C  C42  1  0.82200000  0.67800000  0.75000000  1.0 0.1020064276
C  C43  1  0.17800000  0.67800000  0.25000000  1.0 0.1020064276
C  C44  1  0.17800000  0.32200000  0.75000000  1.0 0.1020064276
C  C45  1  0.25000000  0.82200000  0.32200000  1.0 0.1020064276
C  C46  1  0.75000000  0.82200000  0.67800000  1.0 0.1020064276
C  C47  1  0.25000000  0.17800000  0.67800000  1.0 0.1020064276
C  C48  1  0.75000000  0.17800000  0.32200000  1.0 0.1020064276
C  C49  1  0.56170000  0.75000000  0.06170000  1.0 0.6988777565
C  C50  1  0.43830000  0.25000000  0.06170000  1.0 0.6988777565
C  C51  1  0.43830000  0.75000000  0.93830000  1.0 0.6988777565
C  C52  1  0.56170000  0.25000000  0.93830000  1.0 0.6988777565
C  C53  1  0.06170000  0.56170000  0.75000000  1.0 0.6988777565
C  C54  1  0.06170000  0.43830000  0.25000000  1.0 0.6988777565
C  C55  1  0.93830000  0.43830000  0.75000000  1.0 0.6988777565
C  C56  1  0.93830000  0.56170000  0.25000000  1.0 0.6988777565
C  C57  1  0.75000000  0.06170000  0.56170000  1.0 0.6988777565
C  C58  1  0.25000000  0.06170000  0.43830000  1.0 0.6988777565
C  C59  1  0.75000000  0.93830000  0.43830000  1.0 0.6988777565
C  C60  1  0.25000000  0.93830000  0.56170000  1.0 0.6988777565
C  C61  1  0.43830000  0.25000000  0.93830000  1.0 0.6988777565
C  C62  1  0.56170000  0.75000000  0.93830000  1.0 0.6988777565
C  C63  1  0.56170000  0.25000000  0.06170000  1.0 0.6988777565
C  C64  1  0.43830000  0.75000000  0.06170000  1.0 0.6988777565
C  C65  1  0.93830000  0.43830000  0.25000000  1.0 0.6988777565
C  C66  1  0.93830000  0.56170000  0.75000000  1.0 0.6988777565
C  C67  1  0.06170000  0.56170000  0.25000000  1.0 0.6988777565
C  C68  1  0.06170000  0.43830000  0.75000000  1.0 0.6988777565
C  C69  1  0.25000000  0.93830000  0.43830000  1.0 0.6988777565
C  C70  1  0.75000000  0.93830000  0.56170000  1.0 0.6988777565
C  C71  1  0.25000000  0.06170000  0.56170000  1.0 0.6988777565
C  C72  1  0.75000000  0.06170000  0.43830000  1.0 0.6988777565
C  C73  1  0.71670000  0.75000000  0.21670000  1.0 0.1200775858
C  C74  1  0.28330000  0.25000000  0.21670000  1.0 0.1200775858
C  C75  1  0.28330000  0.75000000  0.78330000  1.0 0.1200775858
C  C76  1  0.71670000  0.25000000  0.78330000  1.0 0.1200775858
C  C77  1  0.21670000  0.71670000  0.75000000  1.0 0.1200775858
C  C78  1  0.21670000  0.28330000  0.25000000  1.0 0.1200775858
C  C79  1  0.78330000  0.28330000  0.75000000  1.0 0.1200775858
C  C80  1  0.78330000  0.71670000  0.25000000  1.0 0.1200775858
C  C81  1  0.75000000  0.21670000  0.71670000  1.0 0.1200775858
C  C82  1  0.25000000  0.21670000  0.28330000  1.0 0.1200775858
C  C83  1  0.75000000  0.78330000  0.28330000  1.0 0.1200775858
C  C84  1  0.25000000  0.78330000  0.71670000  1.0 0.1200775858
C  C85  1  0.28330000  0.25000000  0.78330000  1.0 0.1200775858
C  C86  1  0.71670000  0.75000000  0.78330000  1.0 0.1200775858
C  C87  1  0.71670000  0.25000000  0.21670000  1.0 0.1200775858
C  C88  1  0.28330000  0.75000000  0.21670000  1.0 0.1200775858
C  C89  1  0.78330000  0.28330000  0.25000000  1.0 0.1200775858
C  C90  1  0.78330000  0.71670000  0.75000000  1.0 0.1200775858
C  C91  1  0.21670000  0.71670000  0.25000000  1.0 0.1200775858
C  C92  1  0.21670000  0.28330000  0.75000000  1.0 0.1200775858
C  C93  1  0.25000000  0.78330000  0.28330000  1.0 0.1200775858
C  C94  1  0.75000000  0.78330000  0.71670000  1.0 0.1200775858
C  C95  1  0.25000000  0.21670000  0.71670000  1.0 0.1200775858
C  C96  1  0.75000000  0.21670000  0.28330000  1.0 0.1200775858
C  C97  1  0.71620000  0.78380000  0.25000000  1.0 -0.2199518957
C  C98  1  0.28380000  0.21620000  0.25000000  1.0 -0.2199518957
C  C99  1  0.28380000  0.78380000  0.75000000  1.0 -0.2199518957
C  C100  1  0.71620000  0.21620000  0.75000000  1.0 -0.2199518957
C  C101  1  0.25000000  0.71620000  0.78380000  1.0 -0.2199518957
C  C102  1  0.25000000  0.28380000  0.21620000  1.0 -0.2199518957
C  C103  1  0.75000000  0.28380000  0.78380000  1.0 -0.2199518957
C  C104  1  0.75000000  0.71620000  0.21620000  1.0 -0.2199518957
C  C105  1  0.78380000  0.25000000  0.71620000  1.0 -0.2199518957
C  C106  1  0.21620000  0.25000000  0.28380000  1.0 -0.2199518957
C  C107  1  0.78380000  0.75000000  0.28380000  1.0 -0.2199518957
C  C108  1  0.21620000  0.75000000  0.71620000  1.0 -0.2199518957
C  C109  1  0.28380000  0.21620000  0.75000000  1.0 -0.2199518957
C  C110  1  0.71620000  0.78380000  0.75000000  1.0 -0.2199518957
C  C111  1  0.71620000  0.21620000  0.25000000  1.0 -0.2199518957
C  C112  1  0.28380000  0.78380000  0.25000000  1.0 -0.2199518957
C  C113  1  0.75000000  0.28380000  0.21620000  1.0 -0.2199518957
C  C114  1  0.75000000  0.71620000  0.78380000  1.0 -0.2199518957
C  C115  1  0.25000000  0.71620000  0.21620000  1.0 -0.2199518957
C  C116  1  0.25000000  0.28380000  0.78380000  1.0 -0.2199518957
C  C117  1  0.21620000  0.75000000  0.28380000  1.0 -0.2199518957
C  C118  1  0.78380000  0.75000000  0.71620000  1.0 -0.2199518957
C  C119  1  0.21620000  0.25000000  0.71620000  1.0 -0.2199518957
C  C120  1  0.78380000  0.25000000  0.28380000  1.0 -0.2199518957
O  O1  1  0.54790000  0.71280000  0.04719000  1.0 -0.4564466926
O  O2  1  0.45210000  0.28720000  0.04719000  1.0 -0.4564466926
O  O3  1  0.45210000  0.71280000  0.95281000  1.0 -0.4564466926
O  O4  1  0.54790000  0.28720000  0.95281000  1.0 -0.4564466926
O  O5  1  0.04719000  0.54790000  0.71280000  1.0 -0.4564466926
O  O6  1  0.04719000  0.45210000  0.28720000  1.0 -0.4564466926
O  O7  1  0.95281000  0.45210000  0.71280000  1.0 -0.4564466926
O  O8  1  0.95281000  0.54790000  0.28720000  1.0 -0.4564466926
O  O9  1  0.71280000  0.04719000  0.54790000  1.0 -0.4564466926
O  O10  1  0.28720000  0.04719000  0.45210000  1.0 -0.4564466926
O  O11  1  0.71280000  0.95281000  0.45210000  1.0 -0.4564466926
O  O12  1  0.28720000  0.95281000  0.54790000  1.0 -0.4564466926
O  O13  1  0.21280000  0.04790000  0.45281000  1.0 -0.4564466926
O  O14  1  0.78720000  0.95210000  0.45281000  1.0 -0.4564466926
O  O15  1  0.21280000  0.95210000  0.54719000  1.0 -0.4564466926
O  O16  1  0.78720000  0.04790000  0.54719000  1.0 -0.4564466926
O  O17  1  0.04790000  0.54719000  0.78720000  1.0 -0.4564466926
O  O18  1  0.95210000  0.54719000  0.21280000  1.0 -0.4564466926
O  O19  1  0.95210000  0.45281000  0.78720000  1.0 -0.4564466926
O  O20  1  0.04790000  0.45281000  0.21280000  1.0 -0.4564466926
O  O21  1  0.54719000  0.21280000  0.95210000  1.0 -0.4564466926
O  O22  1  0.54719000  0.78720000  0.04790000  1.0 -0.4564466926
O  O23  1  0.45281000  0.21280000  0.04790000  1.0 -0.4564466926
O  O24  1  0.45281000  0.78720000  0.95210000  1.0 -0.4564466926
O  O25  1  0.45210000  0.28720000  0.95281000  1.0 -0.4564466926
O  O26  1  0.54790000  0.71280000  0.95281000  1.0 -0.4564466926
O  O27  1  0.54790000  0.28720000  0.04719000  1.0 -0.4564466926
O  O28  1  0.45210000  0.71280000  0.04719000  1.0 -0.4564466926
O  O29  1  0.95281000  0.45210000  0.28720000  1.0 -0.4564466926
O  O30  1  0.95281000  0.54790000  0.71280000  1.0 -0.4564466926
O  O31  1  0.04719000  0.54790000  0.28720000  1.0 -0.4564466926
O  O32  1  0.04719000  0.45210000  0.71280000  1.0 -0.4564466926
O  O33  1  0.28720000  0.95281000  0.45210000  1.0 -0.4564466926
O  O34  1  0.71280000  0.95281000  0.54790000  1.0 -0.4564466926
O  O35  1  0.28720000  0.04719000  0.54790000  1.0 -0.4564466926
O  O36  1  0.71280000  0.04719000  0.45210000  1.0 -0.4564466926
O  O37  1  0.78720000  0.95210000  0.54719000  1.0 -0.4564466926
O  O38  1  0.21280000  0.04790000  0.54719000  1.0 -0.4564466926
O  O39  1  0.78720000  0.04790000  0.45281000  1.0 -0.4564466926
O  O40  1  0.21280000  0.95210000  0.45281000  1.0 -0.4564466926
O  O41  1  0.95210000  0.45281000  0.21280000  1.0 -0.4564466926
O  O42  1  0.04790000  0.45281000  0.78720000  1.0 -0.4564466926
O  O43  1  0.04790000  0.54719000  0.21280000  1.0 -0.4564466926
O  O44  1  0.95210000  0.54719000  0.78720000  1.0 -0.4564466926
O  O45  1  0.45281000  0.78720000  0.04790000  1.0 -0.4564466926
O  O46  1  0.45281000  0.21280000  0.95210000  1.0 -0.4564466926
O  O47  1  0.54719000  0.78720000  0.95210000  1.0 -0.4564466926
O  O48  1  0.54719000  0.21280000  0.04790000  1.0 -0.4564466926
