# DDEC6 charges by PACMAN v1.1 (https://github.com/mtap-research/PACMAN-charge/)
data_RUFZOJ_ASR_pacman
_symmetry_space_group_name_H-M   'P 1'
_cell_length_a   22.74100000
_cell_length_b   22.74100000
_cell_length_c   30.38000000
_cell_angle_alpha   90.00000000
_cell_angle_beta   90.00000000
_cell_angle_gamma   120.00000000
_symmetry_Int_Tables_number   1
_chemical_formula_structural   Cu11H58C64(N3O4)6
_chemical_formula_sum   'Cu33 H174 C192 N54 O72'
_cell_volume   13606.22090194
_cell_formula_units_Z   3
loop_
 _symmetry_equiv_pos_site_id
 _symmetry_equiv_pos_as_xyz
  1  'x, y, z'
loop_
 _atom_site_type_symbol
 _atom_site_label
 _atom_site_symmetry_multiplicity
 _atom_site_fract_x
 _atom_site_fract_y
 _atom_site_fract_z
 _atom_site_occupancy
 _atom_site_charge
Cu  Cu1  1  0.82630000  0.29400000  0.11940000  1.0 0.4930109205
Cu  Cu2  1  0.70600000  0.53230000  0.78607000  1.0 0.4930109205
Cu  Cu3  1  0.46770000  0.17370000  0.45273000  1.0 0.4930109205
Cu  Cu4  1  0.29400000  0.82630000  0.88060000  1.0 0.4930109205
Cu  Cu5  1  0.17370000  0.46770000  0.54727000  1.0 0.4930109205
Cu  Cu6  1  0.53230000  0.70600000  0.21393000  1.0 0.4930109205
Cu  Cu7  1  0.81998000  0.43126000  0.13015000  1.0 0.7396254264
Cu  Cu8  1  0.56874000  0.38872000  0.79682000  1.0 0.7396254264
Cu  Cu9  1  0.61128000  0.18002000  0.46348000  1.0 0.7396254264
Cu  Cu10  1  0.43126000  0.81998000  0.86985000  1.0 0.7396254264
Cu  Cu11  1  0.18002000  0.61128000  0.53652000  1.0 0.7396254264
Cu  Cu12  1  0.38872000  0.56874000  0.20318000  1.0 0.7396254264
Cu  Cu13  1  0.67635000  0.27839000  0.13264000  1.0 0.7509985291
Cu  Cu14  1  0.72161000  0.39796000  0.79931000  1.0 0.7509985291
Cu  Cu15  1  0.60204000  0.32365000  0.46597000  1.0 0.7509985291
Cu  Cu16  1  0.27839000  0.67635000  0.86736000  1.0 0.7509985291
Cu  Cu17  1  0.32365000  0.60204000  0.53403000  1.0 0.7509985291
Cu  Cu18  1  0.39796000  0.72161000  0.20069000  1.0 0.7509985291
Cu  Cu19  1  0.10599000  0.51049000  0.17683000  1.0 0.8596534354
Cu  Cu20  1  0.48951000  0.59550000  0.84350000  1.0 0.8596534354
Cu  Cu21  1  0.40450000  0.89401000  0.51016000  1.0 0.8596534354
Cu  Cu22  1  0.51049000  0.10599000  0.82317000  1.0 0.8596534354
Cu  Cu23  1  0.89401000  0.40450000  0.48984000  1.0 0.8596534354
Cu  Cu24  1  0.59550000  0.48951000  0.15650000  1.0 0.8596534354
Cu  Cu25  1  0.63663000  0.00000000  0.16667000  1.0 0.797931733
Cu  Cu26  1  0.00000000  0.63663000  0.83333000  1.0 0.7913268231
Cu  Cu27  1  0.36337000  0.36337000  0.50000000  1.0 0.7913268231
Cu  Cu28  1  0.82870000  0.28950000  0.13600000  1.0 0.4353599273
Cu  Cu29  1  0.71050000  0.53920000  0.80267000  1.0 0.4344382309
Cu  Cu30  1  0.46080000  0.17130000  0.46933000  1.0 0.4344382309
Cu  Cu31  1  0.28950000  0.82870000  0.86400000  1.0 0.4344382309
Cu  Cu32  1  0.17130000  0.46080000  0.53067000  1.0 0.4344382309
Cu  Cu33  1  0.53920000  0.71050000  0.19733000  1.0 0.4353599273
H  H1  1  0.77950000  0.33210000  0.17830000  1.0 0.3573715958
H  H2  1  0.66790000  0.44740000  0.84497000  1.0 0.3573715958
H  H3  1  0.55260000  0.22050000  0.51163000  1.0 0.3573715958
H  H4  1  0.33210000  0.77950000  0.82170000  1.0 0.3573715958
H  H5  1  0.22050000  0.55260000  0.48837000  1.0 0.3573715958
H  H6  1  0.44740000  0.66790000  0.15503000  1.0 0.3573715958
H  H7  1  0.80160000  0.55940000  0.14700000  1.0 0.1494176765
H  H8  1  0.44060000  0.24220000  0.81367000  1.0 0.1494176765
H  H9  1  0.75780000  0.19840000  0.48033000  1.0 0.1494176765
H  H10  1  0.55940000  0.80160000  0.85300000  1.0 0.1494176765
H  H11  1  0.19840000  0.75780000  0.51967000  1.0 0.1494176765
H  H12  1  0.24220000  0.44060000  0.18633000  1.0 0.1494176765
H  H13  1  0.73860000  0.57000000  0.14690000  1.0 0.1494176765
H  H14  1  0.43000000  0.16860000  0.81357000  1.0 0.1494176765
H  H15  1  0.83140000  0.26140000  0.48023000  1.0 0.1494176765
H  H16  1  0.57000000  0.73860000  0.85310000  1.0 0.1494176765
H  H17  1  0.26140000  0.83140000  0.51977000  1.0 0.1494176765
H  H18  1  0.16860000  0.43000000  0.18643000  1.0 0.1494176765
H  H19  1  0.76920000  0.56300000  0.10230000  1.0 0.1584783289
H  H20  1  0.43700000  0.20620000  0.76897000  1.0 0.1584783289
H  H21  1  0.79380000  0.23080000  0.43563000  1.0 0.1584783289
H  H22  1  0.56300000  0.76920000  0.89770000  1.0 0.1584783289
H  H23  1  0.23080000  0.79380000  0.56437000  1.0 0.1584783289
H  H24  1  0.20620000  0.43700000  0.23103000  1.0 0.1584783289
H  H25  1  0.52310000  0.33890000  0.15800000  1.0 0.1584783289
H  H26  1  0.66110000  0.18420000  0.82467000  1.0 0.1584783289
H  H27  1  0.81580000  0.47690000  0.49133000  1.0 0.1584783289
H  H28  1  0.33890000  0.52310000  0.84200000  1.0 0.1584783289
H  H29  1  0.47690000  0.81580000  0.50867000  1.0 0.1584783289
H  H30  1  0.18420000  0.66110000  0.17533000  1.0 0.1584783289
H  H31  1  0.54390000  0.28290000  0.15520000  1.0 0.1494176765
H  H32  1  0.71710000  0.26100000  0.82187000  1.0 0.1494176765
H  H33  1  0.73900000  0.45610000  0.48853000  1.0 0.1494176765
H  H34  1  0.28290000  0.54390000  0.84480000  1.0 0.1494176765
H  H35  1  0.45610000  0.73900000  0.51147000  1.0 0.1494176765
H  H36  1  0.26100000  0.71710000  0.17813000  1.0 0.1494176765
H  H37  1  0.52580000  0.30860000  0.11220000  1.0 0.1494176765
H  H38  1  0.69140000  0.21720000  0.77887000  1.0 0.1494176765
H  H39  1  0.78280000  0.47420000  0.44553000  1.0 0.1494176765
H  H40  1  0.30860000  0.52580000  0.88780000  1.0 0.1494176765
H  H41  1  0.47420000  0.78280000  0.55447000  1.0 0.1494176765
H  H42  1  0.21720000  0.69140000  0.22113000  1.0 0.1494176765
H  H43  1  0.55880000  0.13670000  0.16220000  1.0 0.1494176765
H  H44  1  0.86330000  0.42210000  0.82887000  1.0 0.1494176765
H  H45  1  0.57790000  0.44120000  0.49553000  1.0 0.1494176765
H  H46  1  0.13670000  0.55880000  0.83780000  1.0 0.1494176765
H  H47  1  0.44120000  0.57790000  0.50447000  1.0 0.1494176765
H  H48  1  0.42210000  0.86330000  0.17113000  1.0 0.1494176765
H  H49  1  0.55530000  0.06880000  0.17670000  1.0 0.1494176765
H  H50  1  0.93120000  0.48650000  0.84337000  1.0 0.1494176765
H  H51  1  0.51350000  0.44470000  0.51003000  1.0 0.1494176765
H  H52  1  0.06880000  0.55530000  0.82330000  1.0 0.1494176765
H  H53  1  0.44470000  0.51350000  0.48997000  1.0 0.1494176765
H  H54  1  0.48650000  0.93120000  0.15663000  1.0 0.1494176765
H  H55  1  0.54430000  0.08040000  0.12720000  1.0 0.1584783289
H  H56  1  0.91960000  0.46390000  0.79387000  1.0 0.1584783289
H  H57  1  0.53610000  0.45570000  0.46053000  1.0 0.1584783289
H  H58  1  0.08040000  0.54430000  0.87280000  1.0 0.1584783289
H  H59  1  0.45570000  0.53610000  0.53947000  1.0 0.1584783289
H  H60  1  0.46390000  0.91960000  0.20613000  1.0 0.1584783289
H  H61  1  0.78770000  0.09140000  0.16320000  1.0 0.1494176765
H  H62  1  0.90860000  0.69630000  0.82987000  1.0 0.1494176765
H  H63  1  0.30370000  0.21230000  0.49653000  1.0 0.1494176765
H  H64  1  0.09140000  0.78770000  0.83680000  1.0 0.1494176765
H  H65  1  0.21230000  0.30370000  0.50347000  1.0 0.1494176765
H  H66  1  0.69630000  0.90860000  0.17013000  1.0 0.1494176765
H  H67  1  0.83910000  0.16690000  0.15030000  1.0 0.140427785
H  H68  1  0.83310000  0.67220000  0.81697000  1.0 0.140427785
H  H69  1  0.32780000  0.16090000  0.48363000  1.0 0.140427785
H  H70  1  0.16690000  0.83910000  0.84970000  1.0 0.140427785
H  H71  1  0.16090000  0.32780000  0.51637000  1.0 0.140427785
H  H72  1  0.67220000  0.83310000  0.18303000  1.0 0.140427785
H  H73  1  0.80300000  0.11200000  0.11350000  1.0 0.1584783289
H  H74  1  0.88800000  0.69100000  0.78017000  1.0 0.1584783289
H  H75  1  0.30900000  0.19700000  0.44683000  1.0 0.1584783289
H  H76  1  0.11200000  0.80300000  0.88650000  1.0 0.1584783289
H  H77  1  0.19700000  0.30900000  0.55317000  1.0 0.1584783289
H  H78  1  0.69100000  0.88800000  0.21983000  1.0 0.1584783289
H  H79  1  0.95830000  0.29810000  0.15670000  1.0 0.140427785
H  H80  1  0.70190000  0.66020000  0.82337000  1.0 0.140427785
H  H81  1  0.33980000  0.04170000  0.49003000  1.0 0.140427785
H  H82  1  0.29810000  0.95830000  0.84330000  1.0 0.140427785
H  H83  1  0.04170000  0.33980000  0.50997000  1.0 0.140427785
H  H84  1  0.66020000  0.70190000  0.17663000  1.0 0.140427785
H  H85  1  0.02160000  0.35310000  0.18270000  1.0 0.1494176765
H  H86  1  0.64690000  0.66850000  0.84937000  1.0 0.1494176765
H  H87  1  0.33150000  0.97840000  0.51603000  1.0 0.1494176765
H  H88  1  0.35310000  0.02160000  0.81730000  1.0 0.1494176765
H  H89  1  0.97840000  0.33150000  0.48397000  1.0 0.1494176765
H  H90  1  0.66850000  0.64690000  0.15063000  1.0 0.1494176765
H  H91  1  0.02560000  0.34670000  0.13150000  1.0 0.1494176765
H  H92  1  0.65330000  0.67890000  0.79817000  1.0 0.1494176765
H  H93  1  0.32110000  0.97440000  0.46483000  1.0 0.1494176765
H  H94  1  0.34670000  0.02560000  0.86850000  1.0 0.1494176765
H  H95  1  0.97440000  0.32110000  0.53517000  1.0 0.1494176765
H  H96  1  0.67890000  0.65330000  0.20183000  1.0 0.1494176765
H  H97  1  0.95190000  0.56280000  0.16040000  1.0 0.1494176765
H  H98  1  0.43720000  0.38910000  0.82707000  1.0 0.1494176765
H  H99  1  0.61090000  0.04810000  0.49373000  1.0 0.1494176765
H  H100  1  0.56280000  0.95190000  0.83960000  1.0 0.1494176765
H  H101  1  0.04810000  0.61090000  0.50627000  1.0 0.1494176765
H  H102  1  0.38910000  0.43720000  0.17293000  1.0 0.1494176765
H  H103  1  0.00660000  0.58030000  0.12360000  1.0 0.1584783289
H  H104  1  0.41970000  0.42630000  0.79027000  1.0 0.1584783289
H  H105  1  0.57370000  0.99340000  0.45693000  1.0 0.1584783289
H  H106  1  0.58030000  0.00660000  0.87640000  1.0 0.1584783289
H  H107  1  0.99340000  0.57370000  0.54307000  1.0 0.1584783289
H  H108  1  0.42630000  0.41970000  0.20973000  1.0 0.1584783289
H  H109  1  0.02550000  0.57990000  0.17320000  1.0 0.1494176765
H  H110  1  0.42010000  0.44560000  0.83987000  1.0 0.1494176765
H  H111  1  0.55440000  0.97450000  0.50653000  1.0 0.1494176765
H  H112  1  0.57990000  0.02550000  0.82680000  1.0 0.1494176765
H  H113  1  0.97450000  0.55440000  0.49347000  1.0 0.1494176765
H  H114  1  0.44560000  0.42010000  0.16013000  1.0 0.1494176765
H  H115  1  0.90790000  0.63540000  0.08030000  1.0 0.1262753113
H  H116  1  0.36460000  0.27250000  0.74697000  1.0 0.1235096222
H  H117  1  0.72750000  0.09210000  0.41363000  1.0 0.1235096222
H  H118  1  0.63540000  0.90790000  0.91970000  1.0 0.1235096222
H  H119  1  0.09210000  0.72750000  0.58637000  1.0 0.1235096222
H  H120  1  0.27250000  0.36460000  0.25303000  1.0 0.1235096222
H  H121  1  0.94910000  0.73520000  0.03930000  1.0 0.1106392534
H  H122  1  0.26480000  0.21390000  0.70597000  1.0 0.1106392534
H  H123  1  0.78610000  0.05090000  0.37263000  1.0 0.1106392534
H  H124  1  0.73520000  0.94910000  0.96070000  1.0 0.1106392534
H  H125  1  0.05090000  0.78610000  0.62737000  1.0 0.1106392534
H  H126  1  0.21390000  0.26480000  0.29403000  1.0 0.1106392534
H  H127  1  0.98000000  0.73580000  0.96530000  1.0 0.140427785
H  H128  1  0.26420000  0.24420000  0.63197000  1.0 0.140427785
H  H129  1  0.75580000  0.02000000  0.29863000  1.0 0.140427785
H  H130  1  0.73580000  0.98000000  0.03470000  1.0 0.140427785
H  H131  1  0.02000000  0.75580000  0.70137000  1.0 0.140427785
H  H132  1  0.24420000  0.26420000  0.36803000  1.0 0.140427785
H  H133  1  0.91190000  0.53750000  0.97140000  1.0 0.140427785
H  H134  1  0.46250000  0.37440000  0.63807000  1.0 0.140427785
H  H135  1  0.62560000  0.08810000  0.30473000  1.0 0.140427785
H  H136  1  0.53750000  0.91190000  0.02860000  1.0 0.140427785
H  H137  1  0.08810000  0.62560000  0.69527000  1.0 0.140427785
H  H138  1  0.37440000  0.46250000  0.36193000  1.0 0.140427785
H  H139  1  0.48010000  0.20100000  0.06390000  1.0 0.1235096222
H  H140  1  0.79900000  0.27910000  0.73057000  1.0 0.1235096222
H  H141  1  0.72090000  0.51990000  0.39723000  1.0 0.1235096222
H  H142  1  0.20100000  0.48010000  0.93610000  1.0 0.1235096222
H  H143  1  0.51990000  0.72090000  0.60277000  1.0 0.1235096222
H  H144  1  0.27910000  0.79900000  0.26943000  1.0 0.1235096222
H  H145  1  0.38880000  0.15000000  0.01480000  1.0 0.1106392534
H  H146  1  0.85000000  0.23880000  0.68147000  1.0 0.1106392534
H  H147  1  0.76120000  0.61120000  0.34813000  1.0 0.1106392534
H  H148  1  0.15000000  0.38880000  0.98520000  1.0 0.1106392534
H  H149  1  0.61120000  0.76120000  0.65187000  1.0 0.1106392534
H  H150  1  0.23880000  0.85000000  0.31853000  1.0 0.1106392534
H  H151  1  0.41190000  0.13390000  0.94160000  1.0 0.1262753113
H  H152  1  0.86610000  0.27800000  0.60827000  1.0 0.1262753113
H  H153  1  0.72200000  0.58810000  0.27493000  1.0 0.1262753113
H  H154  1  0.13390000  0.41190000  0.05840000  1.0 0.1262753113
H  H155  1  0.58810000  0.72200000  0.72507000  1.0 0.1262753113
H  H156  1  0.27800000  0.86610000  0.39173000  1.0 0.1262753113
H  H157  1  0.60600000  0.20550000  0.97150000  1.0 0.140427785
H  H158  1  0.79450000  0.40050000  0.63817000  1.0 0.140427785
H  H159  1  0.59950000  0.39400000  0.30483000  1.0 0.140427785
H  H160  1  0.20550000  0.60600000  0.02850000  1.0 0.140427785
H  H161  1  0.39400000  0.59950000  0.69517000  1.0 0.140427785
H  H162  1  0.40050000  0.79450000  0.36183000  1.0 0.140427785
H  H163  1  0.03690000  0.60330000  0.27010000  1.0 0.1262753113
H  H164  1  0.39670000  0.43360000  0.93677000  1.0 0.1262753113
H  H165  1  0.56640000  0.96310000  0.60343000  1.0 0.1262753113
H  H166  1  0.60330000  0.03690000  0.72990000  1.0 0.1262753113
H  H167  1  0.96310000  0.56640000  0.39657000  1.0 0.1262753113
H  H168  1  0.43360000  0.39670000  0.06323000  1.0 0.1262753113
H  H169  1  0.00000000  0.64000000  0.33333333  1.0 0.1235096222
H  H170  1  0.36000000  0.36000000  0.00000000  1.0 0.1235096222
H  H171  1  0.64000000  0.00000000  0.66666667  1.0 0.1235096222
H  H172  1  0.00000000  0.43510000  0.33333333  1.0 0.140427785
H  H173  1  0.56490000  0.56490000  0.00000000  1.0 0.140427785
H  H174  1  0.43510000  0.00000000  0.66666667  1.0 0.140427785
C  C1  1  0.75990000  0.54810000  0.13230000  1.0 -0.5202409517
C  C2  1  0.45190000  0.21180000  0.79897000  1.0 -0.5126123546
C  C3  1  0.78820000  0.24010000  0.46563000  1.0 -0.5126123546
C  C4  1  0.54810000  0.75990000  0.86770000  1.0 -0.5126123546
C  C5  1  0.24010000  0.78820000  0.53437000  1.0 -0.5126123546
C  C6  1  0.21180000  0.45190000  0.20103000  1.0 -0.5126123546
C  C7  1  0.71340000  0.47260000  0.13350000  1.0 0.3902462421
C  C8  1  0.52740000  0.24080000  0.80017000  1.0 0.3902462421
C  C9  1  0.75920000  0.28660000  0.46683000  1.0 0.3902462421
C  C10  1  0.47260000  0.71340000  0.86650000  1.0 0.3902462421
C  C11  1  0.28660000  0.75920000  0.53317000  1.0 0.3902462421
C  C12  1  0.24080000  0.52740000  0.19983000  1.0 0.3902462421
C  C13  1  0.62160000  0.37720000  0.13560000  1.0 0.4114649169
C  C14  1  0.62280000  0.24440000  0.80227000  1.0 0.4114649169
C  C15  1  0.75560000  0.37840000  0.46893000  1.0 0.4114649169
C  C16  1  0.37720000  0.62160000  0.86440000  1.0 0.4114649169
C  C17  1  0.37840000  0.75560000  0.53107000  1.0 0.4114649169
C  C18  1  0.24440000  0.62280000  0.19773000  1.0 0.4114649169
C  C19  1  0.54650000  0.32170000  0.14070000  1.0 -0.5126123546
C  C20  1  0.67830000  0.22480000  0.80737000  1.0 -0.5126123546
C  C21  1  0.77520000  0.45350000  0.47403000  1.0 -0.5126123546
C  C22  1  0.32170000  0.54650000  0.85930000  1.0 -0.5126123546
C  C23  1  0.45350000  0.77520000  0.52597000  1.0 -0.5126123546
C  C24  1  0.22480000  0.67830000  0.19263000  1.0 -0.5126123546
C  C25  1  0.56880000  0.10200000  0.15370000  1.0 -0.5301140587
C  C26  1  0.89800000  0.46680000  0.82037000  1.0 -0.5301140587
C  C27  1  0.53320000  0.43120000  0.48703000  1.0 -0.5301140587
C  C28  1  0.10200000  0.56880000  0.84630000  1.0 -0.5301140587
C  C29  1  0.43120000  0.53320000  0.51297000  1.0 -0.5301140587
C  C30  1  0.46680000  0.89800000  0.17963000  1.0 -0.5301140587
C  C31  1  0.64300000  0.13290000  0.14560000  1.0 0.3840840084
C  C32  1  0.86710000  0.51010000  0.81227000  1.0 0.3840840084
C  C33  1  0.48990000  0.35700000  0.47893000  1.0 0.3840840084
C  C34  1  0.13290000  0.64300000  0.85440000  1.0 0.3840840084
C  C35  1  0.35700000  0.48990000  0.52107000  1.0 0.3840840084
C  C36  1  0.51010000  0.86710000  0.18773000  1.0 0.3840840084
C  C37  1  0.74190000  0.14160000  0.14110000  1.0 0.3999769785
C  C38  1  0.85840000  0.60030000  0.80777000  1.0 0.3999769785
C  C39  1  0.39970000  0.25810000  0.47443000  1.0 0.3999769785
C  C40  1  0.14160000  0.74190000  0.85890000  1.0 0.3999769785
C  C41  1  0.25810000  0.39970000  0.52557000  1.0 0.3999769785
C  C42  1  0.60030000  0.85840000  0.19223000  1.0 0.3999769785
C  C43  1  0.79780000  0.12670000  0.14210000  1.0 -0.4906561385
C  C44  1  0.87330000  0.67110000  0.80877000  1.0 -0.4906561385
C  C45  1  0.32890000  0.20220000  0.47543000  1.0 -0.4906561385
C  C46  1  0.12670000  0.79780000  0.85790000  1.0 -0.4906561385
C  C47  1  0.20220000  0.32890000  0.52457000  1.0 -0.4906561385
C  C48  1  0.67110000  0.87330000  0.19123000  1.0 -0.4906561385
C  C49  1  0.99670000  0.34330000  0.15560000  1.0 -0.5005555925
C  C50  1  0.65670000  0.65340000  0.82227000  1.0 -0.5005555925
C  C51  1  0.34660000  0.00330000  0.48893000  1.0 -0.5005555925
C  C52  1  0.34330000  0.99670000  0.84440000  1.0 -0.5005555925
C  C53  1  0.00330000  0.34660000  0.51107000  1.0 -0.5005555925
C  C54  1  0.65340000  0.65670000  0.17773000  1.0 -0.5005555925
C  C55  1  0.97230000  0.39360000  0.14910000  1.0 0.3902462421
C  C56  1  0.60640000  0.57870000  0.81577000  1.0 0.3902462421
C  C57  1  0.42130000  0.02770000  0.48243000  1.0 0.3902462421
C  C58  1  0.39360000  0.97230000  0.85090000  1.0 0.3902462421
C  C59  1  0.02770000  0.42130000  0.51757000  1.0 0.3902462421
C  C60  1  0.57870000  0.60640000  0.18423000  1.0 0.3902462421
C  C61  1  0.96920000  0.48480000  0.14790000  1.0 0.3999769785
C  C62  1  0.51520000  0.48440000  0.81457000  1.0 0.3999769785
C  C63  1  0.51560000  0.03080000  0.48123000  1.0 0.3999769785
C  C64  1  0.48480000  0.96920000  0.85210000  1.0 0.3999769785
C  C65  1  0.03080000  0.51560000  0.51877000  1.0 0.3999769785
C  C66  1  0.48440000  0.51520000  0.18543000  1.0 0.3999769785
C  C67  1  0.99020000  0.55860000  0.15160000  1.0 -0.5301140587
C  C68  1  0.44140000  0.43160000  0.81827000  1.0 -0.5301140587
C  C69  1  0.56840000  0.00980000  0.48493000  1.0 -0.5301140587
C  C70  1  0.55860000  0.99020000  0.84840000  1.0 -0.5301140587
C  C71  1  0.00980000  0.56840000  0.51507000  1.0 -0.5301140587
C  C72  1  0.43160000  0.44140000  0.18173000  1.0 -0.5301140587
C  C73  1  0.87090000  0.50990000  0.05490000  1.0 0.5249782227
C  C74  1  0.49010000  0.36100000  0.72157000  1.0 0.5249782227
C  C75  1  0.63900000  0.12910000  0.38823000  1.0 0.5249782227
C  C76  1  0.50990000  0.87090000  0.94510000  1.0 0.5271912836
C  C77  1  0.12910000  0.63900000  0.61177000  1.0 0.5271912836
C  C78  1  0.36100000  0.49010000  0.27843000  1.0 0.5249782227
C  C79  1  0.90190000  0.57540000  0.02980000  1.0 -0.0108319183
C  C80  1  0.42460000  0.32650000  0.69647000  1.0 -0.0108319183
C  C81  1  0.67350000  0.09810000  0.36313000  1.0 -0.0108319183
C  C82  1  0.57540000  0.90190000  0.97020000  1.0 -0.0108319183
C  C83  1  0.09810000  0.67350000  0.63687000  1.0 -0.0108319183
C  C84  1  0.32650000  0.42460000  0.30353000  1.0 -0.0108319183
C  C85  1  0.91610000  0.63520000  0.05030000  1.0 -0.1157556253
C  C86  1  0.36480000  0.28090000  0.71697000  1.0 -0.1157556253
C  C87  1  0.71910000  0.08390000  0.38363000  1.0 -0.1157556253
C  C88  1  0.63520000  0.91610000  0.94970000  1.0 -0.1157556253
C  C89  1  0.08390000  0.71910000  0.61637000  1.0 -0.1157556253
C  C90  1  0.28090000  0.36480000  0.28303000  1.0 -0.1157556253
C  C91  1  0.94300000  0.69560000  0.02610000  1.0 -0.1002266118
C  C92  1  0.30440000  0.24740000  0.69277000  1.0 -0.1002266118
C  C93  1  0.75260000  0.05700000  0.35943000  1.0 -0.1002266118
C  C94  1  0.69560000  0.94300000  0.97390000  1.0 -0.1002266118
C  C95  1  0.05700000  0.75260000  0.64057000  1.0 -0.1002266118
C  C96  1  0.24740000  0.30440000  0.30723000  1.0 -0.1002266118
C  C97  1  0.96040000  0.69590000  0.98160000  1.0 -0.1002266118
C  C98  1  0.30410000  0.26450000  0.64827000  1.0 -0.1002266118
C  C99  1  0.73550000  0.03960000  0.31493000  1.0 -0.1002266118
C  C100  1  0.69590000  0.96040000  0.01840000  1.0 -0.1002266118
C  C101  1  0.03960000  0.73550000  0.68507000  1.0 -0.1002266118
C  C102  1  0.26450000  0.30410000  0.35173000  1.0 -0.1002266118
C  C103  1  0.94770000  0.63530000  0.96270000  1.0 0.0159211461
C  C104  1  0.36470000  0.31240000  0.62937000  1.0 0.0159211461
C  C105  1  0.68760000  0.05230000  0.29603000  1.0 0.0159211461
C  C106  1  0.63530000  0.94770000  0.03730000  1.0 0.0159211461
C  C107  1  0.05230000  0.68760000  0.70397000  1.0 0.0159211461
C  C108  1  0.31240000  0.36470000  0.37063000  1.0 0.0159211461
C  C109  1  0.91980000  0.57720000  0.98520000  1.0 -0.1096637334
C  C110  1  0.42280000  0.34260000  0.65187000  1.0 -0.1096637334
C  C111  1  0.65740000  0.08020000  0.31853000  1.0 -0.1096637334
C  C112  1  0.57720000  0.91980000  0.01480000  1.0 -0.1096637334
C  C113  1  0.08020000  0.65740000  0.68147000  1.0 -0.1096637334
C  C114  1  0.34260000  0.42280000  0.34813000  1.0 -0.1096637334
C  C115  1  0.96440000  0.62800000  0.91270000  1.0 0.5011597
C  C116  1  0.37200000  0.33640000  0.57937000  1.0 0.5011597
C  C117  1  0.66360000  0.03560000  0.24603000  1.0 0.5011597
C  C118  1  0.62800000  0.96440000  0.08730000  1.0 0.5011597
C  C119  1  0.03560000  0.66360000  0.75397000  1.0 0.5011597
C  C120  1  0.33640000  0.37200000  0.42063000  1.0 0.5011597
C  C121  1  0.60900000  0.23500000  0.05480000  1.0 0.5393457287
C  C122  1  0.76500000  0.37400000  0.72147000  1.0 0.5393457287
C  C123  1  0.62600000  0.39100000  0.38813000  1.0 0.5393457287
C  C124  1  0.23500000  0.60900000  0.94520000  1.0 0.5393457287
C  C125  1  0.39100000  0.62600000  0.61187000  1.0 0.5393457287
C  C126  1  0.37400000  0.76500000  0.27853000  1.0 0.5393457287
C  C127  1  0.54920000  0.20410000  0.02270000  1.0 -0.0108319183
C  C128  1  0.79590000  0.34510000  0.68937000  1.0 -0.0108319183
C  C129  1  0.65490000  0.45080000  0.35603000  1.0 -0.0108319183
C  C130  1  0.20410000  0.54920000  0.97730000  1.0 -0.0108319183
C  C131  1  0.45080000  0.65490000  0.64397000  1.0 -0.0108319183
C  C132  1  0.34510000  0.79590000  0.31063000  1.0 -0.0108319183
C  C133  1  0.48680000  0.19070000  0.03530000  1.0 -0.1002266118
C  C134  1  0.80930000  0.29610000  0.70197000  1.0 -0.1002266118
C  C135  1  0.70390000  0.51320000  0.36863000  1.0 -0.1002266118
C  C136  1  0.19070000  0.48680000  0.96470000  1.0 -0.1002266118
C  C137  1  0.51320000  0.70390000  0.63137000  1.0 -0.1002266118
C  C138  1  0.29610000  0.80930000  0.29803000  1.0 -0.1002266118
C  C139  1  0.43250000  0.16160000  0.00600000  1.0 -0.1002266118
C  C140  1  0.83840000  0.27090000  0.67267000  1.0 -0.1002266118
C  C141  1  0.72910000  0.56750000  0.33933000  1.0 -0.1002266118
C  C142  1  0.16160000  0.43250000  0.99400000  1.0 -0.1002266118
C  C143  1  0.56750000  0.72910000  0.66067000  1.0 -0.1002266118
C  C144  1  0.27090000  0.83840000  0.32733000  1.0 -0.1002266118
C  C145  1  0.44650000  0.15050000  0.96240000  1.0 -0.0908932047
C  C146  1  0.84950000  0.29600000  0.62907000  1.0 -0.0908932047
C  C147  1  0.70400000  0.55350000  0.29573000  1.0 -0.0908932047
C  C148  1  0.15050000  0.44650000  0.03760000  1.0 -0.0908932047
C  C149  1  0.55350000  0.70400000  0.70427000  1.0 -0.0908932047
C  C150  1  0.29600000  0.84950000  0.37093000  1.0 -0.0908932047
C  C151  1  0.51020000  0.16360000  0.95000000  1.0 -0.0108319183
C  C152  1  0.83640000  0.34660000  0.61667000  1.0 -0.0108319183
C  C153  1  0.65340000  0.48980000  0.28333000  1.0 -0.0108319183
C  C154  1  0.16360000  0.51020000  0.05000000  1.0 -0.0108319183
C  C155  1  0.48980000  0.65340000  0.71667000  1.0 -0.0108319183
C  C156  1  0.34660000  0.83640000  0.38333000  1.0 -0.0108319183
C  C157  1  0.56190000  0.19300000  0.98000000  1.0 -0.1002266118
C  C158  1  0.80700000  0.36890000  0.64667000  1.0 -0.1002266118
C  C159  1  0.63110000  0.43810000  0.31333000  1.0 -0.1002266118
C  C160  1  0.19300000  0.56190000  0.02000000  1.0 -0.1002266118
C  C161  1  0.43810000  0.63110000  0.68667000  1.0 -0.1002266118
C  C162  1  0.36890000  0.80700000  0.35333000  1.0 -0.1002266118
C  C163  1  0.52420000  0.14710000  0.90440000  1.0 0.5271912836
C  C164  1  0.85290000  0.37710000  0.57107000  1.0 0.5271912836
C  C165  1  0.62290000  0.47580000  0.23773000  1.0 0.5271912836
C  C166  1  0.14710000  0.52420000  0.09560000  1.0 0.5271912836
C  C167  1  0.47580000  0.62290000  0.76227000  1.0 0.5271912836
C  C168  1  0.37710000  0.85290000  0.42893000  1.0 0.5271912836
C  C169  1  0.05320000  0.49890000  0.25790000  1.0 0.5393457287
C  C170  1  0.50110000  0.55430000  0.92457000  1.0 0.5393457287
C  C171  1  0.44570000  0.94680000  0.59123000  1.0 0.5393457287
C  C172  1  0.49890000  0.05320000  0.74210000  1.0 0.5393457287
C  C173  1  0.94680000  0.44570000  0.40877000  1.0 0.5393457287
C  C174  1  0.55430000  0.50110000  0.07543000  1.0 0.5393457287
C  C175  1  0.02580000  0.51920000  0.29730000  1.0 -0.0108319183
C  C176  1  0.48080000  0.50660000  0.96397000  1.0 -0.0108319183
C  C177  1  0.49340000  0.97420000  0.63063000  1.0 -0.0108319183
C  C178  1  0.51920000  0.02580000  0.70270000  1.0 -0.0108319183
C  C179  1  0.97420000  0.49340000  0.36937000  1.0 -0.0108319183
C  C180  1  0.50660000  0.48080000  0.03603000  1.0 -0.0108319183
C  C181  1  0.02340000  0.57720000  0.29560000  1.0 -0.0908932047
C  C182  1  0.42280000  0.44620000  0.96227000  1.0 -0.0908932047
C  C183  1  0.55380000  0.97660000  0.62893000  1.0 -0.0908932047
C  C184  1  0.57720000  0.02340000  0.70440000  1.0 -0.0908932047
C  C185  1  0.97660000  0.55380000  0.37107000  1.0 -0.0908932047
C  C186  1  0.44620000  0.42280000  0.03773000  1.0 -0.0908932047
C  C187  1  0.00000000  0.59910000  0.33333333  1.0 -0.1096637334
C  C188  1  0.40090000  0.40090000  0.00000000  1.0 -0.1096637334
C  C189  1  0.59910000  0.00000000  0.66666667  1.0 -0.1096637334
C  C190  1  0.00000000  0.47600000  0.33333333  1.0 -0.0908932047
C  C191  1  0.52400000  0.52400000  0.00000000  1.0 -0.0908932047
C  C192  1  0.47600000  0.00000000  0.66666667  1.0 -0.0908932047
N  N1  1  0.73080000  0.42540000  0.12930000  1.0 -0.2738005099
N  N2  1  0.57460000  0.30540000  0.79597000  1.0 -0.2738005099
N  N3  1  0.69460000  0.26920000  0.46263000  1.0 -0.2738005099
N  N4  1  0.42540000  0.73080000  0.87070000  1.0 -0.2738005099
N  N5  1  0.26920000  0.69460000  0.53737000  1.0 -0.2738005099
N  N6  1  0.30540000  0.57460000  0.20403000  1.0 -0.2738005099
N  N7  1  0.67330000  0.36490000  0.13180000  1.0 -0.2864533878
N  N8  1  0.63510000  0.30840000  0.79847000  1.0 -0.2864533878
N  N9  1  0.69160000  0.32670000  0.46513000  1.0 -0.2864533878
N  N10  1  0.36490000  0.67330000  0.86820000  1.0 -0.2864533878
N  N11  1  0.32670000  0.69160000  0.53487000  1.0 -0.2864533878
N  N12  1  0.30840000  0.63510000  0.20153000  1.0 -0.2864533878
N  N13  1  0.64440000  0.44330000  0.13770000  1.0 -0.429261404
N  N14  1  0.55670000  0.20110000  0.80437000  1.0 -0.429261404
N  N15  1  0.79890000  0.35560000  0.47103000  1.0 -0.429261404
N  N16  1  0.44330000  0.64440000  0.86230000  1.0 -0.429261404
N  N17  1  0.35560000  0.79890000  0.52897000  1.0 -0.429261404
N  N18  1  0.20110000  0.55670000  0.19563000  1.0 -0.429261404
N  N19  1  0.68530000  0.19540000  0.13420000  1.0 -0.2864533878
N  N20  1  0.80460000  0.48990000  0.80087000  1.0 -0.2844977952
N  N21  1  0.51010000  0.31470000  0.46753000  1.0 -0.2864533878
N  N22  1  0.19540000  0.68530000  0.86580000  1.0 -0.2864533878
N  N23  1  0.31470000  0.51010000  0.53247000  1.0 -0.2844977952
N  N24  1  0.48990000  0.80460000  0.19913000  1.0 -0.2844977952
N  N25  1  0.74920000  0.20330000  0.13270000  1.0 -0.2285710789
N  N26  1  0.79670000  0.54590000  0.79937000  1.0 -0.2285710789
N  N27  1  0.45410000  0.25080000  0.46603000  1.0 -0.2218570537
N  N28  1  0.20330000  0.74920000  0.86730000  1.0 -0.2285710789
N  N29  1  0.25080000  0.45410000  0.53397000  1.0 -0.2285710789
N  N30  1  0.54590000  0.79670000  0.20063000  1.0 -0.2285710789
N  N31  1  0.67820000  0.09750000  0.14830000  1.0 -0.4002610174
N  N32  1  0.90250000  0.58070000  0.81497000  1.0 -0.4002610174
N  N33  1  0.41930000  0.32180000  0.48163000  1.0 -0.4002610174
N  N34  1  0.09750000  0.67820000  0.85170000  1.0 -0.4002610174
N  N35  1  0.32180000  0.41930000  0.51837000  1.0 -0.4002610174
N  N36  1  0.58070000  0.90250000  0.18503000  1.0 -0.4002610174
N  N37  1  0.91080000  0.37720000  0.13630000  1.0 -0.2218570537
N  N38  1  0.62280000  0.53360000  0.80297000  1.0 -0.2218570537
N  N39  1  0.46640000  0.08920000  0.46963000  1.0 -0.2218570537
N  N40  1  0.37720000  0.91080000  0.86370000  1.0 -0.2218570537
N  N41  1  0.08920000  0.46640000  0.53037000  1.0 -0.2218570537
N  N42  1  0.53360000  0.62280000  0.19703000  1.0 -0.2218570537
N  N43  1  0.90840000  0.43580000  0.13660000  1.0 -0.2864533878
N  N44  1  0.56420000  0.47260000  0.80327000  1.0 -0.2864533878
N  N45  1  0.52740000  0.09160000  0.46993000  1.0 -0.2864533878
N  N46  1  0.43580000  0.90840000  0.86340000  1.0 -0.2864533878
N  N47  1  0.09160000  0.52740000  0.53007000  1.0 -0.2864533878
N  N48  1  0.47260000  0.56420000  0.19673000  1.0 -0.2864533878
N  N49  1  0.01100000  0.46170000  0.15690000  1.0 -0.4107638972
N  N50  1  0.53830000  0.54930000  0.82357000  1.0 -0.4107638972
N  N51  1  0.45070000  0.98900000  0.49023000  1.0 -0.4107638972
N  N52  1  0.46170000  0.01100000  0.84310000  1.0 -0.4107638972
N  N53  1  0.98900000  0.45070000  0.50977000  1.0 -0.4107638972
N  N54  1  0.54930000  0.53830000  0.17643000  1.0 -0.4107638972
O  O1  1  0.77550000  0.33350000  0.14980000  1.0 -0.671893197
O  O2  1  0.66650000  0.44200000  0.81647000  1.0 -0.671893197
O  O3  1  0.55800000  0.22450000  0.48313000  1.0 -0.671893197
O  O4  1  0.33350000  0.77550000  0.85020000  1.0 -0.671893197
O  O5  1  0.22450000  0.55800000  0.51687000  1.0 -0.671893197
O  O6  1  0.44200000  0.66650000  0.18353000  1.0 -0.671893197
O  O7  1  0.85880000  0.51360000  0.09500000  1.0 -0.5202409517
O  O8  1  0.48640000  0.34520000  0.76167000  1.0 -0.5202409517
O  O9  1  0.65480000  0.14120000  0.42833000  1.0 -0.5202409517
O  O10  1  0.51360000  0.85880000  0.90500000  1.0 -0.5202409517
O  O11  1  0.14120000  0.65480000  0.57167000  1.0 -0.5202409517
O  O12  1  0.34520000  0.48640000  0.23833000  1.0 -0.5202409517
O  O13  1  0.85730000  0.45800000  0.03620000  1.0 -0.4569818802
O  O14  1  0.54200000  0.39930000  0.70287000  1.0 -0.4569818802
O  O15  1  0.60070000  0.14270000  0.36953000  1.0 -0.4518099901
O  O16  1  0.45800000  0.85730000  0.96380000  1.0 -0.4569818802
O  O17  1  0.14270000  0.60070000  0.63047000  1.0 -0.4569818802
O  O18  1  0.39930000  0.54200000  0.29713000  1.0 -0.4569818802
O  O19  1  0.97670000  0.68270000  0.89020000  1.0 -0.5394414207
O  O20  1  0.31730000  0.29400000  0.55687000  1.0 -0.5394414207
O  O21  1  0.70600000  0.02330000  0.22353000  1.0 -0.5394414207
O  O22  1  0.68270000  0.97670000  0.10980000  1.0 -0.5394414207
O  O23  1  0.02330000  0.70600000  0.77647000  1.0 -0.5394414207
O  O24  1  0.29400000  0.31730000  0.44313000  1.0 -0.5394414207
O  O25  1  0.97130000  0.58560000  0.89980000  1.0 -0.4107638972
O  O26  1  0.41440000  0.38570000  0.56647000  1.0 -0.4107638972
O  O27  1  0.61430000  0.02870000  0.23313000  1.0 -0.4107638972
O  O28  1  0.58560000  0.97130000  0.10020000  1.0 -0.4107638972
O  O29  1  0.02870000  0.61430000  0.76687000  1.0 -0.4107638972
O  O30  1  0.38570000  0.41440000  0.43353000  1.0 -0.4107638972
O  O31  1  0.59540000  0.23280000  0.09590000  1.0 -0.5301140587
O  O32  1  0.76720000  0.36260000  0.76257000  1.0 -0.5301140587
O  O33  1  0.63740000  0.40460000  0.42923000  1.0 -0.5301140587
O  O34  1  0.23280000  0.59540000  0.90410000  1.0 -0.5301140587
O  O35  1  0.40460000  0.63740000  0.57077000  1.0 -0.5301140587
O  O36  1  0.36260000  0.76720000  0.23743000  1.0 -0.5301140587
O  O37  1  0.66800000  0.26050000  0.04110000  1.0 -0.4835313288
O  O38  1  0.73950000  0.40750000  0.70777000  1.0 -0.4835313288
O  O39  1  0.59250000  0.33200000  0.37443000  1.0 -0.4835313288
O  O40  1  0.26050000  0.66800000  0.95890000  1.0 -0.4835313288
O  O41  1  0.33200000  0.59250000  0.62557000  1.0 -0.4835313288
O  O42  1  0.40750000  0.73950000  0.29223000  1.0 -0.4835313288
O  O43  1  0.47670000  0.13080000  0.87590000  1.0 -0.5126123546
O  O44  1  0.86920000  0.34590000  0.54257000  1.0 -0.5126123546
O  O45  1  0.65410000  0.52330000  0.20923000  1.0 -0.5126123546
O  O46  1  0.13080000  0.47670000  0.12410000  1.0 -0.5126123546
O  O47  1  0.52330000  0.65410000  0.79077000  1.0 -0.5126123546
O  O48  1  0.34590000  0.86920000  0.45743000  1.0 -0.5126123546
O  O49  1  0.57810000  0.14900000  0.89600000  1.0 -0.4906561385
O  O50  1  0.85100000  0.42910000  0.56267000  1.0 -0.4906561385
O  O51  1  0.57090000  0.42190000  0.22933000  1.0 -0.4906561385
O  O52  1  0.14900000  0.57810000  0.10400000  1.0 -0.4906561385
O  O53  1  0.42190000  0.57090000  0.77067000  1.0 -0.4906561385
O  O54  1  0.42910000  0.85100000  0.43733000  1.0 -0.4906561385
O  O55  1  0.08000000  0.54600000  0.22800000  1.0 -0.5394414207
O  O56  1  0.45400000  0.53400000  0.89467000  1.0 -0.5301140587
O  O57  1  0.46600000  0.92000000  0.56133000  1.0 -0.5394414207
O  O58  1  0.54600000  0.08000000  0.77200000  1.0 -0.5394414207
O  O59  1  0.92000000  0.46600000  0.43867000  1.0 -0.5394414207
O  O60  1  0.53400000  0.45400000  0.10533000  1.0 -0.5394414207
O  O61  1  0.04720000  0.44230000  0.25540000  1.0 -0.4906561385
O  O62  1  0.55770000  0.60490000  0.92207000  1.0 -0.4906561385
O  O63  1  0.39510000  0.95280000  0.58873000  1.0 -0.4906561385
O  O64  1  0.44230000  0.04720000  0.74460000  1.0 -0.4906561385
O  O65  1  0.95280000  0.39510000  0.41127000  1.0 -0.4906561385
O  O66  1  0.60490000  0.55770000  0.07793000  1.0 -0.4906561385
O  O67  1  0.87570000  0.25730000  0.08690000  1.0 -0.4518099901
O  O68  1  0.74270000  0.61840000  0.75357000  1.0 -0.4518099901
O  O69  1  0.38160000  0.12430000  0.42023000  1.0 -0.4569818802
O  O70  1  0.25730000  0.87570000  0.91310000  1.0 -0.4518099901
O  O71  1  0.12430000  0.38160000  0.57977000  1.0 -0.4518099901
O  O72  1  0.61840000  0.74270000  0.24643000  1.0 -0.4518099901
