# DDEC6 charges by PACMAN v1.1 (https://github.com/mtap-research/PACMAN-charge/)
data_RUFZID_FSR_pacman
_symmetry_space_group_name_H-M   'P 1'
_cell_length_a   17.54100000
_cell_length_b   17.54100000
_cell_length_c   15.83600000
_cell_angle_alpha   79.74550000
_cell_angle_beta   100.25400000
_cell_angle_gamma   102.25500000
_symmetry_Int_Tables_number   1
_chemical_formula_structural   Cu5H39C36N9O17
_chemical_formula_sum   'Cu10 H78 C72 N18 O34'
_cell_volume   4635.35244454
_cell_formula_units_Z   2
loop_
 _symmetry_equiv_pos_site_id
 _symmetry_equiv_pos_as_xyz
  1  'x, y, z'
loop_
 _atom_site_type_symbol
 _atom_site_label
 _atom_site_symmetry_multiplicity
 _atom_site_fract_x
 _atom_site_fract_y
 _atom_site_fract_z
 _atom_site_occupancy
 _atom_site_charge
Cu  Cu1  1  0.76073000  0.23927000  0.15109000  1.0 0.779609382
Cu  Cu2  1  0.23927000  0.76073000  0.84891000  1.0 0.779609382
Cu  Cu3  1  0.76521000  0.38651000  0.24714000  1.0 0.7935075758
Cu  Cu4  1  0.38651000  0.76521000  0.75286000  1.0 0.7935075758
Cu  Cu5  1  0.23479000  0.61349000  0.75286000  1.0 0.7935075758
Cu  Cu6  1  0.61349000  0.23479000  0.24714000  1.0 0.7935075758
Cu  Cu7  1  0.53818000  0.46182000  0.45797000  1.0 0.8254657982
Cu  Cu8  1  0.46182000  0.53818000  0.54203000  1.0 0.8254657982
Cu  Cu9  1  0.00000000  0.50000000  0.00000000  1.0 0.8074906169
Cu  Cu10  1  0.50000000  0.00000000  0.00000000  1.0 0.8074906169
H  H1  1  0.66666667  0.33333333  0.13700000  1.0 0.3804249549
H  H2  1  0.33333333  0.66666667  0.86300000  1.0 0.3804249549
H  H3  1  0.86330000  0.13670000  0.18290000  1.0 0.4083429871
H  H4  1  0.13670000  0.86330000  0.81710000  1.0 0.4083429871
H  H5  1  0.82960000  0.17040000  0.09780000  1.0 0.3596460296
H  H6  1  0.17040000  0.82960000  0.90220000  1.0 0.3596460296
H  H7  1  0.75290000  0.53370000  0.13690000  1.0 0.3676220773
H  H8  1  0.53370000  0.75290000  0.86310000  1.0 0.3676220773
H  H9  1  0.24710000  0.46630000  0.86310000  1.0 0.3676220773
H  H10  1  0.46630000  0.24710000  0.13690000  1.0 0.3676220773
H  H11  1  0.66980000  0.49940000  0.11910000  1.0 0.3804249549
H  H12  1  0.49940000  0.66980000  0.88090000  1.0 0.3804249549
H  H13  1  0.33020000  0.50060000  0.88090000  1.0 0.3804249549
H  H14  1  0.50060000  0.33020000  0.11910000  1.0 0.3804249549
H  H15  1  0.86850000  0.26030000  0.01300000  1.0 0.1108756846
H  H16  1  0.26030000  0.86850000  0.98700000  1.0 0.1108756846
H  H17  1  0.13150000  0.73970000  0.98700000  1.0 0.1108756846
H  H18  1  0.73970000  0.13150000  0.01300000  1.0 0.1108756846
H  H19  1  0.89440000  0.33720000  0.94960000  1.0 0.1603376957
H  H20  1  0.33720000  0.89440000  0.05040000  1.0 0.1603376957
H  H21  1  0.10560000  0.66280000  0.05040000  1.0 0.1603376957
H  H22  1  0.66280000  0.10560000  0.94960000  1.0 0.1603376957
H  H23  1  0.95700000  0.30300000  0.02170000  1.0 0.1603376957
H  H24  1  0.30300000  0.95700000  0.97830000  1.0 0.1603376957
H  H25  1  0.04300000  0.69700000  0.97830000  1.0 0.1603376957
H  H26  1  0.69700000  0.04300000  0.02170000  1.0 0.1603376957
H  H27  1  0.87610000  0.54750000  0.18500000  1.0 0.1397912575
H  H28  1  0.54750000  0.87610000  0.81500000  1.0 0.1397912575
H  H29  1  0.12390000  0.45250000  0.81500000  1.0 0.1397912575
H  H30  1  0.45250000  0.12390000  0.18500000  1.0 0.1397912575
H  H31  1  0.96440000  0.53720000  0.20310000  1.0 0.1603376957
H  H32  1  0.53720000  0.96440000  0.79690000  1.0 0.1603376957
H  H33  1  0.03560000  0.46280000  0.79690000  1.0 0.1603376957
H  H34  1  0.46280000  0.03560000  0.20310000  1.0 0.1603376957
H  H35  1  0.92840000  0.57340000  0.11060000  1.0 0.1603376957
H  H36  1  0.57340000  0.92840000  0.88940000  1.0 0.1603376957
H  H37  1  0.07160000  0.42660000  0.88940000  1.0 0.1603376957
H  H38  1  0.42660000  0.07160000  0.11060000  1.0 0.1603376957
H  H39  1  0.74000000  0.50040000  0.44220000  1.0 0.1603376957
H  H40  1  0.50040000  0.74000000  0.55780000  1.0 0.1603376957
H  H41  1  0.26000000  0.49960000  0.55780000  1.0 0.1603376957
H  H42  1  0.49960000  0.26000000  0.44220000  1.0 0.1603376957
H  H43  1  0.75930000  0.51910000  0.34700000  1.0 0.1397912575
H  H44  1  0.51910000  0.75930000  0.65300000  1.0 0.1397912575
H  H45  1  0.24070000  0.48090000  0.65300000  1.0 0.1397912575
H  H46  1  0.48090000  0.24070000  0.34700000  1.0 0.1397912575
H  H47  1  0.68640000  0.54580000  0.36930000  1.0 0.1603376957
H  H48  1  0.54580000  0.68640000  0.63070000  1.0 0.1603376957
H  H49  1  0.31360000  0.45420000  0.63070000  1.0 0.1603376957
H  H50  1  0.45420000  0.31360000  0.36930000  1.0 0.1603376957
H  H51  1  0.98320000  0.36820000  0.52460000  1.0 0.1286807453
H  H52  1  0.36820000  0.98320000  0.47540000  1.0 0.1286807453
H  H53  1  0.01680000  0.63180000  0.47540000  1.0 0.1286807453
H  H54  1  0.63180000  0.01680000  0.52460000  1.0 0.1286807453
H  H55  1  0.92450000  0.55730000  0.38140000  1.0 0.1286807453
H  H56  1  0.55730000  0.92450000  0.61860000  1.0 0.1286807453
H  H57  1  0.07550000  0.44270000  0.61860000  1.0 0.1286807453
H  H58  1  0.44270000  0.07550000  0.38140000  1.0 0.1286807453
H  H59  1  0.85660000  0.47360000  0.74650000  1.0 0.1286807453
H  H60  1  0.47360000  0.85660000  0.25350000  1.0 0.1286807453
H  H61  1  0.14340000  0.52640000  0.25350000  1.0 0.1286807453
H  H62  1  0.52640000  0.14340000  0.74650000  1.0 0.1286807453
H  H63  1  0.76650000  0.62330000  0.84520000  1.0 0.1204139141
H  H64  1  0.62330000  0.76650000  0.15480000  1.0 0.1204139141
H  H65  1  0.23350000  0.37670000  0.15480000  1.0 0.1204139141
H  H66  1  0.37670000  0.23350000  0.84520000  1.0 0.1204139141
H  H67  1  0.75300000  0.47220000  0.62680000  1.0 0.1286807453
H  H68  1  0.47220000  0.75300000  0.37320000  1.0 0.1286807453
H  H69  1  0.24700000  0.52780000  0.37320000  1.0 0.1286807453
H  H70  1  0.52780000  0.24700000  0.62680000  1.0 0.1286807453
H  H71  1  0.66120000  0.61320000  0.73010000  1.0 0.1286807453
H  H72  1  0.61320000  0.66120000  0.26990000  1.0 0.1286807453
H  H73  1  0.33880000  0.38680000  0.26990000  1.0 0.1286807453
H  H74  1  0.38680000  0.33880000  0.73010000  1.0 0.1286807453
H  H75  1  0.81120000  0.18880000  0.34090000  1.0 0.3936378954
H  H76  1  0.18880000  0.81120000  0.65910000  1.0 0.3936378954
H  H77  1  0.76010000  0.23990000  0.34350000  1.0 0.3596460296
H  H78  1  0.23990000  0.76010000  0.65650000  1.0 0.3596460296
C  C1  1  0.90340000  0.31060000  0.00790000  1.0 -0.5157976152
C  C2  1  0.31060000  0.90340000  0.99210000  1.0 -0.5157976152
C  C3  1  0.09660000  0.68940000  0.99210000  1.0 -0.5157976152
C  C4  1  0.68940000  0.09660000  0.00790000  1.0 -0.5157976152
C  C5  1  0.88800000  0.35840000  0.06830000  1.0 0.3804249549
C  C6  1  0.35840000  0.88800000  0.93170000  1.0 0.3804249549
C  C7  1  0.11200000  0.64160000  0.93170000  1.0 0.3804249549
C  C8  1  0.64160000  0.11200000  0.06830000  1.0 0.3804249549
C  C9  1  0.89320000  0.45460000  0.13510000  1.0 0.3804249549
C  C10  1  0.45460000  0.89320000  0.86490000  1.0 0.3804249549
C  C11  1  0.10680000  0.54540000  0.86490000  1.0 0.3804249549
C  C12  1  0.54540000  0.10680000  0.13510000  1.0 0.3804249549
C  C13  1  0.91770000  0.53550000  0.16080000  1.0 -0.546102226
C  C14  1  0.53550000  0.91770000  0.83920000  1.0 -0.546102226
C  C15  1  0.08230000  0.46450000  0.83920000  1.0 -0.5449608566
C  C16  1  0.46450000  0.08230000  0.16080000  1.0 -0.546102226
C  C17  1  0.66730000  0.42930000  0.36280000  1.0 0.3970955906
C  C18  1  0.42930000  0.66730000  0.63720000  1.0 0.3970955906
C  C19  1  0.33270000  0.57070000  0.63720000  1.0 0.3970955906
C  C20  1  0.57070000  0.33270000  0.36280000  1.0 0.3970955906
C  C21  1  0.71770000  0.50530000  0.38200000  1.0 -0.5286695263
C  C22  1  0.50530000  0.71770000  0.61800000  1.0 -0.5286695263
C  C23  1  0.28230000  0.49470000  0.61800000  1.0 -0.5286695263
C  C24  1  0.49470000  0.28230000  0.38200000  1.0 -0.5286695263
C  C25  1  0.88600000  0.40180000  0.38740000  1.0 0.5593598483
C  C26  1  0.40180000  0.88600000  0.61260000  1.0 0.5593598483
C  C27  1  0.11400000  0.59820000  0.61260000  1.0 0.5593598483
C  C28  1  0.59820000  0.11400000  0.38740000  1.0 0.5593598483
C  C29  1  0.94550000  0.45470000  0.44510000  1.0 -0.0098365857
C  C30  1  0.45470000  0.94550000  0.55490000  1.0 -0.0098365857
C  C31  1  0.05450000  0.54530000  0.55490000  1.0 -0.0098365857
C  C32  1  0.54530000  0.05450000  0.44510000  1.0 -0.0098365857
C  C33  1  0.98950000  0.42290000  0.51350000  1.0 -0.1092744963
C  C34  1  0.42290000  0.98950000  0.48650000  1.0 -0.1092744963
C  C35  1  0.01050000  0.57710000  0.48650000  1.0 -0.1092744963
C  C36  1  0.57710000  0.01050000  0.51350000  1.0 -0.1092744963
C  C37  1  0.95420000  0.53260000  0.42880000  1.0 -0.1092744963
C  C38  1  0.53260000  0.95420000  0.57120000  1.0 -0.1092744963
C  C39  1  0.04580000  0.46740000  0.57120000  1.0 -0.1092744963
C  C40  1  0.46740000  0.04580000  0.42880000  1.0 -0.1092744963
C  C41  1  0.88210000  0.54410000  0.88740000  1.0 0.5286476908
C  C42  1  0.54410000  0.88210000  0.11260000  1.0 0.5286476908
C  C43  1  0.11790000  0.45590000  0.11260000  1.0 0.5286476908
C  C44  1  0.45590000  0.11790000  0.88740000  1.0 0.5286476908
C  C45  1  0.82020000  0.54340000  0.80870000  1.0 -0.0098365857
C  C46  1  0.54340000  0.82020000  0.19130000  1.0 -0.0098365857
C  C47  1  0.17980000  0.45660000  0.19130000  1.0 -0.0098365857
C  C48  1  0.45660000  0.17980000  0.80870000  1.0 -0.0098365857
C  C49  1  0.81690000  0.50190000  0.74450000  1.0 -0.0930761454
C  C50  1  0.50190000  0.81690000  0.25550000  1.0 -0.0930761454
C  C51  1  0.18310000  0.49810000  0.25550000  1.0 -0.0930761454
C  C52  1  0.49810000  0.18310000  0.74450000  1.0 -0.0930761454
C  C53  1  0.76330000  0.59030000  0.80430000  1.0 -0.1092744963
C  C54  1  0.59030000  0.76330000  0.19570000  1.0 -0.1092744963
C  C55  1  0.23670000  0.40970000  0.19570000  1.0 -0.1092744963
C  C56  1  0.40970000  0.23670000  0.80430000  1.0 -0.1092744963
C  C57  1  0.62440000  0.53040000  0.60310000  1.0 0.5653383134
C  C58  1  0.53040000  0.62440000  0.39690000  1.0 0.5653383134
C  C59  1  0.37560000  0.46960000  0.39690000  1.0 0.5653383134
C  C60  1  0.46960000  0.37560000  0.60310000  1.0 0.5653383134
C  C61  1  0.69590000  0.53830000  0.67200000  1.0 -0.0098365857
C  C62  1  0.53830000  0.69590000  0.32800000  1.0 -0.0098365857
C  C63  1  0.30410000  0.46170000  0.32800000  1.0 -0.0098365857
C  C64  1  0.46170000  0.30410000  0.67200000  1.0 -0.0098365857
C  C65  1  0.75340000  0.49980000  0.67200000  1.0 -0.1092744963
C  C66  1  0.49980000  0.75340000  0.32800000  1.0 -0.1092744963
C  C67  1  0.24660000  0.50020000  0.32800000  1.0 -0.1092744963
C  C68  1  0.50020000  0.24660000  0.67200000  1.0 -0.1092744963
C  C69  1  0.70080000  0.58420000  0.73390000  1.0 -0.1092744963
C  C70  1  0.58420000  0.70080000  0.26610000  1.0 -0.1092744963
C  C71  1  0.29920000  0.41580000  0.26610000  1.0 -0.1092744963
C  C72  1  0.41580000  0.29920000  0.73390000  1.0 -0.1092744963
N  N1  1  0.83810000  0.33410000  0.12490000  1.0 -0.2999427693
N  N2  1  0.33410000  0.83810000  0.87510000  1.0 -0.2999427693
N  N3  1  0.16190000  0.66590000  0.87510000  1.0 -0.2999427693
N  N4  1  0.66590000  0.16190000  0.12490000  1.0 -0.2999427693
N  N5  1  0.84070000  0.39550000  0.16710000  1.0 -0.2748288812
N  N6  1  0.39550000  0.84070000  0.83290000  1.0 -0.2748288812
N  N7  1  0.15930000  0.60450000  0.83290000  1.0 -0.2748288812
N  N8  1  0.60450000  0.15930000  0.16710000  1.0 -0.2748288812
N  N9  1  0.92280000  0.43340000  0.07100000  1.0 -0.429378763
N  N10  1  0.43340000  0.92280000  0.92900000  1.0 -0.429378763
N  N11  1  0.07720000  0.56660000  0.92900000  1.0 -0.429378763
N  N12  1  0.56660000  0.07720000  0.07100000  1.0 -0.429378763
N  N13  1  0.68380000  0.37920000  0.31770000  1.0 -0.2949393393
N  N14  1  0.37920000  0.68380000  0.68230000  1.0 -0.2949393393
N  N15  1  0.31620000  0.62080000  0.68230000  1.0 -0.2949393393
N  N16  1  0.62080000  0.31620000  0.31770000  1.0 -0.2949393393
N  N17  1  0.59710000  0.40290000  0.39380000  1.0 -0.4359746577
N  N18  1  0.40290000  0.59710000  0.60620000  1.0 -0.4359746577
O  O1  1  0.69370000  0.30630000  0.18170000  1.0 -0.790156305
O  O2  1  0.30630000  0.69370000  0.81830000  1.0 -0.790156305
O  O3  1  0.84650000  0.44170000  0.32680000  1.0 -0.5286695263
O  O4  1  0.44170000  0.84650000  0.67320000  1.0 -0.5286695263
O  O5  1  0.15350000  0.55830000  0.67320000  1.0 -0.5286695263
O  O6  1  0.55830000  0.15350000  0.32680000  1.0 -0.5286695263
O  O7  1  0.87950000  0.33090000  0.40040000  1.0 -0.4934325145
O  O8  1  0.33090000  0.87950000  0.59960000  1.0 -0.4934325145
O  O9  1  0.12050000  0.66910000  0.59960000  1.0 -0.4934325145
O  O10  1  0.66910000  0.12050000  0.40040000  1.0 -0.4934325145
O  O11  1  0.62840000  0.49480000  0.54450000  1.0 -0.4834328892
O  O12  1  0.49480000  0.62840000  0.45550000  1.0 -0.4834328892
O  O13  1  0.37160000  0.50520000  0.45550000  1.0 -0.4834328892
O  O14  1  0.50520000  0.37160000  0.54450000  1.0 -0.4834328892
O  O15  1  0.56450000  0.55790000  0.61420000  1.0 -0.5286695263
O  O16  1  0.55790000  0.56450000  0.38580000  1.0 -0.5286695263
O  O17  1  0.43550000  0.44210000  0.38580000  1.0 -0.5286695263
O  O18  1  0.44210000  0.43550000  0.61420000  1.0 -0.5286695263
O  O19  1  0.92040000  0.48960000  0.89570000  1.0 -0.5092834832
O  O20  1  0.48960000  0.92040000  0.10430000  1.0 -0.5092834832
O  O21  1  0.07960000  0.51040000  0.10430000  1.0 -0.5092834832
O  O22  1  0.51040000  0.07960000  0.89570000  1.0 -0.5092834832
O  O23  1  0.89550000  0.59170000  0.93660000  1.0 -0.5092834832
O  O24  1  0.59170000  0.89550000  0.06340000  1.0 -0.5092834832
O  O25  1  0.10450000  0.40830000  0.06340000  1.0 -0.5092834832
O  O26  1  0.40830000  0.10450000  0.93660000  1.0 -0.5092834832
O  O27  1  0.83160000  0.16840000  0.15310000  1.0 -0.6513999106
O  O28  1  0.16840000  0.83160000  0.84690000  1.0 -0.6513999106
O  O29  1  0.71190000  0.49710000  0.15810000  1.0 -0.7116894128
O  O30  1  0.49710000  0.71190000  0.84190000  1.0 -0.7116894128
O  O31  1  0.28810000  0.50290000  0.84190000  1.0 -0.7116894128
O  O32  1  0.50290000  0.28810000  0.15810000  1.0 -0.7116894128
O  O33  1  0.78090000  0.21910000  0.31000000  1.0 -0.7294427754
O  O34  1  0.21910000  0.78090000  0.69000000  1.0 -0.7294427754
