# DDEC6 charges by PACMAN v1.1 (https://github.com/mtap-research/PACMAN-charge/)
data_RUGPEQ_ASR_pacman
_symmetry_space_group_name_H-M   'P 1'
_cell_length_a   11.78650000
_cell_length_b   16.71600000
_cell_length_c   52.89200000
_cell_angle_alpha   90.00000000
_cell_angle_beta   90.00000000
_cell_angle_gamma   90.00000000
_symmetry_Int_Tables_number   1
_chemical_formula_structural   Cd3H28C46(NO4)3
_chemical_formula_sum   'Cd24 H224 C368 N24 O96'
_cell_volume   10420.94760353
_cell_formula_units_Z   8
loop_
 _symmetry_equiv_pos_site_id
 _symmetry_equiv_pos_as_xyz
  1  'x, y, z'
loop_
 _atom_site_type_symbol
 _atom_site_label
 _atom_site_symmetry_multiplicity
 _atom_site_fract_x
 _atom_site_fract_y
 _atom_site_fract_z
 _atom_site_occupancy
 _atom_site_charge
Cd  Cd1  1  0.41535000  0.16421000  0.17779000  1.0 0.8858010087
Cd  Cd2  1  0.08465000  0.33579000  0.67779000  1.0 0.8858010087
Cd  Cd3  1  0.08465000  0.66421000  0.17779000  1.0 0.8858010087
Cd  Cd4  1  0.41535000  0.83579000  0.67779000  1.0 0.8858010087
Cd  Cd5  1  0.52490000  0.17585000  0.11487000  1.0 1.117228559
Cd  Cd6  1  0.97510000  0.32415000  0.61487000  1.0 1.117228559
Cd  Cd7  1  0.97510000  0.67585000  0.11487000  1.0 1.117228559
Cd  Cd8  1  0.52490000  0.82415000  0.61487000  1.0 1.117228559
Cd  Cd9  1  0.06716000  0.69322000  0.04942000  1.0 0.8810458469
Cd  Cd10  1  0.43284000  0.80678000  0.54942000  1.0 0.8810458469
Cd  Cd11  1  0.43284000  0.19322000  0.04942000  1.0 0.8810458469
Cd  Cd12  1  0.06716000  0.30678000  0.54942000  1.0 0.8810458469
Cd  Cd13  1  0.91535000  0.33579000  0.82221000  1.0 0.8858010087
Cd  Cd14  1  0.58465000  0.16421000  0.32221000  1.0 0.8858010087
Cd  Cd15  1  0.58465000  0.83579000  0.82221000  1.0 0.8858010087
Cd  Cd16  1  0.91535000  0.66421000  0.32221000  1.0 0.8858010087
Cd  Cd17  1  0.02490000  0.32415000  0.88513000  1.0 1.117228559
Cd  Cd18  1  0.47510000  0.17585000  0.38513000  1.0 1.117228559
Cd  Cd19  1  0.47510000  0.82415000  0.88513000  1.0 1.117228559
Cd  Cd20  1  0.02490000  0.67585000  0.38513000  1.0 1.117228559
Cd  Cd21  1  0.56716000  0.80678000  0.95058000  1.0 0.8810458469
Cd  Cd22  1  0.93284000  0.69322000  0.45058000  1.0 0.8810458469
Cd  Cd23  1  0.93284000  0.30678000  0.95058000  1.0 0.8810458469
Cd  Cd24  1  0.56716000  0.19322000  0.45058000  1.0 0.8810458469
H  H1  1  0.16920000  0.94670000  0.15260000  1.0 0.1222177914
H  H2  1  0.33080000  0.55330000  0.65260000  1.0 0.1222177914
H  H3  1  0.33080000  0.44670000  0.15260000  1.0 0.1222177914
H  H4  1  0.16920000  0.05330000  0.65260000  1.0 0.1222177914
H  H5  1  0.10920000  0.84080000  0.12840000  1.0 0.1222177914
H  H6  1  0.39080000  0.65920000  0.62840000  1.0 0.1222177914
H  H7  1  0.39080000  0.34080000  0.12840000  1.0 0.1222177914
H  H8  1  0.10920000  0.15920000  0.62840000  1.0 0.1222177914
H  H9  1  0.31100000  0.91300000  0.07220000  1.0 0.1222177914
H  H10  1  0.18900000  0.58700000  0.57220000  1.0 0.1222177914
H  H11  1  0.18900000  0.41300000  0.07220000  1.0 0.1222177914
H  H12  1  0.31100000  0.08700000  0.57220000  1.0 0.1222177914
H  H13  1  0.36480000  0.02380000  0.09560000  1.0 0.1222177914
H  H14  1  0.13520000  0.47620000  0.59560000  1.0 0.1222177914
H  H15  1  0.13520000  0.52380000  0.09560000  1.0 0.1222177914
H  H16  1  0.36480000  0.97620000  0.59560000  1.0 0.1222177914
H  H17  1  0.59950000  0.38530000  0.13080000  1.0 0.1222177914
H  H18  1  0.90050000  0.11470000  0.63080000  1.0 0.1222177914
H  H19  1  0.90050000  0.88530000  0.13080000  1.0 0.1222177914
H  H20  1  0.59950000  0.61470000  0.63080000  1.0 0.1222177914
H  H21  1  0.72110000  0.49140000  0.12580000  1.0 0.1106253822
H  H22  1  0.77890000  0.00860000  0.62580000  1.0 0.1106253822
H  H23  1  0.77890000  0.99140000  0.12580000  1.0 0.1106253822
H  H24  1  0.72110000  0.50860000  0.62580000  1.0 0.1106253822
H  H25  1  0.82590000  0.46790000  0.19700000  1.0 0.1222177914
H  H26  1  0.67410000  0.03210000  0.69700000  1.0 0.1222177914
H  H27  1  0.67410000  0.96790000  0.19700000  1.0 0.1222177914
H  H28  1  0.82590000  0.53210000  0.69700000  1.0 0.1222177914
H  H29  1  0.69960000  0.36490000  0.20280000  1.0 0.1222177914
H  H30  1  0.80040000  0.13510000  0.70280000  1.0 0.1222177914
H  H31  1  0.80040000  0.86490000  0.20280000  1.0 0.1222177914
H  H32  1  0.69960000  0.63510000  0.70280000  1.0 0.1222177914
H  H33  1  0.42270000  0.22670000  0.23370000  1.0 0.1106253822
H  H34  1  0.07730000  0.27330000  0.73370000  1.0 0.1106253822
H  H35  1  0.07730000  0.72670000  0.23370000  1.0 0.1106253822
H  H36  1  0.42270000  0.77330000  0.73370000  1.0 0.1106253822
H  H37  1  0.33610000  0.22040000  0.27250000  1.0 0.1381862375
H  H38  1  0.16390000  0.27960000  0.77250000  1.0 0.1381862375
H  H39  1  0.16390000  0.72040000  0.27250000  1.0 0.1381862375
H  H40  1  0.33610000  0.77960000  0.77250000  1.0 0.1381862375
H  H41  1  0.16400000  0.03420000  0.24740000  1.0 0.1288630906
H  H42  1  0.33600000  0.46580000  0.74740000  1.0 0.1288630906
H  H43  1  0.33600000  0.53420000  0.24740000  1.0 0.1288630906
H  H44  1  0.16400000  0.96580000  0.74740000  1.0 0.1288630906
H  H45  1  0.26040000  0.04620000  0.21040000  1.0 0.1222177914
H  H46  1  0.23960000  0.45380000  0.71040000  1.0 0.1222177914
H  H47  1  0.23960000  0.54620000  0.21040000  1.0 0.1222177914
H  H48  1  0.26040000  0.95380000  0.71040000  1.0 0.1222177914
H  H49  1  0.26340000  0.20410000  0.30770000  1.0 0.1106253822
H  H50  1  0.23660000  0.29590000  0.80770000  1.0 0.1106253822
H  H51  1  0.23660000  0.70410000  0.30770000  1.0 0.1106253822
H  H52  1  0.26340000  0.79590000  0.80770000  1.0 0.1106253822
H  H53  1  0.16560000  0.20050000  0.34510000  1.0 0.1222177914
H  H54  1  0.33440000  0.29950000  0.84510000  1.0 0.1222177914
H  H55  1  0.33440000  0.70050000  0.34510000  1.0 0.1222177914
H  H56  1  0.16560000  0.79950000  0.84510000  1.0 0.1222177914
H  H57  1  0.95060000  0.04300000  0.31430000  1.0 0.1222177914
H  H58  1  0.54940000  0.45700000  0.81430000  1.0 0.1222177914
H  H59  1  0.54940000  0.54300000  0.31430000  1.0 0.1222177914
H  H60  1  0.95060000  0.95700000  0.81430000  1.0 0.1222177914
H  H61  1  0.04930000  0.04860000  0.27720000  1.0 0.1106253822
H  H62  1  0.45070000  0.45140000  0.77720000  1.0 0.1106253822
H  H63  1  0.45070000  0.54860000  0.27720000  1.0 0.1106253822
H  H64  1  0.04930000  0.95140000  0.77720000  1.0 0.1106253822
H  H65  1  0.83400000  0.15460000  0.38870000  1.0 0.1288630906
H  H66  1  0.66600000  0.34540000  0.88870000  1.0 0.1288630906
H  H67  1  0.66600000  0.65460000  0.38870000  1.0 0.1288630906
H  H68  1  0.83400000  0.84540000  0.88870000  1.0 0.1288630906
H  H69  1  0.85520000  0.18980000  0.42970000  1.0 0.1106253822
H  H70  1  0.64480000  0.31020000  0.92970000  1.0 0.1106253822
H  H71  1  0.64480000  0.68980000  0.42970000  1.0 0.1106253822
H  H72  1  0.85520000  0.81020000  0.92970000  1.0 0.1106253822
H  H73  1  0.19160000  0.17080000  0.42200000  1.0 0.1106253822
H  H74  1  0.30840000  0.32920000  0.92200000  1.0 0.1106253822
H  H75  1  0.30840000  0.67080000  0.42200000  1.0 0.1106253822
H  H76  1  0.19160000  0.82920000  0.92200000  1.0 0.1106253822
H  H77  1  0.17030000  0.13530000  0.38090000  1.0 0.1222177914
H  H78  1  0.32970000  0.36470000  0.88090000  1.0 0.1222177914
H  H79  1  0.32970000  0.63530000  0.38090000  1.0 0.1222177914
H  H80  1  0.17030000  0.86470000  0.88090000  1.0 0.1222177914
H  H81  1  0.90070000  0.25250000  0.50790000  1.0 0.1106253822
H  H82  1  0.59930000  0.24750000  0.00790000  1.0 0.1106253822
H  H83  1  0.59930000  0.75250000  0.50790000  1.0 0.1106253822
H  H84  1  0.90070000  0.74750000  0.00790000  1.0 0.1106253822
H  H85  1  0.87740000  0.20210000  0.46830000  1.0 0.1288630906
H  H86  1  0.62260000  0.29790000  0.96830000  1.0 0.1288630906
H  H87  1  0.62260000  0.70210000  0.46830000  1.0 0.1288630906
H  H88  1  0.87740000  0.79790000  0.96830000  1.0 0.1288630906
H  H89  1  0.20630000  0.22140000  0.45920000  1.0 0.1381862375
H  H90  1  0.29370000  0.27860000  0.95920000  1.0 0.1381862375
H  H91  1  0.29370000  0.72140000  0.45920000  1.0 0.1381862375
H  H92  1  0.20630000  0.77860000  0.95920000  1.0 0.1381862375
H  H93  1  0.21450000  0.27580000  0.49840000  1.0 0.1036991465
H  H94  1  0.28550000  0.22420000  0.99840000  1.0 0.1036991465
H  H95  1  0.28550000  0.77580000  0.49840000  1.0 0.1036991465
H  H96  1  0.21450000  0.72420000  0.99840000  1.0 0.1036991465
H  H97  1  0.63670000  0.40460000  0.04150000  1.0 0.1222177914
H  H98  1  0.86330000  0.09540000  0.54150000  1.0 0.1222177914
H  H99  1  0.86330000  0.90460000  0.04150000  1.0 0.1222177914
H  H100  1  0.63670000  0.59540000  0.54150000  1.0 0.1222177914
H  H101  1  0.75460000  0.51290000  0.03440000  1.0 0.1288630906
H  H102  1  0.74540000  0.98710000  0.53440000  1.0 0.1288630906
H  H103  1  0.74540000  0.01290000  0.03440000  1.0 0.1288630906
H  H104  1  0.75460000  0.48710000  0.53440000  1.0 0.1288630906
H  H105  1  0.92970000  0.45570000  0.09610000  1.0 0.1288630906
H  H106  1  0.57030000  0.04430000  0.59610000  1.0 0.1288630906
H  H107  1  0.57030000  0.95570000  0.09610000  1.0 0.1288630906
H  H108  1  0.92970000  0.54430000  0.59610000  1.0 0.1288630906
H  H109  1  0.81700000  0.34620000  0.10200000  1.0 0.1222177914
H  H110  1  0.68300000  0.15380000  0.60200000  1.0 0.1222177914
H  H111  1  0.68300000  0.84620000  0.10200000  1.0 0.1288630906
H  H112  1  0.81700000  0.65380000  0.60200000  1.0 0.1222177914
H  H113  1  0.66920000  0.55330000  0.84740000  1.0 0.1222177914
H  H114  1  0.83080000  0.94670000  0.34740000  1.0 0.1222177914
H  H115  1  0.83080000  0.05330000  0.84740000  1.0 0.1222177914
H  H116  1  0.66920000  0.44670000  0.34740000  1.0 0.1222177914
H  H117  1  0.60920000  0.65920000  0.87160000  1.0 0.1222177914
H  H118  1  0.89080000  0.84080000  0.37160000  1.0 0.1222177914
H  H119  1  0.89080000  0.15920000  0.87160000  1.0 0.1222177914
H  H120  1  0.60920000  0.34080000  0.37160000  1.0 0.1222177914
H  H121  1  0.81100000  0.58700000  0.92780000  1.0 0.1222177914
H  H122  1  0.68900000  0.91300000  0.42780000  1.0 0.1222177914
H  H123  1  0.68900000  0.08700000  0.92780000  1.0 0.1222177914
H  H124  1  0.81100000  0.41300000  0.42780000  1.0 0.1222177914
H  H125  1  0.86480000  0.47620000  0.90440000  1.0 0.1222177914
H  H126  1  0.63520000  0.02380000  0.40440000  1.0 0.1222177914
H  H127  1  0.63520000  0.97620000  0.90440000  1.0 0.1222177914
H  H128  1  0.86480000  0.52380000  0.40440000  1.0 0.1222177914
H  H129  1  0.09950000  0.11470000  0.86920000  1.0 0.1222177914
H  H130  1  0.40050000  0.38530000  0.36920000  1.0 0.1222177914
H  H131  1  0.40050000  0.61470000  0.86920000  1.0 0.1222177914
H  H132  1  0.09950000  0.88530000  0.36920000  1.0 0.1222177914
H  H133  1  0.22110000  0.00860000  0.87420000  1.0 0.1106253822
H  H134  1  0.27890000  0.49140000  0.37420000  1.0 0.1106253822
H  H135  1  0.27890000  0.50860000  0.87420000  1.0 0.1106253822
H  H136  1  0.22110000  0.99140000  0.37420000  1.0 0.1222177914
H  H137  1  0.32590000  0.03210000  0.80300000  1.0 0.1222177914
H  H138  1  0.17410000  0.46790000  0.30300000  1.0 0.1222177914
H  H139  1  0.17410000  0.53210000  0.80300000  1.0 0.1222177914
H  H140  1  0.32590000  0.96790000  0.30300000  1.0 0.1222177914
H  H141  1  0.19960000  0.13510000  0.79720000  1.0 0.1222177914
H  H142  1  0.30040000  0.36490000  0.29720000  1.0 0.1222177914
H  H143  1  0.30040000  0.63510000  0.79720000  1.0 0.1222177914
H  H144  1  0.19960000  0.86490000  0.29720000  1.0 0.1222177914
H  H145  1  0.92270000  0.27330000  0.76630000  1.0 0.1106253822
H  H146  1  0.57730000  0.22670000  0.26630000  1.0 0.1106253822
H  H147  1  0.57730000  0.77330000  0.76630000  1.0 0.1106253822
H  H148  1  0.92270000  0.72670000  0.26630000  1.0 0.1106253822
H  H149  1  0.83610000  0.27960000  0.72750000  1.0 0.1381862375
H  H150  1  0.66390000  0.22040000  0.22750000  1.0 0.1381862375
H  H151  1  0.66390000  0.77960000  0.72750000  1.0 0.1381862375
H  H152  1  0.83610000  0.72040000  0.22750000  1.0 0.1381862375
H  H153  1  0.66400000  0.46580000  0.75260000  1.0 0.1288630906
H  H154  1  0.83600000  0.03420000  0.25260000  1.0 0.1288630906
H  H155  1  0.83600000  0.96580000  0.75260000  1.0 0.1288630906
H  H156  1  0.66400000  0.53420000  0.25260000  1.0 0.1288630906
H  H157  1  0.76040000  0.45380000  0.78960000  1.0 0.1222177914
H  H158  1  0.73960000  0.04620000  0.28960000  1.0 0.1222177914
H  H159  1  0.73960000  0.95380000  0.78960000  1.0 0.1222177914
H  H160  1  0.76040000  0.54620000  0.28960000  1.0 0.1222177914
H  H161  1  0.76340000  0.29590000  0.69230000  1.0 0.1106253822
H  H162  1  0.73660000  0.20410000  0.19230000  1.0 0.1106253822
H  H163  1  0.73660000  0.79590000  0.69230000  1.0 0.1106253822
H  H164  1  0.76340000  0.70410000  0.19230000  1.0 0.1106253822
H  H165  1  0.66560000  0.29950000  0.65490000  1.0 0.1222177914
H  H166  1  0.83440000  0.20050000  0.15490000  1.0 0.1222177914
H  H167  1  0.83440000  0.79950000  0.65490000  1.0 0.1222177914
H  H168  1  0.66560000  0.70050000  0.15490000  1.0 0.1222177914
H  H169  1  0.45060000  0.45700000  0.68570000  1.0 0.1222177914
H  H170  1  0.04940000  0.04300000  0.18570000  1.0 0.1222177914
H  H171  1  0.04940000  0.95700000  0.68570000  1.0 0.1222177914
H  H172  1  0.45060000  0.54300000  0.18570000  1.0 0.1222177914
H  H173  1  0.54930000  0.45140000  0.72280000  1.0 0.1106253822
H  H174  1  0.95070000  0.04860000  0.22280000  1.0 0.1106253822
H  H175  1  0.95070000  0.95140000  0.72280000  1.0 0.1106253822
H  H176  1  0.54930000  0.54860000  0.22280000  1.0 0.1106253822
H  H177  1  0.33400000  0.34540000  0.61130000  1.0 0.1288630906
H  H178  1  0.16600000  0.15460000  0.11130000  1.0 0.1288630906
H  H179  1  0.16600000  0.84540000  0.61130000  1.0 0.1288630906
H  H180  1  0.33400000  0.65460000  0.11130000  1.0 0.1288630906
H  H181  1  0.35520000  0.31020000  0.57030000  1.0 0.1106253822
H  H182  1  0.14480000  0.18980000  0.07030000  1.0 0.1106253822
H  H183  1  0.14480000  0.81020000  0.57030000  1.0 0.1106253822
H  H184  1  0.35520000  0.68980000  0.07030000  1.0 0.1106253822
H  H185  1  0.69160000  0.32920000  0.57800000  1.0 0.1106253822
H  H186  1  0.80840000  0.17080000  0.07800000  1.0 0.1106253822
H  H187  1  0.80840000  0.82920000  0.57800000  1.0 0.1106253822
H  H188  1  0.69160000  0.67080000  0.07800000  1.0 0.1106253822
H  H189  1  0.67030000  0.36470000  0.61910000  1.0 0.1222177914
H  H190  1  0.82970000  0.13530000  0.11910000  1.0 0.1222177914
H  H191  1  0.82970000  0.86470000  0.61910000  1.0 0.1222177914
H  H192  1  0.67030000  0.63530000  0.11910000  1.0 0.1222177914
H  H193  1  0.40070000  0.24750000  0.49210000  1.0 0.1106253822
H  H194  1  0.09930000  0.25250000  0.99210000  1.0 0.1106253822
H  H195  1  0.09930000  0.74750000  0.49210000  1.0 0.1106253822
H  H196  1  0.40070000  0.75250000  0.99210000  1.0 0.1106253822
H  H197  1  0.37740000  0.29790000  0.53170000  1.0 0.1288630906
H  H198  1  0.12260000  0.20210000  0.03170000  1.0 0.1288630906
H  H199  1  0.12260000  0.79790000  0.53170000  1.0 0.1288630906
H  H200  1  0.37740000  0.70210000  0.03170000  1.0 0.1288630906
H  H201  1  0.70630000  0.27860000  0.54080000  1.0 0.1381862375
H  H202  1  0.79370000  0.22140000  0.04080000  1.0 0.1381862375
H  H203  1  0.79370000  0.77860000  0.54080000  1.0 0.1381862375
H  H204  1  0.70630000  0.72140000  0.04080000  1.0 0.1381862375
H  H205  1  0.71450000  0.22420000  0.50160000  1.0 0.1036991465
H  H206  1  0.78550000  0.27580000  0.00160000  1.0 0.1036991465
H  H207  1  0.78550000  0.72420000  0.50160000  1.0 0.1036991465
H  H208  1  0.71450000  0.77580000  0.00160000  1.0 0.1036991465
H  H209  1  0.13670000  0.09540000  0.95850000  1.0 0.1222177914
H  H210  1  0.36330000  0.40460000  0.45850000  1.0 0.1222177914
H  H211  1  0.36330000  0.59540000  0.95850000  1.0 0.1222177914
H  H212  1  0.13670000  0.90460000  0.45850000  1.0 0.1222177914
H  H213  1  0.25460000  0.98710000  0.96560000  1.0 0.1288630906
H  H214  1  0.24540000  0.51290000  0.46560000  1.0 0.1288630906
H  H215  1  0.24540000  0.48710000  0.96560000  1.0 0.1288630906
H  H216  1  0.25460000  0.01290000  0.46560000  1.0 0.1288630906
H  H217  1  0.42970000  0.04430000  0.90390000  1.0 0.1288630906
H  H218  1  0.07030000  0.45570000  0.40390000  1.0 0.1288630906
H  H219  1  0.07030000  0.54430000  0.90390000  1.0 0.1288630906
H  H220  1  0.42970000  0.95570000  0.40390000  1.0 0.1288630906
H  H221  1  0.31700000  0.15380000  0.89800000  1.0 0.1222177914
H  H222  1  0.18300000  0.34620000  0.39800000  1.0 0.1288630906
H  H223  1  0.18300000  0.65380000  0.89800000  1.0 0.1288630906
H  H224  1  0.31700000  0.84620000  0.39800000  1.0 0.1288630906
C  C1  1  0.31230000  0.06330000  0.14278000  1.0 0.5694602533
C  C2  1  0.18770000  0.43670000  0.64278000  1.0 0.5694602533
C  C3  1  0.18770000  0.56330000  0.14278000  1.0 0.5694602533
C  C4  1  0.31230000  0.93670000  0.64278000  1.0 0.5694602533
C  C5  1  0.27200000  0.99610000  0.12655000  1.0 -0.0201314147
C  C6  1  0.22800000  0.50390000  0.62655000  1.0 -0.0201314147
C  C7  1  0.22800000  0.49610000  0.12655000  1.0 -0.0201314147
C  C8  1  0.27200000  0.00390000  0.62655000  1.0 -0.0201314147
C  C9  1  0.19670000  0.94060000  0.13624000  1.0 -0.0904626411
C  C10  1  0.30330000  0.55940000  0.63624000  1.0 -0.0904626411
C  C11  1  0.30330000  0.44060000  0.13624000  1.0 -0.0904626411
C  C12  1  0.19670000  0.05940000  0.63624000  1.0 -0.0904626411
C  C13  1  0.16220000  0.87670000  0.12199000  1.0 -0.0998868047
C  C14  1  0.33780000  0.62330000  0.62199000  1.0 -0.0998868047
C  C15  1  0.33780000  0.37670000  0.12199000  1.0 -0.0998868047
C  C16  1  0.16220000  0.12330000  0.62199000  1.0 -0.0998868047
C  C17  1  0.20690000  0.86580000  0.09792000  1.0 -0.0201314147
C  C18  1  0.29310000  0.63420000  0.59792000  1.0 -0.0201314147
C  C19  1  0.29310000  0.36580000  0.09792000  1.0 -0.0201314147
C  C20  1  0.20690000  0.13420000  0.59792000  1.0 -0.0201314147
C  C21  1  0.28170000  0.92040000  0.08838000  1.0 -0.0998868047
C  C22  1  0.21830000  0.57960000  0.58838000  1.0 -0.0998868047
C  C23  1  0.21830000  0.42040000  0.08838000  1.0 -0.0998868047
C  C24  1  0.28170000  0.07960000  0.58838000  1.0 -0.0998868047
C  C25  1  0.31480000  0.98650000  0.10235000  1.0 -0.1086568521
C  C26  1  0.18520000  0.51350000  0.60235000  1.0 -0.1086568521
C  C27  1  0.18520000  0.48650000  0.10235000  1.0 -0.1086568521
C  C28  1  0.31480000  0.01350000  0.60235000  1.0 -0.1086568521
C  C29  1  0.17070000  0.79570000  0.08250000  1.0 0.5623277803
C  C30  1  0.32930000  0.70430000  0.58250000  1.0 0.5623277803
C  C31  1  0.32930000  0.29570000  0.08250000  1.0 0.5623277803
C  C32  1  0.17070000  0.20430000  0.58250000  1.0 0.5623277803
C  C33  1  0.55970000  0.29250000  0.17035000  1.0 0.5623277803
C  C34  1  0.94030000  0.20750000  0.67035000  1.0 0.5623277803
C  C35  1  0.94030000  0.79250000  0.17035000  1.0 0.5623277803
C  C36  1  0.55970000  0.70750000  0.67035000  1.0 0.5623277803
C  C37  1  0.63980000  0.36150000  0.16680000  1.0 -0.0201314147
C  C38  1  0.86020000  0.13850000  0.66680000  1.0 -0.0201314147
C  C39  1  0.86020000  0.86150000  0.16680000  1.0 -0.0201314147
C  C40  1  0.63980000  0.63850000  0.66680000  1.0 -0.0201314147
C  C41  1  0.64540000  0.40110000  0.14421000  1.0 -0.0998868047
C  C42  1  0.85460000  0.09890000  0.64421000  1.0 -0.0998868047
C  C43  1  0.85460000  0.90110000  0.14421000  1.0 -0.0998868047
C  C44  1  0.64540000  0.59890000  0.64421000  1.0 -0.0998868047
C  C45  1  0.71910000  0.46460000  0.14125000  1.0 -0.0998868047
C  C46  1  0.78090000  0.03540000  0.64125000  1.0 -0.0998868047
C  C47  1  0.78090000  0.96460000  0.14125000  1.0 -0.0998868047
C  C48  1  0.71910000  0.53540000  0.64125000  1.0 -0.0998868047
C  C49  1  0.78960000  0.48940000  0.16043000  1.0 -0.0201314147
C  C50  1  0.71040000  0.01060000  0.66043000  1.0 -0.0201314147
C  C51  1  0.71040000  0.98940000  0.16043000  1.0 -0.0201314147
C  C52  1  0.78960000  0.51060000  0.66043000  1.0 -0.0201314147
C  C53  1  0.78080000  0.45120000  0.18361000  1.0 -0.0998868047
C  C54  1  0.71920000  0.04880000  0.68361000  1.0 -0.0998868047
C  C55  1  0.71920000  0.95120000  0.18361000  1.0 -0.0998868047
C  C56  1  0.78080000  0.54880000  0.68361000  1.0 -0.0998868047
C  C57  1  0.70610000  0.38890000  0.18697000  1.0 -0.1086568521
C  C58  1  0.79390000  0.11110000  0.68697000  1.0 -0.1086568521
C  C59  1  0.79390000  0.88890000  0.18697000  1.0 -0.1086568521
C  C60  1  0.70610000  0.61110000  0.68697000  1.0 -0.1086568521
C  C61  1  0.87280000  0.55860000  0.15685000  1.0 0.5755384478
C  C62  1  0.62720000  0.94140000  0.65685000  1.0 0.5755384478
C  C63  1  0.62720000  0.05860000  0.15685000  1.0 0.5755384478
C  C64  1  0.87280000  0.44140000  0.65685000  1.0 0.5755384478
C  C65  1  0.36940000  0.18650000  0.23629000  1.0 0.0888086276
C  C66  1  0.13060000  0.31350000  0.73629000  1.0 0.0888086276
C  C67  1  0.13060000  0.68650000  0.23629000  1.0 0.0888086276
C  C68  1  0.36940000  0.81350000  0.73629000  1.0 0.0888086276
C  C69  1  0.31570000  0.18430000  0.25988000  1.0 -0.2097203296
C  C70  1  0.18430000  0.31570000  0.75988000  1.0 -0.2097203296
C  C71  1  0.18430000  0.68430000  0.25988000  1.0 -0.2097203296
C  C72  1  0.31570000  0.81570000  0.75988000  1.0 -0.2097203296
C  C73  1  0.23360000  0.12920000  0.26430000  1.0 0.1288630906
C  C74  1  0.26640000  0.37080000  0.76430000  1.0 0.1288630906
C  C75  1  0.26640000  0.62920000  0.26430000  1.0 0.1288630906
C  C76  1  0.23360000  0.87080000  0.76430000  1.0 0.1288630906
C  C77  1  0.21590000  0.07570000  0.24533000  1.0 -0.2097203296
C  C78  1  0.28410000  0.42430000  0.74533000  1.0 -0.2097203296
C  C79  1  0.28410000  0.57570000  0.24533000  1.0 -0.2097203296
C  C80  1  0.21590000  0.92430000  0.74533000  1.0 -0.2097203296
C  C81  1  0.27580000  0.08350000  0.22303000  1.0 0.0776714969
C  C82  1  0.22420000  0.41650000  0.72303000  1.0 0.0776714969
C  C83  1  0.22420000  0.58350000  0.22303000  1.0 0.0776714969
C  C84  1  0.27580000  0.91650000  0.72303000  1.0 0.0776714969
C  C85  1  0.16770000  0.12610000  0.28815000  1.0 0.0582022264
C  C86  1  0.33230000  0.37390000  0.78815000  1.0 0.0582022264
C  C87  1  0.33230000  0.62610000  0.28815000  1.0 0.0582022264
C  C88  1  0.16770000  0.87390000  0.78815000  1.0 0.0582022264
C  C89  1  0.19980000  0.17140000  0.30897000  1.0 -0.1208446394
C  C90  1  0.30020000  0.32860000  0.80897000  1.0 -0.1208446394
C  C91  1  0.30020000  0.67140000  0.30897000  1.0 -0.1208446394
C  C92  1  0.19980000  0.82860000  0.80897000  1.0 -0.1208446394
C  C93  1  0.14100000  0.16970000  0.33153000  1.0 -0.1684380856
C  C94  1  0.35900000  0.33030000  0.83153000  1.0 -0.1684380856
C  C95  1  0.35900000  0.66970000  0.33153000  1.0 -0.1684380856
C  C96  1  0.14100000  0.83030000  0.83153000  1.0 -0.1684380856
C  C97  1  0.04560000  0.12240000  0.33392000  1.0 0.227386317
C  C98  1  0.45440000  0.37760000  0.83392000  1.0 0.227386317
C  C99  1  0.45440000  0.62240000  0.33392000  1.0 0.227386317
C  C100  1  0.04560000  0.87760000  0.83392000  1.0 0.227386317
C  C101  1  0.01360000  0.07630000  0.31310000  1.0 -0.1506628669
C  C102  1  0.48640000  0.42370000  0.81310000  1.0 -0.1506628669
C  C103  1  0.48640000  0.57630000  0.31310000  1.0 -0.1506628669
C  C104  1  0.01360000  0.92370000  0.81310000  1.0 -0.1506628669
C  C105  1  0.07360000  0.07930000  0.29083000  1.0 -0.1360623103
C  C106  1  0.42640000  0.42070000  0.79083000  1.0 -0.1360623103
C  C107  1  0.42640000  0.57930000  0.29083000  1.0 -0.1360623103
C  C108  1  0.07360000  0.92070000  0.79083000  1.0 -0.1360623103
C  C109  1  0.00000000  0.13980000  0.38039000  1.0 0.2200527291
C  C110  1  0.50000000  0.36020000  0.88039000  1.0 0.2200527291
C  C111  1  0.50000000  0.63980000  0.38039000  1.0 0.2200527291
C  C112  1  0.00000000  0.86020000  0.88039000  1.0 0.2200527291
C  C113  1  0.90650000  0.15770000  0.39553000  1.0 -0.1506628669
C  C114  1  0.59350000  0.34230000  0.89553000  1.0 -0.1506628669
C  C115  1  0.59350000  0.65770000  0.39553000  1.0 -0.1506628669
C  C116  1  0.90650000  0.84230000  0.89553000  1.0 -0.1506628669
C  C117  1  0.91920000  0.17940000  0.42000000  1.0 -0.1208446394
C  C118  1  0.58080000  0.32060000  0.92000000  1.0 -0.1208446394
C  C119  1  0.58080000  0.67940000  0.42000000  1.0 -0.1208446394
C  C120  1  0.91920000  0.82060000  0.92000000  1.0 -0.1208446394
C  C121  1  0.02710000  0.18650000  0.43103000  1.0 0.0582022264
C  C122  1  0.47290000  0.31350000  0.93103000  1.0 0.0582022264
C  C123  1  0.47290000  0.68650000  0.43103000  1.0 0.0582022264
C  C124  1  0.02710000  0.81350000  0.93103000  1.0 0.0582022264
C  C125  1  0.11880000  0.16800000  0.41532000  1.0 -0.1208446394
C  C126  1  0.38120000  0.33200000  0.91532000  1.0 -0.1208446394
C  C127  1  0.38120000  0.66800000  0.41532000  1.0 -0.1208446394
C  C128  1  0.11880000  0.83200000  0.91532000  1.0 -0.1208446394
C  C129  1  0.10660000  0.14600000  0.39072000  1.0 -0.1638128446
C  C130  1  0.39340000  0.35400000  0.89072000  1.0 -0.1638128446
C  C131  1  0.39340000  0.64600000  0.39072000  1.0 -0.1638128446
C  C132  1  0.10660000  0.85400000  0.89072000  1.0 -0.1638128446
C  C133  1  0.96480000  0.24700000  0.49776000  1.0 0.0528452035
C  C134  1  0.53520000  0.25300000  0.99776000  1.0 0.0528452035
C  C135  1  0.53520000  0.74700000  0.49776000  1.0 0.0528452035
C  C136  1  0.96480000  0.75300000  0.99776000  1.0 0.0528452035
C  C137  1  0.94900000  0.21840000  0.47362000  1.0 -0.2097203296
C  C138  1  0.55100000  0.28160000  0.97362000  1.0 -0.2097203296
C  C139  1  0.55100000  0.71840000  0.47362000  1.0 -0.2097203296
C  C140  1  0.94900000  0.78160000  0.97362000  1.0 -0.2097203296
C  C141  1  0.04050000  0.21390000  0.45737000  1.0 0.1288630906
C  C142  1  0.45950000  0.28610000  0.95737000  1.0 0.1288630906
C  C143  1  0.45950000  0.71390000  0.45737000  1.0 0.1288630906
C  C144  1  0.04050000  0.78610000  0.95737000  1.0 0.1288630906
C  C145  1  0.13940000  0.23000000  0.46807000  1.0 -0.2036840555
C  C146  1  0.36060000  0.27000000  0.96807000  1.0 -0.2036840555
C  C147  1  0.36060000  0.73000000  0.46807000  1.0 -0.2036840555
C  C148  1  0.13940000  0.77000000  0.96807000  1.0 -0.2036840555
C  C149  1  0.14360000  0.25970000  0.49264000  1.0 0.0888086276
C  C150  1  0.35640000  0.24030000  0.99264000  1.0 0.0888086276
C  C151  1  0.35640000  0.75970000  0.49264000  1.0 0.0888086276
C  C152  1  0.14360000  0.74030000  0.99264000  1.0 0.0888086276
C  C153  1  0.63850000  0.29340000  0.07634000  1.0 0.5694602533
C  C154  1  0.86150000  0.20660000  0.57634000  1.0 0.5694602533
C  C155  1  0.86150000  0.79340000  0.07634000  1.0 0.5694602533
C  C156  1  0.63850000  0.70660000  0.57634000  1.0 0.5694602533
C  C157  1  0.71510000  0.36470000  0.07265000  1.0 -0.0201314147
C  C158  1  0.78490000  0.13530000  0.57265000  1.0 -0.0201314147
C  C159  1  0.78490000  0.86470000  0.07265000  1.0 -0.0201314147
C  C160  1  0.71510000  0.63530000  0.57265000  1.0 -0.0201314147
C  C161  1  0.69660000  0.41470000  0.05252000  1.0 -0.1208446394
C  C162  1  0.80340000  0.08530000  0.55252000  1.0 -0.1208446394
C  C163  1  0.80340000  0.91470000  0.05252000  1.0 -0.1208446394
C  C164  1  0.69660000  0.58530000  0.55252000  1.0 -0.1208446394
C  C165  1  0.76610000  0.48020000  0.04842000  1.0 -0.1086568521
C  C166  1  0.73390000  0.01980000  0.54842000  1.0 -0.1086568521
C  C167  1  0.73390000  0.98020000  0.04842000  1.0 -0.1086568521
C  C168  1  0.76610000  0.51980000  0.54842000  1.0 -0.1086568521
C  C169  1  0.85270000  0.49680000  0.06527000  1.0 -0.0201314147
C  C170  1  0.64730000  0.00320000  0.56527000  1.0 -0.0201314147
C  C171  1  0.64730000  0.99680000  0.06527000  1.0 -0.0201314147
C  C172  1  0.85270000  0.50320000  0.56527000  1.0 -0.0201314147
C  C173  1  0.87050000  0.44580000  0.08491000  1.0 -0.0998868047
C  C174  1  0.62950000  0.05420000  0.58491000  1.0 -0.0998868047
C  C175  1  0.62950000  0.94580000  0.08491000  1.0 -0.0998868047
C  C176  1  0.87050000  0.55420000  0.58491000  1.0 -0.0998868047
C  C177  1  0.80270000  0.38040000  0.08849000  1.0 -0.0998868047
C  C178  1  0.69730000  0.11960000  0.58849000  1.0 -0.0998868047
C  C179  1  0.69730000  0.88040000  0.08849000  1.0 -0.0998868047
C  C180  1  0.80270000  0.61960000  0.58849000  1.0 -0.0998868047
C  C181  1  0.92610000  0.56730000  0.06069000  1.0 0.5623277803
C  C182  1  0.57390000  0.93270000  0.56069000  1.0 0.5694602533
C  C183  1  0.57390000  0.06730000  0.06069000  1.0 0.5623277803
C  C184  1  0.92610000  0.43270000  0.56069000  1.0 0.5694602533
C  C185  1  0.81230000  0.43670000  0.85722000  1.0 0.5694602533
C  C186  1  0.68770000  0.06330000  0.35722000  1.0 0.5694602533
C  C187  1  0.68770000  0.93670000  0.85722000  1.0 0.5694602533
C  C188  1  0.81230000  0.56330000  0.35722000  1.0 0.5694602533
C  C189  1  0.77200000  0.50390000  0.87345000  1.0 -0.0201314147
C  C190  1  0.72800000  0.99610000  0.37345000  1.0 -0.0201314147
C  C191  1  0.72800000  0.00390000  0.87345000  1.0 -0.0201314147
C  C192  1  0.77200000  0.49610000  0.37345000  1.0 -0.0201314147
C  C193  1  0.69670000  0.55940000  0.86376000  1.0 -0.0904626411
C  C194  1  0.80330000  0.94060000  0.36376000  1.0 -0.0904626411
C  C195  1  0.80330000  0.05940000  0.86376000  1.0 -0.0904626411
C  C196  1  0.69670000  0.44060000  0.36376000  1.0 -0.0904626411
C  C197  1  0.66220000  0.62330000  0.87801000  1.0 -0.0998868047
C  C198  1  0.83780000  0.87670000  0.37801000  1.0 -0.0998868047
C  C199  1  0.83780000  0.12330000  0.87801000  1.0 -0.0998868047
C  C200  1  0.66220000  0.37670000  0.37801000  1.0 -0.0998868047
C  C201  1  0.70690000  0.63420000  0.90208000  1.0 -0.0201314147
C  C202  1  0.79310000  0.86580000  0.40208000  1.0 -0.0201314147
C  C203  1  0.79310000  0.13420000  0.90208000  1.0 -0.0201314147
C  C204  1  0.70690000  0.36580000  0.40208000  1.0 -0.0201314147
C  C205  1  0.78170000  0.57960000  0.91162000  1.0 -0.0998868047
C  C206  1  0.71830000  0.92040000  0.41162000  1.0 -0.0998868047
C  C207  1  0.71830000  0.07960000  0.91162000  1.0 -0.0998868047
C  C208  1  0.78170000  0.42040000  0.41162000  1.0 -0.0998868047
C  C209  1  0.81480000  0.51350000  0.89765000  1.0 -0.1086568521
C  C210  1  0.68520000  0.98650000  0.39765000  1.0 -0.1086568521
C  C211  1  0.68520000  0.01350000  0.89765000  1.0 -0.1086568521
C  C212  1  0.81480000  0.48650000  0.39765000  1.0 -0.1086568521
C  C213  1  0.67070000  0.70430000  0.91750000  1.0 0.5623277803
C  C214  1  0.82930000  0.79570000  0.41750000  1.0 0.5623277803
C  C215  1  0.82930000  0.20430000  0.91750000  1.0 0.5623277803
C  C216  1  0.67070000  0.29570000  0.41750000  1.0 0.5623277803
C  C217  1  0.05970000  0.20750000  0.82965000  1.0 0.5623277803
C  C218  1  0.44030000  0.29250000  0.32965000  1.0 0.5623277803
C  C219  1  0.44030000  0.70750000  0.82965000  1.0 0.5623277803
C  C220  1  0.05970000  0.79250000  0.32965000  1.0 0.5623277803
C  C221  1  0.13980000  0.13850000  0.83320000  1.0 -0.0201314147
C  C222  1  0.36020000  0.36150000  0.33320000  1.0 -0.0201314147
C  C223  1  0.36020000  0.63850000  0.83320000  1.0 -0.0201314147
C  C224  1  0.13980000  0.86150000  0.33320000  1.0 -0.0201314147
C  C225  1  0.14540000  0.09890000  0.85579000  1.0 -0.0998868047
C  C226  1  0.35460000  0.40110000  0.35579000  1.0 -0.0998868047
C  C227  1  0.35460000  0.59890000  0.85579000  1.0 -0.0998868047
C  C228  1  0.14540000  0.90110000  0.35579000  1.0 -0.0998868047
C  C229  1  0.21910000  0.03540000  0.85875000  1.0 -0.0998868047
C  C230  1  0.28090000  0.46460000  0.35875000  1.0 -0.0998868047
C  C231  1  0.28090000  0.53540000  0.85875000  1.0 -0.0998868047
C  C232  1  0.21910000  0.96460000  0.35875000  1.0 -0.0998868047
C  C233  1  0.28960000  0.01060000  0.83957000  1.0 -0.0201314147
C  C234  1  0.21040000  0.48940000  0.33957000  1.0 -0.0201314147
C  C235  1  0.21040000  0.51060000  0.83957000  1.0 -0.0201314147
C  C236  1  0.28960000  0.98940000  0.33957000  1.0 -0.0201314147
C  C237  1  0.28080000  0.04880000  0.81639000  1.0 -0.0998868047
C  C238  1  0.21920000  0.45120000  0.31639000  1.0 -0.0998868047
C  C239  1  0.21920000  0.54880000  0.81639000  1.0 -0.0998868047
C  C240  1  0.28080000  0.95120000  0.31639000  1.0 -0.0998868047
C  C241  1  0.20610000  0.11110000  0.81303000  1.0 -0.1086568521
C  C242  1  0.29390000  0.38890000  0.31303000  1.0 -0.1086568521
C  C243  1  0.29390000  0.61110000  0.81303000  1.0 -0.1086568521
C  C244  1  0.20610000  0.88890000  0.31303000  1.0 -0.1086568521
C  C245  1  0.37280000  0.94140000  0.84315000  1.0 0.5755384478
C  C246  1  0.12720000  0.55860000  0.34315000  1.0 0.5755384478
C  C247  1  0.12720000  0.44140000  0.84315000  1.0 0.5755384478
C  C248  1  0.37280000  0.05860000  0.34315000  1.0 0.5755384478
C  C249  1  0.86940000  0.31350000  0.76371000  1.0 0.0888086276
C  C250  1  0.63060000  0.18650000  0.26371000  1.0 0.0888086276
C  C251  1  0.63060000  0.81350000  0.76371000  1.0 0.0888086276
C  C252  1  0.86940000  0.68650000  0.26371000  1.0 0.0888086276
C  C253  1  0.81570000  0.31570000  0.74012000  1.0 -0.2097203296
C  C254  1  0.68430000  0.18430000  0.24012000  1.0 -0.2097203296
C  C255  1  0.68430000  0.81570000  0.74012000  1.0 -0.2097203296
C  C256  1  0.81570000  0.68430000  0.24012000  1.0 -0.2097203296
C  C257  1  0.73360000  0.37080000  0.73570000  1.0 0.1288630906
C  C258  1  0.76640000  0.12920000  0.23570000  1.0 0.1288630906
C  C259  1  0.76640000  0.87080000  0.73570000  1.0 0.1288630906
C  C260  1  0.73360000  0.62920000  0.23570000  1.0 0.1288630906
C  C261  1  0.71590000  0.42430000  0.75467000  1.0 -0.2097203296
C  C262  1  0.78410000  0.07570000  0.25467000  1.0 -0.2097203296
C  C263  1  0.78410000  0.92430000  0.75467000  1.0 -0.2097203296
C  C264  1  0.71590000  0.57570000  0.25467000  1.0 -0.2097203296
C  C265  1  0.77580000  0.41650000  0.77697000  1.0 0.0776714969
C  C266  1  0.72420000  0.08350000  0.27697000  1.0 0.0776714969
C  C267  1  0.72420000  0.91650000  0.77697000  1.0 0.0776714969
C  C268  1  0.77580000  0.58350000  0.27697000  1.0 0.0776714969
C  C269  1  0.66770000  0.37390000  0.71185000  1.0 0.0582022264
C  C270  1  0.83230000  0.12610000  0.21185000  1.0 0.0582022264
C  C271  1  0.83230000  0.87390000  0.71185000  1.0 0.0582022264
C  C272  1  0.66770000  0.62610000  0.21185000  1.0 0.0582022264
C  C273  1  0.69980000  0.32860000  0.69103000  1.0 -0.1208446394
C  C274  1  0.80020000  0.17140000  0.19103000  1.0 -0.1208446394
C  C275  1  0.80020000  0.82860000  0.69103000  1.0 -0.1208446394
C  C276  1  0.69980000  0.67140000  0.19103000  1.0 -0.1208446394
C  C277  1  0.64100000  0.33030000  0.66847000  1.0 -0.1684380856
C  C278  1  0.85900000  0.16970000  0.16847000  1.0 -0.1684380856
C  C279  1  0.85900000  0.83030000  0.66847000  1.0 -0.1684380856
C  C280  1  0.64100000  0.66970000  0.16847000  1.0 -0.1684380856
C  C281  1  0.54560000  0.37760000  0.66608000  1.0 0.227386317
C  C282  1  0.95440000  0.12240000  0.16608000  1.0 0.227386317
C  C283  1  0.95440000  0.87760000  0.66608000  1.0 0.227386317
C  C284  1  0.54560000  0.62240000  0.16608000  1.0 0.227386317
C  C285  1  0.51360000  0.42370000  0.68690000  1.0 -0.1506628669
C  C286  1  0.98640000  0.07630000  0.18690000  1.0 -0.1638128446
C  C287  1  0.98640000  0.92370000  0.68690000  1.0 -0.1506628669
C  C288  1  0.51360000  0.57630000  0.18690000  1.0 -0.1506628669
C  C289  1  0.57360000  0.42070000  0.70917000  1.0 -0.1360623103
C  C290  1  0.92640000  0.07930000  0.20917000  1.0 -0.1360623103
C  C291  1  0.92640000  0.92070000  0.70917000  1.0 -0.1360623103
C  C292  1  0.57360000  0.57930000  0.20917000  1.0 -0.1360623103
C  C293  1  0.50000000  0.36020000  0.61961000  1.0 0.2200527291
C  C294  1  0.00000000  0.13980000  0.11961000  1.0 0.2200527291
C  C295  1  0.00000000  0.86020000  0.61961000  1.0 0.2200527291
C  C296  1  0.50000000  0.63980000  0.11961000  1.0 0.2200527291
C  C297  1  0.40650000  0.34230000  0.60447000  1.0 -0.1506628669
C  C298  1  0.09350000  0.15770000  0.10447000  1.0 -0.1506628669
C  C299  1  0.09350000  0.84230000  0.60447000  1.0 -0.1506628669
C  C300  1  0.40650000  0.65770000  0.10447000  1.0 -0.1506628669
C  C301  1  0.41920000  0.32060000  0.58000000  1.0 -0.1208446394
C  C302  1  0.08080000  0.17940000  0.08000000  1.0 -0.1208446394
C  C303  1  0.08080000  0.82060000  0.58000000  1.0 -0.1208446394
C  C304  1  0.41920000  0.67940000  0.08000000  1.0 -0.1208446394
C  C305  1  0.52710000  0.31350000  0.56897000  1.0 0.0582022264
C  C306  1  0.97290000  0.18650000  0.06897000  1.0 0.0582022264
C  C307  1  0.97290000  0.81350000  0.56897000  1.0 0.0582022264
C  C308  1  0.52710000  0.68650000  0.06897000  1.0 0.0582022264
C  C309  1  0.61880000  0.33200000  0.58468000  1.0 -0.1208446394
C  C310  1  0.88120000  0.16800000  0.08468000  1.0 -0.1208446394
C  C311  1  0.88120000  0.83200000  0.58468000  1.0 -0.1208446394
C  C312  1  0.61880000  0.66800000  0.08468000  1.0 -0.1208446394
C  C313  1  0.60660000  0.35400000  0.60928000  1.0 -0.1638128446
C  C314  1  0.89340000  0.14600000  0.10928000  1.0 -0.1638128446
C  C315  1  0.89340000  0.85400000  0.60928000  1.0 -0.1638128446
C  C316  1  0.60660000  0.64600000  0.10928000  1.0 -0.1638128446
C  C317  1  0.46480000  0.25300000  0.50224000  1.0 0.0528452035
C  C318  1  0.03520000  0.24700000  0.00224000  1.0 0.0528452035
C  C319  1  0.03520000  0.75300000  0.50224000  1.0 0.0528452035
C  C320  1  0.46480000  0.74700000  0.00224000  1.0 0.0528452035
C  C321  1  0.44900000  0.28160000  0.52638000  1.0 -0.2097203296
C  C322  1  0.05100000  0.21840000  0.02638000  1.0 -0.2097203296
C  C323  1  0.05100000  0.78160000  0.52638000  1.0 -0.2097203296
C  C324  1  0.44900000  0.71840000  0.02638000  1.0 -0.2097203296
C  C325  1  0.54050000  0.28610000  0.54263000  1.0 0.1288630906
C  C326  1  0.95950000  0.21390000  0.04263000  1.0 0.1288630906
C  C327  1  0.95950000  0.78610000  0.54263000  1.0 0.1288630906
C  C328  1  0.54050000  0.71390000  0.04263000  1.0 0.1288630906
C  C329  1  0.63940000  0.27000000  0.53193000  1.0 -0.2036840555
C  C330  1  0.86060000  0.23000000  0.03193000  1.0 -0.2036840555
C  C331  1  0.86060000  0.77000000  0.53193000  1.0 -0.2036840555
C  C332  1  0.63940000  0.73000000  0.03193000  1.0 -0.2036840555
C  C333  1  0.64360000  0.24030000  0.50736000  1.0 0.0888086276
C  C334  1  0.85640000  0.25970000  0.00736000  1.0 0.0888086276
C  C335  1  0.85640000  0.74030000  0.50736000  1.0 0.0888086276
C  C336  1  0.64360000  0.75970000  0.00736000  1.0 0.0888086276
C  C337  1  0.13850000  0.20660000  0.92366000  1.0 0.5694602533
C  C338  1  0.36150000  0.29340000  0.42366000  1.0 0.5694602533
C  C339  1  0.36150000  0.70660000  0.92366000  1.0 0.5694602533
C  C340  1  0.13850000  0.79340000  0.42366000  1.0 0.5694602533
C  C341  1  0.21510000  0.13530000  0.92735000  1.0 -0.0201314147
C  C342  1  0.28490000  0.36470000  0.42735000  1.0 -0.0201314147
C  C343  1  0.28490000  0.63530000  0.92735000  1.0 -0.0201314147
C  C344  1  0.21510000  0.86470000  0.42735000  1.0 -0.0201314147
C  C345  1  0.19660000  0.08530000  0.94748000  1.0 -0.1208446394
C  C346  1  0.30340000  0.41470000  0.44748000  1.0 -0.1208446394
C  C347  1  0.30340000  0.58530000  0.94748000  1.0 -0.1208446394
C  C348  1  0.19660000  0.91470000  0.44748000  1.0 -0.1208446394
C  C349  1  0.26610000  0.01980000  0.95158000  1.0 -0.1086568521
C  C350  1  0.23390000  0.48020000  0.45158000  1.0 -0.1086568521
C  C351  1  0.23390000  0.51980000  0.95158000  1.0 -0.1086568521
C  C352  1  0.26610000  0.98020000  0.45158000  1.0 -0.1086568521
C  C353  1  0.35270000  0.00320000  0.93473000  1.0 -0.0201314147
C  C354  1  0.14730000  0.49680000  0.43473000  1.0 -0.0201314147
C  C355  1  0.14730000  0.50320000  0.93473000  1.0 -0.0201314147
C  C356  1  0.35270000  0.99680000  0.43473000  1.0 -0.0201314147
C  C357  1  0.37050000  0.05420000  0.91509000  1.0 -0.0998868047
C  C358  1  0.12950000  0.44580000  0.41509000  1.0 -0.0998868047
C  C359  1  0.12950000  0.55420000  0.91509000  1.0 -0.0998868047
C  C360  1  0.37050000  0.94580000  0.41509000  1.0 -0.0998868047
C  C361  1  0.30270000  0.11960000  0.91151000  1.0 -0.0998868047
C  C362  1  0.19730000  0.38040000  0.41151000  1.0 -0.0998868047
C  C363  1  0.19730000  0.61960000  0.91151000  1.0 -0.0998868047
C  C364  1  0.30270000  0.88040000  0.41151000  1.0 -0.0998868047
C  C365  1  0.42610000  0.93270000  0.93931000  1.0 0.5694602533
C  C366  1  0.07390000  0.56730000  0.43931000  1.0 0.5694602533
C  C367  1  0.07390000  0.43270000  0.93931000  1.0 0.5694602533
C  C368  1  0.42610000  0.06730000  0.43931000  1.0 0.5694602533
N  N1  1  0.35170000  0.13780000  0.21779000  1.0 -0.2333249536
N  N2  1  0.14830000  0.36220000  0.71779000  1.0 -0.2333249536
N  N3  1  0.14830000  0.63780000  0.21779000  1.0 -0.2333249536
N  N4  1  0.35170000  0.86220000  0.71779000  1.0 -0.2333249536
N  N5  1  0.06310000  0.26740000  0.50780000  1.0 -0.2097203296
N  N6  1  0.43690000  0.23260000  0.00780000  1.0 -0.2097203296
N  N7  1  0.43690000  0.76740000  0.50780000  1.0 -0.2097203296
N  N8  1  0.06310000  0.73260000  0.00780000  1.0 -0.2097203296
N  N9  1  0.97660000  0.11640000  0.35552000  1.0 -0.4176285353
N  N10  1  0.52340000  0.38360000  0.85552000  1.0 -0.4176285353
N  N11  1  0.52340000  0.61640000  0.35552000  1.0 -0.4176285353
N  N12  1  0.97660000  0.88360000  0.85552000  1.0 -0.4176285353
N  N13  1  0.85170000  0.36220000  0.78221000  1.0 -0.2333249536
N  N14  1  0.64830000  0.13780000  0.28221000  1.0 -0.2333249536
N  N15  1  0.64830000  0.86220000  0.78221000  1.0 -0.2333249536
N  N16  1  0.85170000  0.63780000  0.28221000  1.0 -0.2333249536
N  N17  1  0.56310000  0.23260000  0.49220000  1.0 -0.2097203296
N  N18  1  0.93690000  0.26740000  0.99220000  1.0 -0.2097203296
N  N19  1  0.93690000  0.73260000  0.49220000  1.0 -0.2097203296
N  N20  1  0.56310000  0.76740000  0.99220000  1.0 -0.2097203296
N  N21  1  0.47660000  0.38360000  0.64448000  1.0 -0.4176285353
N  N22  1  0.02340000  0.11640000  0.14448000  1.0 -0.4176285353
N  N23  1  0.02340000  0.88360000  0.64448000  1.0 -0.4176285353
N  N24  1  0.47660000  0.61640000  0.14448000  1.0 -0.4176285353
O  O1  1  0.28050000  0.06630000  0.16524000  1.0 -0.5301729527
O  O2  1  0.21950000  0.43370000  0.66524000  1.0 -0.5301729527
O  O3  1  0.21950000  0.56630000  0.16524000  1.0 -0.5301729527
O  O4  1  0.28050000  0.93370000  0.66524000  1.0 -0.5301729527
O  O5  1  0.37540000  0.11740000  0.13392000  1.0 -0.5710913365
O  O6  1  0.12460000  0.38260000  0.63392000  1.0 -0.5710913365
O  O7  1  0.12460000  0.61740000  0.13392000  1.0 -0.5710913365
O  O8  1  0.37540000  0.88260000  0.63392000  1.0 -0.5710913365
O  O9  1  0.12210000  0.73859000  0.09307000  1.0 -0.5606942859
O  O10  1  0.37790000  0.76141000  0.59307000  1.0 -0.5606942859
O  O11  1  0.37790000  0.23859000  0.09307000  1.0 -0.5606942859
O  O12  1  0.12210000  0.26141000  0.59307000  1.0 -0.5606942859
O  O13  1  0.19060000  0.79538000  0.05930000  1.0 -0.5366741505
O  O14  1  0.30940000  0.70462000  0.55930000  1.0 -0.5366741505
O  O15  1  0.30940000  0.29538000  0.05930000  1.0 -0.5366741505
O  O16  1  0.19060000  0.20462000  0.55930000  1.0 -0.5366741505
O  O17  1  0.51740000  0.25878000  0.15118000  1.0 -0.5819066328
O  O18  1  0.98260000  0.24122000  0.65118000  1.0 -0.5819066328
O  O19  1  0.98260000  0.75878000  0.15118000  1.0 -0.5819066328
O  O20  1  0.51740000  0.74122000  0.65118000  1.0 -0.5819066328
O  O21  1  0.53520000  0.26980000  0.19217000  1.0 -0.5505080905
O  O22  1  0.96480000  0.23020000  0.69217000  1.0 -0.5505080905
O  O23  1  0.96480000  0.76980000  0.19217000  1.0 -0.5505080905
O  O24  1  0.53520000  0.73020000  0.69217000  1.0 -0.5505080905
O  O25  1  0.86620000  0.59194000  0.13563000  1.0 -0.5710913365
O  O26  1  0.63380000  0.90806000  0.63563000  1.0 -0.5710913365
O  O27  1  0.63380000  0.09194000  0.13563000  1.0 -0.5710913365
O  O28  1  0.86620000  0.40806000  0.63563000  1.0 -0.5710913365
O  O29  1  0.94040000  0.57324000  0.17390000  1.0 -0.5301729527
O  O30  1  0.55960000  0.92676000  0.67390000  1.0 -0.5301729527
O  O31  1  0.55960000  0.07324000  0.17390000  1.0 -0.5301729527
O  O32  1  0.94040000  0.42676000  0.67390000  1.0 -0.5301729527
O  O33  1  0.98480000  0.59624000  0.07842000  1.0 -0.587527999
O  O34  1  0.51520000  0.90376000  0.57842000  1.0 -0.587527999
O  O35  1  0.51520000  0.09624000  0.07842000  1.0 -0.587527999
O  O36  1  0.98480000  0.40376000  0.57842000  1.0 -0.587527999
O  O37  1  0.93020000  0.59670000  0.03909000  1.0 -0.5213070002
O  O38  1  0.56980000  0.90330000  0.53909000  1.0 -0.5213070002
O  O39  1  0.56980000  0.09670000  0.03909000  1.0 -0.5213070002
O  O40  1  0.93020000  0.40330000  0.53909000  1.0 -0.5213070002
O  O41  1  0.57790000  0.27600000  0.05785000  1.0 -0.5505080905
O  O42  1  0.92210000  0.22400000  0.55785000  1.0 -0.5505080905
O  O43  1  0.92210000  0.77600000  0.05785000  1.0 -0.5505080905
O  O44  1  0.57790000  0.72400000  0.55785000  1.0 -0.5505080905
O  O45  1  0.64240000  0.25949000  0.09694000  1.0 -0.5366741505
O  O46  1  0.85760000  0.24051000  0.59694000  1.0 -0.5366741505
O  O47  1  0.85760000  0.75949000  0.09694000  1.0 -0.5366741505
O  O48  1  0.64240000  0.74051000  0.59694000  1.0 -0.5366741505
O  O49  1  0.78050000  0.43370000  0.83476000  1.0 -0.5301729527
O  O50  1  0.71950000  0.06630000  0.33476000  1.0 -0.5301729527
O  O51  1  0.71950000  0.93370000  0.83476000  1.0 -0.5301729527
O  O52  1  0.78050000  0.56630000  0.33476000  1.0 -0.5301729527
O  O53  1  0.87540000  0.38260000  0.86608000  1.0 -0.5710913365
O  O54  1  0.62460000  0.11740000  0.36608000  1.0 -0.5710913365
O  O55  1  0.62460000  0.88260000  0.86608000  1.0 -0.5710913365
O  O56  1  0.87540000  0.61740000  0.36608000  1.0 -0.5710913365
O  O57  1  0.62210000  0.76141000  0.90693000  1.0 -0.5606942859
O  O58  1  0.87790000  0.73859000  0.40693000  1.0 -0.5606942859
O  O59  1  0.87790000  0.26141000  0.90693000  1.0 -0.5606942859
O  O60  1  0.62210000  0.23859000  0.40693000  1.0 -0.5606942859
O  O61  1  0.69060000  0.70462000  0.94070000  1.0 -0.5366741505
O  O62  1  0.80940000  0.79538000  0.44070000  1.0 -0.5366741505
O  O63  1  0.80940000  0.20462000  0.94070000  1.0 -0.5366741505
O  O64  1  0.69060000  0.29538000  0.44070000  1.0 -0.5366741505
O  O65  1  0.01740000  0.24122000  0.84882000  1.0 -0.5819066328
O  O66  1  0.48260000  0.25878000  0.34882000  1.0 -0.5819066328
O  O67  1  0.48260000  0.74122000  0.84882000  1.0 -0.5819066328
O  O68  1  0.01740000  0.75878000  0.34882000  1.0 -0.5819066328
O  O69  1  0.03520000  0.23020000  0.80783000  1.0 -0.5505080905
O  O70  1  0.46480000  0.26980000  0.30783000  1.0 -0.5505080905
O  O71  1  0.46480000  0.73020000  0.80783000  1.0 -0.5505080905
O  O72  1  0.03520000  0.76980000  0.30783000  1.0 -0.5505080905
O  O73  1  0.36620000  0.90806000  0.86437000  1.0 -0.5710913365
O  O74  1  0.13380000  0.59194000  0.36437000  1.0 -0.5710913365
O  O75  1  0.13380000  0.40806000  0.86437000  1.0 -0.5710913365
O  O76  1  0.36620000  0.09194000  0.36437000  1.0 -0.5710913365
O  O77  1  0.44040000  0.92676000  0.82610000  1.0 -0.5301729527
O  O78  1  0.05960000  0.57324000  0.32610000  1.0 -0.5301729527
O  O79  1  0.05960000  0.42676000  0.82610000  1.0 -0.5301729527
O  O80  1  0.44040000  0.07324000  0.32610000  1.0 -0.5301729527
O  O81  1  0.48480000  0.90376000  0.92158000  1.0 -0.587527999
O  O82  1  0.01520000  0.59624000  0.42158000  1.0 -0.587527999
O  O83  1  0.01520000  0.40376000  0.92158000  1.0 -0.587527999
O  O84  1  0.48480000  0.09624000  0.42158000  1.0 -0.587527999
O  O85  1  0.43020000  0.90330000  0.96091000  1.0 -0.5213070002
O  O86  1  0.06980000  0.59670000  0.46091000  1.0 -0.5213070002
O  O87  1  0.06980000  0.40330000  0.96091000  1.0 -0.5213070002
O  O88  1  0.43020000  0.09670000  0.46091000  1.0 -0.5213070002
O  O89  1  0.07790000  0.22400000  0.94215000  1.0 -0.5505080905
O  O90  1  0.42210000  0.27600000  0.44215000  1.0 -0.5505080905
O  O91  1  0.42210000  0.72400000  0.94215000  1.0 -0.5505080905
O  O92  1  0.07790000  0.77600000  0.44215000  1.0 -0.5505080905
O  O93  1  0.14240000  0.24051000  0.90306000  1.0 -0.5366741505
O  O94  1  0.35760000  0.25949000  0.40306000  1.0 -0.5366741505
O  O95  1  0.35760000  0.74051000  0.90306000  1.0 -0.5366741505
O  O96  1  0.14240000  0.75949000  0.40306000  1.0 -0.5366741505
