# DDEC6 charges by PACMAN v1.1 (https://github.com/mtap-research/PACMAN-charge/)
data_RUGRUJ_ASR_pacman
_symmetry_space_group_name_H-M   'P 1'
_cell_length_a   9.22710000
_cell_length_b   11.70440000
_cell_length_c   22.01000000
_cell_angle_alpha   83.41500000
_cell_angle_beta   83.36900000
_cell_angle_gamma   70.94400000
_symmetry_Int_Tables_number   1
_chemical_formula_structural   NiH24C24(N2O3)2
_chemical_formula_sum   'Ni3 H72 C72 N12 O18'
_cell_volume   2224.22409769
_cell_formula_units_Z   3
loop_
 _symmetry_equiv_pos_site_id
 _symmetry_equiv_pos_as_xyz
  1  'x, y, z'
loop_
 _atom_site_type_symbol
 _atom_site_label
 _atom_site_symmetry_multiplicity
 _atom_site_fract_x
 _atom_site_fract_y
 _atom_site_fract_z
 _atom_site_occupancy
 _atom_site_charge
Ni  Ni1  1  0.74982000  0.20351000  0.16252000  1.0 0.3281833408
Ni  Ni2  1  0.25018000  0.79649000  0.83748000  1.0 0.3281833408
Ni  Ni3  1  0.00000000  0.00000000  0.50000000  1.0 0.6684558866
H  H1  1  0.26540000  0.02810000  0.40530000  1.0 0.119900821
H  H2  1  0.46030000  0.11070000  0.39350000  1.0 0.1464598653
H  H3  1  0.38690000  0.29250000  0.57300000  1.0 0.3084996817
H  H4  1  0.50730000  0.20280000  0.47380000  1.0 0.1464598653
H  H5  1  0.28490000  0.04780000  0.03930000  1.0 0.2982199369
H  H6  1  0.15970000  0.12070000  0.57310000  1.0 0.1301487662
H  H7  1  0.21130000  0.37330000  0.28430000  1.0 0.2982199369
H  H8  1  0.57080000  0.05780000  0.24300000  1.0 0.1301487662
H  H9  1  0.37460000  0.97860000  0.24000000  1.0 0.1395045674
H  H10  1  0.25530000  0.00470000  0.15000000  1.0 0.1395045674
H  H11  1  0.53830000  0.18420000  0.07110000  1.0 0.1301487662
H  H12  1  0.19150000  0.10770000  0.95520000  1.0 0.1301487662
H  H13  1  0.10290000  0.24670000  0.95480000  1.0 0.1395045674
H  H14  1  0.38160000  0.18180000  0.88640000  1.0 0.1005682936
H  H15  1  0.24780000  0.15180000  0.86100000  1.0 0.1005682936
H  H16  1  0.23670000  0.38030000  0.88360000  1.0 0.1097678831
H  H17  1  0.10780000  0.34850000  0.85560000  1.0 0.1005682936
H  H18  1  0.25900000  0.43140000  0.78110000  1.0 0.1097678831
H  H19  1  0.40250000  0.31880000  0.79520000  1.0 0.1097678831
H  H20  1  0.15110000  0.32210000  0.73500000  1.0 0.1005682936
H  H21  1  0.26350000  0.19920000  0.76110000  1.0 0.1005682936
H  H22  1  0.46610000  0.24400000  0.69660000  1.0 0.1395045674
H  H23  1  0.34260000  0.35660000  0.66690000  1.0 0.1395045674
H  H24  1  0.95170000  0.32630000  0.08020000  1.0 0.119900821
H  H25  1  0.14090000  0.41120000  0.08480000  1.0 0.1395045674
H  H26  1  0.23080000  0.41480000  0.17840000  1.0 0.1464598653
H  H27  1  0.93650000  0.24470000  0.25760000  1.0 0.1395045674
H  H28  1  0.12810000  0.32260000  0.42980000  1.0 0.119900821
H  H29  1  0.21350000  0.39320000  0.38150000  1.0 0.1301487662
H  H30  1  0.89670000  0.48920000  0.41160000  1.0 0.1005682936
H  H31  1  0.00460000  0.55990000  0.37770000  1.0 0.1005682936
H  H32  1  0.12730000  0.53270000  0.47260000  1.0 0.1097678831
H  H33  1  0.95810000  0.62110000  0.47540000  1.0 0.0943103423
H  H34  1  0.00820000  0.96370000  0.30760000  1.0 0.1301487662
H  H35  1  0.17850000  0.73880000  0.17360000  1.0 0.119900821
H  H36  1  0.30360000  0.63040000  0.34460000  1.0 0.119900821
H  H37  1  0.73460000  0.97190000  0.59470000  1.0 0.119900821
H  H38  1  0.53970000  0.88930000  0.60650000  1.0 0.1464598653
H  H39  1  0.61310000  0.70750000  0.42700000  1.0 0.3084996817
H  H40  1  0.49270000  0.79720000  0.52620000  1.0 0.1464598653
H  H41  1  0.71510000  0.95220000  0.96070000  1.0 0.2982199369
H  H42  1  0.84030000  0.87930000  0.42690000  1.0 0.1301487662
H  H43  1  0.78870000  0.62670000  0.71570000  1.0 0.2982199369
H  H44  1  0.42920000  0.94220000  0.75700000  1.0 0.1301487662
H  H45  1  0.62540000  0.02140000  0.76000000  1.0 0.1395045674
H  H46  1  0.74470000  0.99530000  0.85000000  1.0 0.1395045674
H  H47  1  0.46170000  0.81580000  0.92890000  1.0 0.1301487662
H  H48  1  0.80850000  0.89230000  0.04480000  1.0 0.1301487662
H  H49  1  0.89710000  0.75330000  0.04520000  1.0 0.1395045674
H  H50  1  0.61840000  0.81820000  0.11360000  1.0 0.1005682936
H  H51  1  0.75220000  0.84820000  0.13900000  1.0 0.1005682936
H  H52  1  0.76330000  0.61970000  0.11640000  1.0 0.1097678831
H  H53  1  0.89220000  0.65150000  0.14440000  1.0 0.1005682936
H  H54  1  0.74100000  0.56860000  0.21890000  1.0 0.1097678831
H  H55  1  0.59750000  0.68120000  0.20480000  1.0 0.1097678831
H  H56  1  0.84890000  0.67790000  0.26500000  1.0 0.1005682936
H  H57  1  0.73650000  0.80080000  0.23890000  1.0 0.1005682936
H  H58  1  0.53390000  0.75600000  0.30340000  1.0 0.1395045674
H  H59  1  0.65740000  0.64340000  0.33310000  1.0 0.1395045674
H  H60  1  0.04830000  0.67370000  0.91980000  1.0 0.119900821
H  H61  1  0.85910000  0.58880000  0.91520000  1.0 0.1395045674
H  H62  1  0.76920000  0.58520000  0.82160000  1.0 0.1464598653
H  H63  1  0.06350000  0.75530000  0.74240000  1.0 0.1395045674
H  H64  1  0.87190000  0.67740000  0.57020000  1.0 0.119900821
H  H65  1  0.78650000  0.60680000  0.61850000  1.0 0.1301487662
H  H66  1  0.10330000  0.51080000  0.58840000  1.0 0.1005682936
H  H67  1  0.99540000  0.44010000  0.62230000  1.0 0.1005682936
H  H68  1  0.87270000  0.46730000  0.52740000  1.0 0.1097678831
H  H69  1  0.04190000  0.37890000  0.52460000  1.0 0.0943103423
H  H70  1  0.99180000  0.03630000  0.69240000  1.0 0.1301487662
H  H71  1  0.82150000  0.26120000  0.82640000  1.0 0.119900821
H  H72  1  0.69640000  0.36960000  0.65540000  1.0 0.119900821
C  C1  1  0.28280000  0.06460000  0.43788000  1.0 0.0575287044
C  C2  1  0.40000000  0.11390000  0.43054000  1.0 -0.1112832027
C  C3  1  0.42840000  0.16850000  0.47816000  1.0 -0.1371719027
C  C4  1  0.33680000  0.17080000  0.53252000  1.0 0.1770465402
C  C5  1  0.22100000  0.11910000  0.53638000  1.0 -0.0209492257
C  C6  1  0.52400000  0.06760000  0.20665000  1.0 0.0575287044
C  C7  1  0.40630000  0.02030000  0.20517000  1.0 -0.1031666966
C  C8  1  0.33600000  0.03520000  0.15161000  1.0 -0.1371719027
C  C9  1  0.38700000  0.09630000  0.10001000  1.0 0.1891997634
C  C10  1  0.50500000  0.14190000  0.10519000  1.0 -0.0209492257
C  C11  1  0.29710000  0.19710000  0.00025000  1.0 0.5202836571
C  C12  1  0.20440000  0.18740000  0.94980000  1.0 -0.3289899947
C  C13  1  0.27060000  0.20580000  0.88610000  1.0 -0.1279858075
C  C14  1  0.21810000  0.32580000  0.85770000  1.0 -0.1584207388
C  C15  1  0.29170000  0.34510000  0.79340000  1.0 -0.1511777761
C  C16  1  0.25640000  0.28120000  0.74470000  1.0 -0.1200386792
C  C17  1  0.35990000  0.27520000  0.68656000  1.0 -0.3370641144
C  C18  1  0.33430000  0.19620000  0.64204000  1.0 0.5301203607
C  C19  1  0.98720000  0.32700000  0.11792000  1.0 0.0301641887
C  C20  1  0.10000000  0.37850000  0.12059000  1.0 -0.1112832027
C  C21  1  0.15260000  0.38180000  0.17617000  1.0 -0.1200386792
C  C22  1  0.08650000  0.33500000  0.22886000  1.0 0.1891997634
C  C23  1  0.97690000  0.28050000  0.22277000  1.0 -0.0209492257
C  C24  1  0.06620000  0.33010000  0.34277000  1.0 0.5301203607
C  C25  1  0.11530000  0.38040000  0.39397000  1.0 -0.3289899947
C  C26  1  0.99850000  0.49720000  0.40980000  1.0 -0.1279858075
C  C27  1  0.02060000  0.53700000  0.47230000  1.0 -0.1584207388
C  C28  1  0.15060000  0.82930000  0.40226000  1.0 0.5384690442
C  C29  1  0.15750000  0.80250000  0.33625000  1.0 -0.0209492257
C  C30  1  0.07030000  0.88910000  0.29462000  1.0 -0.1200386792
C  C31  1  0.07520000  0.86520000  0.23401000  1.0 -0.0209492257
C  C32  1  0.97790000  0.95760000  0.18911000  1.0 0.5384690442
C  C33  1  0.17180000  0.75420000  0.21453000  1.0 -0.1112832027
C  C34  1  0.25800000  0.66640000  0.25582000  1.0 -0.0209492257
C  C35  1  0.36070000  0.54540000  0.23445000  1.0 0.5384690442
C  C36  1  0.24870000  0.69000000  0.31658000  1.0 -0.1279858075
C  C37  1  0.71720000  0.93540000  0.56212000  1.0 0.0575287044
C  C38  1  0.60000000  0.88610000  0.56946000  1.0 -0.1112832027
C  C39  1  0.57160000  0.83150000  0.52184000  1.0 -0.1371719027
C  C40  1  0.66320000  0.82920000  0.46748000  1.0 0.1770465402
C  C41  1  0.77900000  0.88090000  0.46362000  1.0 -0.0209492257
C  C42  1  0.47600000  0.93240000  0.79335000  1.0 0.0575287044
C  C43  1  0.59370000  0.97970000  0.79483000  1.0 -0.1031666966
C  C44  1  0.66400000  0.96480000  0.84839000  1.0 -0.1371719027
C  C45  1  0.61300000  0.90370000  0.89999000  1.0 0.1891997634
C  C46  1  0.49500000  0.85810000  0.89481000  1.0 -0.0209492257
C  C47  1  0.70290000  0.80290000  0.99975000  1.0 0.5202836571
C  C48  1  0.79560000  0.81260000  0.05020000  1.0 -0.3289899947
C  C49  1  0.72940000  0.79420000  0.11390000  1.0 -0.1279858075
C  C50  1  0.78190000  0.67420000  0.14230000  1.0 -0.1584207388
C  C51  1  0.70830000  0.65490000  0.20660000  1.0 -0.1511777761
C  C52  1  0.74360000  0.71880000  0.25530000  1.0 -0.1200386792
C  C53  1  0.64010000  0.72480000  0.31344000  1.0 -0.3370641144
C  C54  1  0.66570000  0.80380000  0.35796000  1.0 0.5301203607
C  C55  1  0.01280000  0.67300000  0.88208000  1.0 0.0301641887
C  C56  1  0.90000000  0.62150000  0.87941000  1.0 -0.1112832027
C  C57  1  0.84740000  0.61820000  0.82383000  1.0 -0.1200386792
C  C58  1  0.91350000  0.66500000  0.77114000  1.0 0.1891997634
C  C59  1  0.02310000  0.71950000  0.77723000  1.0 -0.0209492257
C  C60  1  0.93380000  0.66990000  0.65723000  1.0 0.5301203607
C  C61  1  0.88470000  0.61960000  0.60603000  1.0 -0.3289899947
C  C62  1  0.00150000  0.50280000  0.59020000  1.0 -0.1279858075
C  C63  1  0.97940000  0.46300000  0.52770000  1.0 -0.1584207388
C  C64  1  0.84940000  0.17070000  0.59774000  1.0 0.5384690442
C  C65  1  0.84250000  0.19750000  0.66375000  1.0 -0.0209492257
C  C66  1  0.92970000  0.11090000  0.70538000  1.0 -0.1200386792
C  C67  1  0.92480000  0.13480000  0.76599000  1.0 -0.0209492257
C  C68  1  0.02210000  0.04240000  0.81089000  1.0 0.5384690442
C  C69  1  0.82820000  0.24580000  0.78547000  1.0 -0.1112832027
C  C70  1  0.74200000  0.33360000  0.74418000  1.0 -0.0209492257
C  C71  1  0.63930000  0.45460000  0.76555000  1.0 0.5384690442
C  C72  1  0.75130000  0.31000000  0.68342000  1.0 -0.1279858075
N  N1  1  0.19220000  0.06680000  0.49024000  1.0 -0.1938464465
N  N2  1  0.57340000  0.12790000  0.15698000  1.0 -0.1690111281
N  N3  1  0.35720000  0.22980000  0.58206000  1.0 -0.3682417991
N  N4  1  0.31760000  0.10640000  0.04487000  1.0 -0.3682417991
N  N5  1  0.92720000  0.27800000  0.16821000  1.0 -0.1690111281
N  N6  1  0.13210000  0.34940000  0.28590000  1.0 -0.3682417991
N  N7  1  0.80780000  0.93320000  0.50976000  1.0 -0.1938464465
N  N8  1  0.42660000  0.87210000  0.84302000  1.0 -0.1690111281
N  N9  1  0.64280000  0.77020000  0.41794000  1.0 -0.3682417991
N  N10  1  0.68240000  0.89360000  0.95513000  1.0 -0.3682417991
N  N11  1  0.07280000  0.72200000  0.83179000  1.0 -0.1690111281
N  N12  1  0.86790000  0.65060000  0.71410000  1.0 -0.3758193376
O  O1  1  0.06530000  0.93251000  0.41617000  1.0 -0.5411213758
O  O2  1  0.22740000  0.74880000  0.43892000  1.0 -0.5746161463
O  O3  1  0.87940000  0.04837000  0.21004000  1.0 -0.4992511692
O  O4  1  0.00270000  0.93720000  0.13335000  1.0 -0.5810423257
O  O5  1  0.38830000  0.45524000  0.27360000  1.0 -0.607210082
O  O6  1  0.40760000  0.54071000  0.17883000  1.0 -0.5810423257
O  O7  1  0.34870000  0.28150000  0.00059000  1.0 -0.4896554472
O  O8  1  0.29870000  0.10530000  0.66046000  1.0 -0.4613379957
O  O9  1  0.96920000  0.27930000  0.35212000  1.0 -0.473791522
O  O10  1  0.93470000  0.06749000  0.58383000  1.0 -0.5411213758
O  O11  1  0.77260000  0.25120000  0.56108000  1.0 -0.5810423257
O  O12  1  0.12060000  0.95163000  0.78996000  1.0 -0.4992511692
O  O13  1  0.99730000  0.06280000  0.86665000  1.0 -0.5810423257
O  O14  1  0.61170000  0.54476000  0.72640000  1.0 -0.607210082
O  O15  1  0.59240000  0.45929000  0.82117000  1.0 -0.5810423257
O  O16  1  0.65130000  0.71850000  0.99941000  1.0 -0.4896554472
O  O17  1  0.70130000  0.89470000  0.33954000  1.0 -0.4613379957
O  O18  1  0.03080000  0.72070000  0.64788000  1.0 -0.4753146889
