# DDEC6 charges by PACMAN v1.1 (https://github.com/mtap-research/PACMAN-charge/)
data_RUHKEN01_ASR_pacman
_symmetry_space_group_name_H-M   'P 1'
_cell_length_a   6.56060000
_cell_length_b   18.01080000
_cell_length_c   12.37880000
_cell_angle_alpha   90.00000000
_cell_angle_beta   117.95900000
_cell_angle_gamma   90.00000000
_symmetry_Int_Tables_number   1
_chemical_formula_structural   NiH10C16(NO)4
_chemical_formula_sum   'Ni2 H20 C32 N8 O8'
_cell_volume   1291.97805094
_cell_formula_units_Z   2
loop_
 _symmetry_equiv_pos_site_id
 _symmetry_equiv_pos_as_xyz
  1  'x, y, z'
loop_
 _atom_site_type_symbol
 _atom_site_label
 _atom_site_symmetry_multiplicity
 _atom_site_fract_x
 _atom_site_fract_y
 _atom_site_fract_z
 _atom_site_occupancy
 _atom_site_charge
Ni  Ni1  1  0.50000000  0.00000000  0.50000000  1.0 0.6756841846
Ni  Ni2  1  0.50000000  0.50000000  0.00000000  1.0 0.6756841846
H  H1  1  0.17530000  0.87000000  0.29690000  1.0 0.1311423339
H  H2  1  0.82470000  0.37000000  0.20310000  1.0 0.1311423339
H  H3  1  0.82470000  0.13000000  0.70310000  1.0 0.1311423339
H  H4  1  0.17530000  0.63000000  0.79690000  1.0 0.1311423339
H  H5  1  0.17760000  0.72890000  0.17500000  1.0 0.1311423339
H  H6  1  0.82240000  0.22890000  0.32500000  1.0 0.1311423339
H  H7  1  0.82240000  0.27110000  0.82500000  1.0 0.1311423339
H  H8  1  0.17760000  0.77110000  0.67500000  1.0 0.1311423339
H  H9  1  0.98820000  0.75910000  0.41380000  1.0 0.1381636269
H  H10  1  0.01180000  0.25910000  0.08620000  1.0 0.1381636269
H  H11  1  0.01180000  0.24090000  0.58620000  1.0 0.1381636269
H  H12  1  0.98820000  0.74090000  0.91380000  1.0 0.1381636269
H  H13  1  0.83320000  0.65710000  0.28520000  1.0 0.1227063171
H  H14  1  0.16680000  0.15710000  0.21480000  1.0 0.1227063171
H  H15  1  0.16680000  0.34290000  0.71480000  1.0 0.1227063171
H  H16  1  0.83320000  0.84290000  0.78520000  1.0 0.1227063171
H  H17  1  0.84140000  0.88700000  0.48560000  1.0 0.3052740701
H  H18  1  0.15860000  0.38700000  0.01440000  1.0 0.3052740701
H  H19  1  0.15860000  0.11300000  0.51440000  1.0 0.3052740701
H  H20  1  0.84140000  0.61300000  0.98560000  1.0 0.3052740701
C  C1  1  0.33550000  0.85980000  0.33000000  1.0 -0.0317831274
C  C2  1  0.66450000  0.35980000  0.17000000  1.0 -0.0317831274
C  C3  1  0.66450000  0.14020000  0.67000000  1.0 -0.0317831274
C  C4  1  0.33550000  0.64020000  0.83000000  1.0 -0.0317831274
C  C5  1  0.42950000  0.79627000  0.30120000  1.0 -0.010242711
C  C6  1  0.57050000  0.29627000  0.19880000  1.0 -0.010242711
C  C7  1  0.57050000  0.20373000  0.69880000  1.0 -0.010242711
C  C8  1  0.42950000  0.70373000  0.80120000  1.0 -0.010242711
C  C9  1  0.67000000  0.80478000  0.37100000  1.0 0.1570303299
C  C10  1  0.33000000  0.30478000  0.12900000  1.0 0.1570303299
C  C11  1  0.33000000  0.19522000  0.62900000  1.0 0.1570303299
C  C12  1  0.67000000  0.69522000  0.87100000  1.0 0.1570303299
C  C13  1  0.33946000  0.73498000  0.22326000  1.0 -0.1510391824
C  C14  1  0.66054000  0.23498000  0.27674000  1.0 -0.1510391824
C  C15  1  0.66054000  0.26502000  0.77674000  1.0 -0.1510391824
C  C16  1  0.33946000  0.76502000  0.72326000  1.0 -0.1510391824
C  C17  1  0.82610000  0.75305000  0.36640000  1.0 -0.1774619959
C  C18  1  0.17390000  0.25305000  0.13360000  1.0 -0.1774619959
C  C19  1  0.17390000  0.24695000  0.63360000  1.0 -0.1774619959
C  C20  1  0.82610000  0.74695000  0.86640000  1.0 -0.1774619959
C  C21  1  0.49079000  0.68359000  0.21809000  1.0 -0.0156095691
C  C22  1  0.50921000  0.18359000  0.28191000  1.0 -0.0156095691
C  C23  1  0.50921000  0.31641000  0.78191000  1.0 -0.0156095691
C  C24  1  0.49079000  0.81641000  0.71809000  1.0 -0.0156095691
C  C25  1  0.73240000  0.69329000  0.29000000  1.0 -0.0948591597
C  C26  1  0.26760000  0.19329000  0.21000000  1.0 -0.0948591597
C  C27  1  0.26760000  0.30671000  0.71000000  1.0 -0.0948591597
C  C28  1  0.73240000  0.80671000  0.79000000  1.0 -0.0948591597
C  C29  1  0.39667000  0.61808000  0.13337000  1.0 0.564841897
C  C30  1  0.60333000  0.11808000  0.36663000  1.0 0.564841897
C  C31  1  0.60333000  0.38192000  0.86663000  1.0 0.564841897
C  C32  1  0.39667000  0.88192000  0.63337000  1.0 0.564841897
N  N1  1  0.50098000  0.90250000  0.40888000  1.0 -0.1510391824
N  N2  1  0.49902000  0.40250000  0.09112000  1.0 -0.1510391824
N  N3  1  0.49902000  0.09750000  0.59112000  1.0 -0.1510391824
N  N4  1  0.50098000  0.59750000  0.90888000  1.0 -0.1510391824
N  N5  1  0.70481000  0.86919000  0.43451000  1.0 -0.1337223046
N  N6  1  0.29519000  0.36919000  0.06549000  1.0 -0.1337223046
N  N7  1  0.29519000  0.13081000  0.56549000  1.0 -0.1337223046
N  N8  1  0.70481000  0.63081000  0.93451000  1.0 -0.1337223046
O  O1  1  0.18627000  0.61854000  0.05727000  1.0 -0.5809808664
O  O2  1  0.81373000  0.11854000  0.44273000  1.0 -0.5809808664
O  O3  1  0.81373000  0.38146000  0.94273000  1.0 -0.5809808664
O  O4  1  0.18627000  0.88146000  0.55727000  1.0 -0.5809808664
O  O5  1  0.53789000  0.56704000  0.14419000  1.0 -0.5414049022
O  O6  1  0.46211000  0.06704000  0.35581000  1.0 -0.5414049022
O  O7  1  0.46211000  0.43296000  0.85581000  1.0 -0.5414049022
O  O8  1  0.53789000  0.93296000  0.64419000  1.0 -0.5414049022
