# DDEC6 charges by PACMAN v1.1 (https://github.com/mtap-research/PACMAN-charge/)
data_RUKHAI_ASR_pacman
_symmetry_space_group_name_H-M   'P 1'
_cell_length_a   25.16310000
_cell_length_b   25.16310000
_cell_length_c   25.16310000
_cell_angle_alpha   117.44500000
_cell_angle_beta   117.44500000
_cell_angle_gamma   94.48490000
_symmetry_Int_Tables_number   1
_chemical_formula_structural   Cu6H27C50(N2O13)2
_chemical_formula_sum   'Cu24 H108 C200 N16 O104'
_cell_volume   11662.68219765
_cell_formula_units_Z   4
loop_
 _symmetry_equiv_pos_site_id
 _symmetry_equiv_pos_as_xyz
  1  'x, y, z'
loop_
 _atom_site_type_symbol
 _atom_site_label
 _atom_site_symmetry_multiplicity
 _atom_site_fract_x
 _atom_site_fract_y
 _atom_site_fract_z
 _atom_site_occupancy
 _atom_site_charge
Cu  Cu1  1  0.01213000  0.38098000  0.83069000  1.0 0.8465660704
Cu  Cu2  1  0.55029000  0.18144000  0.16931000  1.0 0.8465660704
Cu  Cu3  1  0.38098000  0.55029000  0.36885000  1.0 0.8465660704
Cu  Cu4  1  0.18144000  0.01213000  0.63115000  1.0 0.8465660704
Cu  Cu5  1  0.98787000  0.61902000  0.16931000  1.0 0.8465660704
Cu  Cu6  1  0.44971000  0.81856000  0.83069000  1.0 0.8465660704
Cu  Cu7  1  0.61902000  0.44971000  0.63115000  1.0 0.8465660704
Cu  Cu8  1  0.81856000  0.98787000  0.36885000  1.0 0.8465660704
Cu  Cu9  1  0.13292000  0.41156000  0.87134000  1.0 0.8634631876
Cu  Cu10  1  0.54022000  0.26158000  0.12866000  1.0 0.8634631876
Cu  Cu11  1  0.41156000  0.54022000  0.27864000  1.0 0.8634631876
Cu  Cu12  1  0.26158000  0.13292000  0.72136000  1.0 0.8634631876
Cu  Cu13  1  0.86708000  0.58844000  0.12866000  1.0 0.8634631876
Cu  Cu14  1  0.45978000  0.73842000  0.87134000  1.0 0.8634631876
Cu  Cu15  1  0.58844000  0.45978000  0.72136000  1.0 0.8634631876
Cu  Cu16  1  0.73842000  0.86708000  0.27864000  1.0 0.8634631876
Cu  Cu17  1  0.37512000  0.77905000  0.15417000  1.0 0.8216960523
Cu  Cu18  1  0.62488000  0.22095000  0.84583000  1.0 0.8216960523
Cu  Cu19  1  0.77905000  0.62488000  0.40393000  1.0 0.8216960523
Cu  Cu20  1  0.22095000  0.37512000  0.59607000  1.0 0.8216960523
Cu  Cu21  1  0.33081000  0.87014000  0.20095000  1.0 0.8465660704
Cu  Cu22  1  0.66919000  0.12986000  0.79905000  1.0 0.8465660704
Cu  Cu23  1  0.87014000  0.66919000  0.53933000  1.0 0.8465660704
Cu  Cu24  1  0.12986000  0.33081000  0.46067000  1.0 0.8465660704
H  H1  1  0.82120000  0.57220000  0.79080000  1.0 0.1374585204
H  H2  1  0.78140000  0.03040000  0.20920000  1.0 0.1374585204
H  H3  1  0.57220000  0.78140000  0.75100000  1.0 0.1374585204
H  H4  1  0.03040000  0.82120000  0.24900000  1.0 0.1374585204
H  H5  1  0.17880000  0.42780000  0.20920000  1.0 0.1374585204
H  H6  1  0.21860000  0.96960000  0.79080000  1.0 0.1374585204
H  H7  1  0.42780000  0.21860000  0.24900000  1.0 0.1374585204
H  H8  1  0.96960000  0.17880000  0.75100000  1.0 0.1374585204
H  H9  1  0.77830000  0.54150000  0.91320000  1.0 0.1466241907
H  H10  1  0.62830000  0.86510000  0.08680000  1.0 0.1466241907
H  H11  1  0.54150000  0.62830000  0.76320000  1.0 0.1466241907
H  H12  1  0.86510000  0.77830000  0.23680000  1.0 0.1466241907
H  H13  1  0.22170000  0.45850000  0.08680000  1.0 0.1466241907
H  H14  1  0.37170000  0.13490000  0.91320000  1.0 0.1466241907
H  H15  1  0.45850000  0.37170000  0.23680000  1.0 0.1466241907
H  H16  1  0.13490000  0.22170000  0.76320000  1.0 0.1466241907
H  H17  1  0.00440000  0.57230000  0.89710000  1.0 0.1180025003
H  H18  1  0.67520000  0.10730000  0.10290000  1.0 0.1180025003
H  H19  1  0.57230000  0.67520000  0.56790000  1.0 0.1180025003
H  H20  1  0.10730000  0.00440000  0.43210000  1.0 0.1180025003
H  H21  1  0.99560000  0.42770000  0.10290000  1.0 0.1180025003
H  H22  1  0.32480000  0.89270000  0.89710000  1.0 0.1180025003
H  H23  1  0.42770000  0.32480000  0.43210000  1.0 0.1180025003
H  H24  1  0.89270000  0.99560000  0.56790000  1.0 0.1180025003
H  H25  1  0.19740000  0.61630000  0.00230000  1.0 0.1374585204
H  H26  1  0.61400000  0.19510000  0.99770000  1.0 0.1374585204
H  H27  1  0.61630000  0.61400000  0.41890000  1.0 0.1374585204
H  H28  1  0.19510000  0.19740000  0.58110000  1.0 0.1374585204
H  H29  1  0.80260000  0.38370000  0.99770000  1.0 0.1374585204
H  H30  1  0.38600000  0.80490000  0.00230000  1.0 0.1374585204
H  H31  1  0.38370000  0.38600000  0.58110000  1.0 0.1374585204
H  H32  1  0.80490000  0.80260000  0.41890000  1.0 0.1374585204
H  H33  1  0.92820000  0.63610000  0.84070000  1.0 0.2623796072
H  H34  1  0.79540000  0.08750000  0.15930000  1.0 0.2623796072
H  H35  1  0.63610000  0.79540000  0.70790000  1.0 0.2623796072
H  H36  1  0.08750000  0.92820000  0.29210000  1.0 0.2623796072
H  H37  1  0.07180000  0.36390000  0.15930000  1.0 0.2623796072
H  H38  1  0.20460000  0.91250000  0.84070000  1.0 0.2623796072
H  H39  1  0.36390000  0.20460000  0.29210000  1.0 0.2623796072
H  H40  1  0.91250000  0.07180000  0.70790000  1.0 0.2623796072
H  H41  1  0.96180000  0.63890000  0.99510000  1.0 0.1271980094
H  H42  1  0.64380000  0.96670000  0.00490000  1.0 0.1271980094
H  H43  1  0.63890000  0.64380000  0.67710000  1.0 0.1271980094
H  H44  1  0.96670000  0.96180000  0.32290000  1.0 0.1271980094
H  H45  1  0.03820000  0.36110000  0.00490000  1.0 0.1271980094
H  H46  1  0.35620000  0.03330000  0.99510000  1.0 0.1271980094
H  H47  1  0.36110000  0.35620000  0.32290000  1.0 0.1271980094
H  H48  1  0.03330000  0.03820000  0.67710000  1.0 0.1271980094
H  H49  1  0.12640000  0.75850000  0.04050000  1.0 0.1271980094
H  H50  1  0.71800000  0.08590000  0.95950000  1.0 0.1271980094
H  H51  1  0.75850000  0.71800000  0.63210000  1.0 0.1271980094
H  H52  1  0.08590000  0.12640000  0.36790000  1.0 0.1271980094
H  H53  1  0.87360000  0.24150000  0.95950000  1.0 0.1271980094
H  H54  1  0.28200000  0.91410000  0.04050000  1.0 0.1271980094
H  H55  1  0.24150000  0.28200000  0.36790000  1.0 0.1271980094
H  H56  1  0.91410000  0.87360000  0.63210000  1.0 0.1271980094
H  H57  1  0.00160000  0.71210000  0.98910000  1.0 0.1180025003
H  H58  1  0.72300000  0.01250000  0.01090000  1.0 0.1180025003
H  H59  1  0.71210000  0.72300000  0.71050000  1.0 0.1180025003
H  H60  1  0.01250000  0.00160000  0.28950000  1.0 0.1180025003
H  H61  1  0.99840000  0.28790000  0.01090000  1.0 0.1180025003
H  H62  1  0.27700000  0.98750000  0.98910000  1.0 0.1180025003
H  H63  1  0.28790000  0.27700000  0.28950000  1.0 0.1180025003
H  H64  1  0.98750000  0.99840000  0.71050000  1.0 0.1180025003
H  H65  1  0.01550000  0.72550000  0.93980000  1.0 0.1180025003
H  H66  1  0.78570000  0.07570000  0.06020000  1.0 0.1180025003
H  H67  1  0.72550000  0.78570000  0.71000000  1.0 0.1180025003
H  H68  1  0.07570000  0.01550000  0.29000000  1.0 0.1180025003
H  H69  1  0.98450000  0.27450000  0.06020000  1.0 0.1180025003
H  H70  1  0.21430000  0.92430000  0.93980000  1.0 0.1180025003
H  H71  1  0.27450000  0.21430000  0.29000000  1.0 0.1180025003
H  H72  1  0.92430000  0.98450000  0.71000000  1.0 0.1180025003
H  H73  1  0.96900000  0.33680000  0.48160000  1.0 0.1374585204
H  H74  1  0.85520000  0.48740000  0.51840000  1.0 0.1374585204
H  H75  1  0.33680000  0.85520000  0.36780000  1.0 0.1374585204
H  H76  1  0.48740000  0.96900000  0.63220000  1.0 0.1374585204
H  H77  1  0.03100000  0.66320000  0.51840000  1.0 0.1374585204
H  H78  1  0.14480000  0.51260000  0.48160000  1.0 0.1374585204
H  H79  1  0.66320000  0.14480000  0.63220000  1.0 0.1374585204
H  H80  1  0.51260000  0.03100000  0.36780000  1.0 0.1374585204
H  H81  1  0.10560000  0.38310000  0.68070000  1.0 0.1271980094
H  H82  1  0.70240000  0.42490000  0.31930000  1.0 0.1271980094
H  H83  1  0.38310000  0.70240000  0.27750000  1.0 0.1271980094
H  H84  1  0.42490000  0.10560000  0.72250000  1.0 0.1271980094
H  H85  1  0.89440000  0.61690000  0.31930000  1.0 0.1271980094
H  H86  1  0.29760000  0.57510000  0.68070000  1.0 0.1271980094
H  H87  1  0.61690000  0.29760000  0.72250000  1.0 0.1271980094
H  H88  1  0.57510000  0.89440000  0.27750000  1.0 0.1271980094
H  H89  1  0.92150000  0.35640000  0.62090000  1.0 0.1374585204
H  H90  1  0.73550000  0.30060000  0.37910000  1.0 0.1374585204
H  H91  1  0.35640000  0.73550000  0.43490000  1.0 0.1374585204
H  H92  1  0.30060000  0.92150000  0.56510000  1.0 0.1374585204
H  H93  1  0.07850000  0.64360000  0.37910000  1.0 0.1374585204
H  H94  1  0.26450000  0.69940000  0.62090000  1.0 0.1374585204
H  H95  1  0.64360000  0.26450000  0.56510000  1.0 0.1374585204
H  H96  1  0.69940000  0.07850000  0.43490000  1.0 0.1374585204
H  H97  1  0.44070000  0.70600000  0.13890000  1.0 0.2863539947
H  H98  1  0.56710000  0.30180000  0.86110000  1.0 0.2863539947
H  H99  1  0.70600000  0.56710000  0.26530000  1.0 0.2810799274
H  H100  1  0.30180000  0.44070000  0.73470000  1.0 0.2863539947
H  H101  1  0.55930000  0.29400000  0.86110000  1.0 0.2863539947
H  H102  1  0.43290000  0.69820000  0.13890000  1.0 0.2863539947
H  H103  1  0.29400000  0.43290000  0.73470000  1.0 0.2863539947
H  H104  1  0.69820000  0.55930000  0.26530000  1.0 0.2810799274
H  H105  1  0.38880000  0.68590000  0.07470000  1.0 0.1466241907
H  H106  1  0.61120000  0.31410000  0.92530000  1.0 0.1466241907
H  H107  1  0.68590000  0.61120000  0.29710000  1.0 0.1466241907
H  H108  1  0.31410000  0.38880000  0.70290000  1.0 0.1466241907
C  C1  1  0.72043000  0.51313000  0.77890000  1.0 0.580226456
C  C2  1  0.73423000  0.94153000  0.22110000  1.0 0.580226456
C  C3  1  0.51313000  0.73423000  0.79270000  1.0 0.580226456
C  C4  1  0.94153000  0.72043000  0.20730000  1.0 0.580226456
C  C5  1  0.27957000  0.48687000  0.22110000  1.0 0.580226456
C  C6  1  0.26577000  0.05847000  0.77890000  1.0 0.580226456
C  C7  1  0.48687000  0.26577000  0.20730000  1.0 0.580226456
C  C8  1  0.05847000  0.27957000  0.79270000  1.0 0.580226456
C  C9  1  0.08938000  0.51418000  0.91060000  1.0 0.580226456
C  C10  1  0.60358000  0.17878000  0.08940000  1.0 0.580226456
C  C11  1  0.51418000  0.60358000  0.42480000  1.0 0.580226456
C  C12  1  0.17878000  0.08938000  0.57520000  1.0 0.580226456
C  C13  1  0.91062000  0.48582000  0.08940000  1.0 0.580226456
C  C14  1  0.39642000  0.82122000  0.91060000  1.0 0.580226456
C  C15  1  0.48582000  0.39642000  0.57520000  1.0 0.580226456
C  C16  1  0.82122000  0.91062000  0.42480000  1.0 0.580226456
C  C17  1  0.79031000  0.55081000  0.84210000  1.0 -0.001592603
C  C18  1  0.70871000  0.94821000  0.15790000  1.0 -0.001592603
C  C19  1  0.55081000  0.70871000  0.76050000  1.0 -0.001592603
C  C20  1  0.94821000  0.79031000  0.23950000  1.0 -0.001592603
C  C21  1  0.20969000  0.44919000  0.15790000  1.0 -0.001592603
C  C22  1  0.29129000  0.05179000  0.84210000  1.0 -0.001592603
C  C23  1  0.44919000  0.29129000  0.23950000  1.0 -0.001592603
C  C24  1  0.05179000  0.20969000  0.76050000  1.0 -0.001592603
C  C25  1  0.09948000  0.58388000  0.94560000  1.0 -0.0201552767
C  C26  1  0.63828000  0.15388000  0.05440000  1.0 -0.0201552767
C  C27  1  0.58388000  0.63828000  0.48440000  1.0 -0.0201552767
C  C28  1  0.15388000  0.09948000  0.51560000  1.0 -0.0201552767
C  C29  1  0.90052000  0.41612000  0.05440000  1.0 -0.0201552767
C  C30  1  0.36172000  0.84612000  0.94560000  1.0 -0.0201552767
C  C31  1  0.41612000  0.36172000  0.51560000  1.0 -0.0201552767
C  C32  1  0.84612000  0.90052000  0.48440000  1.0 -0.0201552767
C  C33  1  0.83464000  0.57804000  0.83580000  1.0 -0.1986204032
C  C34  1  0.74224000  0.99884000  0.16420000  1.0 -0.1986204032
C  C35  1  0.57804000  0.74224000  0.74340000  1.0 -0.1986204032
C  C36  1  0.99884000  0.83464000  0.25660000  1.0 -0.1986204032
C  C37  1  0.16536000  0.42196000  0.16420000  1.0 -0.1986204032
C  C38  1  0.25776000  0.00116000  0.83580000  1.0 -0.1986204032
C  C39  1  0.42196000  0.25776000  0.25660000  1.0 -0.1986204032
C  C40  1  0.00116000  0.16536000  0.74340000  1.0 -0.1986204032
C  C41  1  0.80916000  0.55826000  0.90770000  1.0 -0.128350338
C  C42  1  0.65056000  0.90146000  0.09230000  1.0 -0.128350338
C  C43  1  0.55826000  0.65056000  0.74910000  1.0 -0.128350338
C  C44  1  0.90146000  0.80916000  0.25090000  1.0 -0.128350338
C  C45  1  0.19084000  0.44174000  0.09230000  1.0 -0.128350338
C  C46  1  0.34944000  0.09854000  0.90770000  1.0 -0.128350338
C  C47  1  0.44174000  0.34944000  0.25090000  1.0 -0.128350338
C  C48  1  0.09854000  0.19084000  0.74910000  1.0 -0.128350338
C  C49  1  0.04701000  0.60351000  0.93050000  1.0 -0.1501435758
C  C50  1  0.67301000  0.11651000  0.06950000  1.0 -0.1501435758
C  C51  1  0.60351000  0.67301000  0.55650000  1.0 -0.1501435758
C  C52  1  0.11651000  0.04701000  0.44350000  1.0 -0.1501435758
C  C53  1  0.95299000  0.39649000  0.06950000  1.0 -0.1501435758
C  C54  1  0.32699000  0.88349000  0.93050000  1.0 -0.1501435758
C  C55  1  0.39649000  0.32699000  0.44350000  1.0 -0.1501435758
C  C56  1  0.88349000  0.95299000  0.55650000  1.0 -0.1501435758
C  C57  1  0.16177000  0.62967000  0.99430000  1.0 -0.1212275164
C  C58  1  0.63537000  0.16747000  0.00570000  1.0 -0.1212275164
C  C59  1  0.62967000  0.63537000  0.46790000  1.0 -0.1212275164
C  C60  1  0.16747000  0.16177000  0.53210000  1.0 -0.1212275164
C  C61  1  0.83823000  0.37033000  0.00570000  1.0 -0.1212275164
C  C62  1  0.36463000  0.83253000  0.99430000  1.0 -0.1212275164
C  C63  1  0.37033000  0.36463000  0.53210000  1.0 -0.1212275164
C  C64  1  0.83253000  0.83823000  0.46790000  1.0 -0.1212275164
C  C65  1  0.89797000  0.61367000  0.89310000  1.0 0.1932405028
C  C66  1  0.72057000  0.00487000  0.10690000  1.0 0.1932405028
C  C67  1  0.61367000  0.72057000  0.71570000  1.0 0.1932405028
C  C68  1  0.00487000  0.89797000  0.28430000  1.0 0.1932405028
C  C69  1  0.10203000  0.38633000  0.10690000  1.0 0.1932405028
C  C70  1  0.27943000  0.99513000  0.89310000  1.0 0.1932405028
C  C71  1  0.38633000  0.27943000  0.28430000  1.0 0.1932405028
C  C72  1  0.99513000  0.10203000  0.71570000  1.0 0.1932405028
C  C73  1  0.87350000  0.59050000  0.96440000  1.0 -0.0088894635
C  C74  1  0.62610000  0.90910000  0.03560000  1.0 -0.0088894635
C  C75  1  0.59050000  0.62610000  0.71700000  1.0 -0.0088894635
C  C76  1  0.90910000  0.87350000  0.28300000  1.0 -0.0088894635
C  C77  1  0.12650000  0.40950000  0.03560000  1.0 -0.0088894635
C  C78  1  0.37390000  0.09090000  0.96440000  1.0 -0.0088894635
C  C79  1  0.40950000  0.37390000  0.28300000  1.0 -0.0088894635
C  C80  1  0.09090000  0.12650000  0.71700000  1.0 -0.0088894635
C  C81  1  0.05724000  0.66894000  0.96430000  1.0 0.0571965426
C  C82  1  0.70464000  0.09294000  0.03570000  1.0 0.0571965426
C  C83  1  0.66894000  0.70464000  0.61170000  1.0 0.0571965426
C  C84  1  0.09294000  0.05724000  0.38830000  1.0 0.0571965426
C  C85  1  0.94276000  0.33106000  0.03570000  1.0 0.0571965426
C  C86  1  0.29536000  0.90706000  0.96430000  1.0 0.0571965426
C  C87  1  0.33106000  0.29536000  0.38830000  1.0 0.0571965426
C  C88  1  0.90706000  0.94276000  0.61170000  1.0 0.0571965426
C  C89  1  0.17200000  0.69450000  0.03090000  1.0 -0.0264082528
C  C90  1  0.66360000  0.14110000  0.96910000  1.0 -0.0264082528
C  C91  1  0.69450000  0.66360000  0.52250000  1.0 -0.0264082528
C  C92  1  0.14110000  0.17200000  0.47750000  1.0 -0.0264082528
C  C93  1  0.82800000  0.30550000  0.96910000  1.0 -0.0264082528
C  C94  1  0.33640000  0.85890000  0.03090000  1.0 -0.0264082528
C  C95  1  0.30550000  0.33640000  0.47750000  1.0 -0.0264082528
C  C96  1  0.85890000  0.82800000  0.52250000  1.0 -0.0264082528
C  C97  1  0.91752000  0.61752000  0.95640000  1.0 -0.1986204032
C  C98  1  0.66112000  0.96112000  0.04360000  1.0 -0.1986204032
C  C99  1  0.61752000  0.66112000  0.70000000  1.0 -0.1986204032
C  C100  1  0.96112000  0.91752000  0.30000000  1.0 -0.1986204032
C  C101  1  0.08248000  0.38248000  0.04360000  1.0 -0.1986204032
C  C102  1  0.33888000  0.03888000  0.95640000  1.0 -0.1986204032
C  C103  1  0.38248000  0.33888000  0.30000000  1.0 -0.1986204032
C  C104  1  0.03888000  0.08248000  0.70000000  1.0 -0.1986204032
C  C105  1  0.89405000  0.59425000  0.03260000  1.0 0.580226456
C  C106  1  0.56165000  0.86145000  0.96740000  1.0 0.580226456
C  C107  1  0.59425000  0.56165000  0.70020000  1.0 0.580226456
C  C108  1  0.86145000  0.89405000  0.29980000  1.0 0.580226456
C  C109  1  0.10595000  0.40575000  0.96740000  1.0 0.580226456
C  C110  1  0.43835000  0.13855000  0.03260000  1.0 0.580226456
C  C111  1  0.40575000  0.43835000  0.29980000  1.0 0.580226456
C  C112  1  0.13855000  0.10595000  0.70020000  1.0 0.580226456
C  C113  1  0.11941000  0.71391000  0.01550000  1.0 -0.1501435758
C  C114  1  0.69841000  0.10391000  0.98450000  1.0 -0.1501435758
C  C115  1  0.71391000  0.69841000  0.59450000  1.0 -0.1501435758
C  C116  1  0.10391000  0.11941000  0.40550000  1.0 -0.1501435758
C  C117  1  0.88059000  0.28609000  0.98450000  1.0 -0.1501435758
C  C118  1  0.30159000  0.89609000  0.01550000  1.0 -0.1501435758
C  C119  1  0.28609000  0.30159000  0.40550000  1.0 -0.1501435758
C  C120  1  0.89609000  0.88059000  0.59450000  1.0 -0.1501435758
C  C121  1  0.00429000  0.69149000  0.94660000  1.0 -0.1501435758
C  C122  1  0.74489000  0.05769000  0.05340000  1.0 -0.1501435758
C  C123  1  0.69149000  0.74489000  0.68720000  1.0 -0.1501435758
C  C124  1  0.05769000  0.00429000  0.31280000  1.0 -0.1501435758
C  C125  1  0.99571000  0.30851000  0.05340000  1.0 -0.1501435758
C  C126  1  0.25511000  0.94231000  0.94660000  1.0 -0.1501435758
C  C127  1  0.30851000  0.25511000  0.31280000  1.0 -0.1501435758
C  C128  1  0.94231000  0.99571000  0.68720000  1.0 -0.1501435758
C  C129  1  0.23844000  0.74374000  0.08630000  1.0 0.580226456
C  C130  1  0.65744000  0.15214000  0.91370000  1.0 0.580226456
C  C131  1  0.74374000  0.65744000  0.50530000  1.0 0.580226456
C  C132  1  0.15214000  0.23844000  0.49470000  1.0 0.580226456
C  C133  1  0.76156000  0.25626000  0.91370000  1.0 0.580226456
C  C134  1  0.34256000  0.84786000  0.08630000  1.0 0.580226456
C  C135  1  0.25626000  0.34256000  0.49470000  1.0 0.580226456
C  C136  1  0.84786000  0.76156000  0.50530000  1.0 0.580226456
C  C137  1  0.09424000  0.36044000  0.56040000  1.0 0.580226456
C  C138  1  0.80004000  0.53384000  0.43960000  1.0 0.580226456
C  C139  1  0.36044000  0.80004000  0.26620000  1.0 0.580226456
C  C140  1  0.53384000  0.09424000  0.73380000  1.0 0.580226456
C  C141  1  0.90576000  0.63956000  0.43960000  1.0 0.580226456
C  C142  1  0.19996000  0.46616000  0.56040000  1.0 0.580226456
C  C143  1  0.63956000  0.19996000  0.73380000  1.0 0.580226456
C  C144  1  0.46616000  0.90576000  0.26620000  1.0 0.580226456
C  C145  1  0.04461000  0.36021000  0.57840000  1.0 -0.0088894635
C  C146  1  0.78181000  0.46621000  0.42160000  1.0 -0.0088894635
C  C147  1  0.36021000  0.78181000  0.31560000  1.0 -0.0088894635
C  C148  1  0.46621000  0.04461000  0.68440000  1.0 -0.0088894635
C  C149  1  0.95539000  0.63979000  0.42160000  1.0 -0.0088894635
C  C150  1  0.21819000  0.53379000  0.57840000  1.0 -0.0088894635
C  C151  1  0.63979000  0.21819000  0.68440000  1.0 -0.0088894635
C  C152  1  0.53379000  0.95539000  0.31560000  1.0 -0.0088894635
C  C153  1  0.98120000  0.34690000  0.52790000  1.0 -0.1501435758
C  C154  1  0.81900000  0.45330000  0.47210000  1.0 -0.1501435758
C  C155  1  0.34690000  0.81900000  0.36570000  1.0 -0.1501435758
C  C156  1  0.45330000  0.98120000  0.63430000  1.0 -0.1501435758
C  C157  1  0.01880000  0.65310000  0.47210000  1.0 -0.1501435758
C  C158  1  0.18100000  0.54670000  0.52790000  1.0 -0.1501435758
C  C159  1  0.65310000  0.18100000  0.63430000  1.0 -0.1501435758
C  C160  1  0.54670000  0.01880000  0.36570000  1.0 -0.1501435758
C  C161  1  0.06214000  0.37324000  0.64550000  1.0 -0.1212275164
C  C162  1  0.72774000  0.41664000  0.35450000  1.0 -0.1212275164
C  C163  1  0.37324000  0.72774000  0.31110000  1.0 -0.1212275164
C  C164  1  0.41664000  0.06214000  0.68890000  1.0 -0.1212275164
C  C165  1  0.93786000  0.62676000  0.35450000  1.0 -0.1212275164
C  C166  1  0.27226000  0.58336000  0.64550000  1.0 -0.1212275164
C  C167  1  0.62676000  0.27226000  0.68890000  1.0 -0.1212275164
C  C168  1  0.58336000  0.93786000  0.31110000  1.0 -0.1212275164
C  C169  1  0.93580000  0.34820000  0.54400000  1.0 0.1571455914
C  C170  1  0.80420000  0.39180000  0.45600000  1.0 0.1571455914
C  C171  1  0.34820000  0.80420000  0.41240000  1.0 0.1571455914
C  C172  1  0.39180000  0.93580000  0.58760000  1.0 0.1571455914
C  C173  1  0.06420000  0.65180000  0.45600000  1.0 0.1571455914
C  C174  1  0.19580000  0.60820000  0.54400000  1.0 0.1571455914
C  C175  1  0.65180000  0.19580000  0.58760000  1.0 0.1571455914
C  C176  1  0.60820000  0.06420000  0.41240000  1.0 0.1571455914
C  C177  1  0.01620000  0.37180000  0.66100000  1.0 -0.0088894635
C  C178  1  0.71080000  0.35520000  0.33900000  1.0 -0.0088894635
C  C179  1  0.37180000  0.71080000  0.35560000  1.0 -0.0088894635
C  C180  1  0.35520000  0.01620000  0.64440000  1.0 -0.0088894635
C  C181  1  0.98380000  0.62820000  0.33900000  1.0 -0.0088894635
C  C182  1  0.28920000  0.64480000  0.66100000  1.0 -0.0088894635
C  C183  1  0.62820000  0.28920000  0.64440000  1.0 -0.0088894635
C  C184  1  0.64480000  0.98380000  0.35560000  1.0 -0.0088894635
C  C185  1  0.95320000  0.35860000  0.61060000  1.0 -0.1448483844
C  C186  1  0.74800000  0.34260000  0.38940000  1.0 -0.1448483844
C  C187  1  0.35860000  0.74800000  0.40540000  1.0 -0.1448483844
C  C188  1  0.34260000  0.95320000  0.59460000  1.0 -0.1448483844
C  C189  1  0.04680000  0.64140000  0.38940000  1.0 -0.1448483844
C  C190  1  0.25200000  0.65740000  0.61060000  1.0 -0.1448483844
C  C191  1  0.64140000  0.25200000  0.59460000  1.0 -0.1448483844
C  C192  1  0.65740000  0.04680000  0.40540000  1.0 -0.1448483844
C  C193  1  0.03597000  0.38217000  0.73220000  1.0 0.5852963421
C  C194  1  0.64997000  0.30377000  0.26780000  1.0 0.5852963421
C  C195  1  0.38217000  0.64997000  0.34620000  1.0 0.5852963421
C  C196  1  0.30377000  0.03597000  0.65380000  1.0 0.5852963421
C  C197  1  0.96403000  0.61783000  0.26780000  1.0 0.5852963421
C  C198  1  0.35003000  0.69623000  0.73220000  1.0 0.5852963421
C  C199  1  0.61783000  0.35003000  0.65380000  1.0 0.5852963421
C  C200  1  0.69623000  0.96403000  0.34620000  1.0 0.5852963421
N  N1  1  0.94072000  0.64512000  0.88380000  1.0 -0.3139747475
N  N2  1  0.76132000  0.05692000  0.11620000  1.0 -0.3139747475
N  N3  1  0.64512000  0.76132000  0.70440000  1.0 -0.3139747475
N  N4  1  0.05692000  0.94072000  0.29560000  1.0 -0.3139747475
N  N5  1  0.05928000  0.35488000  0.11620000  1.0 -0.3139747475
N  N6  1  0.23868000  0.94308000  0.88380000  1.0 -0.3139747475
N  N7  1  0.35488000  0.23868000  0.29560000  1.0 -0.3139747475
N  N8  1  0.94308000  0.05928000  0.70440000  1.0 -0.3139747475
N  N9  1  0.87200000  0.34010000  0.49130000  1.0 -0.1095078104
N  N10  1  0.84880000  0.38070000  0.50870000  1.0 -0.1095078104
N  N11  1  0.34010000  0.84880000  0.46810000  1.0 -0.1095078104
N  N12  1  0.38070000  0.87200000  0.53190000  1.0 -0.1095078104
N  N13  1  0.12800000  0.65990000  0.50870000  1.0 -0.1095078104
N  N14  1  0.15120000  0.61930000  0.49130000  1.0 -0.1095078104
N  N15  1  0.65990000  0.15120000  0.53190000  1.0 -0.1095078104
N  N16  1  0.61930000  0.12800000  0.46810000  1.0 -0.1095078104
O  O1  1  0.70738000  0.49813000  0.71809000  1.0 -0.527473473
O  O2  1  0.78004000  0.98929000  0.28191000  1.0 -0.527473473
O  O3  1  0.49813000  0.78004000  0.79075000  1.0 -0.527473473
O  O4  1  0.98929000  0.70738000  0.20925000  1.0 -0.527473473
O  O5  1  0.29262000  0.50187000  0.28191000  1.0 -0.527473473
O  O6  1  0.21996000  0.01071000  0.71809000  1.0 -0.527473473
O  O7  1  0.50187000  0.21996000  0.20925000  1.0 -0.527473473
O  O8  1  0.01071000  0.29262000  0.79075000  1.0 -0.527473473
O  O9  1  0.03393000  0.47473000  0.87788000  1.0 -0.527473473
O  O10  1  0.59685000  0.15605000  0.12212000  1.0 -0.527473473
O  O11  1  0.47473000  0.59685000  0.44080000  1.0 -0.527473473
O  O12  1  0.15605000  0.03393000  0.55920000  1.0 -0.527473473
O  O13  1  0.96607000  0.52527000  0.12212000  1.0 -0.527473473
O  O14  1  0.40315000  0.84395000  0.87788000  1.0 -0.527473473
O  O15  1  0.52527000  0.40315000  0.55920000  1.0 -0.527473473
O  O16  1  0.84395000  0.96607000  0.44080000  1.0 -0.527473473
O  O17  1  0.95312000  0.60844000  0.07518000  1.0 -0.527473473
O  O18  1  0.53326000  0.87794000  0.92482000  1.0 -0.527473473
O  O19  1  0.60844000  0.53326000  0.65532000  1.0 -0.527473473
O  O20  1  0.87794000  0.95312000  0.34468000  1.0 -0.527473473
O  O21  1  0.04688000  0.39156000  0.92482000  1.0 -0.527473473
O  O22  1  0.46674000  0.12206000  0.07518000  1.0 -0.527473473
O  O23  1  0.39156000  0.46674000  0.34468000  1.0 -0.527473473
O  O24  1  0.12206000  0.04688000  0.65532000  1.0 -0.527473473
O  O25  1  0.68101000  0.50258000  0.79357000  1.0 -0.5225704816
O  O26  1  0.70901000  0.88744000  0.20643000  1.0 -0.5225704816
O  O27  1  0.50258000  0.70901000  0.82157000  1.0 -0.5225704816
O  O28  1  0.88744000  0.68101000  0.17843000  1.0 -0.5225704816
O  O29  1  0.31899000  0.49742000  0.20643000  1.0 -0.5225704816
O  O30  1  0.29099000  0.11256000  0.79357000  1.0 -0.5225704816
O  O31  1  0.49742000  0.29099000  0.17843000  1.0 -0.5225704816
O  O32  1  0.11256000  0.31899000  0.82157000  1.0 -0.5225704816
O  O33  1  0.13776000  0.49992000  0.91598000  1.0 -0.5225704816
O  O34  1  0.58394000  0.22178000  0.08402000  1.0 -0.5225704816
O  O35  1  0.49992000  0.58394000  0.36216000  1.0 -0.5225704816
O  O36  1  0.22178000  0.13776000  0.63784000  1.0 -0.5225704816
O  O37  1  0.86224000  0.50008000  0.08402000  1.0 -0.5225704816
O  O38  1  0.41606000  0.77822000  0.91598000  1.0 -0.5225704816
O  O39  1  0.50008000  0.41606000  0.63784000  1.0 -0.5225704816
O  O40  1  0.77822000  0.86224000  0.36216000  1.0 -0.5225704816
O  O41  1  0.85085000  0.58453000  0.04244000  1.0 -0.5094753958
O  O42  1  0.54209000  0.80841000  0.95756000  1.0 -0.5094753958
O  O43  1  0.58453000  0.54209000  0.73368000  1.0 -0.5094753958
O  O44  1  0.80841000  0.85085000  0.26632000  1.0 -0.5094753958
O  O45  1  0.14915000  0.41547000  0.95756000  1.0 -0.5094753958
O  O46  1  0.45791000  0.19159000  0.04244000  1.0 -0.5094753958
O  O47  1  0.41547000  0.45791000  0.26632000  1.0 -0.5094753958
O  O48  1  0.19159000  0.14915000  0.73368000  1.0 -0.5094753958
O  O49  1  0.28379000  0.72341000  0.08792000  1.0 -0.5600114306
O  O50  1  0.63549000  0.19587000  0.91208000  1.0 -0.5540192886
O  O51  1  0.72341000  0.63549000  0.43962000  1.0 -0.5540192886
O  O52  1  0.19587000  0.28379000  0.56038000  1.0 -0.5540192886
O  O53  1  0.71621000  0.27659000  0.91208000  1.0 -0.5540192886
O  O54  1  0.36451000  0.80413000  0.08792000  1.0 -0.5540192886
O  O55  1  0.27659000  0.36451000  0.56038000  1.0 -0.5540192886
O  O56  1  0.80413000  0.71621000  0.43962000  1.0 -0.5540192886
O  O57  1  0.24592000  0.80075000  0.12623000  1.0 -0.5094753958
O  O58  1  0.67452000  0.11969000  0.87377000  1.0 -0.5094753958
O  O59  1  0.80075000  0.67452000  0.55483000  1.0 -0.5094753958
O  O60  1  0.11969000  0.24592000  0.44517000  1.0 -0.5094753958
O  O61  1  0.75408000  0.19925000  0.87377000  1.0 -0.5094753958
O  O62  1  0.32548000  0.88031000  0.12623000  1.0 -0.5094753958
O  O63  1  0.19925000  0.32548000  0.44517000  1.0 -0.5094753958
O  O64  1  0.88031000  0.75408000  0.55483000  1.0 -0.5094753958
O  O65  1  0.99153000  0.37188000  0.74089000  1.0 -0.527473473
O  O66  1  0.63099000  0.25064000  0.25911000  1.0 -0.527473473
O  O67  1  0.37188000  0.63099000  0.38035000  1.0 -0.527473473
O  O68  1  0.25064000  0.99153000  0.61965000  1.0 -0.527473473
O  O69  1  0.00847000  0.62812000  0.25911000  1.0 -0.527473473
O  O70  1  0.36901000  0.74936000  0.74089000  1.0 -0.527473473
O  O71  1  0.62812000  0.36901000  0.61965000  1.0 -0.527473473
O  O72  1  0.74936000  0.00847000  0.38035000  1.0 -0.527473473
O  O73  1  0.15194000  0.37846000  0.61122000  1.0 -0.5600114306
O  O74  1  0.76724000  0.54072000  0.38878000  1.0 -0.5600114306
O  O75  1  0.37846000  0.76724000  0.22652000  1.0 -0.5600114306
O  O76  1  0.54072000  0.15194000  0.77348000  1.0 -0.5600114306
O  O77  1  0.84806000  0.62154000  0.38878000  1.0 -0.5600114306
O  O78  1  0.23276000  0.45928000  0.61122000  1.0 -0.5600114306
O  O79  1  0.62154000  0.23276000  0.77348000  1.0 -0.5600114306
O  O80  1  0.45928000  0.84806000  0.22652000  1.0 -0.5600114306
O  O81  1  0.07365000  0.34080000  0.49621000  1.0 -0.5094753958
O  O82  1  0.84459000  0.57744000  0.50379000  1.0 -0.5094753958
O  O83  1  0.34080000  0.84459000  0.26715000  1.0 -0.5094753958
O  O84  1  0.57744000  0.07365000  0.73285000  1.0 -0.5094753958
O  O85  1  0.92635000  0.65920000  0.50379000  1.0 -0.5094753958
O  O86  1  0.15541000  0.42256000  0.49621000  1.0 -0.5094753958
O  O87  1  0.65920000  0.15541000  0.73285000  1.0 -0.5094753958
O  O88  1  0.42256000  0.92635000  0.26715000  1.0 -0.5094753958
O  O89  1  0.09507000  0.40190000  0.77833000  1.0 -0.5350555089
O  O90  1  0.62357000  0.31674000  0.22167000  1.0 -0.527473473
O  O91  1  0.40190000  0.62357000  0.30683000  1.0 -0.5350555089
O  O92  1  0.31674000  0.09507000  0.69317000  1.0 -0.5350555089
O  O93  1  0.90493000  0.59810000  0.22167000  1.0 -0.5350555089
O  O94  1  0.37643000  0.68326000  0.77833000  1.0 -0.5350555089
O  O95  1  0.59810000  0.37643000  0.69317000  1.0 -0.5350555089
O  O96  1  0.68326000  0.90493000  0.30683000  1.0 -0.5350555089
O  O97  1  0.42250000  0.71950000  0.11240000  1.0 -0.1501435758
O  O98  1  0.60710000  0.31010000  0.88760000  1.0 -0.1448483844
O  O99  1  0.71950000  0.60710000  0.29700000  1.0 -0.1501435758
O  O100  1  0.31010000  0.42250000  0.70300000  1.0 -0.1448483844
O  O101  1  0.57750000  0.28050000  0.88760000  1.0 -0.1448483844
O  O102  1  0.39290000  0.68990000  0.11240000  1.0 -0.1448483844
O  O103  1  0.28050000  0.39290000  0.70300000  1.0 -0.1448483844
O  O104  1  0.68990000  0.57750000  0.29700000  1.0 -0.1501435758
