# DDEC6 charges by PACMAN v1.1 (https://github.com/mtap-research/PACMAN-charge/)
data_RULMUI_FSR_pacman
_symmetry_space_group_name_H-M   'P 1'
_cell_length_a   22.01800000
_cell_length_b   20.78300000
_cell_length_c   37.06200000
_cell_angle_alpha   90.00000000
_cell_angle_beta   94.84500000
_cell_angle_gamma   90.00000000
_symmetry_Int_Tables_number   1
_chemical_formula_structural   Zn11H144C192(N4O13)4
_chemical_formula_sum   'Zn22 H288 C384 N32 O104'
_cell_volume   16898.97526560
_cell_formula_units_Z   2
loop_
 _symmetry_equiv_pos_site_id
 _symmetry_equiv_pos_as_xyz
  1  'x, y, z'
loop_
 _atom_site_type_symbol
 _atom_site_label
 _atom_site_symmetry_multiplicity
 _atom_site_fract_x
 _atom_site_fract_y
 _atom_site_fract_z
 _atom_site_occupancy
 _atom_site_charge
Zn  Zn1  1  0.22835000  0.82009000  0.35110000  1.0 0.8174529478
Zn  Zn2  1  0.77165000  0.82009000  0.14890000  1.0 0.8174529478
Zn  Zn3  1  0.77165000  0.17991000  0.64890000  1.0 0.8174529478
Zn  Zn4  1  0.22835000  0.17991000  0.85110000  1.0 0.8174529478
Zn  Zn5  1  0.06097000  0.98029000  0.26539000  1.0 0.8174529478
Zn  Zn6  1  0.93903000  0.98029000  0.23461000  1.0 0.8174529478
Zn  Zn7  1  0.93903000  0.01971000  0.73461000  1.0 0.8174529478
Zn  Zn8  1  0.06097000  0.01971000  0.76539000  1.0 0.8174529478
Zn  Zn9  1  0.23476000  0.10236000  0.36943000  1.0 0.7113276526
Zn  Zn10  1  0.76524000  0.10236000  0.13057000  1.0 0.7113276526
Zn  Zn11  1  0.76524000  0.89764000  0.63057000  1.0 0.7113276526
Zn  Zn12  1  0.23476000  0.89764000  0.86943000  1.0 0.7113276526
Zn  Zn13  1  0.24474000  0.69186000  0.38062000  1.0 0.8122056827
Zn  Zn14  1  0.75526000  0.69186000  0.11938000  1.0 0.8122056827
Zn  Zn15  1  0.75526000  0.30814000  0.61938000  1.0 0.8122056827
Zn  Zn16  1  0.24474000  0.30814000  0.88062000  1.0 0.8122056827
Zn  Zn17  1  0.13629000  0.51619000  0.47176000  1.0 0.8122056827
Zn  Zn18  1  0.86371000  0.51619000  0.02824000  1.0 0.8122056827
Zn  Zn19  1  0.86371000  0.48381000  0.52824000  1.0 0.8122056827
Zn  Zn20  1  0.13629000  0.48381000  0.97176000  1.0 0.8122056827
Zn  Zn21  1  0.00000000  0.50000000  0.50000000  1.0 1.0160044685
Zn  Zn22  1  0.00000000  0.50000000  0.00000000  1.0 1.0160044685
H  H1  1  0.15150000  0.87830000  0.29010000  1.0 0.1108412966
H  H2  1  0.84850000  0.87830000  0.20990000  1.0 0.1108412966
H  H3  1  0.84850000  0.12170000  0.70990000  1.0 0.1108412966
H  H4  1  0.15150000  0.12170000  0.79010000  1.0 0.1108412966
H  H5  1  0.12910000  0.90980000  0.32610000  1.0 0.1190595295
H  H6  1  0.87090000  0.90980000  0.17390000  1.0 0.1190595295
H  H7  1  0.87090000  0.09020000  0.67390000  1.0 0.1190595295
H  H8  1  0.12910000  0.09020000  0.82610000  1.0 0.1190595295
H  H9  1  0.27410000  0.96010000  0.36310000  1.0 0.1011516007
H  H10  1  0.72590000  0.96010000  0.13690000  1.0 0.1011516007
H  H11  1  0.72590000  0.03990000  0.63690000  1.0 0.1011516007
H  H12  1  0.27410000  0.03990000  0.86310000  1.0 0.1011516007
H  H13  1  0.20360000  0.95910000  0.37100000  1.0 0.1190595295
H  H14  1  0.79640000  0.95910000  0.12900000  1.0 0.1190595295
H  H15  1  0.79640000  0.04090000  0.62900000  1.0 0.1190595295
H  H16  1  0.20360000  0.04090000  0.87100000  1.0 0.1190595295
H  H17  1  0.25890000  0.88040000  0.27890000  1.0 0.1108412966
H  H18  1  0.74110000  0.88040000  0.22110000  1.0 0.1108412966
H  H19  1  0.74110000  0.11960000  0.72110000  1.0 0.1108412966
H  H20  1  0.25890000  0.11960000  0.77890000  1.0 0.1108412966
H  H21  1  0.30720000  0.91280000  0.30820000  1.0 0.1108412966
H  H22  1  0.69280000  0.91280000  0.19180000  1.0 0.1108412966
H  H23  1  0.69280000  0.08720000  0.69180000  1.0 0.1108412966
H  H24  1  0.30720000  0.08720000  0.80820000  1.0 0.1108412966
H  H25  1  0.13040000  0.02610000  0.33370000  1.0 0.1190595295
H  H26  1  0.86960000  0.02610000  0.16630000  1.0 0.1190595295
H  H27  1  0.86960000  0.97390000  0.66630000  1.0 0.1190595295
H  H28  1  0.13040000  0.97390000  0.83370000  1.0 0.1190595295
H  H29  1  0.15400000  0.07080000  0.30260000  1.0 0.1108412966
H  H30  1  0.84600000  0.07080000  0.19740000  1.0 0.1108412966
H  H31  1  0.84600000  0.92920000  0.69740000  1.0 0.1108412966
H  H32  1  0.15400000  0.92920000  0.80260000  1.0 0.1108412966
H  H33  1  0.18890000  0.02400000  0.24820000  1.0 0.1108412966
H  H34  1  0.81110000  0.02400000  0.25180000  1.0 0.1108412966
H  H35  1  0.81110000  0.97600000  0.75180000  1.0 0.1108412966
H  H36  1  0.18890000  0.97600000  0.74820000  1.0 0.1108412966
H  H37  1  0.18780000  0.94750000  0.24250000  1.0 0.1108412966
H  H38  1  0.81220000  0.94750000  0.25750000  1.0 0.1108412966
H  H39  1  0.81220000  0.05250000  0.75750000  1.0 0.1108412966
H  H40  1  0.18780000  0.05250000  0.74250000  1.0 0.1108412966
H  H41  1  0.30910000  0.02730000  0.31530000  1.0 0.1108412966
H  H42  1  0.69090000  0.02730000  0.18470000  1.0 0.1108412966
H  H43  1  0.69090000  0.97270000  0.68470000  1.0 0.1108412966
H  H44  1  0.30910000  0.97270000  0.81530000  1.0 0.1108412966
H  H45  1  0.26170000  0.07130000  0.29110000  1.0 0.1011516007
H  H46  1  0.73830000  0.07130000  0.20890000  1.0 0.1011516007
H  H47  1  0.73830000  0.92870000  0.70890000  1.0 0.1011516007
H  H48  1  0.26170000  0.92870000  0.79110000  1.0 0.1011516007
H  H49  1  0.08770000  0.76000000  0.26280000  1.0 0.1190595295
H  H50  1  0.91230000  0.76000000  0.23720000  1.0 0.1190595295
H  H51  1  0.91230000  0.24000000  0.73720000  1.0 0.1190595295
H  H52  1  0.08770000  0.24000000  0.76280000  1.0 0.1190595295
H  H53  1  0.16710000  0.58830000  0.28860000  1.0 0.1190595295
H  H54  1  0.83290000  0.58830000  0.21140000  1.0 0.1190595295
H  H55  1  0.83290000  0.41170000  0.71140000  1.0 0.1190595295
H  H56  1  0.16710000  0.41170000  0.78860000  1.0 0.1190595295
H  H57  1  0.08290000  0.88710000  0.41230000  1.0 0.1282791432
H  H58  1  0.91710000  0.88710000  0.08770000  1.0 0.1282791432
H  H59  1  0.91710000  0.11290000  0.58770000  1.0 0.1282791432
H  H60  1  0.08290000  0.11290000  0.91230000  1.0 0.1282791432
H  H61  1  0.12290000  0.72340000  0.46720000  1.0 0.1190595295
H  H62  1  0.87710000  0.72340000  0.03280000  1.0 0.1190595295
H  H63  1  0.87710000  0.27660000  0.53280000  1.0 0.1190595295
H  H64  1  0.12290000  0.27660000  0.96720000  1.0 0.1190595295
H  H65  1  0.36540000  0.81210000  0.28130000  1.0 0.1190595295
H  H66  1  0.63460000  0.81210000  0.21870000  1.0 0.1190595295
H  H67  1  0.63460000  0.18790000  0.71870000  1.0 0.1190595295
H  H68  1  0.36540000  0.18790000  0.78130000  1.0 0.1190595295
H  H69  1  0.39720000  0.63190000  0.31490000  1.0 0.1282791432
H  H70  1  0.60280000  0.63190000  0.18510000  1.0 0.1282791432
H  H71  1  0.60280000  0.36810000  0.68510000  1.0 0.1282791432
H  H72  1  0.39720000  0.36810000  0.81490000  1.0 0.1282791432
H  H73  1  0.35540000  0.91800000  0.43420000  1.0 0.1190595295
H  H74  1  0.64460000  0.91800000  0.06580000  1.0 0.1190595295
H  H75  1  0.64460000  0.08200000  0.56580000  1.0 0.1190595295
H  H76  1  0.35540000  0.08200000  0.93420000  1.0 0.1190595295
H  H77  1  0.38500000  0.73580000  0.46020000  1.0 0.1190595295
H  H78  1  0.61500000  0.73580000  0.03980000  1.0 0.1190595295
H  H79  1  0.61500000  0.26420000  0.53980000  1.0 0.1190595295
H  H80  1  0.38500000  0.26420000  0.96020000  1.0 0.1190595295
H  H81  1  0.04240000  0.71600000  0.20960000  1.0 0.1108412966
H  H82  1  0.95760000  0.71600000  0.29040000  1.0 0.1108412966
H  H83  1  0.95760000  0.28400000  0.79040000  1.0 0.1108412966
H  H84  1  0.04240000  0.28400000  0.70960000  1.0 0.1108412966
H  H85  1  0.12840000  0.54690000  0.23360000  1.0 0.1108412966
H  H86  1  0.87160000  0.54690000  0.26640000  1.0 0.1108412966
H  H87  1  0.87160000  0.45310000  0.76640000  1.0 0.1108412966
H  H88  1  0.12840000  0.45310000  0.73360000  1.0 0.1108412966
H  H89  1  0.01640000  0.91610000  0.45560000  1.0 0.1108412966
H  H90  1  0.98360000  0.91610000  0.04440000  1.0 0.1108412966
H  H91  1  0.98360000  0.08390000  0.54440000  1.0 0.1108412966
H  H92  1  0.01640000  0.08390000  0.95560000  1.0 0.1108412966
H  H93  1  0.05700000  0.75160000  0.50970000  1.0 0.1108412966
H  H94  1  0.94300000  0.75160000  0.99030000  1.0 0.1108412966
H  H95  1  0.94300000  0.24840000  0.49030000  1.0 0.1108412966
H  H96  1  0.05700000  0.24840000  0.00970000  1.0 0.1108412966
H  H97  1  0.44560000  0.80580000  0.24580000  1.0 0.1108412966
H  H98  1  0.55440000  0.80580000  0.25420000  1.0 0.1108412966
H  H99  1  0.55440000  0.19420000  0.75420000  1.0 0.1108412966
H  H100  1  0.44560000  0.19420000  0.74580000  1.0 0.1108412966
H  H101  1  0.48060000  0.62720000  0.28110000  1.0 0.1108412966
H  H102  1  0.51940000  0.62720000  0.21890000  1.0 0.1108412966
H  H103  1  0.51940000  0.37280000  0.71890000  1.0 0.1108412966
H  H104  1  0.48060000  0.37280000  0.78110000  1.0 0.1108412966
H  H105  1  0.43110000  0.94840000  0.47670000  1.0 0.1011516007
H  H106  1  0.56890000  0.94840000  0.02330000  1.0 0.1011516007
H  H107  1  0.56890000  0.05160000  0.52330000  1.0 0.1011516007
H  H108  1  0.43110000  0.05160000  0.97670000  1.0 0.1011516007
H  H109  1  0.46530000  0.76770000  0.50220000  1.0 0.1011516007
H  H110  1  0.53470000  0.76770000  0.99780000  1.0 0.1011516007
H  H111  1  0.53470000  0.23230000  0.49780000  1.0 0.1011516007
H  H112  1  0.46530000  0.23230000  0.00220000  1.0 0.1011516007
H  H113  1  0.20690000  0.62260000  0.44520000  1.0 0.1190595295
H  H114  1  0.79310000  0.62260000  0.05480000  1.0 0.1190595295
H  H115  1  0.79310000  0.37740000  0.55480000  1.0 0.1190595295
H  H116  1  0.20690000  0.37740000  0.94520000  1.0 0.1190595295
H  H117  1  0.16950000  0.59150000  0.41070000  1.0 0.1190595295
H  H118  1  0.83050000  0.59150000  0.08930000  1.0 0.1190595295
H  H119  1  0.83050000  0.40850000  0.58930000  1.0 0.1190595295
H  H120  1  0.16950000  0.40850000  0.91070000  1.0 0.1190595295
H  H121  1  0.31680000  0.63060000  0.44740000  1.0 0.1108412966
H  H122  1  0.68320000  0.63060000  0.05260000  1.0 0.1108412966
H  H123  1  0.68320000  0.36940000  0.55260000  1.0 0.1108412966
H  H124  1  0.31680000  0.36940000  0.94740000  1.0 0.1108412966
H  H125  1  0.35110000  0.60590000  0.41360000  1.0 0.1108412966
H  H126  1  0.64890000  0.60590000  0.08640000  1.0 0.1108412966
H  H127  1  0.64890000  0.39410000  0.58640000  1.0 0.1108412966
H  H128  1  0.35110000  0.39410000  0.91360000  1.0 0.1108412966
H  H129  1  0.29460000  0.55640000  0.36170000  1.0 0.1108412966
H  H130  1  0.70540000  0.55640000  0.13830000  1.0 0.1108412966
H  H131  1  0.70540000  0.44360000  0.63830000  1.0 0.1108412966
H  H132  1  0.29460000  0.44360000  0.86170000  1.0 0.1108412966
H  H133  1  0.22180000  0.55200000  0.35980000  1.0 0.1190595295
H  H134  1  0.77820000  0.55200000  0.14020000  1.0 0.1190595295
H  H135  1  0.77820000  0.44800000  0.64020000  1.0 0.1190595295
H  H136  1  0.22180000  0.44800000  0.85980000  1.0 0.1190595295
H  H137  1  0.03470000  0.10820000  0.35230000  1.0 0.1190595295
H  H138  1  0.96530000  0.10820000  0.14770000  1.0 0.1190595295
H  H139  1  0.96530000  0.89180000  0.64770000  1.0 0.1190595295
H  H140  1  0.03470000  0.89180000  0.85230000  1.0 0.1190595295
H  H141  1  0.86920000  0.13980000  0.29790000  1.0 0.1190595295
H  H142  1  0.13080000  0.13980000  0.20210000  1.0 0.1190595295
H  H143  1  0.13080000  0.86020000  0.70210000  1.0 0.1190595295
H  H144  1  0.86920000  0.86020000  0.79790000  1.0 0.1190595295
H  H145  1  0.27540000  0.47970000  0.47780000  1.0 0.1011516007
H  H146  1  0.72460000  0.47970000  0.02220000  1.0 0.1011516007
H  H147  1  0.72460000  0.52030000  0.52220000  1.0 0.1011516007
H  H148  1  0.27540000  0.52030000  0.97780000  1.0 0.1011516007
H  H149  1  0.27150000  0.55540000  0.48550000  1.0 0.1108412966
H  H150  1  0.72850000  0.55540000  0.01450000  1.0 0.1108412966
H  H151  1  0.72850000  0.44460000  0.51450000  1.0 0.1108412966
H  H152  1  0.27150000  0.44460000  0.98550000  1.0 0.1108412966
H  H153  1  0.17530000  0.47850000  0.39850000  1.0 0.1108412966
H  H154  1  0.82470000  0.47850000  0.10150000  1.0 0.1108412966
H  H155  1  0.82470000  0.52150000  0.60150000  1.0 0.1108412966
H  H156  1  0.17530000  0.52150000  0.89850000  1.0 0.1108412966
H  H157  1  0.21790000  0.43320000  0.42480000  1.0 0.1108412966
H  H158  1  0.78210000  0.43320000  0.07520000  1.0 0.1108412966
H  H159  1  0.78210000  0.56680000  0.57520000  1.0 0.1108412966
H  H160  1  0.21790000  0.56680000  0.92480000  1.0 0.1108412966
H  H161  1  0.35530000  0.49340000  0.40150000  1.0 0.0787617244
H  H162  1  0.64470000  0.49340000  0.09850000  1.0 0.0787617244
H  H163  1  0.64470000  0.50660000  0.59850000  1.0 0.0787617244
H  H164  1  0.35530000  0.50660000  0.90150000  1.0 0.0787617244
H  H165  1  0.32510000  0.44300000  0.42720000  1.0 0.0787617244
H  H166  1  0.67490000  0.44300000  0.07280000  1.0 0.0787617244
H  H167  1  0.67490000  0.55700000  0.57280000  1.0 0.0787617244
H  H168  1  0.32510000  0.55700000  0.92720000  1.0 0.0787617244
H  H169  1  0.12890000  0.55160000  0.16680000  1.0 0.1108412966
H  H170  1  0.87110000  0.55160000  0.33320000  1.0 0.1108412966
H  H171  1  0.87110000  0.44840000  0.83320000  1.0 0.1108412966
H  H172  1  0.12890000  0.44840000  0.66680000  1.0 0.1108412966
H  H173  1  0.97050000  0.63910000  0.18320000  1.0 0.1108412966
H  H174  1  0.02950000  0.63910000  0.31680000  1.0 0.1108412966
H  H175  1  0.02950000  0.36090000  0.81680000  1.0 0.1108412966
H  H176  1  0.97050000  0.36090000  0.68320000  1.0 0.1108412966
H  H177  1  0.00670000  0.94850000  0.51810000  1.0 0.1108412966
H  H178  1  0.99330000  0.94850000  0.98190000  1.0 0.1108412966
H  H179  1  0.99330000  0.05150000  0.48190000  1.0 0.1108412966
H  H180  1  0.00670000  0.05150000  0.01810000  1.0 0.1108412966
H  H181  1  0.94910000  0.76450000  0.51730000  1.0 0.1190595295
H  H182  1  0.05090000  0.76450000  0.98270000  1.0 0.1190595295
H  H183  1  0.05090000  0.23550000  0.48270000  1.0 0.1190595295
H  H184  1  0.94910000  0.23550000  0.01730000  1.0 0.1190595295
H  H185  1  0.45550000  0.93990000  0.55090000  1.0 0.1108412966
H  H186  1  0.54450000  0.93990000  0.94910000  1.0 0.1108412966
H  H187  1  0.54450000  0.06010000  0.44910000  1.0 0.1108412966
H  H188  1  0.45550000  0.06010000  0.05090000  1.0 0.1108412966
H  H189  1  0.57100000  0.83100000  0.49680000  1.0 0.1108412966
H  H190  1  0.42900000  0.83100000  0.00320000  1.0 0.1108412966
H  H191  1  0.42900000  0.16900000  0.50320000  1.0 0.1108412966
H  H192  1  0.57100000  0.16900000  0.99680000  1.0 0.1108412966
H  H193  1  0.01490000  0.19440000  0.39110000  1.0 0.1011516007
H  H194  1  0.98510000  0.19440000  0.10890000  1.0 0.1011516007
H  H195  1  0.98510000  0.80560000  0.60890000  1.0 0.1011516007
H  H196  1  0.01490000  0.80560000  0.89110000  1.0 0.1011516007
H  H197  1  0.84770000  0.21670000  0.34070000  1.0 0.1108412966
H  H198  1  0.15230000  0.21670000  0.15930000  1.0 0.1108412966
H  H199  1  0.15230000  0.78330000  0.65930000  1.0 0.1108412966
H  H200  1  0.84770000  0.78330000  0.84070000  1.0 0.1108412966
H  H201  1  0.08730000  0.51480000  0.11100000  1.0 0.1190595295
H  H202  1  0.91270000  0.51480000  0.38900000  1.0 0.1190595295
H  H203  1  0.91270000  0.48520000  0.88900000  1.0 0.1190595295
H  H204  1  0.08730000  0.48520000  0.61100000  1.0 0.1190595295
H  H205  1  0.92740000  0.59960000  0.12820000  1.0 0.1190595295
H  H206  1  0.07260000  0.59960000  0.37180000  1.0 0.1190595295
H  H207  1  0.07260000  0.40040000  0.87180000  1.0 0.1190595295
H  H208  1  0.92740000  0.40040000  0.62820000  1.0 0.1190595295
H  H209  1  0.93690000  0.97490000  0.55880000  1.0 0.1190595295
H  H210  1  0.06310000  0.97490000  0.94120000  1.0 0.1190595295
H  H211  1  0.06310000  0.02510000  0.44120000  1.0 0.1190595295
H  H212  1  0.93690000  0.02510000  0.05880000  1.0 0.1190595295
H  H213  1  0.87760000  0.79050000  0.55830000  1.0 0.1282791432
H  H214  1  0.12240000  0.79050000  0.94170000  1.0 0.1282791432
H  H215  1  0.12240000  0.20950000  0.44170000  1.0 0.1282791432
H  H216  1  0.87760000  0.20950000  0.05830000  1.0 0.1282791432
H  H217  1  0.53030000  0.96380000  0.59460000  1.0 0.1011516007
H  H218  1  0.46970000  0.96380000  0.90540000  1.0 0.1011516007
H  H219  1  0.46970000  0.03620000  0.40540000  1.0 0.1011516007
H  H220  1  0.53030000  0.03620000  0.09460000  1.0 0.1011516007
H  H221  1  0.65120000  0.85760000  0.54150000  1.0 0.1108412966
H  H222  1  0.34880000  0.85760000  0.95850000  1.0 0.1108412966
H  H223  1  0.34880000  0.14240000  0.45850000  1.0 0.1108412966
H  H224  1  0.65120000  0.14240000  0.04150000  1.0 0.1108412966
H  H225  1  0.82930000  0.24510000  0.40190000  1.0 0.1190595295
H  H226  1  0.17070000  0.24510000  0.09810000  1.0 0.1190595295
H  H227  1  0.17070000  0.75490000  0.59810000  1.0 0.1190595295
H  H228  1  0.82930000  0.75490000  0.90190000  1.0 0.1190595295
H  H229  1  0.00530000  0.29810000  0.40100000  1.0 0.1108412966
H  H230  1  0.99470000  0.29810000  0.09900000  1.0 0.1108412966
H  H231  1  0.99470000  0.70190000  0.59900000  1.0 0.1108412966
H  H232  1  0.00530000  0.70190000  0.90100000  1.0 0.1108412966
H  H233  1  0.19700000  0.38700000  0.57430000  1.0 0.1190595295
H  H234  1  0.80300000  0.38700000  0.92570000  1.0 0.1190595295
H  H235  1  0.80300000  0.61300000  0.42570000  1.0 0.1190595295
H  H236  1  0.19700000  0.61300000  0.07430000  1.0 0.1190595295
H  H237  1  0.03220000  0.35060000  0.52170000  1.0 0.1190595295
H  H238  1  0.96780000  0.35060000  0.97830000  1.0 0.1190595295
H  H239  1  0.96780000  0.64940000  0.47830000  1.0 0.1190595295
H  H240  1  0.03220000  0.64940000  0.02170000  1.0 0.1190595295
H  H241  1  0.81620000  0.31850000  0.44740000  1.0 0.1190595295
H  H242  1  0.18380000  0.31850000  0.05260000  1.0 0.1190595295
H  H243  1  0.18380000  0.68150000  0.55260000  1.0 0.1190595295
H  H244  1  0.81620000  0.68150000  0.94740000  1.0 0.1190595295
H  H245  1  0.99180000  0.37510000  0.44510000  1.0 0.1282791432
H  H246  1  0.00820000  0.37510000  0.05490000  1.0 0.1282791432
H  H247  1  0.00820000  0.62490000  0.55490000  1.0 0.1282791432
H  H248  1  0.99180000  0.62490000  0.94510000  1.0 0.1282791432
H  H249  1  0.17490000  0.31410000  0.61890000  1.0 0.1108412966
H  H250  1  0.82510000  0.31410000  0.88110000  1.0 0.1108412966
H  H251  1  0.82510000  0.68590000  0.38110000  1.0 0.1108412966
H  H252  1  0.17490000  0.68590000  0.11890000  1.0 0.1108412966
H  H253  1  0.01140000  0.27800000  0.56650000  1.0 0.1108412966
H  H254  1  0.98860000  0.27800000  0.93350000  1.0 0.1108412966
H  H255  1  0.98860000  0.72200000  0.43350000  1.0 0.1108412966
H  H256  1  0.01140000  0.72200000  0.06650000  1.0 0.1011516007
H  H257  1  0.16320000  0.21740000  0.64340000  1.0 0.1108412966
H  H258  1  0.83680000  0.21740000  0.85660000  1.0 0.1108412966
H  H259  1  0.83680000  0.78260000  0.35660000  1.0 0.1108412966
H  H260  1  0.16320000  0.78260000  0.14340000  1.0 0.1108412966
H  H261  1  0.98390000  0.25640000  0.62000000  1.0 0.1108412966
H  H262  1  0.01610000  0.25640000  0.88000000  1.0 0.1108412966
H  H263  1  0.01610000  0.74360000  0.38000000  1.0 0.1108412966
H  H264  1  0.98390000  0.74360000  0.12000000  1.0 0.1108412966
H  H265  1  0.13750000  0.14340000  0.68680000  1.0 0.1190595295
H  H266  1  0.86250000  0.14340000  0.81320000  1.0 0.1190595295
H  H267  1  0.86250000  0.85660000  0.31320000  1.0 0.1190595295
H  H268  1  0.13750000  0.85660000  0.18680000  1.0 0.1190595295
H  H269  1  0.95920000  0.18290000  0.66300000  1.0 0.1190595295
H  H270  1  0.04080000  0.18290000  0.83700000  1.0 0.1190595295
H  H271  1  0.04080000  0.81710000  0.33700000  1.0 0.1190595295
H  H272  1  0.95920000  0.81710000  0.16300000  1.0 0.1190595295
H  H273  1  0.54650000  0.94240000  0.49320000  1.0 0.1011516007
H  H274  1  0.45350000  0.94240000  0.00680000  1.0 0.1011516007
H  H275  1  0.45350000  0.05760000  0.50680000  1.0 0.1011516007
H  H276  1  0.54650000  0.05760000  0.99320000  1.0 0.1011516007
H  H277  1  0.63360000  0.95620000  0.53240000  1.0 0.1011516007
H  H278  1  0.36640000  0.95620000  0.96760000  1.0 0.1011516007
H  H279  1  0.36640000  0.04380000  0.46760000  1.0 0.1011516007
H  H280  1  0.63360000  0.04380000  0.03240000  1.0 0.1011516007
H  H281  1  0.57270000  0.82740000  0.60320000  1.0 0.1011516007
H  H282  1  0.42730000  0.82740000  0.89680000  1.0 0.1011516007
H  H283  1  0.42730000  0.17260000  0.39680000  1.0 0.1011516007
H  H284  1  0.57270000  0.17260000  0.10320000  1.0 0.1011516007
H  H285  1  0.48080000  0.81240000  0.56190000  1.0 0.0871400658
H  H286  1  0.51920000  0.81240000  0.93810000  1.0 0.0871400658
H  H287  1  0.51920000  0.18760000  0.43810000  1.0 0.0871400658
H  H288  1  0.48080000  0.18760000  0.06190000  1.0 0.0871400658
C  C1  1  0.15881000  0.91394000  0.30767000  1.0 -0.031045272
C  C2  1  0.84119000  0.91394000  0.19233000  1.0 -0.031045272
C  C3  1  0.84119000  0.08606000  0.69233000  1.0 -0.031045272
C  C4  1  0.15881000  0.08606000  0.80767000  1.0 -0.031045272
C  C5  1  0.23189000  0.96276000  0.35168000  1.0 -0.049285804
C  C6  1  0.76811000  0.96276000  0.14832000  1.0 -0.049285804
C  C7  1  0.76811000  0.03724000  0.64832000  1.0 -0.049285804
C  C8  1  0.23189000  0.03724000  0.85168000  1.0 -0.049285804
C  C9  1  0.26506000  0.91578000  0.29676000  1.0 -0.031045272
C  C10  1  0.73494000  0.91578000  0.20324000  1.0 -0.031045272
C  C11  1  0.73494000  0.08422000  0.70324000  1.0 -0.0218322526
C  C12  1  0.26506000  0.08422000  0.79676000  1.0 -0.031045272
C  C13  1  0.16429000  0.70840000  0.31487000  1.0 0.5701067403
C  C14  1  0.83571000  0.70840000  0.18513000  1.0 0.5701067403
C  C15  1  0.83571000  0.29160000  0.68513000  1.0 0.5701067403
C  C16  1  0.16429000  0.29160000  0.81487000  1.0 0.5701067403
C  C17  1  0.15406000  0.78440000  0.40829000  1.0 0.5793315425
C  C18  1  0.84594000  0.78440000  0.09171000  1.0 0.5793315425
C  C19  1  0.84594000  0.21560000  0.59171000  1.0 0.5793315425
C  C20  1  0.15406000  0.21560000  0.90829000  1.0 0.5793315425
C  C21  1  0.32308000  0.72930000  0.32622000  1.0 0.5793315425
C  C22  1  0.67692000  0.72930000  0.17378000  1.0 0.5793315425
C  C23  1  0.67692000  0.27070000  0.67378000  1.0 0.5793315425
C  C24  1  0.32308000  0.27070000  0.82622000  1.0 0.5793315425
C  C25  1  0.31505000  0.80300000  0.41317000  1.0 0.5793315425
C  C26  1  0.68495000  0.80300000  0.08683000  1.0 0.5793315425
C  C27  1  0.68495000  0.19700000  0.58683000  1.0 0.5793315425
C  C28  1  0.31505000  0.19700000  0.91317000  1.0 0.5793315425
C  C29  1  0.13325000  0.67948000  0.28107000  1.0 -0.031045272
C  C30  1  0.86675000  0.67948000  0.21893000  1.0 -0.031045272
C  C31  1  0.86675000  0.32052000  0.71893000  1.0 -0.031045272
C  C32  1  0.13325000  0.32052000  0.78107000  1.0 -0.031045272
C  C33  1  0.11022000  0.80211000  0.43548000  1.0 -0.031045272
C  C34  1  0.88978000  0.80211000  0.06452000  1.0 -0.031045272
C  C35  1  0.88978000  0.19789000  0.56452000  1.0 -0.031045272
C  C36  1  0.11022000  0.19789000  0.93548000  1.0 -0.031045272
C  C37  1  0.37423000  0.72280000  0.30267000  1.0 -0.0396344895
C  C38  1  0.62577000  0.72280000  0.19733000  1.0 -0.0396344895
C  C39  1  0.62577000  0.27720000  0.69733000  1.0 -0.0396344895
C  C40  1  0.37423000  0.27720000  0.80267000  1.0 -0.0396344895
C  C41  1  0.36340000  0.82510000  0.44199000  1.0 0.0014940035
C  C42  1  0.63660000  0.82510000  0.05801000  1.0 0.0014940035
C  C43  1  0.63660000  0.17490000  0.55801000  1.0 0.0014940035
C  C44  1  0.36340000  0.17490000  0.94199000  1.0 0.0014940035
C  C45  1  0.16010000  0.02900000  0.31518000  1.0 -0.0396344895
C  C46  1  0.83990000  0.02900000  0.18482000  1.0 -0.0396344895
C  C47  1  0.83990000  0.97100000  0.68482000  1.0 -0.0396344895
C  C48  1  0.16010000  0.97100000  0.81518000  1.0 -0.0396344895
C  C49  1  0.19454000  0.98207000  0.26076000  1.0 -0.031045272
C  C50  1  0.80546000  0.98207000  0.23924000  1.0 -0.031045272
C  C51  1  0.80546000  0.01793000  0.73924000  1.0 -0.031045272
C  C52  1  0.19454000  0.01793000  0.76076000  1.0 -0.031045272
C  C53  1  0.26680000  0.02958000  0.30392000  1.0 -0.031045272
C  C54  1  0.73320000  0.02958000  0.19608000  1.0 -0.031045272
C  C55  1  0.73320000  0.97042000  0.69608000  1.0 -0.031045272
C  C56  1  0.26680000  0.97042000  0.80392000  1.0 -0.031045272
C  C57  1  0.09541000  0.71640000  0.25709000  1.0 -0.1012702973
C  C58  1  0.90459000  0.71640000  0.24291000  1.0 -0.1012702973
C  C59  1  0.90459000  0.28360000  0.74291000  1.0 -0.1012702973
C  C60  1  0.09541000  0.28360000  0.75709000  1.0 -0.1012702973
C  C61  1  0.14330000  0.61500000  0.27212000  1.0 -0.1108923671
C  C62  1  0.85670000  0.61500000  0.22788000  1.0 -0.1108923671
C  C63  1  0.85670000  0.38500000  0.72788000  1.0 -0.1108923671
C  C64  1  0.14330000  0.38500000  0.77212000  1.0 -0.1108923671
C  C65  1  0.07790000  0.85930000  0.43219000  1.0 -0.1012702973
C  C66  1  0.92210000  0.85930000  0.06781000  1.0 -0.1012702973
C  C67  1  0.92210000  0.14070000  0.56781000  1.0 -0.1012702973
C  C68  1  0.07790000  0.14070000  0.93219000  1.0 -0.1012702973
C  C69  1  0.10125000  0.76290000  0.46459000  1.0 -0.1012702973
C  C70  1  0.89875000  0.76290000  0.03541000  1.0 -0.1012702973
C  C71  1  0.89875000  0.23710000  0.53541000  1.0 -0.1012702973
C  C72  1  0.10125000  0.23710000  0.96459000  1.0 -0.1012702973
C  C73  1  0.38900000  0.77380000  0.28138000  1.0 -0.1108923671
C  C74  1  0.61100000  0.77380000  0.21862000  1.0 -0.1108923671
C  C75  1  0.61100000  0.22620000  0.71862000  1.0 -0.1108923671
C  C76  1  0.38900000  0.22620000  0.78138000  1.0 -0.1108923671
C  C77  1  0.40770000  0.66850000  0.30144000  1.0 -0.1108923671
C  C78  1  0.59230000  0.66850000  0.19856000  1.0 -0.1108923671
C  C79  1  0.59230000  0.33150000  0.69856000  1.0 -0.1108923671
C  C80  1  0.40770000  0.33150000  0.80144000  1.0 -0.1108923671
C  C81  1  0.37720000  0.88570000  0.44804000  1.0 -0.1108923671
C  C82  1  0.62280000  0.88570000  0.05196000  1.0 -0.1108923671
C  C83  1  0.62280000  0.11430000  0.55196000  1.0 -0.1108923671
C  C84  1  0.37720000  0.11430000  0.94804000  1.0 -0.1108923671
C  C85  1  0.39490000  0.78010000  0.46299000  1.0 -0.1197441837
C  C86  1  0.60510000  0.78010000  0.03701000  1.0 -0.1197441837
C  C87  1  0.60510000  0.21990000  0.53701000  1.0 -0.1197441837
C  C88  1  0.39490000  0.21990000  0.96299000  1.0 -0.1197441837
C  C89  1  0.06900000  0.69050000  0.22520000  1.0 -0.1494188336
C  C90  1  0.93100000  0.69050000  0.27480000  1.0 -0.1494188336
C  C91  1  0.93100000  0.30950000  0.77480000  1.0 -0.1494188336
C  C92  1  0.06900000  0.30950000  0.72520000  1.0 -0.1494188336
C  C93  1  0.11910000  0.58990000  0.23973000  1.0 -0.1494188336
C  C94  1  0.88090000  0.58990000  0.26027000  1.0 -0.1494188336
C  C95  1  0.88090000  0.41010000  0.76027000  1.0 -0.1494188336
C  C96  1  0.11910000  0.41010000  0.73973000  1.0 -0.1494188336
C  C97  1  0.03780000  0.87650000  0.45793000  1.0 -0.160847351
C  C98  1  0.96220000  0.87650000  0.04207000  1.0 -0.160847351
C  C99  1  0.96220000  0.12350000  0.54207000  1.0 -0.160847351
C  C100  1  0.03780000  0.12350000  0.95793000  1.0 -0.160847351
C  C101  1  0.06183000  0.77950000  0.48986000  1.0 -0.1435661929
C  C102  1  0.93817000  0.77950000  0.01014000  1.0 -0.1435661929
C  C103  1  0.93817000  0.22050000  0.51014000  1.0 -0.1435661929
C  C104  1  0.06183000  0.22050000  0.98986000  1.0 -0.1435661929
C  C105  1  0.43680000  0.77020000  0.26055000  1.0 -0.1494188336
C  C106  1  0.56320000  0.77020000  0.23945000  1.0 -0.1494188336
C  C107  1  0.56320000  0.22980000  0.73945000  1.0 -0.1494188336
C  C108  1  0.43680000  0.22980000  0.76055000  1.0 -0.160847351
C  C109  1  0.45700000  0.66540000  0.28097000  1.0 -0.1494188336
C  C110  1  0.54300000  0.66540000  0.21903000  1.0 -0.1494188336
C  C111  1  0.54300000  0.33460000  0.71903000  1.0 -0.1494188336
C  C112  1  0.45700000  0.33460000  0.78097000  1.0 -0.1494188336
C  C113  1  0.42260000  0.90380000  0.47392000  1.0 -0.1682143033
C  C114  1  0.57740000  0.90380000  0.02608000  1.0 -0.1682143033
C  C115  1  0.57740000  0.09620000  0.52608000  1.0 -0.1682143033
C  C116  1  0.42260000  0.09620000  0.97392000  1.0 -0.1682143033
C  C117  1  0.44190000  0.79920000  0.48872000  1.0 -0.1914733639
C  C118  1  0.55810000  0.79920000  0.01128000  1.0 -0.1914733639
C  C119  1  0.55810000  0.20080000  0.51128000  1.0 -0.1914733639
C  C120  1  0.44190000  0.20080000  0.98872000  1.0 -0.1993881041
C  C121  1  0.96850000  0.06690000  0.29365000  1.0 0.5897151187
C  C122  1  0.03150000  0.06690000  0.20635000  1.0 0.5897151187
C  C123  1  0.03150000  0.93310000  0.70635000  1.0 0.5897151187
C  C124  1  0.96850000  0.93310000  0.79365000  1.0 0.5897151187
C  C125  1  0.20819000  0.58924000  0.42626000  1.0 -0.049285804
C  C126  1  0.79181000  0.58924000  0.07374000  1.0 -0.049285804
C  C127  1  0.79181000  0.41076000  0.57374000  1.0 -0.049285804
C  C128  1  0.20819000  0.41076000  0.92626000  1.0 -0.049285804
C  C129  1  0.31630000  0.59750000  0.42816000  1.0 -0.031045272
C  C130  1  0.68370000  0.59750000  0.07184000  1.0 -0.031045272
C  C131  1  0.68370000  0.40250000  0.57184000  1.0 -0.031045272
C  C132  1  0.31630000  0.40250000  0.92816000  1.0 -0.031045272
C  C133  1  0.25950000  0.54970000  0.37629000  1.0 -0.0396344895
C  C134  1  0.74050000  0.54970000  0.12371000  1.0 -0.0396344895
C  C135  1  0.74050000  0.45030000  0.62371000  1.0 -0.0396344895
C  C136  1  0.25950000  0.45030000  0.87629000  1.0 -0.0396344895
C  C137  1  0.08130000  0.62650000  0.21578000  1.0 0.0787617244
C  C138  1  0.91870000  0.62650000  0.28422000  1.0 0.0787617244
C  C139  1  0.91870000  0.37350000  0.78422000  1.0 0.0787617244
C  C140  1  0.08130000  0.37350000  0.71578000  1.0 0.0787617244
C  C141  1  0.02910000  0.83620000  0.48674000  1.0 0.0787617244
C  C142  1  0.97090000  0.83620000  0.01326000  1.0 0.0787617244
C  C143  1  0.97090000  0.16380000  0.51326000  1.0 0.0787617244
C  C144  1  0.02910000  0.16380000  0.98674000  1.0 0.0787617244
C  C145  1  0.47250000  0.71630000  0.26043000  1.0 0.0787617244
C  C146  1  0.52750000  0.71630000  0.23957000  1.0 0.0787617244
C  C147  1  0.52750000  0.28370000  0.73957000  1.0 0.0787617244
C  C148  1  0.47250000  0.28370000  0.76043000  1.0 0.0787617244
C  C149  1  0.45430000  0.86420000  0.49458000  1.0 0.0723666578
C  C150  1  0.54570000  0.86420000  0.00542000  1.0 0.0723666578
C  C151  1  0.54570000  0.13580000  0.50542000  1.0 0.0723666578
C  C152  1  0.45430000  0.13580000  0.99458000  1.0 0.0723666578
C  C153  1  0.95460000  0.11910000  0.31960000  1.0 -0.031045272
C  C154  1  0.04540000  0.11910000  0.18040000  1.0 -0.031045272
C  C155  1  0.04540000  0.88090000  0.68040000  1.0 -0.031045272
C  C156  1  0.95460000  0.88090000  0.81960000  1.0 -0.031045272
C  C157  1  0.05421000  0.59975000  0.18058000  1.0 0.0787617244
C  C158  1  0.94579000  0.59975000  0.31942000  1.0 0.0787617244
C  C159  1  0.94579000  0.40025000  0.81942000  1.0 0.0787617244
C  C160  1  0.05421000  0.40025000  0.68058000  1.0 0.0787617244
C  C161  1  0.98520000  0.85350000  0.51327000  1.0 0.0787617244
C  C162  1  0.01480000  0.85350000  0.98673000  1.0 0.0787617244
C  C163  1  0.01480000  0.14650000  0.48673000  1.0 0.0787617244
C  C164  1  0.98520000  0.14650000  0.01327000  1.0 0.0787617244
C  C165  1  0.50510000  0.88520000  0.51990000  1.0 0.0337062154
C  C166  1  0.49490000  0.88520000  0.98010000  1.0 0.0337062154
C  C167  1  0.49490000  0.11480000  0.48010000  1.0 0.0337062154
C  C168  1  0.50510000  0.11480000  0.01990000  1.0 0.0337062154
C  C169  1  0.99800000  0.13220000  0.34878000  1.0 -0.0928233185
C  C170  1  0.00200000  0.13220000  0.15122000  1.0 -0.0928233185
C  C171  1  0.00200000  0.86780000  0.65122000  1.0 -0.0928233185
C  C172  1  0.99800000  0.86780000  0.84878000  1.0 -0.0928233185
C  C173  1  0.89900000  0.15020000  0.31698000  1.0 -0.1108923671
C  C174  1  0.10100000  0.15020000  0.18302000  1.0 -0.1108923671
C  C175  1  0.10100000  0.84980000  0.68302000  1.0 -0.1108923671
C  C176  1  0.89900000  0.84980000  0.81698000  1.0 -0.1012702973
C  C177  1  0.27140000  0.52260000  0.46612000  1.0 -0.031045272
C  C178  1  0.72860000  0.52260000  0.03388000  1.0 -0.031045272
C  C179  1  0.72860000  0.47740000  0.53388000  1.0 -0.031045272
C  C180  1  0.27140000  0.47740000  0.96612000  1.0 -0.031045272
C  C181  1  0.21410000  0.47670000  0.41401000  1.0 -0.0396344895
C  C182  1  0.78590000  0.47670000  0.08599000  1.0 -0.0396344895
C  C183  1  0.78590000  0.52330000  0.58599000  1.0 -0.0396344895
C  C184  1  0.21410000  0.52330000  0.91401000  1.0 -0.0396344895
C  C185  1  0.32050000  0.48640000  0.41630000  1.0 -0.0136918149
C  C186  1  0.67950000  0.48640000  0.08370000  1.0 -0.0136918149
C  C187  1  0.67950000  0.51360000  0.58370000  1.0 -0.0136918149
C  C188  1  0.32050000  0.51360000  0.91630000  1.0 -0.0136918149
C  C189  1  0.08790000  0.56230000  0.15884000  1.0 -0.1494188336
C  C190  1  0.91210000  0.56230000  0.34116000  1.0 -0.1494188336
C  C191  1  0.91210000  0.43770000  0.84116000  1.0 -0.1494188336
C  C192  1  0.08790000  0.43770000  0.65884000  1.0 -0.1494188336
C  C193  1  0.99443000  0.61350000  0.16863000  1.0 -0.1435661929
C  C194  1  0.00557000  0.61350000  0.33137000  1.0 -0.1494188336
C  C195  1  0.00557000  0.38650000  0.83137000  1.0 -0.1494188336
C  C196  1  0.99443000  0.38650000  0.66863000  1.0 -0.1435661929
C  C197  1  0.98070000  0.91610000  0.52623000  1.0 -0.160847351
C  C198  1  0.01930000  0.91610000  0.97377000  1.0 -0.160847351
C  C199  1  0.01930000  0.08390000  0.47377000  1.0 -0.160847351
C  C200  1  0.98070000  0.08390000  0.02623000  1.0 -0.160847351
C  C201  1  0.94660000  0.80760000  0.52571000  1.0 -0.1494188336
C  C202  1  0.05340000  0.80760000  0.97429000  1.0 -0.1494188336
C  C203  1  0.05340000  0.19240000  0.47429000  1.0 -0.1494188336
C  C204  1  0.94660000  0.19240000  0.02571000  1.0 -0.1494188336
C  C205  1  0.49530000  0.92350000  0.54880000  1.0 -0.0676945367
C  C206  1  0.50470000  0.92350000  0.95120000  1.0 -0.0676945367
C  C207  1  0.50470000  0.07650000  0.45120000  1.0 -0.0676945367
C  C208  1  0.49530000  0.07650000  0.04880000  1.0 -0.0676945367
C  C209  1  0.56400000  0.85880000  0.51640000  1.0 -0.049285804
C  C210  1  0.43600000  0.85880000  0.98360000  1.0 -0.049285804
C  C211  1  0.43600000  0.14120000  0.48360000  1.0 -0.049285804
C  C212  1  0.56400000  0.14120000  0.01640000  1.0 -0.049285804
C  C213  1  0.98490000  0.18230000  0.37244000  1.0 -0.1494188336
C  C214  1  0.01510000  0.18230000  0.12756000  1.0 -0.1494188336
C  C215  1  0.01510000  0.81770000  0.62756000  1.0 -0.1494188336
C  C216  1  0.98490000  0.81770000  0.87244000  1.0 -0.1494188336
C  C217  1  0.88660000  0.19670000  0.34216000  1.0 -0.1494188336
C  C218  1  0.11340000  0.19670000  0.15784000  1.0 -0.1494188336
C  C219  1  0.11340000  0.80330000  0.65784000  1.0 -0.1494188336
C  C220  1  0.88660000  0.80330000  0.84216000  1.0 -0.1494188336
C  C221  1  0.06302000  0.54000000  0.12559000  1.0 -0.1012702973
C  C222  1  0.93698000  0.54000000  0.37441000  1.0 -0.1012702973
C  C223  1  0.93698000  0.46000000  0.87441000  1.0 -0.1012702973
C  C224  1  0.06302000  0.46000000  0.62559000  1.0 -0.1012702973
C  C225  1  0.96888000  0.59040000  0.13565000  1.0 -0.1012702973
C  C226  1  0.03112000  0.59040000  0.36435000  1.0 -0.1012702973
C  C227  1  0.03112000  0.40960000  0.86435000  1.0 -0.1012702973
C  C228  1  0.96888000  0.40960000  0.63565000  1.0 -0.1012702973
C  C229  1  0.93920000  0.93170000  0.55055000  1.0 -0.1012702973
C  C230  1  0.06080000  0.93170000  0.94945000  1.0 -0.1012702973
C  C231  1  0.06080000  0.06830000  0.44945000  1.0 -0.1012702973
C  C232  1  0.93920000  0.06830000  0.05055000  1.0 -0.1012702973
C  C233  1  0.90410000  0.82260000  0.55028000  1.0 -0.1108923671
C  C234  1  0.09590000  0.82260000  0.94972000  1.0 -0.1108923671
C  C235  1  0.09590000  0.17740000  0.44972000  1.0 -0.1108923671
C  C236  1  0.90410000  0.17740000  0.05028000  1.0 -0.1108923671
C  C237  1  0.54020000  0.93870000  0.57440000  1.0 -0.1754635468
C  C238  1  0.45980000  0.93870000  0.92560000  1.0 -0.1754635468
C  C239  1  0.45980000  0.06130000  0.42560000  1.0 -0.1754635468
C  C240  1  0.54020000  0.06130000  0.07440000  1.0 -0.1754635468
C  C241  1  0.61140000  0.87470000  0.54250000  1.0 -0.0396344895
C  C242  1  0.38860000  0.87470000  0.95750000  1.0 -0.0396344895
C  C243  1  0.38860000  0.12530000  0.45750000  1.0 -0.0396344895
C  C244  1  0.61140000  0.12530000  0.04250000  1.0 -0.0396344895
C  C245  1  0.93040000  0.21420000  0.36940000  1.0 0.0723666578
C  C246  1  0.06960000  0.21420000  0.13060000  1.0 0.0723666578
C  C247  1  0.06960000  0.78580000  0.63060000  1.0 0.0723666578
C  C248  1  0.93040000  0.78580000  0.86940000  1.0 0.0723666578
C  C249  1  0.12950000  0.42510000  0.51581000  1.0 0.5701067403
C  C250  1  0.87050000  0.42510000  0.98419000  1.0 0.5701067403
C  C251  1  0.87050000  0.57490000  0.48419000  1.0 0.5701067403
C  C252  1  0.12950000  0.57490000  0.01581000  1.0 0.5701067403
C  C253  1  0.00311000  0.55393000  0.11327000  1.0 -0.0396344895
C  C254  1  0.99689000  0.55393000  0.38673000  1.0 -0.0396344895
C  C255  1  0.99689000  0.44607000  0.88673000  1.0 -0.0396344895
C  C256  1  0.00311000  0.44607000  0.61327000  1.0 -0.0396344895
C  C257  1  0.90140000  0.88680000  0.56310000  1.0 -0.0218322526
C  C258  1  0.09860000  0.88680000  0.93690000  1.0 -0.0218322526
C  C259  1  0.09860000  0.11320000  0.43690000  1.0 -0.0218322526
C  C260  1  0.90140000  0.11320000  0.06310000  1.0 -0.0218322526
C  C261  1  0.59630000  0.92060000  0.57270000  1.0 0.0601187005
C  C262  1  0.40370000  0.92060000  0.92730000  1.0 0.0601187005
C  C263  1  0.40370000  0.07940000  0.42730000  1.0 0.0601187005
C  C264  1  0.59630000  0.07940000  0.07270000  1.0 0.0601187005
C  C265  1  0.91870000  0.26400000  0.39707000  1.0 0.0787617244
C  C266  1  0.08130000  0.26400000  0.10293000  1.0 0.0787617244
C  C267  1  0.08130000  0.73600000  0.60293000  1.0 0.0787617244
C  C268  1  0.91870000  0.73600000  0.89707000  1.0 0.0787617244
C  C269  1  0.11660000  0.37650000  0.54382000  1.0 -0.0218322526
C  C270  1  0.88340000  0.37650000  0.95618000  1.0 -0.0218322526
C  C271  1  0.88340000  0.62350000  0.45618000  1.0 -0.0218322526
C  C272  1  0.11660000  0.62350000  0.04382000  1.0 -0.0218322526
C  C273  1  0.97602000  0.53137000  0.07733000  1.0 0.5897151187
C  C274  1  0.02398000  0.53137000  0.42267000  1.0 0.5897151187
C  C275  1  0.02398000  0.46863000  0.92267000  1.0 0.5897151187
C  C276  1  0.97602000  0.46863000  0.57733000  1.0 0.5897151187
C  C277  1  0.85720000  0.90500000  0.59042000  1.0 0.5279462441
C  C278  1  0.14280000  0.90500000  0.90958000  1.0 0.5279462441
C  C279  1  0.14280000  0.09500000  0.40958000  1.0 0.5279462441
C  C280  1  0.85720000  0.09500000  0.09042000  1.0 0.5279462441
C  C281  1  0.64750000  0.93360000  0.60110000  1.0 0.2513892345
C  C282  1  0.35250000  0.93360000  0.89890000  1.0 0.2513892345
C  C283  1  0.35250000  0.06640000  0.39890000  1.0 0.2513892345
C  C284  1  0.64750000  0.06640000  0.10110000  1.0 0.2513892345
C  C285  1  0.86260000  0.27100000  0.41106000  1.0 -0.1494188336
C  C286  1  0.13740000  0.27100000  0.08894000  1.0 -0.1494188336
C  C287  1  0.13740000  0.72900000  0.58894000  1.0 -0.1494188336
C  C288  1  0.86260000  0.72900000  0.91106000  1.0 -0.1494188336
C  C289  1  0.96660000  0.30270000  0.41028000  1.0 -0.1494188336
C  C290  1  0.03340000  0.30270000  0.08972000  1.0 -0.1494188336
C  C291  1  0.03340000  0.69730000  0.58972000  1.0 -0.1494188336
C  C292  1  0.96660000  0.69730000  0.91028000  1.0 -0.1494188336
C  C293  1  0.15890000  0.36530000  0.57263000  1.0 -0.1012702973
C  C294  1  0.84110000  0.36530000  0.92737000  1.0 -0.1012702973
C  C295  1  0.84110000  0.63470000  0.42737000  1.0 -0.1012702973
C  C296  1  0.15890000  0.63470000  0.07263000  1.0 -0.1012702973
C  C297  1  0.06140000  0.34340000  0.54163000  1.0 -0.0928233185
C  C298  1  0.93860000  0.34340000  0.95837000  1.0 -0.0928233185
C  C299  1  0.93860000  0.65660000  0.45837000  1.0 -0.0928233185
C  C300  1  0.06140000  0.65660000  0.04163000  1.0 -0.0928233185
C  C301  1  0.85470000  0.31470000  0.43781000  1.0 -0.1012702973
C  C302  1  0.14530000  0.31470000  0.06219000  1.0 -0.1012702973
C  C303  1  0.14530000  0.68530000  0.56219000  1.0 -0.1012702973
C  C304  1  0.85470000  0.68530000  0.93781000  1.0 -0.1012702973
C  C305  1  0.95890000  0.34790000  0.43672000  1.0 -0.0928233185
C  C306  1  0.04110000  0.34790000  0.06328000  1.0 -0.0928233185
C  C307  1  0.04110000  0.65210000  0.56328000  1.0 -0.0928233185
C  C308  1  0.95890000  0.65210000  0.93672000  1.0 -0.0928233185
C  C309  1  0.14540000  0.32200000  0.59917000  1.0 -0.1435661929
C  C310  1  0.85460000  0.32200000  0.90083000  1.0 -0.1435661929
C  C311  1  0.85460000  0.67800000  0.40083000  1.0 -0.1435661929
C  C312  1  0.14540000  0.67800000  0.09917000  1.0 -0.1435661929
C  C313  1  0.04900000  0.30070000  0.56822000  1.0 -0.1435661929
C  C314  1  0.95100000  0.30070000  0.93178000  1.0 -0.1435661929
C  C315  1  0.95100000  0.69930000  0.43178000  1.0 -0.1435661929
C  C316  1  0.04900000  0.69930000  0.06822000  1.0 -0.1435661929
C  C317  1  0.90290000  0.35360000  0.45102000  1.0 -0.0396344895
C  C318  1  0.09710000  0.35360000  0.04898000  1.0 -0.0396344895
C  C319  1  0.09710000  0.64640000  0.54898000  1.0 -0.0396344895
C  C320  1  0.90290000  0.64640000  0.95102000  1.0 -0.0396344895
C  C321  1  0.09140000  0.29050000  0.59790000  1.0 0.0787617244
C  C322  1  0.90860000  0.29050000  0.90210000  1.0 0.0723666578
C  C323  1  0.90860000  0.70950000  0.40210000  1.0 0.0723666578
C  C324  1  0.09140000  0.70950000  0.09790000  1.0 0.0723666578
C  C325  1  0.89820000  0.39910000  0.48169000  1.0 0.5793315425
C  C326  1  0.10180000  0.39910000  0.01831000  1.0 0.5793315425
C  C327  1  0.10180000  0.60090000  0.51831000  1.0 0.5793315425
C  C328  1  0.89820000  0.60090000  0.98169000  1.0 0.5793315425
C  C329  1  0.07582000  0.24420000  0.62672000  1.0 0.0871400658
C  C330  1  0.92418000  0.24420000  0.87328000  1.0 0.0871400658
C  C331  1  0.92418000  0.75580000  0.37328000  1.0 0.0871400658
C  C332  1  0.07582000  0.75580000  0.12672000  1.0 0.0871400658
C  C333  1  0.12160000  0.21030000  0.64724000  1.0 -0.160847351
C  C334  1  0.87840000  0.21030000  0.85276000  1.0 -0.160847351
C  C335  1  0.87840000  0.78970000  0.35276000  1.0 -0.160847351
C  C336  1  0.12160000  0.78970000  0.14724000  1.0 -0.160847351
C  C337  1  0.01541000  0.23330000  0.63340000  1.0 -0.1435661929
C  C338  1  0.98459000  0.23330000  0.86660000  1.0 -0.1435661929
C  C339  1  0.98459000  0.76670000  0.36660000  1.0 -0.1435661929
C  C340  1  0.01541000  0.76670000  0.13340000  1.0 -0.1435661929
C  C341  1  0.10626000  0.16630000  0.67309000  1.0 -0.1012702973
C  C342  1  0.89374000  0.16630000  0.82691000  1.0 -0.1012702973
C  C343  1  0.89374000  0.83370000  0.32691000  1.0 -0.1012702973
C  C344  1  0.10626000  0.83370000  0.17309000  1.0 -0.1012702973
C  C345  1  0.00078000  0.18980000  0.65896000  1.0 -0.0928233185
C  C346  1  0.99922000  0.18980000  0.84104000  1.0 -0.0928233185
C  C347  1  0.99922000  0.81020000  0.34104000  1.0 -0.0928233185
C  C348  1  0.00078000  0.81020000  0.15896000  1.0 -0.0928233185
C  C349  1  0.04596000  0.15540000  0.67910000  1.0 -0.049285804
C  C350  1  0.95404000  0.15540000  0.82090000  1.0 -0.049285804
C  C351  1  0.95404000  0.84460000  0.32090000  1.0 -0.049285804
C  C352  1  0.04596000  0.84460000  0.17910000  1.0 -0.049285804
C  C353  1  0.03006000  0.10607000  0.70551000  1.0 0.5793315425
C  C354  1  0.96994000  0.10607000  0.79449000  1.0 0.5793315425
C  C355  1  0.96994000  0.89393000  0.29449000  1.0 0.5793315425
C  C356  1  0.03006000  0.89393000  0.20551000  1.0 0.5793315425
C  C357  1  0.50520000  0.87520000  0.52210000  1.0 0.0391101019
C  C358  1  0.49480000  0.87520000  0.97790000  1.0 0.0391101019
C  C359  1  0.49480000  0.12480000  0.47790000  1.0 0.0391101019
C  C360  1  0.50520000  0.12480000  0.02210000  1.0 0.0391101019
C  C361  1  0.55060000  0.91860000  0.51520000  1.0 -0.0617417776
C  C362  1  0.44940000  0.91860000  0.98480000  1.0 -0.0617417776
C  C363  1  0.44940000  0.08140000  0.48480000  1.0 -0.0617417776
C  C364  1  0.55060000  0.08140000  0.01520000  1.0 -0.0617417776
C  C365  1  0.60220000  0.92850000  0.53920000  1.0 -0.1012702973
C  C366  1  0.39780000  0.92850000  0.96080000  1.0 -0.1012702973
C  C367  1  0.39780000  0.07150000  0.46080000  1.0 -0.1012702973
C  C368  1  0.60220000  0.07150000  0.03920000  1.0 -0.1012702973
C  C369  1  0.60820000  0.90110000  0.57050000  1.0 0.0337062154
C  C370  1  0.39180000  0.90110000  0.92950000  1.0 0.0337062154
C  C371  1  0.39180000  0.09890000  0.42950000  1.0 0.0337062154
C  C372  1  0.60820000  0.09890000  0.07050000  1.0 0.0337062154
C  C373  1  0.56570000  0.85130000  0.58130000  1.0 -0.1308946431
C  C374  1  0.43430000  0.85130000  0.91870000  1.0 -0.1308946431
C  C375  1  0.43430000  0.14870000  0.41870000  1.0 -0.1308946431
C  C376  1  0.56570000  0.14870000  0.08130000  1.0 -0.1308946431
C  C377  1  0.51170000  0.84150000  0.55590000  1.0 -0.076965873
C  C378  1  0.48830000  0.84150000  0.94410000  1.0 -0.076965873
C  C379  1  0.48830000  0.15850000  0.44410000  1.0 -0.076965873
C  C380  1  0.51170000  0.15850000  0.05590000  1.0 -0.076965873
C  C381  1  0.66290000  0.90920000  0.59590000  1.0 0.2513892345
C  C382  1  0.33710000  0.90920000  0.90410000  1.0 0.2513892345
C  C383  1  0.33710000  0.09080000  0.40410000  1.0 0.2513892345
C  C384  1  0.66290000  0.09080000  0.09590000  1.0 0.2513892345
N  N1  1  0.22067000  0.90855000  0.32528000  1.0 -0.160847351
N  N2  1  0.77933000  0.90855000  0.17472000  1.0 -0.160847351
N  N3  1  0.77933000  0.09145000  0.67472000  1.0 -0.160847351
N  N4  1  0.22067000  0.09145000  0.82528000  1.0 -0.160847351
N  N5  1  0.14926000  0.97575000  0.28873000  1.0 -0.160847351
N  N6  1  0.85074000  0.97575000  0.21127000  1.0 -0.160847351
N  N7  1  0.85074000  0.02425000  0.71127000  1.0 -0.160847351
N  N8  1  0.14926000  0.02425000  0.78873000  1.0 -0.160847351
N  N9  1  0.22268000  0.02573000  0.33295000  1.0 -0.1914733639
N  N10  1  0.77732000  0.02573000  0.16705000  1.0 -0.1914733639
N  N11  1  0.77732000  0.97427000  0.66705000  1.0 -0.1914733639
N  N12  1  0.22268000  0.97427000  0.83295000  1.0 -0.1914733639
N  N13  1  0.25668000  0.97769000  0.27818000  1.0 -0.1197441837
N  N14  1  0.74332000  0.97769000  0.22182000  1.0 -0.1197441837
N  N15  1  0.74332000  0.02231000  0.72182000  1.0 -0.1197441837
N  N16  1  0.25668000  0.02231000  0.77818000  1.0 -0.1197441837
N  N17  1  0.25854000  0.60297000  0.40451000  1.0 -0.1914733639
N  N18  1  0.74146000  0.60297000  0.09549000  1.0 -0.1914733639
N  N19  1  0.74146000  0.39703000  0.59549000  1.0 -0.1914733639
N  N20  1  0.25854000  0.39703000  0.90451000  1.0 -0.1914733639
N  N21  1  0.21307000  0.52578000  0.44352000  1.0 -0.1993881041
N  N22  1  0.78693000  0.52578000  0.05648000  1.0 -0.1993881041
N  N23  1  0.78693000  0.47422000  0.55648000  1.0 -0.1993881041
N  N24  1  0.21307000  0.47422000  0.94352000  1.0 -0.1993881041
N  N25  1  0.32340000  0.53340000  0.44497000  1.0 -0.1435661929
N  N26  1  0.67660000  0.53340000  0.05503000  1.0 -0.1435661929
N  N27  1  0.67660000  0.46660000  0.55503000  1.0 -0.1494188336
N  N28  1  0.32340000  0.46660000  0.94497000  1.0 -0.1435661929
N  N29  1  0.26400000  0.48790000  0.39229000  1.0 -0.1308946431
N  N30  1  0.73600000  0.48790000  0.10771000  1.0 -0.1308946431
N  N31  1  0.73600000  0.51210000  0.60771000  1.0 -0.1308946431
N  N32  1  0.26400000  0.51210000  0.89229000  1.0 -0.1308946431
O  O1  1  0.17097000  0.76757000  0.31560000  1.0 -0.531478037
O  O2  1  0.82903000  0.76757000  0.18440000  1.0 -0.531478037
O  O3  1  0.82903000  0.23243000  0.68440000  1.0 -0.531478037
O  O4  1  0.17097000  0.23243000  0.81560000  1.0 -0.531478037
O  O5  1  0.16228000  0.82692000  0.38466000  1.0 -0.531478037
O  O6  1  0.83772000  0.82692000  0.11534000  1.0 -0.531478037
O  O7  1  0.83772000  0.17308000  0.61534000  1.0 -0.531478037
O  O8  1  0.16228000  0.17308000  0.88466000  1.0 -0.531478037
O  O9  1  0.29687000  0.78293000  0.32628000  1.0 -0.5493605689
O  O10  1  0.70313000  0.78293000  0.17372000  1.0 -0.5493605689
O  O11  1  0.70313000  0.21707000  0.67372000  1.0 -0.5493605689
O  O12  1  0.29687000  0.21707000  0.82628000  1.0 -0.5493605689
O  O13  1  0.28993000  0.84433000  0.39353000  1.0 -0.5096473739
O  O14  1  0.71007000  0.84433000  0.10647000  1.0 -0.5096473739
O  O15  1  0.71007000  0.15567000  0.60647000  1.0 -0.5096473739
O  O16  1  0.28993000  0.15567000  0.89353000  1.0 -0.5096473739
O  O17  1  0.18214000  0.67003000  0.33959000  1.0 -0.5402729743
O  O18  1  0.81786000  0.67003000  0.16041000  1.0 -0.5402729743
O  O19  1  0.81786000  0.32997000  0.66041000  1.0 -0.5402729743
O  O20  1  0.18214000  0.32997000  0.83959000  1.0 -0.5402729743
O  O21  1  0.17849000  0.73075000  0.41051000  1.0 -0.5402729743
O  O22  1  0.82151000  0.73075000  0.08949000  1.0 -0.5402729743
O  O23  1  0.82151000  0.26925000  0.58949000  1.0 -0.5402729743
O  O24  1  0.17849000  0.26925000  0.91051000  1.0 -0.5402729743
O  O25  1  0.30945000  0.68192000  0.34412000  1.0 -0.5247412071
O  O26  1  0.69055000  0.68192000  0.15588000  1.0 -0.5247412071
O  O27  1  0.69055000  0.31808000  0.65588000  1.0 -0.5247412071
O  O28  1  0.30945000  0.31808000  0.84412000  1.0 -0.5247412071
O  O29  1  0.30518000  0.74390000  0.41120000  1.0 -0.5402729743
O  O30  1  0.69482000  0.74390000  0.08880000  1.0 -0.5402729743
O  O31  1  0.69482000  0.25610000  0.58880000  1.0 -0.5402729743
O  O32  1  0.30518000  0.25610000  0.91120000  1.0 -0.5402729743
O  O33  1  0.01886000  0.03843000  0.29899000  1.0 -0.5493605689
O  O34  1  0.98114000  0.03843000  0.20101000  1.0 -0.5493605689
O  O35  1  0.98114000  0.96157000  0.70101000  1.0 -0.5493605689
O  O36  1  0.01886000  0.96157000  0.79899000  1.0 -0.5493605689
O  O37  1  0.07106000  0.05702000  0.23284000  1.0 -0.5493605689
O  O38  1  0.92894000  0.05702000  0.26716000  1.0 -0.5493605689
O  O39  1  0.92894000  0.94298000  0.76716000  1.0 -0.5493605689
O  O40  1  0.07106000  0.94298000  0.73284000  1.0 -0.5493605689
O  O41  1  0.07371000  0.92202000  0.22336000  1.0 -0.5402729743
O  O42  1  0.92629000  0.92202000  0.27664000  1.0 -0.5402729743
O  O43  1  0.92629000  0.07798000  0.77664000  1.0 -0.5402729743
O  O44  1  0.07371000  0.07798000  0.72336000  1.0 -0.5402729743
O  O45  1  0.02601000  0.90466000  0.29129000  1.0 -0.5493605689
O  O46  1  0.97399000  0.90466000  0.20871000  1.0 -0.5493605689
O  O47  1  0.97399000  0.09534000  0.70871000  1.0 -0.5493605689
O  O48  1  0.02601000  0.09534000  0.79129000  1.0 -0.5493605689
O  O49  1  0.20090000  0.16270000  0.33024000  1.0 -0.2836131499
O  O50  1  0.79910000  0.16270000  0.16976000  1.0 -0.2836131499
O  O51  1  0.79910000  0.83730000  0.66976000  1.0 -0.2836131499
O  O52  1  0.20090000  0.83730000  0.83024000  1.0 -0.2861601457
O  O53  1  0.17500000  0.13880000  0.39863000  1.0 -0.4921136469
O  O54  1  0.82500000  0.13880000  0.10137000  1.0 -0.4921136469
O  O55  1  0.82500000  0.86120000  0.60137000  1.0 -0.4921136469
O  O56  1  0.17500000  0.86120000  0.89863000  1.0 -0.4921136469
O  O57  1  0.29890000  0.09350000  0.40720000  1.0 -0.0676945367
O  O58  1  0.70110000  0.09350000  0.09280000  1.0 -0.0676945367
O  O59  1  0.70110000  0.90650000  0.59280000  1.0 -0.0676945367
O  O60  1  0.29890000  0.90650000  0.90720000  1.0 -0.0676945367
O  O61  1  0.18185000  0.44471000  0.51233000  1.0 -0.531478037
O  O62  1  0.81815000  0.44471000  0.98767000  1.0 -0.531478037
O  O63  1  0.81815000  0.55529000  0.48767000  1.0 -0.531478037
O  O64  1  0.18185000  0.55529000  0.01233000  1.0 -0.531478037
O  O65  1  0.08486000  0.44694000  0.49471000  1.0 -0.5760582688
O  O66  1  0.91514000  0.44694000  0.00529000  1.0 -0.5716903792
O  O67  1  0.91514000  0.55306000  0.50529000  1.0 -0.5760582688
O  O68  1  0.08486000  0.55306000  0.99471000  1.0 -0.5760582688
O  O69  1  0.08168000  0.53538000  0.42809000  1.0 -0.5760582688
O  O70  1  0.91832000  0.53538000  0.07191000  1.0 -0.5760582688
O  O71  1  0.91832000  0.46462000  0.57191000  1.0 -0.5760582688
O  O72  1  0.08168000  0.46462000  0.92809000  1.0 -0.5760582688
O  O73  1  0.15337000  0.58890000  0.50745000  1.0 -0.531478037
O  O74  1  0.84663000  0.58890000  0.99255000  1.0 -0.531478037
O  O75  1  0.84663000  0.41110000  0.49255000  1.0 -0.531478037
O  O76  1  0.15337000  0.41110000  0.00745000  1.0 -0.531478037
O  O77  1  0.98892000  0.51003000  0.44473000  1.0 -0.5493605689
O  O78  1  0.01108000  0.51003000  0.05527000  1.0 -0.5493605689
O  O79  1  0.01108000  0.48997000  0.55527000  1.0 -0.5493605689
O  O80  1  0.98892000  0.48997000  0.94473000  1.0 -0.5493605689
O  O81  1  0.94744000  0.42003000  0.49707000  1.0 -0.5716903792
O  O82  1  0.05256000  0.42003000  0.00293000  1.0 -0.5716903792
O  O83  1  0.05256000  0.57997000  0.50293000  1.0 -0.5716903792
O  O84  1  0.94744000  0.57997000  0.99707000  1.0 -0.5716903792
O  O85  1  0.85405000  0.95980000  0.60078000  1.0 -0.4993412837
O  O86  1  0.14595000  0.95980000  0.89922000  1.0 -0.4993412837
O  O87  1  0.14595000  0.04020000  0.39922000  1.0 -0.4993412837
O  O88  1  0.85405000  0.04020000  0.10078000  1.0 -0.4993412837
O  O89  1  0.63990000  0.95960000  0.62698000  1.0 -0.2680566952
O  O90  1  0.36010000  0.95960000  0.87302000  1.0 -0.2680566952
O  O91  1  0.36010000  0.04040000  0.37302000  1.0 -0.2680566952
O  O92  1  0.63990000  0.04040000  0.12698000  1.0 -0.2680566952
O  O93  1  0.70160000  0.94600000  0.59120000  1.0 -0.1682143033
O  O94  1  0.29840000  0.94600000  0.90880000  1.0 -0.160847351
O  O95  1  0.29840000  0.05400000  0.40880000  1.0 -0.160847351
O  O96  1  0.70160000  0.05400000  0.09120000  1.0 -0.1682143033
O  O97  1  0.67740000  0.86940000  0.62350000  1.0 -0.2054001138
O  O98  1  0.32260000  0.86940000  0.87650000  1.0 -0.1993881041
O  O99  1  0.32260000  0.13060000  0.37650000  1.0 -0.1993881041
O  O100  1  0.67740000  0.13060000  0.12350000  1.0 -0.2054001138
O  O101  1  0.26160000  0.17380000  0.33900000  1.0 -0.1108923671
O  O102  1  0.73840000  0.17380000  0.16100000  1.0 -0.1108923671
O  O103  1  0.73840000  0.82620000  0.66100000  1.0 -0.1108923671
O  O104  1  0.26160000  0.82620000  0.83900000  1.0 -0.1197441837
