# DDEC6 charges by PACMAN v1.1 (https://github.com/mtap-research/PACMAN-charge/)
data_RULVUP_FSR_pacman
_symmetry_space_group_name_H-M   'P 1'
_cell_length_a   7.31000000
_cell_length_b   13.14400000
_cell_length_c   13.80000000
_cell_angle_alpha   83.46000000
_cell_angle_beta   82.88000000
_cell_angle_gamma   84.71000000
_symmetry_Int_Tables_number   1
_chemical_formula_structural   CuH19C25N4
_chemical_formula_sum   'Cu2 H38 C50 N8'
_cell_volume   1303.04756066
_cell_formula_units_Z   2
loop_
 _symmetry_equiv_pos_site_id
 _symmetry_equiv_pos_as_xyz
  1  'x, y, z'
loop_
 _atom_site_type_symbol
 _atom_site_label
 _atom_site_symmetry_multiplicity
 _atom_site_fract_x
 _atom_site_fract_y
 _atom_site_fract_z
 _atom_site_occupancy
 _atom_site_charge
Cu  Cu1  1  0.68850000  0.70770000  0.69090000  1.0 0.2045162797
Cu  Cu2  1  0.31150000  0.29230000  0.30910000  1.0 0.2045162797
H  H1  1  0.97380000  0.85550000  0.69100000  1.0 0.0916260761
H  H2  1  0.02620000  0.14450000  0.30900000  1.0 0.0916260761
H  H3  1  0.08600000  0.95790000  0.79000000  1.0 0.1123775906
H  H4  1  0.91400000  0.04210000  0.21000000  1.0 0.1123775906
H  H5  1  0.74930000  0.83420000  0.01600000  1.0 0.1196655223
H  H6  1  0.25070000  0.16580000  0.98400000  1.0 0.1196655223
H  H7  1  0.64090000  0.73900000  0.90920000  1.0 0.0916260761
H  H8  1  0.35910000  0.26100000  0.09080000  1.0 0.0916260761
H  H9  1  0.47490000  0.73410000  0.51240000  1.0 0.0916260761
H  H10  1  0.52510000  0.26590000  0.48760000  1.0 0.0916260761
H  H11  1  0.22250000  0.83370000  0.46190000  1.0 0.1196655223
H  H12  1  0.77750000  0.16630000  0.53810000  1.0 0.1196655223
H  H13  1  0.31690000  0.04260000  0.63740000  1.0 0.1286129634
H  H14  1  0.68310000  0.95740000  0.36260000  1.0 0.1286129634
H  H15  1  0.55830000  0.93350000  0.68750000  1.0 0.0916260761
H  H16  1  0.44170000  0.06650000  0.31250000  1.0 0.0916260761
H  H17  1  0.05980000  0.08230000  0.53630000  1.0 0.1123775906
H  H18  1  0.94020000  0.91770000  0.46370000  1.0 0.1123775906
H  H19  1  0.98890000  0.55070000  0.73480000  1.0 0.0916260761
H  H20  1  0.01110000  0.44930000  0.26520000  1.0 0.0916260761
H  H21  1  0.26900000  0.48650000  0.66460000  1.0 0.1196655223
H  H22  1  0.73100000  0.51350000  0.33540000  1.0 0.1196655223
H  H23  1  0.14990000  0.63590000  0.40680000  1.0 0.1286129634
H  H24  1  0.85010000  0.36410000  0.59320000  1.0 0.1286129634
H  H25  1  0.87110000  0.69650000  0.48370000  1.0 0.0916260761
H  H26  1  0.12890000  0.30350000  0.51630000  1.0 0.0916260761
H  H27  1  0.44540000  0.53500000  0.40960000  1.0 0.1123775906
H  H28  1  0.55460000  0.46500000  0.59040000  1.0 0.1123775906
H  H29  1  0.62150000  0.48810000  0.78890000  1.0 0.0964277267
H  H30  1  0.37850000  0.51190000  0.21110000  1.0 0.0964277267
H  H31  1  0.39500000  0.40540000  0.89000000  1.0 0.1286129634
H  H32  1  0.60500000  0.59460000  0.11000000  1.0 0.1286129634
H  H33  1  0.09550000  0.67680000  0.90290000  1.0 0.1196655223
H  H34  1  0.90450000  0.32320000  0.09710000  1.0 0.1196655223
H  H35  1  0.32160000  0.74980000  0.79410000  1.0 0.0916260761
H  H36  1  0.67840000  0.25020000  0.20590000  1.0 0.0916260761
H  H37  1  0.08390000  0.40590000  0.97990000  1.0 0.1123775906
H  H38  1  0.91610000  0.59410000  0.02010000  1.0 0.1123775906
C  C1  1  0.92600000  0.85200000  0.75770000  1.0 0.0489143328
C  C2  1  0.07400000  0.14800000  0.24230000  1.0 0.0489143328
C  C3  1  0.99460000  0.91360000  0.81680000  1.0 -0.2509269486
C  C4  1  0.00540000  0.08640000  0.18320000  1.0 -0.2443785489
C  C5  1  0.92960000  0.91030000  0.91530000  1.0 0.1482014835
C  C6  1  0.07040000  0.08970000  0.08470000  1.0 0.1482014835
C  C7  1  0.79610000  0.84130000  0.94930000  1.0 -0.2509269486
C  C8  1  0.20390000  0.15870000  0.05070000  1.0 -0.2509269486
C  C9  1  0.73310000  0.78370000  0.88490000  1.0 0.0440671973
C  C10  1  0.26690000  0.21630000  0.11510000  1.0 0.0440671973
C  C11  1  0.43880000  0.79570000  0.54080000  1.0 0.0440671973
C  C12  1  0.56120000  0.20430000  0.45920000  1.0 0.0489143328
C  C13  1  0.28820000  0.85590000  0.50890000  1.0 -0.2001830273
C  C14  1  0.71180000  0.14410000  0.49110000  1.0 -0.2001830273
C  C15  1  0.23390000  0.94900000  0.54620000  1.0 0.1420970291
C  C16  1  0.76610000  0.05100000  0.45380000  1.0 0.1420970291
C  C17  1  0.34250000  0.97840000  0.61270000  1.0 -0.2084849373
C  C18  1  0.65750000  0.02160000  0.38730000  1.0 -0.2084849373
C  C19  1  0.48790000  0.91250000  0.64190000  1.0 0.0440671973
C  C20  1  0.51210000  0.08750000  0.35810000  1.0 0.0440671973
C  C21  1  0.06860000  0.01400000  0.52100000  1.0 -0.185640578
C  C22  1  0.93140000  0.98600000  0.47900000  1.0 -0.185640578
C  C23  1  0.02320000  0.56950000  0.66770000  1.0 0.030275494
C  C24  1  0.97680000  0.43050000  0.33230000  1.0 0.030275494
C  C25  1  0.19180000  0.53080000  0.62610000  1.0 -0.2001830273
C  C26  1  0.80820000  0.46920000  0.37390000  1.0 -0.2001830273
C  C27  1  0.24910000  0.55710000  0.52650000  1.0 0.1420970291
C  C28  1  0.75090000  0.44290000  0.47350000  1.0 0.1420970291
C  C29  1  0.12160000  0.61860000  0.47470000  1.0 -0.2190330856
C  C30  1  0.87840000  0.38140000  0.52530000  1.0 -0.2190330856
C  C31  1  0.95360000  0.65490000  0.52120000  1.0 0.0489143328
C  C32  1  0.04640000  0.34510000  0.47880000  1.0 0.0489143328
C  C33  1  0.42840000  0.52310000  0.47850000  1.0 -0.2001830273
C  C34  1  0.57160000  0.47690000  0.52150000  1.0 -0.2001830273
C  C35  1  0.51230000  0.52640000  0.81090000  1.0 0.030275494
C  C36  1  0.48770000  0.47360000  0.18910000  1.0 0.030275494
C  C37  1  0.37790000  0.47660000  0.87280000  1.0 -0.2084849373
C  C38  1  0.62210000  0.52340000  0.12720000  1.0 -0.2084849373
C  C39  1  0.21700000  0.53130000  0.91020000  1.0 0.1482014835
C  C40  1  0.78300000  0.46870000  0.08980000  1.0 0.1482014835
C  C41  1  0.20040000  0.63590000  0.87960000  1.0 -0.2001830273
C  C42  1  0.79960000  0.36410000  0.12040000  1.0 -0.2001830273
C  C43  1  0.33820000  0.67940000  0.81510000  1.0 0.0489143328
C  C44  1  0.66180000  0.32060000  0.18490000  1.0 0.0489143328
C  C45  1  0.07230000  0.47810000  0.97450000  1.0 -0.1663913026
C  C46  1  0.92770000  0.52190000  0.02550000  1.0 -0.1663913026
C  C47  1  0.94990000  0.95730000  0.00920000  1.0 -0.0101019575
C  C48  1  0.05010000  0.04270000  0.99080000  1.0 -0.0101019575
C  C49  1  0.02830000  0.99270000  0.95410000  1.0 -0.0369175494
C  C50  1  0.97170000  0.00730000  0.04590000  1.0 -0.0369175494
N  N1  1  0.79640000  0.78810000  0.78960000  1.0 -0.2084849373
N  N2  1  0.20360000  0.21190000  0.21040000  1.0 -0.2084849373
N  N3  1  0.53540000  0.82000000  0.60940000  1.0 -0.2084849373
N  N4  1  0.46460000  0.18000000  0.39060000  1.0 -0.2084849373
N  N5  1  0.90370000  0.63320000  0.61730000  1.0 -0.2190330856
N  N6  1  0.09630000  0.36680000  0.38270000  1.0 -0.2190330856
N  N7  1  0.49350000  0.62730000  0.78070000  1.0 -0.2084849373
N  N8  1  0.50650000  0.37270000  0.21930000  1.0 -0.2084849373
