# DDEC6 charges by PACMAN v1.1 (https://github.com/mtap-research/PACMAN-charge/)
data_RUPNEW_ASR_pacman
_symmetry_space_group_name_H-M   'P 1'
_cell_length_a   15.72750000
_cell_length_b   15.72750000
_cell_length_c   15.72750000
_cell_angle_alpha   108.61600000
_cell_angle_beta   108.61600000
_cell_angle_gamma   111.19600000
_symmetry_Int_Tables_number   1
_chemical_formula_structural   Al2C14(N2O3)3
_chemical_formula_sum   'Al8 C56 N24 O36'
_cell_volume   2992.66814155
_cell_formula_units_Z   4
loop_
 _symmetry_equiv_pos_site_id
 _symmetry_equiv_pos_as_xyz
  1  'x, y, z'
loop_
 _atom_site_type_symbol
 _atom_site_label
 _atom_site_symmetry_multiplicity
 _atom_site_fract_x
 _atom_site_fract_y
 _atom_site_fract_z
 _atom_site_occupancy
 _atom_site_charge
Al  Al1  1  0.07866000  0.20660000  0.28526000  1.0 1.6981117146
Al  Al2  1  0.79340000  0.07866000  0.87206000  1.0 1.6981117146
Al  Al3  1  0.07866000  0.79340000  0.87206000  1.0 1.6981117146
Al  Al4  1  0.92134000  0.79340000  0.71474000  1.0 1.6981117146
Al  Al5  1  0.20660000  0.07866000  0.28526000  1.0 1.6981117146
Al  Al6  1  0.20660000  0.92134000  0.12794000  1.0 1.6981117146
Al  Al7  1  0.92134000  0.20660000  0.12794000  1.0 1.6981117146
Al  Al8  1  0.79340000  0.92134000  0.71474000  1.0 1.6981117146
C  C1  1  0.14796000  0.33266000  0.18470000  1.0 0.4091047922
C  C2  1  0.96326000  0.14796000  0.81530000  1.0 0.4091047922
C  C3  1  0.85204000  0.66734000  0.81530000  1.0 0.4091047922
C  C4  1  0.14796000  0.96326000  0.81530000  1.0 0.4091047922
C  C5  1  0.03674000  0.85204000  0.18470000  1.0 0.4091047922
C  C6  1  0.33266000  0.14796000  0.18470000  1.0 0.4091047922
C  C7  1  0.85204000  0.03674000  0.18470000  1.0 0.4091047922
C  C8  1  0.66734000  0.85204000  0.81530000  1.0 0.4091047922
C  C9  1  0.00000000  0.34196000  0.34196000  1.0 0.6382302212
C  C10  1  0.65804000  0.00000000  0.65804000  1.0 0.6382302212
C  C11  1  0.00000000  0.65804000  0.65804000  1.0 0.6382302212
C  C12  1  0.34196000  0.00000000  0.34196000  1.0 0.6382302212
C  C13  1  0.00000000  0.42527000  0.42527000  1.0 -0.1806382185
C  C14  1  0.57473000  0.00000000  0.57473000  1.0 -0.1806382185
C  C15  1  0.00000000  0.57473000  0.57473000  1.0 -0.1806382185
C  C16  1  0.42527000  0.00000000  0.42527000  1.0 -0.1806382185
C  C17  1  0.06769000  0.46344000  0.53113000  1.0 0.1073716445
C  C18  1  0.53656000  0.06769000  0.60425000  1.0 0.1073716445
C  C19  1  0.06769000  0.53656000  0.60425000  1.0 0.1073716445
C  C20  1  0.93231000  0.53656000  0.46887000  1.0 0.1073716445
C  C21  1  0.46344000  0.06769000  0.53113000  1.0 0.1073716445
C  C22  1  0.46344000  0.93231000  0.39575000  1.0 0.1073716445
C  C23  1  0.93231000  0.46344000  0.39575000  1.0 0.1073716445
C  C24  1  0.53656000  0.93231000  0.46887000  1.0 0.1073716445
C  C25  1  0.30461000  0.30461000  0.39374000  1.0 0.6585295441
C  C26  1  0.91087000  0.30461000  0.00000000  1.0 0.6585295441
C  C27  1  0.08913000  0.69539000  0.00000000  1.0 0.6585295441
C  C28  1  0.91087000  0.91087000  0.60626000  1.0 0.6585295441
C  C29  1  0.08913000  0.08913000  0.39374000  1.0 0.6585295441
C  C30  1  0.30461000  0.91087000  0.00000000  1.0 0.6585295441
C  C31  1  0.69539000  0.08913000  0.00000000  1.0 0.6585295441
C  C32  1  0.69539000  0.69539000  0.60626000  1.0 0.6585295441
C  C33  1  0.40698000  0.40698000  0.44862000  1.0 -0.1806382185
C  C34  1  0.95836000  0.40698000  0.00000000  1.0 -0.1806382185
C  C35  1  0.04164000  0.59302000  0.00000000  1.0 -0.1806382185
C  C36  1  0.95836000  0.95836000  0.55138000  1.0 -0.1806382185
C  C37  1  0.04164000  0.04164000  0.44862000  1.0 -0.1806382185
C  C38  1  0.40698000  0.95836000  0.00000000  1.0 -0.1806382185
C  C39  1  0.59302000  0.04164000  0.00000000  1.0 -0.1806382185
C  C40  1  0.59302000  0.59302000  0.55138000  1.0 -0.1806382185
C  C41  1  0.50216000  0.40554000  0.47610000  1.0 0.1073716445
C  C42  1  0.02606000  0.50216000  0.09662000  1.0 0.1073716445
C  C43  1  0.07056000  0.59446000  0.09662000  1.0 0.1073716445
C  C44  1  0.92944000  0.02606000  0.52390000  1.0 0.1045652049
C  C45  1  0.97394000  0.07056000  0.47610000  1.0 0.1073716445
C  C46  1  0.40554000  0.92944000  0.90338000  1.0 0.1073716445
C  C47  1  0.49784000  0.97394000  0.90338000  1.0 0.1073716445
C  C48  1  0.59446000  0.49784000  0.52390000  1.0 0.1073716445
C  C49  1  0.49784000  0.59446000  0.52390000  1.0 0.1073716445
C  C50  1  0.97394000  0.49784000  0.90338000  1.0 0.1073716445
C  C51  1  0.92944000  0.40554000  0.90338000  1.0 0.1073716445
C  C52  1  0.07056000  0.97394000  0.47610000  1.0 0.1073716445
C  C53  1  0.02606000  0.92944000  0.52390000  1.0 0.1073716445
C  C54  1  0.59446000  0.07056000  0.09662000  1.0 0.1073716445
C  C55  1  0.50216000  0.02606000  0.09662000  1.0 0.1073716445
C  C56  1  0.40554000  0.50216000  0.47610000  1.0 0.1073716445
N  N1  1  0.14358000  0.43184000  0.57542000  1.0 -0.0594892941
N  N2  1  0.56816000  0.14358000  0.71174000  1.0 -0.0594892941
N  N3  1  0.14358000  0.56816000  0.71174000  1.0 -0.0594892941
N  N4  1  0.85642000  0.56816000  0.42458000  1.0 -0.0594892941
N  N5  1  0.43184000  0.14358000  0.57542000  1.0 -0.0594892941
N  N6  1  0.43184000  0.85642000  0.28826000  1.0 -0.0594892941
N  N7  1  0.85642000  0.43184000  0.28826000  1.0 -0.0594892941
N  N8  1  0.56816000  0.85642000  0.42458000  1.0 -0.0594892941
N  N9  1  0.52321000  0.32158000  0.47947000  1.0 -0.0594892941
N  N10  1  0.04374000  0.52321000  0.20163000  1.0 -0.0594892941
N  N11  1  0.15789000  0.67842000  0.20163000  1.0 -0.0594892941
N  N12  1  0.84211000  0.04374000  0.52053000  1.0 -0.0594892941
N  N13  1  0.95626000  0.15789000  0.47947000  1.0 -0.0594892941
N  N14  1  0.32158000  0.84211000  0.79837000  1.0 -0.0594892941
N  N15  1  0.47679000  0.95626000  0.79837000  1.0 -0.0594892941
N  N16  1  0.67842000  0.47679000  0.52053000  1.0 -0.0594892941
N  N17  1  0.47679000  0.67842000  0.52053000  1.0 -0.0594892941
N  N18  1  0.95626000  0.47679000  0.79837000  1.0 -0.0594892941
N  N19  1  0.84211000  0.32158000  0.79837000  1.0 -0.0594892941
N  N20  1  0.15789000  0.95626000  0.47947000  1.0 -0.0594892941
N  N21  1  0.04374000  0.84211000  0.52053000  1.0 -0.0594892941
N  N22  1  0.67842000  0.15789000  0.20163000  1.0 -0.0594892941
N  N23  1  0.52321000  0.04374000  0.20163000  1.0 -0.0594892941
N  N24  1  0.32158000  0.52321000  0.47947000  1.0 -0.0594892941
O  O1  1  0.11024000  0.11024000  0.22048000  1.0 -0.993049009
O  O2  1  0.88976000  0.11024000  0.00000000  1.0 -0.993049009
O  O3  1  0.11024000  0.88976000  0.00000000  1.0 -0.993049009
O  O4  1  0.88976000  0.88976000  0.77952000  1.0 -0.993049009
O  O5  1  0.06616000  0.25907000  0.19291000  1.0 -0.7847742869
O  O6  1  0.87325000  0.06616000  0.80709000  1.0 -0.7847742869
O  O7  1  0.93384000  0.74093000  0.80709000  1.0 -0.7847742869
O  O8  1  0.06616000  0.87325000  0.80709000  1.0 -0.7847742869
O  O9  1  0.12675000  0.93384000  0.19291000  1.0 -0.7847742869
O  O10  1  0.25907000  0.06616000  0.19291000  1.0 -0.7847742869
O  O11  1  0.93384000  0.12675000  0.19291000  1.0 -0.7847742869
O  O12  1  0.74093000  0.93384000  0.80709000  1.0 -0.7847742869
O  O13  1  0.06052000  0.31030000  0.37082000  1.0 -0.5309399946
O  O14  1  0.68970000  0.06052000  0.75022000  1.0 -0.5309399946
O  O15  1  0.06052000  0.68970000  0.75022000  1.0 -0.5309399946
O  O16  1  0.93948000  0.68970000  0.62918000  1.0 -0.5309399946
O  O17  1  0.31030000  0.06052000  0.37082000  1.0 -0.5309399946
O  O18  1  0.31030000  0.93948000  0.24978000  1.0 -0.5309399946
O  O19  1  0.93948000  0.31030000  0.24978000  1.0 -0.5309399946
O  O20  1  0.68970000  0.93948000  0.62918000  1.0 -0.5309399946
O  O21  1  0.22217000  0.30813000  0.37092000  1.0 -0.572480647
O  O22  1  0.85125000  0.22217000  0.91404000  1.0 -0.572480647
O  O23  1  0.06279000  0.69187000  0.91404000  1.0 -0.572480647
O  O24  1  0.93721000  0.85125000  0.62908000  1.0 -0.572480647
O  O25  1  0.14875000  0.06279000  0.37092000  1.0 -0.572480647
O  O26  1  0.30813000  0.93721000  0.08596000  1.0 -0.572480647
O  O27  1  0.77783000  0.14875000  0.08596000  1.0 -0.572480647
O  O28  1  0.69187000  0.77783000  0.62908000  1.0 -0.572480647
O  O29  1  0.77783000  0.69187000  0.62908000  1.0 -0.572480647
O  O30  1  0.14875000  0.77783000  0.08596000  1.0 -0.572480647
O  O31  1  0.93721000  0.30813000  0.08596000  1.0 -0.572480647
O  O32  1  0.06279000  0.14875000  0.37092000  1.0 -0.572480647
O  O33  1  0.85125000  0.93721000  0.62908000  1.0 -0.572480647
O  O34  1  0.69187000  0.06279000  0.91404000  1.0 -0.572480647
O  O35  1  0.22217000  0.85125000  0.91404000  1.0 -0.572480647
O  O36  1  0.30813000  0.22217000  0.37092000  1.0 -0.572480647
