# DDEC6 charges by PACMAN v1.1 (https://github.com/mtap-research/PACMAN-charge/)
data_RUPRUQ_FSR_pacman
_symmetry_space_group_name_H-M   'P 1'
_cell_length_a   16.00930000
_cell_length_b   16.00930000
_cell_length_c   16.00930000
_cell_angle_alpha   108.73100000
_cell_angle_beta   108.73100000
_cell_angle_gamma   110.96100000
_symmetry_Int_Tables_number   1
_chemical_formula_structural   Ti2(C4O3)3
_chemical_formula_sum   'Ti8 C48 O36'
_cell_volume   3157.03627860
_cell_formula_units_Z   4
loop_
 _symmetry_equiv_pos_site_id
 _symmetry_equiv_pos_as_xyz
  1  'x, y, z'
loop_
 _atom_site_type_symbol
 _atom_site_label
 _atom_site_symmetry_multiplicity
 _atom_site_fract_x
 _atom_site_fract_y
 _atom_site_fract_z
 _atom_site_occupancy
 _atom_site_charge
Ti  Ti1  1  0.70830000  0.57400000  0.28230000  1.0 1.841513909
Ti  Ti2  1  0.42600000  0.70830000  0.13430000  1.0 1.84900816
Ti  Ti3  1  0.70830000  0.42600000  0.13430000  1.0 1.84900816
Ti  Ti4  1  0.29170000  0.42600000  0.71770000  1.0 1.84900816
Ti  Ti5  1  0.57400000  0.70830000  0.28230000  1.0 1.841513909
Ti  Ti6  1  0.57400000  0.29170000  0.86570000  1.0 1.84900816
Ti  Ti7  1  0.29170000  0.57400000  0.86570000  1.0 1.84900816
Ti  Ti8  1  0.42600000  0.29170000  0.71770000  1.0 1.84900816
C  C1  1  0.85070000  0.50000000  0.35070000  1.0 0.6390945684
C  C2  1  0.50000000  0.85070000  0.35070000  1.0 0.6390945684
C  C3  1  0.14930000  0.50000000  0.64930000  1.0 0.6390945684
C  C4  1  0.50000000  0.14930000  0.64930000  1.0 0.6390945684
C  C5  1  0.92650000  0.50000000  0.42650000  1.0 -0.1031046048
C  C6  1  0.50000000  0.92650000  0.42650000  1.0 -0.1031046048
C  C7  1  0.07350000  0.50000000  0.57350000  1.0 -0.1031046048
C  C8  1  0.50000000  0.07350000  0.57350000  1.0 -0.1031046048
C  C9  1  0.96320000  0.57050000  0.53370000  1.0 0.0375131169
C  C10  1  0.42950000  0.96320000  0.39270000  1.0 0.0375131169
C  C11  1  0.96320000  0.42950000  0.39270000  1.0 0.0375131169
C  C12  1  0.03680000  0.42950000  0.46630000  1.0 0.0375131169
C  C13  1  0.57050000  0.96320000  0.53370000  1.0 0.0375131169
C  C14  1  0.57050000  0.03680000  0.60730000  1.0 0.0375131169
C  C15  1  0.03680000  0.57050000  0.60730000  1.0 0.0375131169
C  C16  1  0.42950000  0.03680000  0.46630000  1.0 0.0375131169
C  C17  1  0.59630000  0.59630000  0.38800000  1.0 0.5732312273
C  C18  1  0.20830000  0.59630000  0.00000000  1.0 0.5732312273
C  C19  1  0.79170000  0.40370000  0.00000000  1.0 0.5789260488
C  C20  1  0.20830000  0.20830000  0.61200000  1.0 0.5789260488
C  C21  1  0.79170000  0.79170000  0.38800000  1.0 0.5789260488
C  C22  1  0.59630000  0.20830000  0.00000000  1.0 0.5732312273
C  C23  1  0.40370000  0.79170000  0.00000000  1.0 0.5789260488
C  C24  1  0.40370000  0.40370000  0.61200000  1.0 0.5732312273
C  C25  1  0.54340000  0.54340000  0.44500000  1.0 -0.0464651297
C  C26  1  0.09840000  0.54340000  0.00000000  1.0 -0.0440321569
C  C27  1  0.90160000  0.45660000  0.00000000  1.0 -0.0464651297
C  C28  1  0.09840000  0.09840000  0.55500000  1.0 -0.0464651297
C  C29  1  0.90160000  0.90160000  0.44500000  1.0 -0.0464651297
C  C30  1  0.54340000  0.09840000  0.00000000  1.0 -0.0440321569
C  C31  1  0.45660000  0.90160000  0.00000000  1.0 -0.0464651297
C  C32  1  0.45660000  0.45660000  0.55500000  1.0 -0.0464651297
C  C33  1  0.49130000  0.57740000  0.48910000  1.0 0.0564861033
C  C34  1  0.00220000  0.49130000  0.91390000  1.0 0.0545857042
C  C35  1  0.91170000  0.42260000  0.91390000  1.0 0.0564861033
C  C36  1  0.08830000  0.00220000  0.51090000  1.0 0.0564861033
C  C37  1  0.99780000  0.91170000  0.48910000  1.0 0.0564861033
C  C38  1  0.57740000  0.08830000  0.08610000  1.0 0.0564861033
C  C39  1  0.50870000  0.99780000  0.08610000  1.0 0.0564861033
C  C40  1  0.42260000  0.50870000  0.51090000  1.0 0.0564861033
C  C41  1  0.50870000  0.42260000  0.51090000  1.0 0.0564861033
C  C42  1  0.99780000  0.50870000  0.08610000  1.0 0.0564861033
C  C43  1  0.08830000  0.57740000  0.08610000  1.0 0.0564861033
C  C44  1  0.91170000  0.99780000  0.48910000  1.0 0.0564861033
C  C45  1  0.00220000  0.08830000  0.51090000  1.0 0.0564861033
C  C46  1  0.42260000  0.91170000  0.91390000  1.0 0.0545857042
C  C47  1  0.49130000  0.00220000  0.91390000  1.0 0.0564861033
C  C48  1  0.57740000  0.49130000  0.48910000  1.0 0.0564861033
O  O1  1  0.81110000  0.55800000  0.36910000  1.0 -0.5644296933
O  O2  1  0.44200000  0.81110000  0.25310000  1.0 -0.5669437179
O  O3  1  0.81110000  0.44200000  0.25310000  1.0 -0.5669437179
O  O4  1  0.18890000  0.44200000  0.63090000  1.0 -0.5669437179
O  O5  1  0.55800000  0.81110000  0.36910000  1.0 -0.5644296933
O  O6  1  0.55800000  0.18890000  0.74690000  1.0 -0.5669437179
O  O7  1  0.18890000  0.55800000  0.74690000  1.0 -0.5669437179
O  O8  1  0.44200000  0.18890000  0.63090000  1.0 -0.5669437179
O  O9  1  0.60840000  0.42650000  0.18190000  1.0 -0.8834159261
O  O10  1  0.42650000  0.60840000  0.18190000  1.0 -0.8834159261
O  O11  1  0.75540000  0.57350000  0.18190000  1.0 -0.8834159261
O  O12  1  0.24460000  0.42650000  0.81810000  1.0 -0.8834159261
O  O13  1  0.57350000  0.75540000  0.18190000  1.0 -0.8930062879
O  O14  1  0.42650000  0.24460000  0.81810000  1.0 -0.8834159261
O  O15  1  0.39160000  0.57350000  0.81810000  1.0 -0.8834159261
O  O16  1  0.57350000  0.39160000  0.81810000  1.0 -0.8834159261
O  O17  1  0.65270000  0.57100000  0.37010000  1.0 -0.468766876
O  O18  1  0.28260000  0.65270000  0.08170000  1.0 -0.468766876
O  O19  1  0.79910000  0.42900000  0.08170000  1.0 -0.468766876
O  O20  1  0.20090000  0.28260000  0.62990000  1.0 -0.468766876
O  O21  1  0.71740000  0.79910000  0.37010000  1.0 -0.468766876
O  O22  1  0.57100000  0.20090000  0.91830000  1.0 -0.468766876
O  O23  1  0.34730000  0.71740000  0.91830000  1.0 -0.468766876
O  O24  1  0.42900000  0.34730000  0.62990000  1.0 -0.468766876
O  O25  1  0.34730000  0.42900000  0.62990000  1.0 -0.468766876
O  O26  1  0.71740000  0.34730000  0.91830000  1.0 -0.468766876
O  O27  1  0.20090000  0.57100000  0.91830000  1.0 -0.468766876
O  O28  1  0.79910000  0.71740000  0.37010000  1.0 -0.468766876
O  O29  1  0.28260000  0.20090000  0.62990000  1.0 -0.468766876
O  O30  1  0.42900000  0.79910000  0.08170000  1.0 -0.468766876
O  O31  1  0.65270000  0.28260000  0.08170000  1.0 -0.468766876
O  O32  1  0.57100000  0.65270000  0.37010000  1.0 -0.468766876
O  O33  1  0.60740000  0.60740000  0.21480000  1.0 -0.8130740552
O  O34  1  0.39260000  0.60740000  0.00000000  1.0 -0.8130740552
O  O35  1  0.60740000  0.39260000  0.00000000  1.0 -0.8130740552
O  O36  1  0.39260000  0.39260000  0.78520000  1.0 -0.8159607876
