# DDEC6 charges by PACMAN v1.1 (https://github.com/mtap-research/PACMAN-charge/)
data_RUQVEF_FSR_pacman
_symmetry_space_group_name_H-M   'P 1'
_cell_length_a   10.95200000
_cell_length_b   10.95200000
_cell_length_c   9.62700000
_cell_angle_alpha   90.00000000
_cell_angle_beta   90.00000000
_cell_angle_gamma   90.00000000
_symmetry_Int_Tables_number   1
_chemical_formula_structural   ZnH20C16NO4
_chemical_formula_sum   'Zn2 H40 C32 N2 O8'
_cell_volume   1154.72306861
_cell_formula_units_Z   2
loop_
 _symmetry_equiv_pos_site_id
 _symmetry_equiv_pos_as_xyz
  1  'x, y, z'
loop_
 _atom_site_type_symbol
 _atom_site_label
 _atom_site_symmetry_multiplicity
 _atom_site_fract_x
 _atom_site_fract_y
 _atom_site_fract_z
 _atom_site_occupancy
 _atom_site_charge
Zn  Zn1  1  0.00000000  0.00000000  0.15090000  1.0 0.6826374444
Zn  Zn2  1  0.00000000  0.00000000  0.84910000  1.0 0.6826374444
H  H1  1  0.00000000  0.60730000  0.21090000  1.0 0.1348609391
H  H2  1  0.00000000  0.39270000  0.21090000  1.0 0.1348609391
H  H3  1  0.60730000  0.00000000  0.21090000  1.0 0.1348609391
H  H4  1  0.39270000  0.00000000  0.21090000  1.0 0.1348609391
H  H5  1  0.00000000  0.39270000  0.78910000  1.0 0.1348609391
H  H6  1  0.00000000  0.60730000  0.78910000  1.0 0.1348609391
H  H7  1  0.60730000  0.00000000  0.78910000  1.0 0.1348609391
H  H8  1  0.39270000  0.00000000  0.78910000  1.0 0.1348609391
H  H9  1  0.81540000  0.00420000  0.38420000  1.0 0.0935634027
H  H10  1  0.18460000  0.99580000  0.38420000  1.0 0.0935634027
H  H11  1  0.00420000  0.18460000  0.38420000  1.0 0.0935634027
H  H12  1  0.99580000  0.81540000  0.38420000  1.0 0.0935634027
H  H13  1  0.81540000  0.99580000  0.61580000  1.0 0.0935634027
H  H14  1  0.18460000  0.00420000  0.61580000  1.0 0.0935634027
H  H15  1  0.00420000  0.81540000  0.61580000  1.0 0.0935634027
H  H16  1  0.99580000  0.18460000  0.61580000  1.0 0.0935634027
H  H17  1  0.18460000  0.99580000  0.61580000  1.0 0.0935634027
H  H18  1  0.81540000  0.00420000  0.61580000  1.0 0.0935634027
H  H19  1  0.99580000  0.81540000  0.61580000  1.0 0.0935634027
H  H20  1  0.00420000  0.18460000  0.61580000  1.0 0.0935634027
H  H21  1  0.18460000  0.00420000  0.38420000  1.0 0.0935634027
H  H22  1  0.81540000  0.99580000  0.38420000  1.0 0.0935634027
H  H23  1  0.99580000  0.18460000  0.38420000  1.0 0.0935634027
H  H24  1  0.00420000  0.81540000  0.38420000  1.0 0.0935634027
H  H25  1  0.87040000  0.86850000  0.38420000  1.0 0.0935634027
H  H26  1  0.12960000  0.13150000  0.38420000  1.0 0.0935634027
H  H27  1  0.86850000  0.12960000  0.38420000  1.0 0.0935634027
H  H28  1  0.13150000  0.87040000  0.38420000  1.0 0.0935634027
H  H29  1  0.87040000  0.13150000  0.61580000  1.0 0.0935634027
H  H30  1  0.12960000  0.86850000  0.61580000  1.0 0.0935634027
H  H31  1  0.86850000  0.87040000  0.61580000  1.0 0.0935634027
H  H32  1  0.13150000  0.12960000  0.61580000  1.0 0.0935634027
H  H33  1  0.12960000  0.13150000  0.61580000  1.0 0.0935634027
H  H34  1  0.87040000  0.86850000  0.61580000  1.0 0.0935634027
H  H35  1  0.13150000  0.87040000  0.61580000  1.0 0.0935634027
H  H36  1  0.86850000  0.12960000  0.61580000  1.0 0.0935634027
H  H37  1  0.12960000  0.86850000  0.38420000  1.0 0.0935634027
H  H38  1  0.87040000  0.13150000  0.38420000  1.0 0.0935634027
H  H39  1  0.13150000  0.12960000  0.38420000  1.0 0.0935634027
H  H40  1  0.86850000  0.87040000  0.38420000  1.0 0.0935634027
C  C1  1  0.00000000  0.76310000  0.00000000  1.0 0.4655414584
C  C2  1  0.00000000  0.23690000  0.00000000  1.0 0.4655414584
C  C3  1  0.76310000  0.00000000  0.00000000  1.0 0.4655414584
C  C4  1  0.23690000  0.00000000  0.00000000  1.0 0.4655414584
C  C5  1  0.00000000  0.62940000  0.00000000  1.0 -0.020657712
C  C6  1  0.00000000  0.37060000  0.00000000  1.0 -0.020657712
C  C7  1  0.62940000  0.00000000  0.00000000  1.0 -0.020657712
C  C8  1  0.37060000  0.00000000  0.00000000  1.0 -0.020657712
C  C9  1  0.00000000  0.56430000  0.12510000  1.0 -0.1326664531
C  C10  1  0.00000000  0.43570000  0.12510000  1.0 -0.1326664531
C  C11  1  0.56430000  0.00000000  0.12510000  1.0 -0.1326664531
C  C12  1  0.43570000  0.00000000  0.12510000  1.0 -0.1326664531
C  C13  1  0.00000000  0.43570000  0.87490000  1.0 -0.1326664531
C  C14  1  0.00000000  0.56430000  0.87490000  1.0 -0.1326664531
C  C15  1  0.56430000  0.00000000  0.87490000  1.0 -0.1326664531
C  C16  1  0.43570000  0.00000000  0.87490000  1.0 -0.1326664531
C  C17  1  0.88320000  0.95270000  0.41860000  1.0 -0.0803865021
C  C18  1  0.11680000  0.04730000  0.41860000  1.0 -0.0803865021
C  C19  1  0.95270000  0.11680000  0.41860000  1.0 -0.0803865021
C  C20  1  0.04730000  0.88320000  0.41860000  1.0 -0.0803865021
C  C21  1  0.88320000  0.04730000  0.58140000  1.0 -0.0803865021
C  C22  1  0.11680000  0.95270000  0.58140000  1.0 -0.0803865021
C  C23  1  0.95270000  0.88320000  0.58140000  1.0 -0.0803865021
C  C24  1  0.04730000  0.11680000  0.58140000  1.0 -0.0803865021
C  C25  1  0.11680000  0.04730000  0.58140000  1.0 -0.0803865021
C  C26  1  0.88320000  0.95270000  0.58140000  1.0 -0.0803865021
C  C27  1  0.04730000  0.88320000  0.58140000  1.0 -0.0803865021
C  C28  1  0.95270000  0.11680000  0.58140000  1.0 -0.0803865021
C  C29  1  0.11680000  0.95270000  0.41860000  1.0 -0.0803865021
C  C30  1  0.88320000  0.04730000  0.41860000  1.0 -0.0803865021
C  C31  1  0.04730000  0.11680000  0.41860000  1.0 -0.0803865021
C  C32  1  0.95270000  0.88320000  0.41860000  1.0 -0.0803865021
N  N1  1  0.00000000  0.00000000  0.36550000  1.0 -0.1246231583
N  N2  1  0.00000000  0.00000000  0.63450000  1.0 -0.1246231583
O  O1  1  0.00000000  0.81740000  0.11700000  1.0 -0.5776205374
O  O2  1  0.00000000  0.18260000  0.11700000  1.0 -0.5776205374
O  O3  1  0.81740000  0.00000000  0.11700000  1.0 -0.5776205374
O  O4  1  0.18260000  0.00000000  0.11700000  1.0 -0.5776205374
O  O5  1  0.00000000  0.18260000  0.88300000  1.0 -0.5776205374
O  O6  1  0.00000000  0.81740000  0.88300000  1.0 -0.5776205374
O  O7  1  0.81740000  0.00000000  0.88300000  1.0 -0.5776205374
O  O8  1  0.18260000  0.00000000  0.88300000  1.0 -0.5776205374
