# DDEC6 charges by PACMAN v1.1 (https://github.com/mtap-research/PACMAN-charge/)
data_RUSHIY_ASR_pacman
_symmetry_space_group_name_H-M   'P 1'
_cell_length_a   27.01900000
_cell_length_b   38.42700000
_cell_length_c   38.73800000
_cell_angle_alpha   90.00000000
_cell_angle_beta   90.00000000
_cell_angle_gamma   90.00000000
_symmetry_Int_Tables_number   1
_chemical_formula_structural   K2Co4P5H84W30C60(N8O29)3
_chemical_formula_sum   'K16 Co32 P40 H672 W240 C480 N192 O696'
_cell_volume   40220.08151939
_cell_formula_units_Z   8
loop_
 _symmetry_equiv_pos_site_id
 _symmetry_equiv_pos_as_xyz
  1  'x, y, z'
loop_
 _atom_site_type_symbol
 _atom_site_label
 _atom_site_symmetry_multiplicity
 _atom_site_fract_x
 _atom_site_fract_y
 _atom_site_fract_z
 _atom_site_occupancy
 _atom_site_charge
K  K1  1  0.75830000  0.64393000  0.48481000  1.0 0.6765654353
K  K2  1  0.74170000  0.85607000  0.98481000  1.0 0.6765654353
K  K3  1  0.25830000  0.85607000  0.51519000  1.0 0.6765654353
K  K4  1  0.24170000  0.64393000  0.01519000  1.0 0.6765654353
K  K5  1  0.24170000  0.35607000  0.51519000  1.0 0.6765654353
K  K6  1  0.25830000  0.14393000  0.01519000  1.0 0.6765654353
K  K7  1  0.74170000  0.14393000  0.48481000  1.0 0.6765654353
K  K8  1  0.75830000  0.35607000  0.98481000  1.0 0.6765654353
K  K9  1  0.64970000  0.59880000  0.48200000  1.0 0.6677460489
K  K10  1  0.85030000  0.90120000  0.98200000  1.0 0.6677460489
K  K11  1  0.14970000  0.90120000  0.51800000  1.0 0.6677460489
K  K12  1  0.35030000  0.59880000  0.01800000  1.0 0.6677460489
K  K13  1  0.35030000  0.40120000  0.51800000  1.0 0.6677460489
K  K14  1  0.14970000  0.09880000  0.01800000  1.0 0.6677460489
K  K15  1  0.85030000  0.09880000  0.48200000  1.0 0.6677460489
K  K16  1  0.64970000  0.40120000  0.98200000  1.0 0.6677460489
Co  Co1  1  0.45828000  0.54628000  0.57617000  1.0 0.9671718446
Co  Co2  1  0.04172000  0.95372000  0.07617000  1.0 0.9671718446
Co  Co3  1  0.95828000  0.95372000  0.42383000  1.0 0.9671718446
Co  Co4  1  0.54172000  0.54628000  0.92383000  1.0 0.9671718446
Co  Co5  1  0.54172000  0.45372000  0.42383000  1.0 0.9671718446
Co  Co6  1  0.95828000  0.04628000  0.92383000  1.0 0.9671718446
Co  Co7  1  0.04172000  0.04628000  0.57617000  1.0 0.9671718446
Co  Co8  1  0.45828000  0.45372000  0.07617000  1.0 0.9671718446
Co  Co9  1  0.41130000  0.76256000  0.41929000  1.0 0.8572827545
Co  Co10  1  0.08870000  0.73744000  0.91929000  1.0 0.8572827545
Co  Co11  1  0.91130000  0.73744000  0.58071000  1.0 0.8572827545
Co  Co12  1  0.58870000  0.76256000  0.08071000  1.0 0.8572827545
Co  Co13  1  0.58870000  0.23744000  0.58071000  1.0 0.8572827545
Co  Co14  1  0.91130000  0.26256000  0.08071000  1.0 0.8572827545
Co  Co15  1  0.08870000  0.26256000  0.41929000  1.0 0.8572827545
Co  Co16  1  0.41130000  0.23744000  0.91929000  1.0 0.8572827545
Co  Co17  1  0.72281000  0.80431000  0.30688000  1.0 0.637322296
Co  Co18  1  0.77719000  0.69569000  0.80688000  1.0 0.637322296
Co  Co19  1  0.22281000  0.69569000  0.69312000  1.0 0.637322296
Co  Co20  1  0.27719000  0.80431000  0.19312000  1.0 0.637322296
Co  Co21  1  0.27719000  0.19569000  0.69312000  1.0 0.637322296
Co  Co22  1  0.22281000  0.30431000  0.19312000  1.0 0.637322296
Co  Co23  1  0.77719000  0.30431000  0.30688000  1.0 0.637322296
Co  Co24  1  0.72281000  0.19569000  0.80688000  1.0 0.637322296
Co  Co25  1  0.92176000  0.67644000  0.14097000  1.0 0.2298062286
Co  Co26  1  0.57824000  0.82356000  0.64097000  1.0 0.2298062286
Co  Co27  1  0.42176000  0.82356000  0.85903000  1.0 0.2298062286
Co  Co28  1  0.07824000  0.67644000  0.35903000  1.0 0.2298062286
Co  Co29  1  0.07824000  0.32356000  0.85903000  1.0 0.2227200544
Co  Co30  1  0.42176000  0.17644000  0.35903000  1.0 0.2298062286
Co  Co31  1  0.57824000  0.17644000  0.14097000  1.0 0.2298062286
Co  Co32  1  0.92176000  0.32356000  0.64097000  1.0 0.2298062286
P  P1  1  0.68490000  0.64493000  0.39720000  1.0 1.3920737622
P  P2  1  0.81510000  0.85507000  0.89720000  1.0 1.3920737622
P  P3  1  0.18490000  0.85507000  0.60280000  1.0 1.3920737622
P  P4  1  0.31510000  0.64493000  0.10280000  1.0 1.3920737622
P  P5  1  0.31510000  0.35507000  0.60280000  1.0 1.3920737622
P  P6  1  0.18490000  0.14493000  0.10280000  1.0 1.3920737622
P  P7  1  0.81510000  0.14493000  0.39720000  1.0 1.3920737622
P  P8  1  0.68490000  0.35507000  0.89720000  1.0 1.3920737622
P  P9  1  0.75920000  0.55878000  0.43110000  1.0 1.4070944754
P  P10  1  0.74080000  0.94122000  0.93110000  1.0 1.403027412
P  P11  1  0.25920000  0.94122000  0.56890000  1.0 1.403027412
P  P12  1  0.24080000  0.55878000  0.06890000  1.0 1.403027412
P  P13  1  0.24080000  0.44122000  0.56890000  1.0 1.403027412
P  P14  1  0.25920000  0.05878000  0.06890000  1.0 1.4070944754
P  P15  1  0.74080000  0.05878000  0.43110000  1.0 1.4070944754
P  P16  1  0.75920000  0.44122000  0.93110000  1.0 1.4070944754
P  P17  1  0.75590000  0.55854000  0.53640000  1.0 1.4330200648
P  P18  1  0.74410000  0.94146000  0.03640000  1.0 1.4330200648
P  P19  1  0.25590000  0.94146000  0.46360000  1.0 1.4330200648
P  P20  1  0.24410000  0.55854000  0.96360000  1.0 1.4330200648
P  P21  1  0.24410000  0.44146000  0.46360000  1.0 1.4330200648
P  P22  1  0.25590000  0.05854000  0.96360000  1.0 1.4330200648
P  P23  1  0.74410000  0.05854000  0.53640000  1.0 1.4355094103
P  P24  1  0.75590000  0.44146000  0.03640000  1.0 1.4330200648
P  P25  1  0.68090000  0.64442000  0.56920000  1.0 1.403027412
P  P26  1  0.81910000  0.85558000  0.06920000  1.0 1.403027412
P  P27  1  0.18090000  0.85558000  0.43080000  1.0 1.403027412
P  P28  1  0.31910000  0.64442000  0.93080000  1.0 1.403027412
P  P29  1  0.31910000  0.35558000  0.43080000  1.0 1.403027412
P  P30  1  0.18090000  0.14442000  0.93080000  1.0 1.403027412
P  P31  1  0.81910000  0.14442000  0.56920000  1.0 1.403027412
P  P32  1  0.68090000  0.35558000  0.06920000  1.0 1.403027412
P  P33  1  0.63620000  0.69803000  0.48300000  1.0 1.448056039
P  P34  1  0.86380000  0.80197000  0.98300000  1.0 1.448056039
P  P35  1  0.13620000  0.80197000  0.51700000  1.0 1.448056039
P  P36  1  0.36380000  0.69803000  0.01700000  1.0 1.448056039
P  P37  1  0.36380000  0.30197000  0.51700000  1.0 1.448056039
P  P38  1  0.13620000  0.19803000  0.01700000  1.0 1.448056039
P  P39  1  0.86380000  0.19803000  0.48300000  1.0 1.448056039
P  P40  1  0.63620000  0.30197000  0.98300000  1.0 1.448056039
H  H1  1  0.35710000  0.55050000  0.38730000  1.0 0.2001530049
H  H2  1  0.14290000  0.94950000  0.88730000  1.0 0.2001530049
H  H3  1  0.85710000  0.94950000  0.61270000  1.0 0.2001530049
H  H4  1  0.64290000  0.55050000  0.11270000  1.0 0.2001530049
H  H5  1  0.64290000  0.44950000  0.61270000  1.0 0.2001530049
H  H6  1  0.85710000  0.05050000  0.11270000  1.0 0.2001530049
H  H7  1  0.14290000  0.05050000  0.38730000  1.0 0.2001530049
H  H8  1  0.35710000  0.44950000  0.88730000  1.0 0.2001530049
H  H9  1  0.33050000  0.72180000  0.46150000  1.0 0.2433511564
H  H10  1  0.16950000  0.77820000  0.96150000  1.0 0.2433511564
H  H11  1  0.83050000  0.77820000  0.53850000  1.0 0.2433511564
H  H12  1  0.66950000  0.72180000  0.03850000  1.0 0.2433511564
H  H13  1  0.66950000  0.27820000  0.53850000  1.0 0.2433511564
H  H14  1  0.83050000  0.22180000  0.03850000  1.0 0.2433511564
H  H15  1  0.16950000  0.22180000  0.46150000  1.0 0.2433511564
H  H16  1  0.33050000  0.27820000  0.96150000  1.0 0.2433511564
H  H17  1  0.49850000  0.80840000  0.44560000  1.0 0.2433511564
H  H18  1  0.00150000  0.69160000  0.94560000  1.0 0.2433511564
H  H19  1  0.99850000  0.69160000  0.55440000  1.0 0.2433511564
H  H20  1  0.50150000  0.80840000  0.05440000  1.0 0.2433511564
H  H21  1  0.50150000  0.19160000  0.55440000  1.0 0.2433511564
H  H22  1  0.99850000  0.30840000  0.05440000  1.0 0.2433511564
H  H23  1  0.00150000  0.30840000  0.44560000  1.0 0.2433511564
H  H24  1  0.49850000  0.19160000  0.94560000  1.0 0.2433511564
H  H25  1  0.70700000  0.72970000  0.27900000  1.0 0.2517250048
H  H26  1  0.79300000  0.77030000  0.77900000  1.0 0.2517250048
H  H27  1  0.20700000  0.77030000  0.72100000  1.0 0.2517250048
H  H28  1  0.29300000  0.72970000  0.22100000  1.0 0.2517250048
H  H29  1  0.29300000  0.27030000  0.72100000  1.0 0.2517250048
H  H30  1  0.20700000  0.22970000  0.22100000  1.0 0.2517250048
H  H31  1  0.79300000  0.22970000  0.27900000  1.0 0.2517250048
H  H32  1  0.70700000  0.27030000  0.77900000  1.0 0.2517250048
H  H33  1  0.86920000  0.56270000  0.95860000  1.0 0.2298062286
H  H34  1  0.63080000  0.93730000  0.45860000  1.0 0.2298062286
H  H35  1  0.36920000  0.93730000  0.04140000  1.0 0.2298062286
H  H36  1  0.13080000  0.56270000  0.54140000  1.0 0.2298062286
H  H37  1  0.13080000  0.43730000  0.04140000  1.0 0.2298062286
H  H38  1  0.36920000  0.06270000  0.54140000  1.0 0.2298062286
H  H39  1  0.63080000  0.06270000  0.95860000  1.0 0.2298062286
H  H40  1  0.86920000  0.43730000  0.45860000  1.0 0.2298062286
H  H41  1  0.99100000  0.68030000  0.07920000  1.0 0.2298062286
H  H42  1  0.50900000  0.81970000  0.57920000  1.0 0.2298062286
H  H43  1  0.49100000  0.81970000  0.92080000  1.0 0.2298062286
H  H44  1  0.00900000  0.68030000  0.42080000  1.0 0.2298062286
H  H45  1  0.00900000  0.31970000  0.92080000  1.0 0.2298062286
H  H46  1  0.49100000  0.18030000  0.42080000  1.0 0.2298062286
H  H47  1  0.50900000  0.18030000  0.07920000  1.0 0.2298062286
H  H48  1  0.99100000  0.31970000  0.57920000  1.0 0.2298062286
H  H49  1  0.96240000  0.74160000  0.18250000  1.0 0.2433511564
H  H50  1  0.53760000  0.75840000  0.68250000  1.0 0.2433511564
H  H51  1  0.46240000  0.75840000  0.81750000  1.0 0.2433511564
H  H52  1  0.03760000  0.74160000  0.31750000  1.0 0.2433511564
H  H53  1  0.03760000  0.25840000  0.81750000  1.0 0.2433511564
H  H54  1  0.46240000  0.24160000  0.31750000  1.0 0.2433511564
H  H55  1  0.53760000  0.24160000  0.18250000  1.0 0.2433511564
H  H56  1  0.96240000  0.25840000  0.68250000  1.0 0.2433511564
H  H57  1  0.80540000  0.75580000  0.32970000  1.0 0.2517250048
H  H58  1  0.69460000  0.74420000  0.82970000  1.0 0.2517250048
H  H59  1  0.30540000  0.74420000  0.67030000  1.0 0.2517250048
H  H60  1  0.19460000  0.75580000  0.17030000  1.0 0.2517250048
H  H61  1  0.19460000  0.24420000  0.67030000  1.0 0.2517250048
H  H62  1  0.30540000  0.25580000  0.17030000  1.0 0.2517250048
H  H63  1  0.69460000  0.25580000  0.32970000  1.0 0.2517250048
H  H64  1  0.80540000  0.24420000  0.82970000  1.0 0.2517250048
H  H65  1  0.72090000  0.81410000  0.38570000  1.0 0.2298062286
H  H66  1  0.77910000  0.68590000  0.88570000  1.0 0.2298062286
H  H67  1  0.22090000  0.68590000  0.61430000  1.0 0.2298062286
H  H68  1  0.27910000  0.81410000  0.11430000  1.0 0.2298062286
H  H69  1  0.27910000  0.18590000  0.61430000  1.0 0.2298062286
H  H70  1  0.22090000  0.31410000  0.11430000  1.0 0.2298062286
H  H71  1  0.77910000  0.31410000  0.38570000  1.0 0.2298062286
H  H72  1  0.72090000  0.18590000  0.88570000  1.0 0.2298062286
H  H73  1  0.41300000  0.56280000  0.43390000  1.0 0.1200931412
H  H74  1  0.08700000  0.93720000  0.93390000  1.0 0.1200931412
H  H75  1  0.91300000  0.93720000  0.56610000  1.0 0.1200931412
H  H76  1  0.58700000  0.56280000  0.06610000  1.0 0.1200931412
H  H77  1  0.58700000  0.43720000  0.56610000  1.0 0.1200931412
H  H78  1  0.91300000  0.06280000  0.06610000  1.0 0.1287884418
H  H79  1  0.08700000  0.06280000  0.43390000  1.0 0.1287884418
H  H80  1  0.41300000  0.43720000  0.93390000  1.0 0.1200931412
H  H81  1  0.39890000  0.59610000  0.45510000  1.0 0.1287884418
H  H82  1  0.10110000  0.90390000  0.95510000  1.0 0.1287884418
H  H83  1  0.89890000  0.90390000  0.54490000  1.0 0.1287884418
H  H84  1  0.60110000  0.59610000  0.04490000  1.0 0.1287884418
H  H85  1  0.60110000  0.40390000  0.54490000  1.0 0.1287884418
H  H86  1  0.89890000  0.09610000  0.04490000  1.0 0.1287884418
H  H87  1  0.10110000  0.09610000  0.45510000  1.0 0.1287884418
H  H88  1  0.39890000  0.40390000  0.95510000  1.0 0.1287884418
H  H89  1  0.43540000  0.59900000  0.42370000  1.0 0.1287884418
H  H90  1  0.06460000  0.90100000  0.92370000  1.0 0.1287884418
H  H91  1  0.93540000  0.90100000  0.57630000  1.0 0.1287884418
H  H92  1  0.56460000  0.59900000  0.07630000  1.0 0.1287884418
H  H93  1  0.56460000  0.40100000  0.57630000  1.0 0.1287884418
H  H94  1  0.93540000  0.09900000  0.07630000  1.0 0.1287884418
H  H95  1  0.06460000  0.09900000  0.42370000  1.0 0.1287884418
H  H96  1  0.43540000  0.40100000  0.92370000  1.0 0.1287884418
H  H97  1  0.24100000  0.64480000  0.38050000  1.0 0.1200931412
H  H98  1  0.25900000  0.85520000  0.88050000  1.0 0.1200931412
H  H99  1  0.74100000  0.85520000  0.61950000  1.0 0.1200931412
H  H100  1  0.75900000  0.64480000  0.11950000  1.0 0.1200931412
H  H101  1  0.75900000  0.35520000  0.61950000  1.0 0.1200931412
H  H102  1  0.74100000  0.14480000  0.11950000  1.0 0.1200931412
H  H103  1  0.25900000  0.14480000  0.38050000  1.0 0.1200931412
H  H104  1  0.24100000  0.35520000  0.88050000  1.0 0.1200931412
H  H105  1  0.25540000  0.63400000  0.34280000  1.0 0.1287884418
H  H106  1  0.24460000  0.86600000  0.84280000  1.0 0.1287884418
H  H107  1  0.75540000  0.86600000  0.65720000  1.0 0.1287884418
H  H108  1  0.74460000  0.63400000  0.15720000  1.0 0.1287884418
H  H109  1  0.74460000  0.36600000  0.65720000  1.0 0.1287884418
H  H110  1  0.75540000  0.13400000  0.15720000  1.0 0.1287884418
H  H111  1  0.24460000  0.13400000  0.34280000  1.0 0.1287884418
H  H112  1  0.25540000  0.36600000  0.84280000  1.0 0.1287884418
H  H113  1  0.28490000  0.66350000  0.36170000  1.0 0.1200931412
H  H114  1  0.21510000  0.83650000  0.86170000  1.0 0.1200931412
H  H115  1  0.78490000  0.83650000  0.63830000  1.0 0.1200931412
H  H116  1  0.71510000  0.66350000  0.13830000  1.0 0.1200931412
H  H117  1  0.71510000  0.33650000  0.63830000  1.0 0.1200931412
H  H118  1  0.78490000  0.16350000  0.13830000  1.0 0.1200931412
H  H119  1  0.21510000  0.16350000  0.36170000  1.0 0.1200931412
H  H120  1  0.28490000  0.33650000  0.86170000  1.0 0.1200931412
H  H121  1  0.25770000  0.68790000  0.47130000  1.0 0.1008363036
H  H122  1  0.24230000  0.81210000  0.97130000  1.0 0.1008363036
H  H123  1  0.75770000  0.81210000  0.52870000  1.0 0.1008363036
H  H124  1  0.74230000  0.68790000  0.02870000  1.0 0.1008363036
H  H125  1  0.74230000  0.31210000  0.52870000  1.0 0.1008363036
H  H126  1  0.75770000  0.18790000  0.02870000  1.0 0.1008363036
H  H127  1  0.24230000  0.18790000  0.47130000  1.0 0.1008363036
H  H128  1  0.25770000  0.31210000  0.97130000  1.0 0.1008363036
H  H129  1  0.28390000  0.65360000  0.48350000  1.0 0.1287884418
H  H130  1  0.21610000  0.84640000  0.98350000  1.0 0.1287884418
H  H131  1  0.78390000  0.84640000  0.51650000  1.0 0.1287884418
H  H132  1  0.71610000  0.65360000  0.01650000  1.0 0.1287884418
H  H133  1  0.71610000  0.34640000  0.51650000  1.0 0.1287884418
H  H134  1  0.78390000  0.15360000  0.01650000  1.0 0.1287884418
H  H135  1  0.21610000  0.15360000  0.48350000  1.0 0.1287884418
H  H136  1  0.28390000  0.34640000  0.98350000  1.0 0.1287884418
H  H137  1  0.25320000  0.65390000  0.44910000  1.0 0.1287884418
H  H138  1  0.24680000  0.84610000  0.94910000  1.0 0.1287884418
H  H139  1  0.75320000  0.84610000  0.55090000  1.0 0.1287884418
H  H140  1  0.74680000  0.65390000  0.05090000  1.0 0.1287884418
H  H141  1  0.74680000  0.34610000  0.55090000  1.0 0.1287884418
H  H142  1  0.75320000  0.15390000  0.05090000  1.0 0.1287884418
H  H143  1  0.24680000  0.15390000  0.44910000  1.0 0.1287884418
H  H144  1  0.25320000  0.34610000  0.94910000  1.0 0.1287884418
H  H145  1  0.43640000  0.69350000  0.37180000  1.0 0.1287884418
H  H146  1  0.06360000  0.80650000  0.87180000  1.0 0.1287884418
H  H147  1  0.93640000  0.80650000  0.62820000  1.0 0.1287884418
H  H148  1  0.56360000  0.69350000  0.12820000  1.0 0.1287884418
H  H149  1  0.56360000  0.30650000  0.62820000  1.0 0.1287884418
H  H150  1  0.93640000  0.19350000  0.12820000  1.0 0.1287884418
H  H151  1  0.06360000  0.19350000  0.37180000  1.0 0.1287884418
H  H152  1  0.43640000  0.30650000  0.87180000  1.0 0.1287884418
H  H153  1  0.41820000  0.65480000  0.36990000  1.0 0.1200931412
H  H154  1  0.08180000  0.84520000  0.86990000  1.0 0.1200931412
H  H155  1  0.91820000  0.84520000  0.63010000  1.0 0.1200931412
H  H156  1  0.58180000  0.65480000  0.13010000  1.0 0.1200931412
H  H157  1  0.58180000  0.34520000  0.63010000  1.0 0.1200931412
H  H158  1  0.91820000  0.15480000  0.13010000  1.0 0.1200931412
H  H159  1  0.08180000  0.15480000  0.36990000  1.0 0.1200931412
H  H160  1  0.41820000  0.34520000  0.86990000  1.0 0.1200931412
H  H161  1  0.45770000  0.66570000  0.39750000  1.0 0.1381811365
H  H162  1  0.04230000  0.83430000  0.89750000  1.0 0.1381811365
H  H163  1  0.95770000  0.83430000  0.60250000  1.0 0.1381811365
H  H164  1  0.54230000  0.66570000  0.10250000  1.0 0.1381811365
H  H165  1  0.54230000  0.33430000  0.60250000  1.0 0.1381811365
H  H166  1  0.95770000  0.16570000  0.10250000  1.0 0.1381811365
H  H167  1  0.04230000  0.16570000  0.39750000  1.0 0.1381811365
H  H168  1  0.45770000  0.33430000  0.89750000  1.0 0.1381811365
H  H169  1  0.54830000  0.87970000  0.44390000  1.0 0.1287884418
H  H170  1  0.95170000  0.62030000  0.94390000  1.0 0.1287884418
H  H171  1  0.04830000  0.62030000  0.55610000  1.0 0.1287884418
H  H172  1  0.45170000  0.87970000  0.05610000  1.0 0.1287884418
H  H173  1  0.45170000  0.12030000  0.55610000  1.0 0.1287884418
H  H174  1  0.04830000  0.37970000  0.05610000  1.0 0.1287884418
H  H175  1  0.95170000  0.37970000  0.44390000  1.0 0.1287884418
H  H176  1  0.54830000  0.12030000  0.94390000  1.0 0.1287884418
H  H177  1  0.57730000  0.87120000  0.40980000  1.0 0.1381811365
H  H178  1  0.92270000  0.62880000  0.90980000  1.0 0.1381811365
H  H179  1  0.07730000  0.62880000  0.59020000  1.0 0.1381811365
H  H180  1  0.42270000  0.87120000  0.09020000  1.0 0.1381811365
H  H181  1  0.42270000  0.12880000  0.59020000  1.0 0.1381811365
H  H182  1  0.07730000  0.37120000  0.09020000  1.0 0.1381811365
H  H183  1  0.92270000  0.37120000  0.40980000  1.0 0.1381811365
H  H184  1  0.57730000  0.12880000  0.90980000  1.0 0.1381811365
H  H185  1  0.57330000  0.84320000  0.43910000  1.0 0.1110616569
H  H186  1  0.92670000  0.65680000  0.93910000  1.0 0.1110616569
H  H187  1  0.07330000  0.65680000  0.56090000  1.0 0.1110616569
H  H188  1  0.42670000  0.84320000  0.06090000  1.0 0.1110616569
H  H189  1  0.42670000  0.15680000  0.56090000  1.0 0.1110616569
H  H190  1  0.07330000  0.34320000  0.06090000  1.0 0.1110616569
H  H191  1  0.92670000  0.34320000  0.43910000  1.0 0.1110616569
H  H192  1  0.57330000  0.15680000  0.93910000  1.0 0.1110616569
H  H193  1  0.40700000  0.83150000  0.33660000  1.0 0.1200931412
H  H194  1  0.09300000  0.66850000  0.83660000  1.0 0.1200931412
H  H195  1  0.90700000  0.66850000  0.66340000  1.0 0.1200931412
H  H196  1  0.59300000  0.83150000  0.16340000  1.0 0.1200931412
H  H197  1  0.59300000  0.16850000  0.66340000  1.0 0.1200931412
H  H198  1  0.90700000  0.33150000  0.16340000  1.0 0.1200931412
H  H199  1  0.09300000  0.33150000  0.33660000  1.0 0.1200931412
H  H200  1  0.40700000  0.16850000  0.83660000  1.0 0.1200931412
H  H201  1  0.39120000  0.86480000  0.35720000  1.0 0.1200931412
H  H202  1  0.10880000  0.63520000  0.85720000  1.0 0.1200931412
H  H203  1  0.89120000  0.63520000  0.64280000  1.0 0.1200931412
H  H204  1  0.60880000  0.86480000  0.14280000  1.0 0.1200931412
H  H205  1  0.60880000  0.13520000  0.64280000  1.0 0.1200931412
H  H206  1  0.89120000  0.36480000  0.14280000  1.0 0.1200931412
H  H207  1  0.10880000  0.36480000  0.35720000  1.0 0.1200931412
H  H208  1  0.39120000  0.13520000  0.85720000  1.0 0.1200931412
H  H209  1  0.37100000  0.82820000  0.36810000  1.0 0.1287884418
H  H210  1  0.12900000  0.67180000  0.86810000  1.0 0.1287884418
H  H211  1  0.87100000  0.67180000  0.63190000  1.0 0.1287884418
H  H212  1  0.62900000  0.82820000  0.13190000  1.0 0.1287884418
H  H213  1  0.62900000  0.17180000  0.63190000  1.0 0.1287884418
H  H214  1  0.87100000  0.32820000  0.13190000  1.0 0.1287884418
H  H215  1  0.12900000  0.32820000  0.36810000  1.0 0.1287884418
H  H216  1  0.37100000  0.17180000  0.86810000  1.0 0.1287884418
H  H217  1  0.44130000  0.92890000  0.41600000  1.0 0.0899038655
H  H218  1  0.05870000  0.57110000  0.91600000  1.0 0.0899038655
H  H219  1  0.94130000  0.57110000  0.58400000  1.0 0.0899038655
H  H220  1  0.55870000  0.92890000  0.08400000  1.0 0.0899038655
H  H221  1  0.55870000  0.07110000  0.58400000  1.0 0.0899038655
H  H222  1  0.94130000  0.42890000  0.08400000  1.0 0.0899038655
H  H223  1  0.05870000  0.42890000  0.41600000  1.0 0.0899038655
H  H224  1  0.44130000  0.07110000  0.91600000  1.0 0.0899038655
H  H225  1  0.47100000  0.96320000  0.40850000  1.0 0.1381811365
H  H226  1  0.02900000  0.53680000  0.90850000  1.0 0.1381811365
H  H227  1  0.97100000  0.53680000  0.59150000  1.0 0.1381811365
H  H228  1  0.52900000  0.96320000  0.09150000  1.0 0.1381811365
H  H229  1  0.52900000  0.03680000  0.59150000  1.0 0.1381811365
H  H230  1  0.97100000  0.46320000  0.09150000  1.0 0.1381811365
H  H231  1  0.02900000  0.46320000  0.40850000  1.0 0.1381811365
H  H232  1  0.47100000  0.03680000  0.90850000  1.0 0.1381811365
H  H233  1  0.49760000  0.93130000  0.42560000  1.0 0.1287884418
H  H234  1  0.00240000  0.56870000  0.92560000  1.0 0.1287884418
H  H235  1  0.99760000  0.56870000  0.57440000  1.0 0.1287884418
H  H236  1  0.50240000  0.93130000  0.07440000  1.0 0.1287884418
H  H237  1  0.50240000  0.06870000  0.57440000  1.0 0.1287884418
H  H238  1  0.99760000  0.43130000  0.07440000  1.0 0.1287884418
H  H239  1  0.00240000  0.43130000  0.42560000  1.0 0.1287884418
H  H240  1  0.49760000  0.06870000  0.92560000  1.0 0.1287884418
H  H241  1  0.51690000  0.92700000  0.29700000  1.0 0.2433511564
H  H242  1  0.98310000  0.57300000  0.79700000  1.0 0.2433511564
H  H243  1  0.01690000  0.57300000  0.70300000  1.0 0.2433511564
H  H244  1  0.48310000  0.92700000  0.20300000  1.0 0.2433511564
H  H245  1  0.48310000  0.07300000  0.70300000  1.0 0.2433511564
H  H246  1  0.01690000  0.42700000  0.20300000  1.0 0.2433511564
H  H247  1  0.98310000  0.42700000  0.29700000  1.0 0.2433511564
H  H248  1  0.51690000  0.07300000  0.79700000  1.0 0.2433511564
H  H249  1  0.53400000  0.83930000  0.31150000  1.0 0.1381811365
H  H250  1  0.96600000  0.66070000  0.81150000  1.0 0.1381811365
H  H251  1  0.03400000  0.66070000  0.68850000  1.0 0.1381811365
H  H252  1  0.46600000  0.83930000  0.18850000  1.0 0.1381811365
H  H253  1  0.46600000  0.16070000  0.68850000  1.0 0.1381811365
H  H254  1  0.03400000  0.33930000  0.18850000  1.0 0.1381811365
H  H255  1  0.96600000  0.33930000  0.31150000  1.0 0.1381811365
H  H256  1  0.53400000  0.16070000  0.81150000  1.0 0.1381811365
H  H257  1  0.52190000  0.86500000  0.28130000  1.0 0.1110616569
H  H258  1  0.97810000  0.63500000  0.78130000  1.0 0.1110616569
H  H259  1  0.02190000  0.63500000  0.71870000  1.0 0.1110616569
H  H260  1  0.47810000  0.86500000  0.21870000  1.0 0.1110616569
H  H261  1  0.47810000  0.13500000  0.71870000  1.0 0.1110616569
H  H262  1  0.02190000  0.36500000  0.21870000  1.0 0.1110616569
H  H263  1  0.97810000  0.36500000  0.28130000  1.0 0.1110616569
H  H264  1  0.52190000  0.13500000  0.78130000  1.0 0.1110616569
H  H265  1  0.47920000  0.84390000  0.29900000  1.0 0.1200931412
H  H266  1  0.02080000  0.65610000  0.79900000  1.0 0.1200931412
H  H267  1  0.97920000  0.65610000  0.70100000  1.0 0.1200931412
H  H268  1  0.52080000  0.84390000  0.20100000  1.0 0.1200931412
H  H269  1  0.52080000  0.15610000  0.70100000  1.0 0.1200931412
H  H270  1  0.97920000  0.34390000  0.20100000  1.0 0.1200931412
H  H271  1  0.02080000  0.34390000  0.29900000  1.0 0.1200931412
H  H272  1  0.47920000  0.15610000  0.79900000  1.0 0.1200931412
H  H273  1  0.51820000  0.73790000  0.22200000  1.0 0.1287884418
H  H274  1  0.98180000  0.76210000  0.72200000  1.0 0.1287884418
H  H275  1  0.01820000  0.76210000  0.77800000  1.0 0.1287884418
H  H276  1  0.48180000  0.73790000  0.27800000  1.0 0.1287884418
H  H277  1  0.48180000  0.26210000  0.77800000  1.0 0.1287884418
H  H278  1  0.01820000  0.23790000  0.27800000  1.0 0.1287884418
H  H279  1  0.98180000  0.23790000  0.22200000  1.0 0.1287884418
H  H280  1  0.51820000  0.26210000  0.72200000  1.0 0.1287884418
H  H281  1  0.49220000  0.76750000  0.20080000  1.0 0.1287884418
H  H282  1  0.00780000  0.73250000  0.70080000  1.0 0.1287884418
H  H283  1  0.99220000  0.73250000  0.79920000  1.0 0.1287884418
H  H284  1  0.50780000  0.76750000  0.29920000  1.0 0.1287884418
H  H285  1  0.50780000  0.23250000  0.79920000  1.0 0.1287884418
H  H286  1  0.99220000  0.26750000  0.29920000  1.0 0.1287884418
H  H287  1  0.00780000  0.26750000  0.20080000  1.0 0.1287884418
H  H288  1  0.49220000  0.23250000  0.70080000  1.0 0.1287884418
H  H289  1  0.53060000  0.77700000  0.22960000  1.0 0.1200931412
H  H290  1  0.96940000  0.72300000  0.72960000  1.0 0.1200931412
H  H291  1  0.03060000  0.72300000  0.77040000  1.0 0.1200931412
H  H292  1  0.46940000  0.77700000  0.27040000  1.0 0.1200931412
H  H293  1  0.46940000  0.22300000  0.77040000  1.0 0.1200931412
H  H294  1  0.03060000  0.27700000  0.27040000  1.0 0.1200931412
H  H295  1  0.96940000  0.27700000  0.22960000  1.0 0.1200931412
H  H296  1  0.53060000  0.22300000  0.72960000  1.0 0.1200931412
H  H297  1  0.52030000  0.76260000  0.14270000  1.0 0.2517250048
H  H298  1  0.97970000  0.73740000  0.64270000  1.0 0.2517250048
H  H299  1  0.02030000  0.73740000  0.85730000  1.0 0.2517250048
H  H300  1  0.47970000  0.76260000  0.35730000  1.0 0.2517250048
H  H301  1  0.47970000  0.23740000  0.85730000  1.0 0.2517250048
H  H302  1  0.02030000  0.26260000  0.35730000  1.0 0.2517250048
H  H303  1  0.97970000  0.26260000  0.14270000  1.0 0.2517250048
H  H304  1  0.52030000  0.23740000  0.64270000  1.0 0.2517250048
H  H305  1  0.69750000  0.76940000  0.16040000  1.0 0.1200931412
H  H306  1  0.80250000  0.73060000  0.66040000  1.0 0.1200931412
H  H307  1  0.19750000  0.73060000  0.83960000  1.0 0.1200931412
H  H308  1  0.30250000  0.76940000  0.33960000  1.0 0.1200931412
H  H309  1  0.30250000  0.23060000  0.83960000  1.0 0.1200931412
H  H310  1  0.19750000  0.26940000  0.33960000  1.0 0.1200931412
H  H311  1  0.80250000  0.26940000  0.16040000  1.0 0.1200931412
H  H312  1  0.69750000  0.23060000  0.66040000  1.0 0.1200931412
H  H313  1  0.68760000  0.74800000  0.12670000  1.0 0.1287884418
H  H314  1  0.81240000  0.75200000  0.62670000  1.0 0.1287884418
H  H315  1  0.18760000  0.75200000  0.87330000  1.0 0.1287884418
H  H316  1  0.31240000  0.74800000  0.37330000  1.0 0.1287884418
H  H317  1  0.31240000  0.25200000  0.87330000  1.0 0.1287884418
H  H318  1  0.18760000  0.24800000  0.37330000  1.0 0.1287884418
H  H319  1  0.81240000  0.24800000  0.12670000  1.0 0.1287884418
H  H320  1  0.68760000  0.25200000  0.62670000  1.0 0.1287884418
H  H321  1  0.69390000  0.72880000  0.16210000  1.0 0.1200931412
H  H322  1  0.80610000  0.77120000  0.66210000  1.0 0.1200931412
H  H323  1  0.19390000  0.77120000  0.83790000  1.0 0.1200931412
H  H324  1  0.30610000  0.72880000  0.33790000  1.0 0.1200931412
H  H325  1  0.30610000  0.27120000  0.83790000  1.0 0.1200931412
H  H326  1  0.19390000  0.22880000  0.33790000  1.0 0.1200931412
H  H327  1  0.80610000  0.22880000  0.16210000  1.0 0.1200931412
H  H328  1  0.69390000  0.27120000  0.66210000  1.0 0.1200931412
H  H329  1  0.70740000  0.68830000  0.22420000  1.0 0.1287884418
H  H330  1  0.79260000  0.81170000  0.72420000  1.0 0.1287884418
H  H331  1  0.20740000  0.81170000  0.77580000  1.0 0.1287884418
H  H332  1  0.29260000  0.68830000  0.27580000  1.0 0.1287884418
H  H333  1  0.29260000  0.31170000  0.77580000  1.0 0.1287884418
H  H334  1  0.20740000  0.18830000  0.27580000  1.0 0.1287884418
H  H335  1  0.79260000  0.18830000  0.22420000  1.0 0.1287884418
H  H336  1  0.70740000  0.31170000  0.72420000  1.0 0.1287884418
H  H337  1  0.65430000  0.68600000  0.20810000  1.0 0.1287884418
H  H338  1  0.84570000  0.81400000  0.70810000  1.0 0.1287884418
H  H339  1  0.15430000  0.81400000  0.79190000  1.0 0.1287884418
H  H340  1  0.34570000  0.68600000  0.29190000  1.0 0.1287884418
H  H341  1  0.34570000  0.31400000  0.79190000  1.0 0.1287884418
H  H342  1  0.15430000  0.18600000  0.29190000  1.0 0.1287884418
H  H343  1  0.84570000  0.18600000  0.20810000  1.0 0.1287884418
H  H344  1  0.65430000  0.31400000  0.70810000  1.0 0.1287884418
H  H345  1  0.66290000  0.67540000  0.24680000  1.0 0.1606440102
H  H346  1  0.83710000  0.82460000  0.74680000  1.0 0.1606440102
H  H347  1  0.16290000  0.82460000  0.75320000  1.0 0.1606440102
H  H348  1  0.33710000  0.67540000  0.25320000  1.0 0.1606440102
H  H349  1  0.33710000  0.32460000  0.75320000  1.0 0.1606440102
H  H350  1  0.16290000  0.17540000  0.25320000  1.0 0.1606440102
H  H351  1  0.83710000  0.17540000  0.24680000  1.0 0.1606440102
H  H352  1  0.66290000  0.32460000  0.74680000  1.0 0.1606440102
H  H353  1  0.64520000  0.83700000  0.25440000  1.0 0.1287884418
H  H354  1  0.85480000  0.66300000  0.75440000  1.0 0.1287884418
H  H355  1  0.14520000  0.66300000  0.74560000  1.0 0.1287884418
H  H356  1  0.35480000  0.83700000  0.24560000  1.0 0.1287884418
H  H357  1  0.35480000  0.16300000  0.74560000  1.0 0.1287884418
H  H358  1  0.14520000  0.33700000  0.24560000  1.0 0.1287884418
H  H359  1  0.85480000  0.33700000  0.25440000  1.0 0.1287884418
H  H360  1  0.64520000  0.16300000  0.75440000  1.0 0.1287884418
H  H361  1  0.59310000  0.82250000  0.24390000  1.0 0.1200931412
H  H362  1  0.90690000  0.67750000  0.74390000  1.0 0.1200931412
H  H363  1  0.09310000  0.67750000  0.75610000  1.0 0.1200931412
H  H364  1  0.40690000  0.82250000  0.25610000  1.0 0.1200931412
H  H365  1  0.40690000  0.17750000  0.75610000  1.0 0.1200931412
H  H366  1  0.09310000  0.32250000  0.25610000  1.0 0.1200931412
H  H367  1  0.90690000  0.32250000  0.24390000  1.0 0.1200931412
H  H368  1  0.59310000  0.17750000  0.74390000  1.0 0.1200931412
H  H369  1  0.63300000  0.83010000  0.21550000  1.0 0.1200931412
H  H370  1  0.86700000  0.66990000  0.71550000  1.0 0.1200931412
H  H371  1  0.13300000  0.66990000  0.78450000  1.0 0.1200931412
H  H372  1  0.36700000  0.83010000  0.28450000  1.0 0.1200931412
H  H373  1  0.36700000  0.16990000  0.78450000  1.0 0.1200931412
H  H374  1  0.13300000  0.33010000  0.28450000  1.0 0.1200931412
H  H375  1  0.86700000  0.33010000  0.21550000  1.0 0.1200931412
H  H376  1  0.63300000  0.16990000  0.71550000  1.0 0.1200931412
H  H377  1  0.01920000  0.54150000  0.00330000  1.0 0.1287884418
H  H378  1  0.48080000  0.95850000  0.50330000  1.0 0.1287884418
H  H379  1  0.51920000  0.95850000  0.99670000  1.0 0.1287884418
H  H380  1  0.98080000  0.54150000  0.49670000  1.0 0.1287884418
H  H381  1  0.98080000  0.45850000  0.99670000  1.0 0.1287884418
H  H382  1  0.51920000  0.04150000  0.49670000  1.0 0.1287884418
H  H383  1  0.48080000  0.04150000  0.00330000  1.0 0.1287884418
H  H384  1  0.01920000  0.45850000  0.50330000  1.0 0.1287884418
H  H385  1  0.01430000  0.56400000  0.03690000  1.0 0.1287884418
H  H386  1  0.48570000  0.93600000  0.53690000  1.0 0.1287884418
H  H387  1  0.51430000  0.93600000  0.96310000  1.0 0.1287884418
H  H388  1  0.98570000  0.56400000  0.46310000  1.0 0.1287884418
H  H389  1  0.98570000  0.43600000  0.96310000  1.0 0.1287884418
H  H390  1  0.51430000  0.06400000  0.46310000  1.0 0.1287884418
H  H391  1  0.48570000  0.06400000  0.03690000  1.0 0.1287884418
H  H392  1  0.01430000  0.43600000  0.53690000  1.0 0.1287884418
H  H393  1  0.03130000  0.58140000  0.00230000  1.0 0.1110616569
H  H394  1  0.46870000  0.91860000  0.50230000  1.0 0.1110616569
H  H395  1  0.53130000  0.91860000  0.99770000  1.0 0.1110616569
H  H396  1  0.96870000  0.58140000  0.49770000  1.0 0.1110616569
H  H397  1  0.96870000  0.41860000  0.99770000  1.0 0.1110616569
H  H398  1  0.53130000  0.08140000  0.49770000  1.0 0.1110616569
H  H399  1  0.46870000  0.08140000  0.00230000  1.0 0.1110616569
H  H400  1  0.03130000  0.41860000  0.50230000  1.0 0.1110616569
H  H401  1  0.84320000  0.64030000  0.98430000  1.0 0.1200931412
H  H402  1  0.65680000  0.85970000  0.48430000  1.0 0.1200931412
H  H403  1  0.34320000  0.85970000  0.01570000  1.0 0.1200931412
H  H404  1  0.15680000  0.64030000  0.51570000  1.0 0.1200931412
H  H405  1  0.15680000  0.35970000  0.01570000  1.0 0.1200931412
H  H406  1  0.34320000  0.14030000  0.51570000  1.0 0.1200931412
H  H407  1  0.65680000  0.14030000  0.98430000  1.0 0.1200931412
H  H408  1  0.84320000  0.35970000  0.48430000  1.0 0.1200931412
H  H409  1  0.82890000  0.62170000  0.01890000  1.0 0.1287884418
H  H410  1  0.67110000  0.87830000  0.51890000  1.0 0.1287884418
H  H411  1  0.32890000  0.87830000  0.98110000  1.0 0.1287884418
H  H412  1  0.17110000  0.62170000  0.48110000  1.0 0.1287884418
H  H413  1  0.17110000  0.37830000  0.98110000  1.0 0.1287884418
H  H414  1  0.32890000  0.12170000  0.48110000  1.0 0.1287884418
H  H415  1  0.67110000  0.12170000  0.01890000  1.0 0.1287884418
H  H416  1  0.82890000  0.37830000  0.51890000  1.0 0.1287884418
H  H417  1  0.81160000  0.60610000  0.98350000  1.0 0.1200931412
H  H418  1  0.68840000  0.89390000  0.48350000  1.0 0.1200931412
H  H419  1  0.31160000  0.89390000  0.01650000  1.0 0.1200931412
H  H420  1  0.18840000  0.60610000  0.51650000  1.0 0.1200931412
H  H421  1  0.18840000  0.39390000  0.01650000  1.0 0.1200931412
H  H422  1  0.31160000  0.10610000  0.51650000  1.0 0.1200931412
H  H423  1  0.68840000  0.10610000  0.98350000  1.0 0.1200931412
H  H424  1  0.81160000  0.39390000  0.48350000  1.0 0.1200931412
H  H425  1  0.88610000  0.59420000  0.11120000  1.0 0.1381811365
H  H426  1  0.61390000  0.90580000  0.61120000  1.0 0.1381811365
H  H427  1  0.38610000  0.90580000  0.88880000  1.0 0.1381811365
H  H428  1  0.11390000  0.59420000  0.38880000  1.0 0.1381811365
H  H429  1  0.11390000  0.40580000  0.88880000  1.0 0.1381811365
H  H430  1  0.38610000  0.09420000  0.38880000  1.0 0.1381811365
H  H431  1  0.61390000  0.09420000  0.11120000  1.0 0.1381811365
H  H432  1  0.88610000  0.40580000  0.61120000  1.0 0.1381811365
H  H433  1  0.86550000  0.58770000  0.07400000  1.0 0.1287884418
H  H434  1  0.63450000  0.91230000  0.57400000  1.0 0.1287884418
H  H435  1  0.36550000  0.91230000  0.92600000  1.0 0.1287884418
H  H436  1  0.13450000  0.58770000  0.42600000  1.0 0.1287884418
H  H437  1  0.13450000  0.41230000  0.92600000  1.0 0.1287884418
H  H438  1  0.36550000  0.08770000  0.42600000  1.0 0.1287884418
H  H439  1  0.63450000  0.08770000  0.07400000  1.0 0.1287884418
H  H440  1  0.86550000  0.41230000  0.57400000  1.0 0.1287884418
H  H441  1  0.84950000  0.62100000  0.09450000  1.0 0.1110616569
H  H442  1  0.65050000  0.87900000  0.59450000  1.0 0.1110616569
H  H443  1  0.34950000  0.87900000  0.90550000  1.0 0.1110616569
H  H444  1  0.15050000  0.62100000  0.40550000  1.0 0.1110616569
H  H445  1  0.15050000  0.37900000  0.90550000  1.0 0.1110616569
H  H446  1  0.34950000  0.12100000  0.40550000  1.0 0.1110616569
H  H447  1  0.65050000  0.12100000  0.09450000  1.0 0.1110616569
H  H448  1  0.84950000  0.37900000  0.59450000  1.0 0.1110616569
H  H449  1  0.02140000  0.68300000  0.01990000  1.0 0.1287884418
H  H450  1  0.47860000  0.81700000  0.51990000  1.0 0.1287884418
H  H451  1  0.52140000  0.81700000  0.98010000  1.0 0.1287884418
H  H452  1  0.97860000  0.68300000  0.48010000  1.0 0.1287884418
H  H453  1  0.97860000  0.31700000  0.98010000  1.0 0.1287884418
H  H454  1  0.52140000  0.18300000  0.48010000  1.0 0.1287884418
H  H455  1  0.47860000  0.18300000  0.01990000  1.0 0.1287884418
H  H456  1  0.02140000  0.31700000  0.51990000  1.0 0.1287884418
H  H457  1  0.98760000  0.66220000  0.99420000  1.0 0.1287884418
H  H458  1  0.51240000  0.83780000  0.49420000  1.0 0.1287884418
H  H459  1  0.48760000  0.83780000  0.00580000  1.0 0.1287884418
H  H460  1  0.01240000  0.66220000  0.50580000  1.0 0.1287884418
H  H461  1  0.01240000  0.33780000  0.00580000  1.0 0.1287884418
H  H462  1  0.48760000  0.16220000  0.50580000  1.0 0.1287884418
H  H463  1  0.51240000  0.16220000  0.99420000  1.0 0.1287884418
H  H464  1  0.98760000  0.33780000  0.49420000  1.0 0.1287884418
H  H465  1  0.03350000  0.64410000  0.01110000  1.0 0.1200931412
H  H466  1  0.46650000  0.85590000  0.51110000  1.0 0.1200931412
H  H467  1  0.53350000  0.85590000  0.98890000  1.0 0.1200931412
H  H468  1  0.96650000  0.64410000  0.48890000  1.0 0.1200931412
H  H469  1  0.96650000  0.35590000  0.98890000  1.0 0.1200931412
H  H470  1  0.53350000  0.14410000  0.48890000  1.0 0.1200931412
H  H471  1  0.46650000  0.14410000  0.01110000  1.0 0.1200931412
H  H472  1  0.03350000  0.35590000  0.51110000  1.0 0.1200931412
H  H473  1  0.81550000  0.68260000  0.18500000  1.0 0.1200931412
H  H474  1  0.68450000  0.81740000  0.68500000  1.0 0.1200931412
H  H475  1  0.31550000  0.81740000  0.81500000  1.0 0.1200931412
H  H476  1  0.18450000  0.68260000  0.31500000  1.0 0.1200931412
H  H477  1  0.18450000  0.31740000  0.81500000  1.0 0.1200931412
H  H478  1  0.31550000  0.18260000  0.31500000  1.0 0.1200931412
H  H479  1  0.68450000  0.18260000  0.18500000  1.0 0.1200931412
H  H480  1  0.81550000  0.31740000  0.68500000  1.0 0.1200931412
H  H481  1  0.79900000  0.70110000  0.21920000  1.0 0.1110616569
H  H482  1  0.70100000  0.79890000  0.71920000  1.0 0.1110616569
H  H483  1  0.29900000  0.79890000  0.78080000  1.0 0.1110616569
H  H484  1  0.20100000  0.70110000  0.28080000  1.0 0.1110616569
H  H485  1  0.20100000  0.29890000  0.78080000  1.0 0.1110616569
H  H486  1  0.29900000  0.20110000  0.28080000  1.0 0.1110616569
H  H487  1  0.70100000  0.20110000  0.21920000  1.0 0.1110616569
H  H488  1  0.79900000  0.29890000  0.71920000  1.0 0.1110616569
H  H489  1  0.83120000  0.66730000  0.22090000  1.0 0.1287884418
H  H490  1  0.66880000  0.83270000  0.72090000  1.0 0.1287884418
H  H491  1  0.33120000  0.83270000  0.77910000  1.0 0.1287884418
H  H492  1  0.16880000  0.66730000  0.27910000  1.0 0.1287884418
H  H493  1  0.16880000  0.33270000  0.77910000  1.0 0.1287884418
H  H494  1  0.33120000  0.16730000  0.27910000  1.0 0.1287884418
H  H495  1  0.66880000  0.16730000  0.22090000  1.0 0.1287884418
H  H496  1  0.83120000  0.33270000  0.72090000  1.0 0.1287884418
H  H497  1  0.97010000  0.78630000  0.23630000  1.0 0.1008363036
H  H498  1  0.52990000  0.71370000  0.73630000  1.0 0.1008363036
H  H499  1  0.47010000  0.71370000  0.76370000  1.0 0.1008363036
H  H500  1  0.02990000  0.78630000  0.26370000  1.0 0.1008363036
H  H501  1  0.02990000  0.21370000  0.76370000  1.0 0.1008363036
H  H502  1  0.47010000  0.28630000  0.26370000  1.0 0.1008363036
H  H503  1  0.52990000  0.28630000  0.23630000  1.0 0.1008363036
H  H504  1  0.97010000  0.21370000  0.73630000  1.0 0.1008363036
H  H505  1  0.91860000  0.80450000  0.24080000  1.0 0.1287884418
H  H506  1  0.58140000  0.69550000  0.74080000  1.0 0.1287884418
H  H507  1  0.41860000  0.69550000  0.75920000  1.0 0.1287884418
H  H508  1  0.08140000  0.80450000  0.25920000  1.0 0.1287884418
H  H509  1  0.08140000  0.19550000  0.75920000  1.0 0.1287884418
H  H510  1  0.41860000  0.30450000  0.25920000  1.0 0.1287884418
H  H511  1  0.58140000  0.30450000  0.24080000  1.0 0.1287884418
H  H512  1  0.91860000  0.19550000  0.74080000  1.0 0.1287884418
H  H513  1  0.94580000  0.80590000  0.20510000  1.0 0.1287884418
H  H514  1  0.55420000  0.69410000  0.70510000  1.0 0.1287884418
H  H515  1  0.44580000  0.69410000  0.79490000  1.0 0.1287884418
H  H516  1  0.05420000  0.80590000  0.29490000  1.0 0.1287884418
H  H517  1  0.05420000  0.19410000  0.79490000  1.0 0.1287884418
H  H518  1  0.44580000  0.30590000  0.29490000  1.0 0.1287884418
H  H519  1  0.55420000  0.30590000  0.20510000  1.0 0.1287884418
H  H520  1  0.94580000  0.19410000  0.70510000  1.0 0.1287884418
H  H521  1  0.74750000  0.80040000  0.23000000  1.0 0.1200931412
H  H522  1  0.75250000  0.69960000  0.73000000  1.0 0.1200931412
H  H523  1  0.24750000  0.69960000  0.77000000  1.0 0.1200931412
H  H524  1  0.25250000  0.80040000  0.27000000  1.0 0.1200931412
H  H525  1  0.25250000  0.19960000  0.77000000  1.0 0.1200931412
H  H526  1  0.24750000  0.30040000  0.27000000  1.0 0.1200931412
H  H527  1  0.75250000  0.30040000  0.23000000  1.0 0.1200931412
H  H528  1  0.74750000  0.19960000  0.73000000  1.0 0.1200931412
H  H529  1  0.77800000  0.77640000  0.20510000  1.0 0.1200931412
H  H530  1  0.72200000  0.72360000  0.70510000  1.0 0.1200931412
H  H531  1  0.27800000  0.72360000  0.79490000  1.0 0.1200931412
H  H532  1  0.22200000  0.77640000  0.29490000  1.0 0.1200931412
H  H533  1  0.22200000  0.22360000  0.79490000  1.0 0.1200931412
H  H534  1  0.27800000  0.27640000  0.29490000  1.0 0.1200931412
H  H535  1  0.72200000  0.27640000  0.20510000  1.0 0.1200931412
H  H536  1  0.77800000  0.22360000  0.70510000  1.0 0.1200931412
H  H537  1  0.80060000  0.81160000  0.21790000  1.0 0.1474534825
H  H538  1  0.69940000  0.68840000  0.71790000  1.0 0.1474534825
H  H539  1  0.30060000  0.68840000  0.78210000  1.0 0.1474534825
H  H540  1  0.19940000  0.81160000  0.28210000  1.0 0.1474534825
H  H541  1  0.19940000  0.18840000  0.78210000  1.0 0.1474534825
H  H542  1  0.30060000  0.31160000  0.28210000  1.0 0.1474534825
H  H543  1  0.69940000  0.31160000  0.21790000  1.0 0.1474534825
H  H544  1  0.80060000  0.18840000  0.71790000  1.0 0.1474534825
H  H545  1  0.90910000  0.71710000  0.29480000  1.0 0.1287884418
H  H546  1  0.59090000  0.78290000  0.79480000  1.0 0.1287884418
H  H547  1  0.40910000  0.78290000  0.70520000  1.0 0.1287884418
H  H548  1  0.09090000  0.71710000  0.20520000  1.0 0.1287884418
H  H549  1  0.09090000  0.28290000  0.70520000  1.0 0.1287884418
H  H550  1  0.40910000  0.21710000  0.20520000  1.0 0.1287884418
H  H551  1  0.59090000  0.21710000  0.29480000  1.0 0.1287884418
H  H552  1  0.90910000  0.28290000  0.79480000  1.0 0.1287884418
H  H553  1  0.86290000  0.69320000  0.30100000  1.0 0.1200931412
H  H554  1  0.63710000  0.80680000  0.80100000  1.0 0.1200931412
H  H555  1  0.36290000  0.80680000  0.69900000  1.0 0.1200931412
H  H556  1  0.13710000  0.69320000  0.19900000  1.0 0.1200931412
H  H557  1  0.13710000  0.30680000  0.69900000  1.0 0.1200931412
H  H558  1  0.36290000  0.19320000  0.19900000  1.0 0.1200931412
H  H559  1  0.63710000  0.19320000  0.30100000  1.0 0.1200931412
H  H560  1  0.86290000  0.30680000  0.80100000  1.0 0.1200931412
H  H561  1  0.87830000  0.72070000  0.32900000  1.0 0.1287884418
H  H562  1  0.62170000  0.77930000  0.82900000  1.0 0.1287884418
H  H563  1  0.37830000  0.77930000  0.67100000  1.0 0.1287884418
H  H564  1  0.12170000  0.72070000  0.17100000  1.0 0.1287884418
H  H565  1  0.12170000  0.27930000  0.67100000  1.0 0.1287884418
H  H566  1  0.37830000  0.22070000  0.17100000  1.0 0.1287884418
H  H567  1  0.62170000  0.22070000  0.32900000  1.0 0.1287884418
H  H568  1  0.87830000  0.27930000  0.82900000  1.0 0.1287884418
H  H569  1  0.87040000  0.82350000  0.32290000  1.0 0.1110616569
H  H570  1  0.62960000  0.67650000  0.82290000  1.0 0.1110616569
H  H571  1  0.37040000  0.67650000  0.67710000  1.0 0.1110616569
H  H572  1  0.12960000  0.82350000  0.17710000  1.0 0.1110616569
H  H573  1  0.12960000  0.17650000  0.67710000  1.0 0.1110616569
H  H574  1  0.37040000  0.32350000  0.17710000  1.0 0.1110616569
H  H575  1  0.62960000  0.32350000  0.32290000  1.0 0.1110616569
H  H576  1  0.87040000  0.17650000  0.82290000  1.0 0.1110616569
H  H577  1  0.86340000  0.86400000  0.32270000  1.0 0.1200931412
H  H578  1  0.63660000  0.63600000  0.82270000  1.0 0.1200931412
H  H579  1  0.36340000  0.63600000  0.67730000  1.0 0.1200931412
H  H580  1  0.13660000  0.86400000  0.17730000  1.0 0.1200931412
H  H581  1  0.13660000  0.13600000  0.67730000  1.0 0.1200931412
H  H582  1  0.36340000  0.36400000  0.17730000  1.0 0.1200931412
H  H583  1  0.63660000  0.36400000  0.32270000  1.0 0.1200931412
H  H584  1  0.86340000  0.13600000  0.82270000  1.0 0.1200931412
H  H585  1  0.82720000  0.84020000  0.30160000  1.0 0.1110616569
H  H586  1  0.67280000  0.65980000  0.80160000  1.0 0.1110616569
H  H587  1  0.32720000  0.65980000  0.69840000  1.0 0.1110616569
H  H588  1  0.17280000  0.84020000  0.19840000  1.0 0.1110616569
H  H589  1  0.17280000  0.15980000  0.69840000  1.0 0.1110616569
H  H590  1  0.32720000  0.34020000  0.19840000  1.0 0.1110616569
H  H591  1  0.67280000  0.34020000  0.30160000  1.0 0.1110616569
H  H592  1  0.82720000  0.15980000  0.80160000  1.0 0.1110616569
H  H593  1  0.73570000  0.84980000  0.44640000  1.0 0.1110616569
H  H594  1  0.76430000  0.65020000  0.94640000  1.0 0.1110616569
H  H595  1  0.23570000  0.65020000  0.55360000  1.0 0.1110616569
H  H596  1  0.26430000  0.84980000  0.05360000  1.0 0.1110616569
H  H597  1  0.26430000  0.15020000  0.55360000  1.0 0.1110616569
H  H598  1  0.23570000  0.34980000  0.05360000  1.0 0.1110616569
H  H599  1  0.76430000  0.34980000  0.44640000  1.0 0.1110616569
H  H600  1  0.73570000  0.15020000  0.94640000  1.0 0.1110616569
H  H601  1  0.79170000  0.85770000  0.45360000  1.0 0.1200931412
H  H602  1  0.70830000  0.64230000  0.95360000  1.0 0.1200931412
H  H603  1  0.29170000  0.64230000  0.54640000  1.0 0.1200931412
H  H604  1  0.20830000  0.85770000  0.04640000  1.0 0.1200931412
H  H605  1  0.20830000  0.14230000  0.54640000  1.0 0.1200931412
H  H606  1  0.29170000  0.35770000  0.04640000  1.0 0.1200931412
H  H607  1  0.70830000  0.35770000  0.45360000  1.0 0.1200931412
H  H608  1  0.79170000  0.14230000  0.95360000  1.0 0.1200931412
H  H609  1  0.77210000  0.81930000  0.45540000  1.0 0.0899038655
H  H610  1  0.72790000  0.68070000  0.95540000  1.0 0.0899038655
H  H611  1  0.27210000  0.68070000  0.54460000  1.0 0.0899038655
H  H612  1  0.22790000  0.81930000  0.04460000  1.0 0.0899038655
H  H613  1  0.22790000  0.18070000  0.54460000  1.0 0.0899038655
H  H614  1  0.27210000  0.31930000  0.04460000  1.0 0.0899038655
H  H615  1  0.72790000  0.31930000  0.45540000  1.0 0.0899038655
H  H616  1  0.77210000  0.18070000  0.95540000  1.0 0.0899038655
H  H617  1  0.91820000  0.80010000  0.43230000  1.0 0.1287884418
H  H618  1  0.58180000  0.69990000  0.93230000  1.0 0.1287884418
H  H619  1  0.41820000  0.69990000  0.56770000  1.0 0.1287884418
H  H620  1  0.08180000  0.80010000  0.06770000  1.0 0.1287884418
H  H621  1  0.08180000  0.19990000  0.56770000  1.0 0.1287884418
H  H622  1  0.41820000  0.30010000  0.06770000  1.0 0.1287884418
H  H623  1  0.58180000  0.30010000  0.43230000  1.0 0.1287884418
H  H624  1  0.91820000  0.19990000  0.93230000  1.0 0.1287884418
H  H625  1  0.86880000  0.80730000  0.45230000  1.0 0.1200931412
H  H626  1  0.63120000  0.69270000  0.95230000  1.0 0.1200931412
H  H627  1  0.36880000  0.69270000  0.54770000  1.0 0.1200931412
H  H628  1  0.13120000  0.80730000  0.04770000  1.0 0.1200931412
H  H629  1  0.13120000  0.19270000  0.54770000  1.0 0.1200931412
H  H630  1  0.36880000  0.30730000  0.04770000  1.0 0.1200931412
H  H631  1  0.63120000  0.30730000  0.45230000  1.0 0.1200931412
H  H632  1  0.86880000  0.19270000  0.95230000  1.0 0.1200931412
H  H633  1  0.91950000  0.81970000  0.46770000  1.0 0.1200931412
H  H634  1  0.58050000  0.68030000  0.96770000  1.0 0.1200931412
H  H635  1  0.41950000  0.68030000  0.53230000  1.0 0.1200931412
H  H636  1  0.08050000  0.81970000  0.03230000  1.0 0.1200931412
H  H637  1  0.08050000  0.18030000  0.53230000  1.0 0.1200931412
H  H638  1  0.41950000  0.31970000  0.03230000  1.0 0.1200931412
H  H639  1  0.58050000  0.31970000  0.46770000  1.0 0.1200931412
H  H640  1  0.91950000  0.18030000  0.96770000  1.0 0.1200931412
H  H641  1  0.95000000  0.87840000  0.45310000  1.0 0.2227200544
H  H642  1  0.55000000  0.62160000  0.95310000  1.0 0.2227200544
H  H643  1  0.45000000  0.62160000  0.54690000  1.0 0.2227200544
H  H644  1  0.05000000  0.87840000  0.04690000  1.0 0.2227200544
H  H645  1  0.05000000  0.12160000  0.54690000  1.0 0.2227200544
H  H646  1  0.45000000  0.37840000  0.04690000  1.0 0.2227200544
H  H647  1  0.55000000  0.37840000  0.45310000  1.0 0.2227200544
H  H648  1  0.95000000  0.12160000  0.95310000  1.0 0.2227200544
H  H649  1  0.85480000  0.94770000  0.38250000  1.0 0.1200931412
H  H650  1  0.64520000  0.55230000  0.88250000  1.0 0.1200931412
H  H651  1  0.35480000  0.55230000  0.61750000  1.0 0.1200931412
H  H652  1  0.14520000  0.94770000  0.11750000  1.0 0.1200931412
H  H653  1  0.14520000  0.05230000  0.61750000  1.0 0.1200931412
H  H654  1  0.35480000  0.44770000  0.11750000  1.0 0.1200931412
H  H655  1  0.64520000  0.44770000  0.38250000  1.0 0.1200931412
H  H656  1  0.85480000  0.05230000  0.88250000  1.0 0.1200931412
H  H657  1  0.81900000  0.91910000  0.36800000  1.0 0.1110616569
H  H658  1  0.68100000  0.58090000  0.86800000  1.0 0.1110616569
H  H659  1  0.31900000  0.58090000  0.63200000  1.0 0.1110616569
H  H660  1  0.18100000  0.91910000  0.13200000  1.0 0.1110616569
H  H661  1  0.18100000  0.08090000  0.63200000  1.0 0.1110616569
H  H662  1  0.31900000  0.41910000  0.13200000  1.0 0.1110616569
H  H663  1  0.68100000  0.41910000  0.36800000  1.0 0.1110616569
H  H664  1  0.81900000  0.08090000  0.86800000  1.0 0.1110616569
H  H665  1  0.87100000  0.92490000  0.35090000  1.0 0.1287884418
H  H666  1  0.62900000  0.57510000  0.85090000  1.0 0.1287884418
H  H667  1  0.37100000  0.57510000  0.64910000  1.0 0.1287884418
H  H668  1  0.12900000  0.92490000  0.14910000  1.0 0.1287884418
H  H669  1  0.12900000  0.07510000  0.64910000  1.0 0.1287884418
H  H670  1  0.37100000  0.42490000  0.14910000  1.0 0.1287884418
H  H671  1  0.62900000  0.42490000  0.35090000  1.0 0.1287884418
H  H672  1  0.87100000  0.07510000  0.85090000  1.0 0.1287884418
W  W1  1  0.82488000  0.56810000  0.35524000  1.0 2.5032618431
W  W2  1  0.67512000  0.93190000  0.85524000  1.0 2.5032618431
W  W3  1  0.32488000  0.93190000  0.64476000  1.0 2.5032618431
W  W4  1  0.17512000  0.56810000  0.14476000  1.0 2.5032618431
W  W5  1  0.17512000  0.43190000  0.64476000  1.0 2.5032618431
W  W6  1  0.32488000  0.06810000  0.14476000  1.0 2.5032618431
W  W7  1  0.67512000  0.06810000  0.35524000  1.0 2.5032618431
W  W8  1  0.82488000  0.43190000  0.85524000  1.0 2.5032618431
W  W9  1  0.72723000  0.51528000  0.35717000  1.0 2.4763486055
W  W10  1  0.77277000  0.98472000  0.85717000  1.0 2.4763486055
W  W11  1  0.22723000  0.98472000  0.64283000  1.0 2.4763486055
W  W12  1  0.27277000  0.51528000  0.14283000  1.0 2.4763486055
W  W13  1  0.27277000  0.48472000  0.64283000  1.0 2.4763486055
W  W14  1  0.22723000  0.01528000  0.14283000  1.0 2.4763486055
W  W15  1  0.77277000  0.01528000  0.35717000  1.0 2.4763486055
W  W16  1  0.72723000  0.48472000  0.85717000  1.0 2.4763486055
W  W17  1  0.65749000  0.59545000  0.32578000  1.0 2.5032618431
W  W18  1  0.84251000  0.90455000  0.82578000  1.0 2.5032618431
W  W19  1  0.15749000  0.90455000  0.67422000  1.0 2.5032618431
W  W20  1  0.34251000  0.59545000  0.17422000  1.0 2.5032618431
W  W21  1  0.34251000  0.40455000  0.67422000  1.0 2.5032618431
W  W22  1  0.15749000  0.09545000  0.17422000  1.0 2.505155888
W  W23  1  0.84251000  0.09545000  0.32578000  1.0 2.5032618431
W  W24  1  0.65749000  0.40455000  0.82578000  1.0 2.5032618431
W  W25  1  0.75496000  0.64861000  0.32468000  1.0 2.3055802253
W  W26  1  0.74504000  0.85139000  0.82468000  1.0 2.3055802253
W  W27  1  0.25496000  0.85139000  0.67532000  1.0 2.3001577524
W  W28  1  0.24504000  0.64861000  0.17532000  1.0 2.3001577524
W  W29  1  0.24504000  0.35139000  0.67532000  1.0 2.3001577524
W  W30  1  0.25496000  0.14861000  0.17532000  1.0 2.3001577524
W  W31  1  0.74504000  0.14861000  0.32468000  1.0 2.3055802253
W  W32  1  0.75496000  0.35139000  0.82468000  1.0 2.3055802253
W  W33  1  0.68785000  0.72590000  0.36110000  1.0 2.4120268044
W  W34  1  0.81215000  0.77410000  0.86110000  1.0 2.4120268044
W  W35  1  0.18785000  0.77410000  0.63890000  1.0 2.4120268044
W  W36  1  0.31215000  0.72590000  0.13890000  1.0 2.4120268044
W  W37  1  0.31215000  0.27410000  0.63890000  1.0 2.4120268044
W  W38  1  0.18785000  0.22590000  0.13890000  1.0 2.4120268044
W  W39  1  0.81215000  0.22590000  0.36110000  1.0 2.4120268044
W  W40  1  0.68785000  0.27410000  0.86110000  1.0 2.4120268044
W  W41  1  0.58793000  0.67689000  0.35011000  1.0 2.396995726
W  W42  1  0.91207000  0.82311000  0.85011000  1.0 2.396995726
W  W43  1  0.08793000  0.82311000  0.64989000  1.0 2.396995726
W  W44  1  0.41207000  0.67689000  0.14989000  1.0 2.396995726
W  W45  1  0.41207000  0.32311000  0.64989000  1.0 2.396995726
W  W46  1  0.08793000  0.17689000  0.14989000  1.0 2.396995726
W  W47  1  0.91207000  0.17689000  0.35011000  1.0 2.396995726
W  W48  1  0.58793000  0.32311000  0.85011000  1.0 2.396995726
W  W49  1  0.57684000  0.59941000  0.40347000  1.0 2.4120268044
W  W50  1  0.92316000  0.90059000  0.90347000  1.0 2.4120268044
W  W51  1  0.07684000  0.90059000  0.59653000  1.0 2.4120268044
W  W52  1  0.42316000  0.59941000  0.09653000  1.0 2.4120268044
W  W53  1  0.42316000  0.40059000  0.59653000  1.0 2.4120268044
W  W54  1  0.07684000  0.09941000  0.09653000  1.0 2.4120268044
W  W55  1  0.92316000  0.09941000  0.40347000  1.0 2.4120268044
W  W56  1  0.57684000  0.40059000  0.90347000  1.0 2.4120268044
W  W57  1  0.79523000  0.68733000  0.40600000  1.0 2.3916523679
W  W58  1  0.70477000  0.81267000  0.90600000  1.0 2.3916523679
W  W59  1  0.29523000  0.81267000  0.59400000  1.0 2.3916523679
W  W60  1  0.20477000  0.68733000  0.09400000  1.0 2.3916523679
W  W61  1  0.20477000  0.31267000  0.59400000  1.0 2.3916523679
W  W62  1  0.29523000  0.18733000  0.09400000  1.0 2.3916523679
W  W63  1  0.70477000  0.18733000  0.40600000  1.0 2.3916523679
W  W64  1  0.79523000  0.31267000  0.90600000  1.0 2.3916523679
W  W65  1  0.86219000  0.60894000  0.43827000  1.0 2.3916523679
W  W66  1  0.63781000  0.89106000  0.93827000  1.0 2.3916523679
W  W67  1  0.36219000  0.89106000  0.56173000  1.0 2.3916523679
W  W68  1  0.13781000  0.60894000  0.06173000  1.0 2.3916523679
W  W69  1  0.13781000  0.39106000  0.56173000  1.0 2.3916523679
W  W70  1  0.36219000  0.10894000  0.06173000  1.0 2.3916523679
W  W71  1  0.63781000  0.10894000  0.43827000  1.0 2.3916523679
W  W72  1  0.86219000  0.39106000  0.93827000  1.0 2.3916523679
W  W73  1  0.64578000  0.51982000  0.43208000  1.0 2.4441882936
W  W74  1  0.85422000  0.98018000  0.93208000  1.0 2.4441882936
W  W75  1  0.14578000  0.98018000  0.56792000  1.0 2.4441882936
W  W76  1  0.35422000  0.51982000  0.06792000  1.0 2.4441882936
W  W77  1  0.35422000  0.48018000  0.56792000  1.0 2.4441882936
W  W78  1  0.14578000  0.01982000  0.06792000  1.0 2.4441882936
W  W79  1  0.85422000  0.01982000  0.43208000  1.0 2.4441882936
W  W80  1  0.64578000  0.48018000  0.93208000  1.0 2.4441882936
W  W81  1  0.76216000  0.46883000  0.43916000  1.0 2.3463690042
W  W82  1  0.73784000  0.03117000  0.93916000  1.0 2.3463690042
W  W83  1  0.26216000  0.03117000  0.56084000  1.0 2.3463690042
W  W84  1  0.23784000  0.46883000  0.06084000  1.0 2.3463690042
W  W85  1  0.23784000  0.53117000  0.56084000  1.0 2.3449090389
W  W86  1  0.26216000  0.96883000  0.06084000  1.0 2.3449090389
W  W87  1  0.73784000  0.96883000  0.43916000  1.0 2.3449090389
W  W88  1  0.76216000  0.53117000  0.93916000  1.0 2.3463690042
W  W89  1  0.86711000  0.51487000  0.43160000  1.0 2.396995726
W  W90  1  0.63289000  0.98513000  0.93160000  1.0 2.396995726
W  W91  1  0.36711000  0.98513000  0.56840000  1.0 2.3916523679
W  W92  1  0.13289000  0.51487000  0.06840000  1.0 2.396995726
W  W93  1  0.13289000  0.48513000  0.56840000  1.0 2.396995726
W  W94  1  0.36711000  0.01487000  0.06840000  1.0 2.396995726
W  W95  1  0.63289000  0.01487000  0.43160000  1.0 2.396995726
W  W96  1  0.86711000  0.48513000  0.93160000  1.0 2.396995726
W  W97  1  0.86678000  0.51374000  0.52991000  1.0 2.3001577524
W  W98  1  0.63322000  0.98626000  0.02991000  1.0 2.2940185932
W  W99  1  0.36678000  0.98626000  0.47009000  1.0 2.2940185932
W  W100  1  0.13322000  0.51374000  0.97009000  1.0 2.2940185932
W  W101  1  0.13322000  0.48626000  0.47009000  1.0 2.2940185932
W  W102  1  0.36678000  0.01374000  0.97009000  1.0 2.3001577524
W  W103  1  0.63322000  0.01374000  0.52991000  1.0 2.3001577524
W  W104  1  0.86678000  0.48626000  0.02991000  1.0 2.3001577524
W  W105  1  0.76210000  0.46907000  0.53726000  1.0 2.261663078
W  W106  1  0.73790000  0.03093000  0.03726000  1.0 2.2658730415
W  W107  1  0.26210000  0.03093000  0.46274000  1.0 2.261663078
W  W108  1  0.23790000  0.46907000  0.96274000  1.0 2.261663078
W  W109  1  0.23790000  0.53093000  0.46274000  1.0 2.261663078
W  W110  1  0.26210000  0.96907000  0.96274000  1.0 2.261663078
W  W111  1  0.73790000  0.96907000  0.53726000  1.0 2.261663078
W  W112  1  0.76210000  0.53093000  0.03726000  1.0 2.261663078
W  W113  1  0.64611000  0.51680000  0.52878000  1.0 2.3916523679
W  W114  1  0.85389000  0.98320000  0.02878000  1.0 2.3916523679
W  W115  1  0.14611000  0.98320000  0.47122000  1.0 2.3916523679
W  W116  1  0.35389000  0.51680000  0.97122000  1.0 2.3916523679
W  W117  1  0.35389000  0.48320000  0.47122000  1.0 2.3916523679
W  W118  1  0.14611000  0.01680000  0.97122000  1.0 2.3916523679
W  W119  1  0.85389000  0.01680000  0.52878000  1.0 2.3916523679
W  W120  1  0.64611000  0.48320000  0.02878000  1.0 2.3916523679
W  W121  1  0.85988000  0.61010000  0.53499000  1.0 2.261663078
W  W122  1  0.64012000  0.88990000  0.03499000  1.0 2.261663078
W  W123  1  0.35988000  0.88990000  0.46501000  1.0 2.261663078
W  W124  1  0.14012000  0.61010000  0.96501000  1.0 2.261663078
W  W125  1  0.14012000  0.38990000  0.46501000  1.0 2.261663078
W  W126  1  0.35988000  0.11010000  0.96501000  1.0 2.261663078
W  W127  1  0.64012000  0.11010000  0.53499000  1.0 2.261663078
W  W128  1  0.85988000  0.38990000  0.03499000  1.0 2.261663078
W  W129  1  0.78934000  0.68908000  0.56274000  1.0 2.4286769298
W  W130  1  0.71066000  0.81092000  0.06274000  1.0 2.4286769298
W  W131  1  0.28934000  0.81092000  0.43726000  1.0 2.4286769298
W  W132  1  0.21066000  0.68908000  0.93726000  1.0 2.4286769298
W  W133  1  0.21066000  0.31092000  0.43726000  1.0 2.4286769298
W  W134  1  0.28934000  0.18908000  0.93726000  1.0 2.4286769298
W  W135  1  0.71066000  0.18908000  0.56274000  1.0 2.4286769298
W  W136  1  0.78934000  0.31092000  0.06274000  1.0 2.4286769298
W  W137  1  0.57795000  0.59565000  0.55938000  1.0 2.4709172117
W  W138  1  0.92205000  0.90435000  0.05938000  1.0 2.4709172117
W  W139  1  0.07795000  0.90435000  0.44062000  1.0 2.4709172117
W  W140  1  0.42205000  0.59565000  0.94062000  1.0 2.4709172117
W  W141  1  0.42205000  0.40435000  0.44062000  1.0 2.4709172117
W  W142  1  0.07795000  0.09565000  0.94062000  1.0 2.4709172117
W  W143  1  0.92205000  0.09565000  0.55938000  1.0 2.4709172117
W  W144  1  0.57795000  0.40435000  0.05938000  1.0 2.4709172117
W  W145  1  0.53394000  0.64641000  0.48320000  1.0 2.3590512243
W  W146  1  0.96606000  0.85359000  0.98320000  1.0 2.3590512243
W  W147  1  0.03394000  0.85359000  0.51680000  1.0 2.3590512243
W  W148  1  0.46606000  0.64641000  0.01680000  1.0 2.3590512243
W  W149  1  0.46606000  0.35359000  0.51680000  1.0 2.3590512243
W  W150  1  0.03394000  0.14641000  0.01680000  1.0 2.3590512243
W  W151  1  0.96606000  0.14641000  0.48320000  1.0 2.3590512243
W  W152  1  0.53394000  0.35359000  0.98320000  1.0 2.3590512243
W  W153  1  0.75047000  0.73702000  0.48331000  1.0 2.327868181
W  W154  1  0.74953000  0.76298000  0.98331000  1.0 2.327868181
W  W155  1  0.25047000  0.76298000  0.51669000  1.0 2.327868181
W  W156  1  0.24953000  0.73702000  0.01669000  1.0 2.327868181
W  W157  1  0.24953000  0.26298000  0.51669000  1.0 2.327868181
W  W158  1  0.25047000  0.23702000  0.01669000  1.0 2.327868181
W  W159  1  0.74953000  0.23702000  0.48331000  1.0 2.327868181
W  W160  1  0.75047000  0.26298000  0.98331000  1.0 2.327868181
W  W161  1  0.64392000  0.77522000  0.43990000  1.0 2.2194247512
W  W162  1  0.85608000  0.72478000  0.93990000  1.0 2.2194247512
W  W163  1  0.14392000  0.72478000  0.56010000  1.0 2.2194247512
W  W164  1  0.35608000  0.77522000  0.06010000  1.0 2.2194247512
W  W165  1  0.35608000  0.22478000  0.56010000  1.0 2.2194247512
W  W166  1  0.14392000  0.27522000  0.06010000  1.0 2.2194247512
W  W167  1  0.85608000  0.27522000  0.43990000  1.0 2.2194247512
W  W168  1  0.64392000  0.22478000  0.93990000  1.0 2.2194247512
W  W169  1  0.54336000  0.72609000  0.42978000  1.0 2.4455095199
W  W170  1  0.95664000  0.77391000  0.92978000  1.0 2.4455095199
W  W171  1  0.04336000  0.77391000  0.57022000  1.0 2.4455095199
W  W172  1  0.45664000  0.72609000  0.07022000  1.0 2.4455095199
W  W173  1  0.45664000  0.27391000  0.57022000  1.0 2.4455095199
W  W174  1  0.04336000  0.22609000  0.07022000  1.0 2.4455095199
W  W175  1  0.95664000  0.22609000  0.42978000  1.0 2.4455095199
W  W176  1  0.54336000  0.27391000  0.92978000  1.0 2.4455095199
W  W177  1  0.53762000  0.73038000  0.52662000  1.0 2.327868181
W  W178  1  0.96238000  0.76962000  0.02662000  1.0 2.3248186973
W  W179  1  0.03762000  0.76962000  0.47338000  1.0 2.327868181
W  W180  1  0.46238000  0.73038000  0.97338000  1.0 2.327868181
W  W181  1  0.46238000  0.26962000  0.47338000  1.0 2.327868181
W  W182  1  0.03762000  0.23038000  0.97338000  1.0 2.327868181
W  W183  1  0.96238000  0.23038000  0.52662000  1.0 2.3248186973
W  W184  1  0.53762000  0.26962000  0.02662000  1.0 2.3248186973
W  W185  1  0.64644000  0.77093000  0.53609000  1.0 2.2194247512
W  W186  1  0.85356000  0.72907000  0.03609000  1.0 2.2194247512
W  W187  1  0.14644000  0.72907000  0.46391000  1.0 2.2194247512
W  W188  1  0.35356000  0.77093000  0.96391000  1.0 2.2194247512
W  W189  1  0.35356000  0.22907000  0.46391000  1.0 2.2194247512
W  W190  1  0.14644000  0.27093000  0.96391000  1.0 2.2194247512
W  W191  1  0.85356000  0.27093000  0.53609000  1.0 2.2194247512
W  W192  1  0.64644000  0.22907000  0.03609000  1.0 2.2194247512
W  W193  1  0.68549000  0.71940000  0.61479000  1.0 2.2364574341
W  W194  1  0.81451000  0.78060000  0.11479000  1.0 2.2364574341
W  W195  1  0.18549000  0.78060000  0.38521000  1.0 2.2347210315
W  W196  1  0.31451000  0.71940000  0.88521000  1.0 2.2347210315
W  W197  1  0.31451000  0.28060000  0.38521000  1.0 2.2347210315
W  W198  1  0.18549000  0.21940000  0.88521000  1.0 2.2347210315
W  W199  1  0.81451000  0.21940000  0.61479000  1.0 2.2364574341
W  W200  1  0.68549000  0.28060000  0.11479000  1.0 2.2364574341
W  W201  1  0.57601000  0.67968000  0.60633000  1.0 2.3916523679
W  W202  1  0.92399000  0.82032000  0.10633000  1.0 2.3916523679
W  W203  1  0.07601000  0.82032000  0.39367000  1.0 2.3916523679
W  W204  1  0.42399000  0.67968000  0.89367000  1.0 2.3916523679
W  W205  1  0.42399000  0.32032000  0.39367000  1.0 2.3916523679
W  W206  1  0.07601000  0.17968000  0.89367000  1.0 2.3916523679
W  W207  1  0.92399000  0.17968000  0.60633000  1.0 2.3916523679
W  W208  1  0.57601000  0.32032000  0.10633000  1.0 2.3916523679
W  W209  1  0.64424000  0.60238000  0.64112000  1.0 2.4709172117
W  W210  1  0.85576000  0.89762000  0.14112000  1.0 2.4709172117
W  W211  1  0.14424000  0.89762000  0.35888000  1.0 2.4709172117
W  W212  1  0.35576000  0.60238000  0.85888000  1.0 2.4709172117
W  W213  1  0.35576000  0.39762000  0.35888000  1.0 2.4709172117
W  W214  1  0.14424000  0.10238000  0.85888000  1.0 2.4709172117
W  W215  1  0.85576000  0.10238000  0.64112000  1.0 2.4709172117
W  W216  1  0.64424000  0.39762000  0.14112000  1.0 2.4709172117
W  W217  1  0.75533000  0.63958000  0.64126000  1.0 2.3463690042
W  W218  1  0.74467000  0.86042000  0.14126000  1.0 2.3463690042
W  W219  1  0.25533000  0.86042000  0.35874000  1.0 2.3463690042
W  W220  1  0.24467000  0.63958000  0.85874000  1.0 2.3463690042
W  W221  1  0.24467000  0.36042000  0.35874000  1.0 2.3463690042
W  W222  1  0.25533000  0.13958000  0.85874000  1.0 2.3463690042
W  W223  1  0.74467000  0.13958000  0.64126000  1.0 2.3463690042
W  W224  1  0.75533000  0.36042000  0.14126000  1.0 2.3463690042
W  W225  1  0.82493000  0.55983000  0.61039000  1.0 2.3916523679
W  W226  1  0.67507000  0.94017000  0.11039000  1.0 2.3916523679
W  W227  1  0.32493000  0.94017000  0.38961000  1.0 2.3916523679
W  W228  1  0.17507000  0.55983000  0.88961000  1.0 2.3916523679
W  W229  1  0.17507000  0.44017000  0.38961000  1.0 2.3916523679
W  W230  1  0.32493000  0.05983000  0.88961000  1.0 2.3916523679
W  W231  1  0.67507000  0.05983000  0.61039000  1.0 2.3916523679
W  W232  1  0.82493000  0.44017000  0.11039000  1.0 2.3916523679
W  W233  1  0.71419000  0.52232000  0.61169000  1.0 2.4709172117
W  W234  1  0.78581000  0.97768000  0.11169000  1.0 2.4709172117
W  W235  1  0.21419000  0.97768000  0.38831000  1.0 2.4709172117
W  W236  1  0.28581000  0.52232000  0.88831000  1.0 2.4709172117
W  W237  1  0.28581000  0.47768000  0.38831000  1.0 2.4709172117
W  W238  1  0.21419000  0.02232000  0.88831000  1.0 2.4709172117
W  W239  1  0.78581000  0.02232000  0.61169000  1.0 2.4709172117
W  W240  1  0.71419000  0.47768000  0.11169000  1.0 2.4709172117
C  C1  1  0.51110000  0.84850000  0.41200000  1.0 0.1705879589
C  C2  1  0.98890000  0.65150000  0.91200000  1.0 0.1705879589
C  C3  1  0.01110000  0.65150000  0.58800000  1.0 0.1705879589
C  C4  1  0.48890000  0.84850000  0.08800000  1.0 0.1705879589
C  C5  1  0.48890000  0.15150000  0.58800000  1.0 0.1705879589
C  C6  1  0.01110000  0.34850000  0.08800000  1.0 0.1705879589
C  C7  1  0.98890000  0.34850000  0.41200000  1.0 0.1705879589
C  C8  1  0.51110000  0.15150000  0.91200000  1.0 0.1705879589
C  C9  1  0.48170000  0.85880000  0.38340000  1.0 -0.1069222637
C  C10  1  0.01830000  0.64120000  0.88340000  1.0 -0.1069222637
C  C11  1  0.98170000  0.64120000  0.61660000  1.0 -0.1069222637
C  C12  1  0.51830000  0.85880000  0.11660000  1.0 -0.1069222637
C  C13  1  0.51830000  0.14120000  0.61660000  1.0 -0.1069222637
C  C14  1  0.98170000  0.35880000  0.11660000  1.0 -0.1069222637
C  C15  1  0.01830000  0.35880000  0.38340000  1.0 -0.1069222637
C  C16  1  0.48170000  0.14120000  0.88340000  1.0 -0.1069222637
C  C17  1  0.44030000  0.83610000  0.38150000  1.0 0.1785328207
C  C18  1  0.05970000  0.66390000  0.88150000  1.0 0.1785328207
C  C19  1  0.94030000  0.66390000  0.61850000  1.0 0.1785328207
C  C20  1  0.55970000  0.83610000  0.11850000  1.0 0.1785328207
C  C21  1  0.55970000  0.16390000  0.61850000  1.0 0.1785328207
C  C22  1  0.94030000  0.33610000  0.11850000  1.0 0.1785328207
C  C23  1  0.05970000  0.33610000  0.38150000  1.0 0.1785328207
C  C24  1  0.44030000  0.16390000  0.88150000  1.0 0.1785328207
C  C25  1  0.40660000  0.58730000  0.43250000  1.0 -0.4379406631
C  C26  1  0.09340000  0.91270000  0.93250000  1.0 -0.4346339437
C  C27  1  0.90660000  0.91270000  0.56750000  1.0 -0.4346339437
C  C28  1  0.59340000  0.58730000  0.06750000  1.0 -0.4379406631
C  C29  1  0.59340000  0.41270000  0.56750000  1.0 -0.4346339437
C  C30  1  0.90660000  0.08730000  0.06750000  1.0 -0.4346339437
C  C31  1  0.09340000  0.08730000  0.43250000  1.0 -0.4379406631
C  C32  1  0.40660000  0.41270000  0.93250000  1.0 -0.4346339437
C  C33  1  0.36920000  0.59290000  0.41180000  1.0 0.1381811365
C  C34  1  0.13080000  0.90710000  0.91180000  1.0 0.1381811365
C  C35  1  0.86920000  0.90710000  0.58820000  1.0 0.1381811365
C  C36  1  0.63080000  0.59290000  0.08820000  1.0 0.1381811365
C  C37  1  0.63080000  0.40710000  0.58820000  1.0 0.1381811365
C  C38  1  0.86920000  0.09290000  0.08820000  1.0 0.1381811365
C  C39  1  0.13080000  0.09290000  0.41180000  1.0 0.1381811365
C  C40  1  0.36920000  0.40710000  0.91180000  1.0 0.1381811365
C  C41  1  0.34160000  0.62650000  0.40410000  1.0 -0.1203555341
C  C42  1  0.15840000  0.87350000  0.90410000  1.0 -0.1203555341
C  C43  1  0.84160000  0.87350000  0.59590000  1.0 -0.1203555341
C  C44  1  0.65840000  0.62650000  0.09590000  1.0 -0.1203555341
C  C45  1  0.65840000  0.37350000  0.59590000  1.0 -0.1203555341
C  C46  1  0.84160000  0.12650000  0.09590000  1.0 -0.1203555341
C  C47  1  0.15840000  0.12650000  0.40410000  1.0 -0.1203555341
C  C48  1  0.34160000  0.37350000  0.90410000  1.0 -0.1203555341
C  C49  1  0.30570000  0.61340000  0.37960000  1.0 0.2001530049
C  C50  1  0.19430000  0.88660000  0.87960000  1.0 0.2001530049
C  C51  1  0.80570000  0.88660000  0.62040000  1.0 0.2001530049
C  C52  1  0.69430000  0.61340000  0.12040000  1.0 0.2001530049
C  C53  1  0.69430000  0.38660000  0.62040000  1.0 0.2001530049
C  C54  1  0.80570000  0.11340000  0.12040000  1.0 0.2001530049
C  C55  1  0.19430000  0.11340000  0.37960000  1.0 0.2001530049
C  C56  1  0.30570000  0.38660000  0.87960000  1.0 0.2001530049
C  C57  1  0.26800000  0.64170000  0.36470000  1.0 -0.4885628057
C  C58  1  0.23200000  0.85830000  0.86470000  1.0 -0.4885628057
C  C59  1  0.76800000  0.85830000  0.63530000  1.0 -0.4885628057
C  C60  1  0.73200000  0.64170000  0.13530000  1.0 -0.4885628057
C  C61  1  0.73200000  0.35830000  0.63530000  1.0 -0.4885628057
C  C62  1  0.76800000  0.14170000  0.13530000  1.0 -0.4885628057
C  C63  1  0.23200000  0.14170000  0.36470000  1.0 -0.4885628057
C  C64  1  0.26800000  0.35830000  0.86470000  1.0 -0.4885628057
C  C65  1  0.27470000  0.66730000  0.46380000  1.0 -0.5186836155
C  C66  1  0.22530000  0.83270000  0.96380000  1.0 -0.5186836155
C  C67  1  0.77470000  0.83270000  0.53620000  1.0 -0.5186836155
C  C68  1  0.72530000  0.66730000  0.03620000  1.0 -0.5186836155
C  C69  1  0.72530000  0.33270000  0.53620000  1.0 -0.5186836155
C  C70  1  0.77470000  0.16730000  0.03620000  1.0 -0.5186836155
C  C71  1  0.22530000  0.16730000  0.46380000  1.0 -0.5186836155
C  C72  1  0.27470000  0.33270000  0.96380000  1.0 -0.5186836155
C  C73  1  0.32110000  0.67760000  0.44370000  1.0 0.1882256014
C  C74  1  0.17890000  0.82240000  0.94370000  1.0 0.1882256014
C  C75  1  0.82110000  0.82240000  0.55630000  1.0 0.1882256014
C  C76  1  0.67890000  0.67760000  0.05630000  1.0 0.1882256014
C  C77  1  0.67890000  0.32240000  0.55630000  1.0 0.1882256014
C  C78  1  0.82110000  0.17760000  0.05630000  1.0 0.1882256014
C  C79  1  0.17890000  0.17760000  0.44370000  1.0 0.1882256014
C  C80  1  0.32110000  0.32240000  0.94370000  1.0 0.1882256014
C  C81  1  0.35100000  0.65980000  0.42040000  1.0 -0.1683295178
C  C82  1  0.14900000  0.84020000  0.92040000  1.0 -0.1683295178
C  C83  1  0.85100000  0.84020000  0.57960000  1.0 -0.1683295178
C  C84  1  0.64900000  0.65980000  0.07960000  1.0 -0.1683295178
C  C85  1  0.64900000  0.34020000  0.57960000  1.0 -0.1683295178
C  C86  1  0.85100000  0.15980000  0.07960000  1.0 -0.1683295178
C  C87  1  0.14900000  0.15980000  0.42040000  1.0 -0.1683295178
C  C88  1  0.35100000  0.34020000  0.92040000  1.0 -0.1683295178
C  C89  1  0.38780000  0.68140000  0.41050000  1.0 0.1705879589
C  C90  1  0.11220000  0.81860000  0.91050000  1.0 0.1705879589
C  C91  1  0.88780000  0.81860000  0.58950000  1.0 0.1705879589
C  C92  1  0.61220000  0.68140000  0.08950000  1.0 0.1705879589
C  C93  1  0.61220000  0.31860000  0.58950000  1.0 0.1705879589
C  C94  1  0.88780000  0.18140000  0.08950000  1.0 0.1705879589
C  C95  1  0.11220000  0.18140000  0.41050000  1.0 0.1705879589
C  C96  1  0.38780000  0.31860000  0.91050000  1.0 0.1705879589
C  C97  1  0.42880000  0.67310000  0.38510000  1.0 -0.5086654405
C  C98  1  0.07120000  0.82690000  0.88510000  1.0 -0.5086654405
C  C99  1  0.92880000  0.82690000  0.61490000  1.0 -0.5086654405
C  C100  1  0.57120000  0.67310000  0.11490000  1.0 -0.5086654405
C  C101  1  0.57120000  0.32690000  0.61490000  1.0 -0.5086654405
C  C102  1  0.92880000  0.17310000  0.11490000  1.0 -0.5086654405
C  C103  1  0.07120000  0.17310000  0.38510000  1.0 -0.5086654405
C  C104  1  0.42880000  0.32690000  0.88510000  1.0 -0.5086654405
C  C105  1  0.55640000  0.86180000  0.42750000  1.0 -0.5186836155
C  C106  1  0.94360000  0.63820000  0.92750000  1.0 -0.5186836155
C  C107  1  0.05640000  0.63820000  0.57250000  1.0 -0.5186836155
C  C108  1  0.44360000  0.86180000  0.07250000  1.0 -0.5186836155
C  C109  1  0.44360000  0.13820000  0.57250000  1.0 -0.5186836155
C  C110  1  0.05640000  0.36180000  0.07250000  1.0 -0.5186836155
C  C111  1  0.94360000  0.36180000  0.42750000  1.0 -0.5186836155
C  C112  1  0.55640000  0.13820000  0.92750000  1.0 -0.5186836155
C  C113  1  0.39900000  0.84050000  0.35900000  1.0 -0.5297011355
C  C114  1  0.10100000  0.65950000  0.85900000  1.0 -0.5297011355
C  C115  1  0.89900000  0.65950000  0.64100000  1.0 -0.5297011355
C  C116  1  0.60100000  0.84050000  0.14100000  1.0 -0.5297011355
C  C117  1  0.60100000  0.15950000  0.64100000  1.0 -0.5297011355
C  C118  1  0.89900000  0.34050000  0.14100000  1.0 -0.5297011355
C  C119  1  0.10100000  0.34050000  0.35900000  1.0 -0.5297011355
C  C120  1  0.39900000  0.15950000  0.85900000  1.0 -0.5297011355
C  C121  1  0.47280000  0.93820000  0.40920000  1.0 -0.5086654405
C  C122  1  0.02720000  0.56180000  0.90920000  1.0 -0.5086654405
C  C123  1  0.97280000  0.56180000  0.59080000  1.0 -0.5086654405
C  C124  1  0.52720000  0.93820000  0.09080000  1.0 -0.5086654405
C  C125  1  0.52720000  0.06180000  0.59080000  1.0 -0.5086654405
C  C126  1  0.97280000  0.43820000  0.09080000  1.0 -0.5086654405
C  C127  1  0.02720000  0.43820000  0.40920000  1.0 -0.5086654405
C  C128  1  0.47280000  0.06180000  0.90920000  1.0 -0.5086654405
C  C129  1  0.50250000  0.88700000  0.33040000  1.0 0.1785328207
C  C130  1  0.99750000  0.61300000  0.83040000  1.0 0.1785328207
C  C131  1  0.00250000  0.61300000  0.66960000  1.0 0.1785328207
C  C132  1  0.49750000  0.88700000  0.16960000  1.0 0.1785328207
C  C133  1  0.49750000  0.11300000  0.66960000  1.0 0.1785328207
C  C134  1  0.00250000  0.38700000  0.16960000  1.0 0.1785328207
C  C135  1  0.99750000  0.38700000  0.33040000  1.0 0.1785328207
C  C136  1  0.50250000  0.11300000  0.83040000  1.0 0.1785328207
C  C137  1  0.48860000  0.88920000  0.36570000  1.0 -0.1203555341
C  C138  1  0.01140000  0.61080000  0.86570000  1.0 -0.1203555341
C  C139  1  0.98860000  0.61080000  0.63430000  1.0 -0.1203555341
C  C140  1  0.51140000  0.88920000  0.13430000  1.0 -0.1203555341
C  C141  1  0.51140000  0.11080000  0.63430000  1.0 -0.1203555341
C  C142  1  0.98860000  0.38920000  0.13430000  1.0 -0.1203555341
C  C143  1  0.01140000  0.38920000  0.36570000  1.0 -0.1203555341
C  C144  1  0.48860000  0.11080000  0.86570000  1.0 -0.1203555341
C  C145  1  0.48610000  0.92500000  0.37480000  1.0 0.1785328207
C  C146  1  0.01390000  0.57500000  0.87480000  1.0 0.1785328207
C  C147  1  0.98610000  0.57500000  0.62520000  1.0 0.1785328207
C  C148  1  0.51390000  0.92500000  0.12520000  1.0 0.1785328207
C  C149  1  0.51390000  0.07500000  0.62520000  1.0 0.1785328207
C  C150  1  0.98610000  0.42500000  0.12520000  1.0 0.1785328207
C  C151  1  0.01390000  0.42500000  0.37480000  1.0 0.1785328207
C  C152  1  0.48610000  0.07500000  0.87480000  1.0 0.1785328207
C  C153  1  0.51000000  0.85560000  0.30270000  1.0 -0.5086654405
C  C154  1  0.99000000  0.64440000  0.80270000  1.0 -0.5086654405
C  C155  1  0.01000000  0.64440000  0.69730000  1.0 -0.5086654405
C  C156  1  0.49000000  0.85560000  0.19730000  1.0 -0.5086654405
C  C157  1  0.49000000  0.14440000  0.69730000  1.0 -0.5086654405
C  C158  1  0.01000000  0.35560000  0.19730000  1.0 -0.5086654405
C  C159  1  0.99000000  0.35560000  0.30270000  1.0 -0.5086654405
C  C160  1  0.51000000  0.14440000  0.80270000  1.0 -0.5086654405
C  C161  1  0.52200000  0.76050000  0.21190000  1.0 -0.5297011355
C  C162  1  0.97800000  0.73950000  0.71190000  1.0 -0.5297011355
C  C163  1  0.02200000  0.73950000  0.78810000  1.0 -0.5297011355
C  C164  1  0.47800000  0.76050000  0.28810000  1.0 -0.5297011355
C  C165  1  0.47800000  0.23950000  0.78810000  1.0 -0.5297011355
C  C166  1  0.02200000  0.26050000  0.28810000  1.0 -0.5297011355
C  C167  1  0.97800000  0.26050000  0.21190000  1.0 -0.5297011355
C  C168  1  0.52200000  0.23950000  0.71190000  1.0 -0.5297011355
C  C169  1  0.61310000  0.75430000  0.19020000  1.0 -0.1203555341
C  C170  1  0.88690000  0.74570000  0.69020000  1.0 -0.1203555341
C  C171  1  0.11310000  0.74570000  0.80980000  1.0 -0.1203555341
C  C172  1  0.38690000  0.75430000  0.30980000  1.0 -0.1203555341
C  C173  1  0.38690000  0.24570000  0.80980000  1.0 -0.1203555341
C  C174  1  0.11310000  0.25430000  0.30980000  1.0 -0.1203555341
C  C175  1  0.88690000  0.25430000  0.19020000  1.0 -0.1203555341
C  C176  1  0.61310000  0.24570000  0.69020000  1.0 -0.1203555341
C  C177  1  0.63330000  0.75170000  0.15640000  1.0 0.1474534825
C  C178  1  0.86670000  0.74830000  0.65640000  1.0 0.1474534825
C  C179  1  0.13330000  0.74830000  0.84360000  1.0 0.1474534825
C  C180  1  0.36670000  0.75170000  0.34360000  1.0 0.1474534825
C  C181  1  0.36670000  0.24830000  0.84360000  1.0 0.1474534825
C  C182  1  0.13330000  0.25170000  0.34360000  1.0 0.1474534825
C  C183  1  0.86670000  0.25170000  0.15640000  1.0 0.1474534825
C  C184  1  0.63330000  0.24830000  0.65640000  1.0 0.1474534825
C  C185  1  0.56130000  0.75940000  0.18700000  1.0 0.1474534825
C  C186  1  0.93870000  0.74060000  0.68700000  1.0 0.1474534825
C  C187  1  0.06130000  0.74060000  0.81300000  1.0 0.1474534825
C  C188  1  0.43870000  0.75940000  0.31300000  1.0 0.1474534825
C  C189  1  0.43870000  0.24060000  0.81300000  1.0 0.1474534825
C  C190  1  0.06130000  0.25940000  0.31300000  1.0 0.1474534825
C  C191  1  0.93870000  0.25940000  0.18700000  1.0 0.1474534825
C  C192  1  0.56130000  0.24060000  0.68700000  1.0 0.1474534825
C  C193  1  0.68130000  0.74930000  0.15100000  1.0 -0.4495869349
C  C194  1  0.81870000  0.75070000  0.65100000  1.0 -0.4495869349
C  C195  1  0.18130000  0.75070000  0.84900000  1.0 -0.4495869349
C  C196  1  0.31870000  0.74930000  0.34900000  1.0 -0.4495869349
C  C197  1  0.31870000  0.25070000  0.84900000  1.0 -0.4495869349
C  C198  1  0.18130000  0.24930000  0.34900000  1.0 -0.4495869349
C  C199  1  0.81870000  0.24930000  0.15100000  1.0 -0.4495869349
C  C200  1  0.68130000  0.25070000  0.65100000  1.0 -0.4495869349
C  C201  1  0.67270000  0.69110000  0.22870000  1.0 -0.4970923694
C  C202  1  0.82730000  0.80890000  0.72870000  1.0 -0.4970923694
C  C203  1  0.17270000  0.80890000  0.77130000  1.0 -0.4970923694
C  C204  1  0.32730000  0.69110000  0.27130000  1.0 -0.4970923694
C  C205  1  0.32730000  0.30890000  0.77130000  1.0 -0.4970923694
C  C206  1  0.17270000  0.19110000  0.27130000  1.0 -0.4970923694
C  C207  1  0.82730000  0.19110000  0.22870000  1.0 -0.4970923694
C  C208  1  0.67270000  0.30890000  0.72870000  1.0 -0.4970923694
C  C209  1  0.66220000  0.72890000  0.24010000  1.0 0.1474534825
C  C210  1  0.83780000  0.77110000  0.74010000  1.0 0.1474534825
C  C211  1  0.16220000  0.77110000  0.75990000  1.0 0.1474534825
C  C212  1  0.33780000  0.72890000  0.25990000  1.0 0.1474534825
C  C213  1  0.33780000  0.27110000  0.75990000  1.0 0.1474534825
C  C214  1  0.16220000  0.22890000  0.25990000  1.0 0.1474534825
C  C215  1  0.83780000  0.22890000  0.24010000  1.0 0.1474534825
C  C216  1  0.66220000  0.27110000  0.74010000  1.0 0.1474534825
C  C217  1  0.63900000  0.75160000  0.22350000  1.0 -0.1024257051
C  C218  1  0.86100000  0.74840000  0.72350000  1.0 -0.1024257051
C  C219  1  0.13900000  0.74840000  0.77650000  1.0 -0.1024257051
C  C220  1  0.36100000  0.75160000  0.27650000  1.0 -0.1024257051
C  C221  1  0.36100000  0.24840000  0.77650000  1.0 -0.1024257051
C  C222  1  0.13900000  0.25160000  0.27650000  1.0 -0.1024257051
C  C223  1  0.86100000  0.25160000  0.22350000  1.0 -0.1024257051
C  C224  1  0.63900000  0.24840000  0.72350000  1.0 -0.1024257051
C  C225  1  0.64710000  0.78520000  0.24220000  1.0 0.1705879589
C  C226  1  0.85290000  0.71480000  0.74220000  1.0 0.1705879589
C  C227  1  0.14710000  0.71480000  0.75780000  1.0 0.1705879589
C  C228  1  0.35290000  0.78520000  0.25780000  1.0 0.1705879589
C  C229  1  0.35290000  0.21480000  0.75780000  1.0 0.1705879589
C  C230  1  0.14710000  0.28520000  0.25780000  1.0 0.1705879589
C  C231  1  0.85290000  0.28520000  0.24220000  1.0 0.1705879589
C  C232  1  0.64710000  0.21480000  0.74220000  1.0 0.1705879589
C  C233  1  0.62780000  0.82210000  0.23870000  1.0 -0.5086654405
C  C234  1  0.87220000  0.67790000  0.73870000  1.0 -0.5086654405
C  C235  1  0.12780000  0.67790000  0.76130000  1.0 -0.5086654405
C  C236  1  0.37220000  0.82210000  0.26130000  1.0 -0.5086654405
C  C237  1  0.37220000  0.17790000  0.76130000  1.0 -0.5086654405
C  C238  1  0.12780000  0.32210000  0.26130000  1.0 -0.5086654405
C  C239  1  0.87220000  0.32210000  0.23870000  1.0 -0.5086654405
C  C240  1  0.62780000  0.17790000  0.73870000  1.0 -0.5086654405
C  C241  1  0.01030000  0.56400000  0.01230000  1.0 -0.5297011355
C  C242  1  0.48970000  0.93600000  0.51230000  1.0 -0.5297011355
C  C243  1  0.51030000  0.93600000  0.98770000  1.0 -0.5297011355
C  C244  1  0.98970000  0.56400000  0.48770000  1.0 -0.5297011355
C  C245  1  0.98970000  0.43600000  0.98770000  1.0 -0.5297011355
C  C246  1  0.51030000  0.06400000  0.48770000  1.0 -0.5297011355
C  C247  1  0.48970000  0.06400000  0.01230000  1.0 -0.5297011355
C  C248  1  0.01030000  0.43600000  0.51230000  1.0 -0.5297011355
C  C249  1  0.95840000  0.57150000  0.00360000  1.0 0.1606440102
C  C250  1  0.54160000  0.92850000  0.50360000  1.0 0.1606440102
C  C251  1  0.45840000  0.92850000  0.99640000  1.0 0.1606440102
C  C252  1  0.04160000  0.57150000  0.49640000  1.0 0.1606440102
C  C253  1  0.04160000  0.42850000  0.99640000  1.0 0.1606440102
C  C254  1  0.45840000  0.07150000  0.49640000  1.0 0.1606440102
C  C255  1  0.54160000  0.07150000  0.00360000  1.0 0.1606440102
C  C256  1  0.95840000  0.42850000  0.50360000  1.0 0.1606440102
C  C257  1  0.92870000  0.59920000  0.01520000  1.0 -0.1516994065
C  C258  1  0.57130000  0.90080000  0.51520000  1.0 -0.1516994065
C  C259  1  0.42870000  0.90080000  0.98480000  1.0 -0.1516994065
C  C260  1  0.07130000  0.59920000  0.48480000  1.0 -0.1516994065
C  C261  1  0.07130000  0.40080000  0.98480000  1.0 -0.1516994065
C  C262  1  0.42870000  0.09920000  0.48480000  1.0 -0.1516994065
C  C263  1  0.57130000  0.09920000  0.01520000  1.0 -0.1516994065
C  C264  1  0.92870000  0.40080000  0.51520000  1.0 -0.1516994065
C  C265  1  0.88350000  0.59740000  0.99340000  1.0 0.1705879589
C  C266  1  0.61650000  0.90260000  0.49340000  1.0 0.1705879589
C  C267  1  0.38350000  0.90260000  0.00660000  1.0 0.1705879589
C  C268  1  0.11650000  0.59740000  0.50660000  1.0 0.1705879589
C  C269  1  0.11650000  0.40260000  0.00660000  1.0 0.1705879589
C  C270  1  0.38350000  0.09740000  0.50660000  1.0 0.1705879589
C  C271  1  0.61650000  0.09740000  0.99340000  1.0 0.1705879589
C  C272  1  0.88350000  0.40260000  0.49340000  1.0 0.1705879589
C  C273  1  0.83780000  0.61820000  0.99520000  1.0 -0.5186836155
C  C274  1  0.66220000  0.88180000  0.49520000  1.0 -0.5186836155
C  C275  1  0.33780000  0.88180000  0.00480000  1.0 -0.5186836155
C  C276  1  0.16220000  0.61820000  0.50480000  1.0 -0.5186836155
C  C277  1  0.16220000  0.38180000  0.00480000  1.0 -0.5186836155
C  C278  1  0.33780000  0.11820000  0.50480000  1.0 -0.5186836155
C  C279  1  0.66220000  0.11820000  0.99520000  1.0 -0.5186836155
C  C280  1  0.83780000  0.38180000  0.49520000  1.0 -0.5186836155
C  C281  1  0.87620000  0.60510000  0.09000000  1.0 -0.4630772839
C  C282  1  0.62380000  0.89490000  0.59000000  1.0 -0.4630772839
C  C283  1  0.37620000  0.89490000  0.91000000  1.0 -0.4630772839
C  C284  1  0.12380000  0.60510000  0.41000000  1.0 -0.4630772839
C  C285  1  0.12380000  0.39490000  0.91000000  1.0 -0.4630772839
C  C286  1  0.37620000  0.10510000  0.41000000  1.0 -0.4630772839
C  C287  1  0.62380000  0.10510000  0.09000000  1.0 -0.4630772839
C  C288  1  0.87620000  0.39490000  0.59000000  1.0 -0.4630772839
C  C289  1  0.91590000  0.62330000  0.07620000  1.0 0.1381811365
C  C290  1  0.58410000  0.87670000  0.57620000  1.0 0.1381811365
C  C291  1  0.41590000  0.87670000  0.92380000  1.0 0.1381811365
C  C292  1  0.08410000  0.62330000  0.42380000  1.0 0.1381811365
C  C293  1  0.08410000  0.37670000  0.92380000  1.0 0.1381811365
C  C294  1  0.41590000  0.12330000  0.42380000  1.0 0.1381811365
C  C295  1  0.58410000  0.12330000  0.07620000  1.0 0.1381811365
C  C296  1  0.91590000  0.37670000  0.57620000  1.0 0.1381811365
C  C297  1  0.93740000  0.62490000  0.03970000  1.0 -0.0941384765
C  C298  1  0.56260000  0.87510000  0.53970000  1.0 -0.0941384765
C  C299  1  0.43740000  0.87510000  0.96030000  1.0 -0.0941384765
C  C300  1  0.06260000  0.62490000  0.46030000  1.0 -0.0941384765
C  C301  1  0.06260000  0.37510000  0.96030000  1.0 -0.0941384765
C  C302  1  0.43740000  0.12490000  0.46030000  1.0 -0.0941384765
C  C303  1  0.56260000  0.12490000  0.03970000  1.0 -0.0941384765
C  C304  1  0.93740000  0.37510000  0.53970000  1.0 -0.0941384765
C  C305  1  0.97630000  0.64920000  0.04360000  1.0 0.1705879589
C  C306  1  0.52370000  0.85080000  0.54360000  1.0 0.1705879589
C  C307  1  0.47630000  0.85080000  0.95640000  1.0 0.1705879589
C  C308  1  0.02370000  0.64920000  0.45640000  1.0 0.1705879589
C  C309  1  0.02370000  0.35080000  0.95640000  1.0 0.1705879589
C  C310  1  0.47630000  0.14920000  0.45640000  1.0 0.1705879589
C  C311  1  0.52370000  0.14920000  0.04360000  1.0 0.1705879589
C  C312  1  0.97630000  0.35080000  0.54360000  1.0 0.1705879589
C  C313  1  0.00740000  0.66060000  0.01470000  1.0 -0.5086654405
C  C314  1  0.49260000  0.83940000  0.51470000  1.0 -0.5086654405
C  C315  1  0.50740000  0.83940000  0.98530000  1.0 -0.5086654405
C  C316  1  0.99260000  0.66060000  0.48530000  1.0 -0.5086654405
C  C317  1  0.99260000  0.33940000  0.98530000  1.0 -0.5086654405
C  C318  1  0.50740000  0.16060000  0.48530000  1.0 -0.5086654405
C  C319  1  0.49260000  0.16060000  0.01470000  1.0 -0.5086654405
C  C320  1  0.00740000  0.33940000  0.51470000  1.0 -0.5086654405
C  C321  1  0.82510000  0.68830000  0.20820000  1.0 -0.4970923694
C  C322  1  0.67490000  0.81170000  0.70820000  1.0 -0.4970923694
C  C323  1  0.32510000  0.81170000  0.79180000  1.0 -0.4970923694
C  C324  1  0.17490000  0.68830000  0.29180000  1.0 -0.4970923694
C  C325  1  0.17490000  0.31170000  0.79180000  1.0 -0.4970923694
C  C326  1  0.32510000  0.18830000  0.29180000  1.0 -0.4970923694
C  C327  1  0.67490000  0.18830000  0.20820000  1.0 -0.4970923694
C  C328  1  0.82510000  0.31170000  0.70820000  1.0 -0.4970923694
C  C329  1  0.86930000  0.70900000  0.20750000  1.0 0.1882256014
C  C330  1  0.63070000  0.79100000  0.70750000  1.0 0.1882256014
C  C331  1  0.36930000  0.79100000  0.79250000  1.0 0.1882256014
C  C332  1  0.13070000  0.70900000  0.29250000  1.0 0.1882256014
C  C333  1  0.13070000  0.29100000  0.79250000  1.0 0.1882256014
C  C334  1  0.36930000  0.20900000  0.29250000  1.0 0.1882256014
C  C335  1  0.63070000  0.20900000  0.20750000  1.0 0.1882256014
C  C336  1  0.86930000  0.29100000  0.70750000  1.0 0.1882256014
C  C337  1  0.87670000  0.73880000  0.22890000  1.0 -0.1565837306
C  C338  1  0.62330000  0.76120000  0.72890000  1.0 -0.1565837306
C  C339  1  0.37670000  0.76120000  0.77110000  1.0 -0.1565837306
C  C340  1  0.12330000  0.73880000  0.27110000  1.0 -0.1565837306
C  C341  1  0.12330000  0.26120000  0.77110000  1.0 -0.1565837306
C  C342  1  0.37670000  0.23880000  0.27110000  1.0 -0.1565837306
C  C343  1  0.62330000  0.23880000  0.22890000  1.0 -0.1565837306
C  C344  1  0.87670000  0.26120000  0.72890000  1.0 -0.1565837306
C  C345  1  0.91300000  0.75780000  0.21400000  1.0 0.1705879589
C  C346  1  0.58700000  0.74220000  0.71400000  1.0 0.1705879589
C  C347  1  0.41300000  0.74220000  0.78600000  1.0 0.1705879589
C  C348  1  0.08700000  0.75780000  0.28600000  1.0 0.1705879589
C  C349  1  0.08700000  0.24220000  0.78600000  1.0 0.1705879589
C  C350  1  0.41300000  0.25780000  0.28600000  1.0 0.1705879589
C  C351  1  0.58700000  0.25780000  0.21400000  1.0 0.1705879589
C  C352  1  0.91300000  0.24220000  0.71400000  1.0 0.1705879589
C  C353  1  0.93940000  0.79190000  0.22510000  1.0 -0.4821591242
C  C354  1  0.56060000  0.70810000  0.72510000  1.0 -0.4821591242
C  C355  1  0.43940000  0.70810000  0.77490000  1.0 -0.4821591242
C  C356  1  0.06060000  0.79190000  0.27490000  1.0 -0.4821591242
C  C357  1  0.06060000  0.20810000  0.77490000  1.0 -0.4821591242
C  C358  1  0.43940000  0.29190000  0.27490000  1.0 -0.4821591242
C  C359  1  0.56060000  0.29190000  0.22510000  1.0 -0.4821591242
C  C360  1  0.93940000  0.20810000  0.72510000  1.0 -0.4821591242
C  C361  1  0.78010000  0.79220000  0.22420000  1.0 -0.5297011355
C  C362  1  0.71990000  0.70780000  0.72420000  1.0 -0.5297011355
C  C363  1  0.28010000  0.70780000  0.77580000  1.0 -0.5297011355
C  C364  1  0.21990000  0.79220000  0.27580000  1.0 -0.5297011355
C  C365  1  0.21990000  0.20780000  0.77580000  1.0 -0.5297011355
C  C366  1  0.28010000  0.29220000  0.27580000  1.0 -0.5297011355
C  C367  1  0.71990000  0.29220000  0.22420000  1.0 -0.5297011355
C  C368  1  0.78010000  0.20780000  0.72420000  1.0 -0.5297011355
C  C369  1  0.80220000  0.77390000  0.25480000  1.0 0.2227200544
C  C370  1  0.69780000  0.72610000  0.75480000  1.0 0.2227200544
C  C371  1  0.30220000  0.72610000  0.74520000  1.0 0.2227200544
C  C372  1  0.19780000  0.77390000  0.24520000  1.0 0.2227200544
C  C373  1  0.19780000  0.22610000  0.74520000  1.0 0.2227200544
C  C374  1  0.30220000  0.27390000  0.24520000  1.0 0.2227200544
C  C375  1  0.69780000  0.27390000  0.25480000  1.0 0.2227200544
C  C376  1  0.80220000  0.22610000  0.75480000  1.0 0.2227200544
C  C377  1  0.84100000  0.74790000  0.25490000  1.0 -0.1516994065
C  C378  1  0.65900000  0.75210000  0.75490000  1.0 -0.1516994065
C  C379  1  0.34100000  0.75210000  0.74510000  1.0 -0.1516994065
C  C380  1  0.15900000  0.74790000  0.24510000  1.0 -0.1516994065
C  C381  1  0.15900000  0.25210000  0.74510000  1.0 -0.1516994065
C  C382  1  0.34100000  0.24790000  0.24510000  1.0 -0.1516994065
C  C383  1  0.65900000  0.24790000  0.25490000  1.0 -0.1516994065
C  C384  1  0.84100000  0.25210000  0.75490000  1.0 -0.1516994065
C  C385  1  0.84790000  0.73940000  0.28970000  1.0 0.1287884418
C  C386  1  0.65210000  0.76060000  0.78970000  1.0 0.1287884418
C  C387  1  0.34790000  0.76060000  0.71030000  1.0 0.1287884418
C  C388  1  0.15210000  0.73940000  0.21030000  1.0 0.1287884418
C  C389  1  0.15210000  0.26060000  0.71030000  1.0 0.1287884418
C  C390  1  0.34790000  0.23940000  0.21030000  1.0 0.1287884418
C  C391  1  0.65210000  0.23940000  0.28970000  1.0 0.1287884418
C  C392  1  0.84790000  0.26060000  0.78970000  1.0 0.1287884418
C  C393  1  0.87650000  0.71600000  0.30460000  1.0 -0.4379406631
C  C394  1  0.62350000  0.78400000  0.80460000  1.0 -0.4379406631
C  C395  1  0.37650000  0.78400000  0.69540000  1.0 -0.4379406631
C  C396  1  0.12350000  0.71600000  0.19540000  1.0 -0.4379406631
C  C397  1  0.12350000  0.28400000  0.69540000  1.0 -0.4379406631
C  C398  1  0.37650000  0.21600000  0.19540000  1.0 -0.4379406631
C  C399  1  0.62350000  0.21600000  0.30460000  1.0 -0.4379406631
C  C400  1  0.87650000  0.28400000  0.80460000  1.0 -0.4379406631
C  C401  1  0.84660000  0.84200000  0.32230000  1.0 -0.4885628057
C  C402  1  0.65340000  0.65800000  0.82230000  1.0 -0.4885628057
C  C403  1  0.34660000  0.65800000  0.67770000  1.0 -0.4885628057
C  C404  1  0.15340000  0.84200000  0.17770000  1.0 -0.4885628057
C  C405  1  0.15340000  0.15800000  0.67770000  1.0 -0.4885628057
C  C406  1  0.34660000  0.34200000  0.17770000  1.0 -0.4885628057
C  C407  1  0.65340000  0.34200000  0.32230000  1.0 -0.4885628057
C  C408  1  0.84660000  0.15800000  0.82230000  1.0 -0.4885628057
C  C409  1  0.81370000  0.83930000  0.35280000  1.0 0.1474534825
C  C410  1  0.68630000  0.66070000  0.85280000  1.0 0.1474534825
C  C411  1  0.31370000  0.66070000  0.64720000  1.0 0.1474534825
C  C412  1  0.18630000  0.83930000  0.14720000  1.0 0.1474534825
C  C413  1  0.18630000  0.16070000  0.64720000  1.0 0.1474534825
C  C414  1  0.31370000  0.33930000  0.14720000  1.0 0.1474534825
C  C415  1  0.68630000  0.33930000  0.35280000  1.0 0.1474534825
C  C416  1  0.81370000  0.16070000  0.85280000  1.0 0.1474534825
C  C417  1  0.82230000  0.84710000  0.38620000  1.0 -0.1409458254
C  C418  1  0.67770000  0.65290000  0.88620000  1.0 -0.1409458254
C  C419  1  0.32230000  0.65290000  0.61380000  1.0 -0.1409458254
C  C420  1  0.17770000  0.84710000  0.11380000  1.0 -0.1409458254
C  C421  1  0.17770000  0.15290000  0.61380000  1.0 -0.1409458254
C  C422  1  0.32230000  0.34710000  0.11380000  1.0 -0.1409458254
C  C423  1  0.67770000  0.34710000  0.38620000  1.0 -0.1409458254
C  C424  1  0.82230000  0.15290000  0.88620000  1.0 -0.1409458254
C  C425  1  0.78070000  0.83650000  0.40440000  1.0 0.1381811365
C  C426  1  0.71930000  0.66350000  0.90440000  1.0 0.1381811365
C  C427  1  0.28070000  0.66350000  0.59560000  1.0 0.1381811365
C  C428  1  0.21930000  0.83650000  0.09560000  1.0 0.1381811365
C  C429  1  0.21930000  0.16350000  0.59560000  1.0 0.1381811365
C  C430  1  0.28070000  0.33650000  0.09560000  1.0 0.1381811365
C  C431  1  0.71930000  0.33650000  0.40440000  1.0 0.1381811365
C  C432  1  0.78070000  0.16350000  0.90440000  1.0 0.1381811365
C  C433  1  0.76890000  0.84130000  0.44380000  1.0 -0.4970923694
C  C434  1  0.73110000  0.65870000  0.94380000  1.0 -0.4970923694
C  C435  1  0.26890000  0.65870000  0.55620000  1.0 -0.4970923694
C  C436  1  0.23110000  0.84130000  0.05620000  1.0 -0.4970923694
C  C437  1  0.23110000  0.15870000  0.55620000  1.0 -0.4970923694
C  C438  1  0.26890000  0.34130000  0.05620000  1.0 -0.4970923694
C  C439  1  0.73110000  0.34130000  0.44380000  1.0 -0.4970923694
C  C440  1  0.76890000  0.15870000  0.94380000  1.0 -0.4970923694
C  C441  1  0.90110000  0.81630000  0.44680000  1.0 -0.4885628057
C  C442  1  0.59890000  0.68370000  0.94680000  1.0 -0.4885628057
C  C443  1  0.40110000  0.68370000  0.55320000  1.0 -0.4885628057
C  C444  1  0.09890000  0.81630000  0.05320000  1.0 -0.4885628057
C  C445  1  0.09890000  0.18370000  0.55320000  1.0 -0.4885628057
C  C446  1  0.40110000  0.31630000  0.05320000  1.0 -0.4885628057
C  C447  1  0.59890000  0.31630000  0.44680000  1.0 -0.4885628057
C  C448  1  0.90110000  0.18370000  0.94680000  1.0 -0.4885628057
C  C449  1  0.87450000  0.89950000  0.39560000  1.0 0.1785328207
C  C450  1  0.62550000  0.60050000  0.89560000  1.0 0.1785328207
C  C451  1  0.37450000  0.60050000  0.60440000  1.0 0.1785328207
C  C452  1  0.12550000  0.89950000  0.10440000  1.0 0.1785328207
C  C453  1  0.12550000  0.10050000  0.60440000  1.0 0.1785328207
C  C454  1  0.37450000  0.39950000  0.10440000  1.0 0.1785328207
C  C455  1  0.62550000  0.39950000  0.39560000  1.0 0.1785328207
C  C456  1  0.87450000  0.10050000  0.89560000  1.0 0.1785328207
C  C457  1  0.89570000  0.85150000  0.42770000  1.0 0.1785328207
C  C458  1  0.60430000  0.64850000  0.92770000  1.0 0.1785328207
C  C459  1  0.39570000  0.64850000  0.57230000  1.0 0.1785328207
C  C460  1  0.10430000  0.85150000  0.07230000  1.0 0.1785328207
C  C461  1  0.10430000  0.14850000  0.57230000  1.0 0.1785328207
C  C462  1  0.39570000  0.35150000  0.07230000  1.0 0.1785328207
C  C463  1  0.60430000  0.35150000  0.42770000  1.0 0.1785328207
C  C464  1  0.89570000  0.14850000  0.92770000  1.0 0.1785328207
C  C465  1  0.86320000  0.86400000  0.40170000  1.0 -0.1203555341
C  C466  1  0.63680000  0.63600000  0.90170000  1.0 -0.1203555341
C  C467  1  0.36320000  0.63600000  0.59830000  1.0 -0.1203555341
C  C468  1  0.13680000  0.86400000  0.09830000  1.0 -0.1203555341
C  C469  1  0.13680000  0.13600000  0.59830000  1.0 -0.1203555341
C  C470  1  0.36320000  0.36400000  0.09830000  1.0 -0.1203555341
C  C471  1  0.63680000  0.36400000  0.40170000  1.0 -0.1203555341
C  C472  1  0.86320000  0.13600000  0.90170000  1.0 -0.1203555341
C  C473  1  0.85300000  0.92500000  0.37230000  1.0 -0.4821591242
C  C474  1  0.64700000  0.57500000  0.87230000  1.0 -0.4821591242
C  C475  1  0.35300000  0.57500000  0.62770000  1.0 -0.4821591242
C  C476  1  0.14700000  0.92500000  0.12770000  1.0 -0.4821591242
C  C477  1  0.14700000  0.07500000  0.62770000  1.0 -0.4821591242
C  C478  1  0.35300000  0.42500000  0.12770000  1.0 -0.4821591242
C  C479  1  0.64700000  0.42500000  0.37230000  1.0 -0.4821591242
C  C480  1  0.85300000  0.07500000  0.87230000  1.0 -0.4821591242
N  N1  1  0.34730000  0.56940000  0.39300000  1.0 -0.1832651211
N  N2  1  0.15270000  0.93060000  0.89300000  1.0 -0.1832651211
N  N3  1  0.84730000  0.93060000  0.60700000  1.0 -0.1832651211
N  N4  1  0.65270000  0.56940000  0.10700000  1.0 -0.1832651211
N  N5  1  0.65270000  0.43060000  0.60700000  1.0 -0.1832651211
N  N6  1  0.84730000  0.06940000  0.10700000  1.0 -0.1832651211
N  N7  1  0.15270000  0.06940000  0.39300000  1.0 -0.1832651211
N  N8  1  0.34730000  0.43060000  0.89300000  1.0 -0.1832651211
N  N9  1  0.30990000  0.58210000  0.37420000  1.0 -0.3103257748
N  N10  1  0.19010000  0.91790000  0.87420000  1.0 -0.3103257748
N  N11  1  0.80990000  0.91790000  0.62580000  1.0 -0.3103257748
N  N12  1  0.69010000  0.58210000  0.12580000  1.0 -0.3103257748
N  N13  1  0.69010000  0.41790000  0.62580000  1.0 -0.3103257748
N  N14  1  0.80990000  0.08210000  0.12580000  1.0 -0.3103257748
N  N15  1  0.19010000  0.08210000  0.37420000  1.0 -0.3103257748
N  N16  1  0.30990000  0.41790000  0.87420000  1.0 -0.3103257748
N  N17  1  0.34130000  0.70660000  0.44710000  1.0 -0.1409458254
N  N18  1  0.15870000  0.79340000  0.94710000  1.0 -0.1409458254
N  N19  1  0.84130000  0.79340000  0.55290000  1.0 -0.1409458254
N  N20  1  0.65870000  0.70660000  0.05290000  1.0 -0.1409458254
N  N21  1  0.65870000  0.29340000  0.55290000  1.0 -0.1409458254
N  N22  1  0.84130000  0.20660000  0.05290000  1.0 -0.1409458254
N  N23  1  0.15870000  0.20660000  0.44710000  1.0 -0.1409458254
N  N24  1  0.34130000  0.29340000  0.94710000  1.0 -0.1409458254
N  N25  1  0.38210000  0.71290000  0.42660000  1.0 -0.2881562667
N  N26  1  0.11790000  0.78710000  0.92660000  1.0 -0.2881562667
N  N27  1  0.88210000  0.78710000  0.57340000  1.0 -0.2881562667
N  N28  1  0.61790000  0.71290000  0.07340000  1.0 -0.2881562667
N  N29  1  0.61790000  0.28710000  0.57340000  1.0 -0.2881562667
N  N30  1  0.88210000  0.21290000  0.07340000  1.0 -0.2881562667
N  N31  1  0.11790000  0.21290000  0.42660000  1.0 -0.2881562667
N  N32  1  0.38210000  0.28710000  0.92660000  1.0 -0.2881562667
N  N33  1  0.44410000  0.81180000  0.40890000  1.0 -0.3358089807
N  N34  1  0.05590000  0.68820000  0.90890000  1.0 -0.3358089807
N  N35  1  0.94410000  0.68820000  0.59110000  1.0 -0.3358089807
N  N36  1  0.55590000  0.81180000  0.09110000  1.0 -0.3358089807
N  N37  1  0.55590000  0.18820000  0.59110000  1.0 -0.3358089807
N  N38  1  0.94410000  0.31180000  0.09110000  1.0 -0.3358089807
N  N39  1  0.05590000  0.31180000  0.40890000  1.0 -0.3358089807
N  N40  1  0.44410000  0.18820000  0.90890000  1.0 -0.3358089807
N  N41  1  0.48790000  0.81940000  0.42780000  1.0 -0.1832651211
N  N42  1  0.01210000  0.68060000  0.92780000  1.0 -0.1832651211
N  N43  1  0.98790000  0.68060000  0.57220000  1.0 -0.1832651211
N  N44  1  0.51210000  0.81940000  0.07220000  1.0 -0.1832651211
N  N45  1  0.51210000  0.18060000  0.57220000  1.0 -0.1832651211
N  N46  1  0.98790000  0.31940000  0.07220000  1.0 -0.1832651211
N  N47  1  0.01210000  0.31940000  0.42780000  1.0 -0.1832651211
N  N48  1  0.48790000  0.18060000  0.92780000  1.0 -0.1832651211
N  N49  1  0.68750000  0.74160000  0.26610000  1.0 -0.1409458254
N  N50  1  0.81250000  0.75840000  0.76610000  1.0 -0.1409458254
N  N51  1  0.18750000  0.75840000  0.73390000  1.0 -0.1409458254
N  N52  1  0.31250000  0.74160000  0.23390000  1.0 -0.1409458254
N  N53  1  0.31250000  0.25840000  0.73390000  1.0 -0.1409458254
N  N54  1  0.18750000  0.24160000  0.23390000  1.0 -0.1409458254
N  N55  1  0.81250000  0.24160000  0.26610000  1.0 -0.1409458254
N  N56  1  0.68750000  0.25840000  0.76610000  1.0 -0.1409458254
N  N57  1  0.67830000  0.77670000  0.26970000  1.0 -0.2974860651
N  N58  1  0.82170000  0.72330000  0.76970000  1.0 -0.2974860651
N  N59  1  0.17830000  0.72330000  0.73030000  1.0 -0.2974860651
N  N60  1  0.32170000  0.77670000  0.23030000  1.0 -0.2974860651
N  N61  1  0.32170000  0.22330000  0.73030000  1.0 -0.2974860651
N  N62  1  0.17830000  0.27670000  0.23030000  1.0 -0.2974860651
N  N63  1  0.82170000  0.27670000  0.26970000  1.0 -0.2974860651
N  N64  1  0.67830000  0.22330000  0.76970000  1.0 -0.2974860651
N  N65  1  0.93500000  0.55580000  0.97820000  1.0 -0.277979217
N  N66  1  0.56500000  0.94420000  0.47820000  1.0 -0.277979217
N  N67  1  0.43500000  0.94420000  0.02180000  1.0 -0.277979217
N  N68  1  0.06500000  0.55580000  0.52180000  1.0 -0.277979217
N  N69  1  0.06500000  0.44420000  0.02180000  1.0 -0.277979217
N  N70  1  0.43500000  0.05580000  0.52180000  1.0 -0.277979217
N  N71  1  0.56500000  0.05580000  0.97820000  1.0 -0.277979217
N  N72  1  0.93500000  0.44420000  0.47820000  1.0 -0.277979217
N  N73  1  0.89060000  0.57030000  0.97320000  1.0 -0.1409458254
N  N74  1  0.60940000  0.92970000  0.47320000  1.0 -0.1409458254
N  N75  1  0.39060000  0.92970000  0.02680000  1.0 -0.1409458254
N  N76  1  0.10940000  0.57030000  0.52680000  1.0 -0.1409458254
N  N77  1  0.10940000  0.42970000  0.02680000  1.0 -0.1409458254
N  N78  1  0.39060000  0.07030000  0.52680000  1.0 -0.1409458254
N  N79  1  0.60940000  0.07030000  0.97320000  1.0 -0.1409458254
N  N80  1  0.89060000  0.42970000  0.47320000  1.0 -0.1409458254
N  N81  1  0.94000000  0.64950000  0.09590000  1.0 -0.2543870243
N  N82  1  0.56000000  0.85050000  0.59590000  1.0 -0.2543870243
N  N83  1  0.44000000  0.85050000  0.90410000  1.0 -0.2543870243
N  N84  1  0.06000000  0.64950000  0.40410000  1.0 -0.2543870243
N  N85  1  0.06000000  0.35050000  0.90410000  1.0 -0.2543870243
N  N86  1  0.44000000  0.14950000  0.40410000  1.0 -0.2543870243
N  N87  1  0.56000000  0.14950000  0.09590000  1.0 -0.2543870243
N  N88  1  0.94000000  0.35050000  0.59590000  1.0 -0.2543870243
N  N89  1  0.97280000  0.66290000  0.07350000  1.0 -0.1302485722
N  N90  1  0.52720000  0.83710000  0.57350000  1.0 -0.1302485722
N  N91  1  0.47280000  0.83710000  0.92650000  1.0 -0.1302485722
N  N92  1  0.02720000  0.66290000  0.42650000  1.0 -0.1302485722
N  N93  1  0.02720000  0.33710000  0.92650000  1.0 -0.1302485722
N  N94  1  0.47280000  0.16290000  0.42650000  1.0 -0.1302485722
N  N95  1  0.52720000  0.16290000  0.07350000  1.0 -0.1302485722
N  N96  1  0.97280000  0.33710000  0.57350000  1.0 -0.1302485722
N  N97  1  0.93410000  0.73740000  0.19190000  1.0 -0.1683295178
N  N98  1  0.56590000  0.76260000  0.69190000  1.0 -0.1683295178
N  N99  1  0.43410000  0.76260000  0.80810000  1.0 -0.1683295178
N  N100  1  0.06590000  0.73740000  0.30810000  1.0 -0.1683295178
N  N101  1  0.06590000  0.26260000  0.80810000  1.0 -0.1683295178
N  N102  1  0.43410000  0.23740000  0.30810000  1.0 -0.1683295178
N  N103  1  0.56590000  0.23740000  0.19190000  1.0 -0.1683295178
N  N104  1  0.93410000  0.26260000  0.69190000  1.0 -0.1683295178
N  N105  1  0.90490000  0.70680000  0.18490000  1.0 -0.2974860651
N  N106  1  0.59510000  0.79320000  0.68490000  1.0 -0.2974860651
N  N107  1  0.40490000  0.79320000  0.81510000  1.0 -0.2974860651
N  N108  1  0.09510000  0.70680000  0.31510000  1.0 -0.2974860651
N  N109  1  0.09510000  0.29320000  0.81510000  1.0 -0.2974860651
N  N110  1  0.40490000  0.20680000  0.31510000  1.0 -0.2974860651
N  N111  1  0.59510000  0.20680000  0.18490000  1.0 -0.2974860651
N  N112  1  0.90490000  0.29320000  0.68490000  1.0 -0.2974860651
N  N113  1  0.78460000  0.77860000  0.28440000  1.0 -0.2881562667
N  N114  1  0.71540000  0.72140000  0.78440000  1.0 -0.2881562667
N  N115  1  0.28460000  0.72140000  0.71560000  1.0 -0.2881562667
N  N116  1  0.21540000  0.77860000  0.21560000  1.0 -0.2881562667
N  N117  1  0.21540000  0.22140000  0.71560000  1.0 -0.2881562667
N  N118  1  0.28460000  0.27860000  0.21560000  1.0 -0.2881562667
N  N119  1  0.71540000  0.27860000  0.28440000  1.0 -0.2881562667
N  N120  1  0.78460000  0.22140000  0.78440000  1.0 -0.2881562667
N  N121  1  0.81100000  0.75740000  0.30790000  1.0 -0.2197162206
N  N122  1  0.68900000  0.74260000  0.80790000  1.0 -0.2197162206
N  N123  1  0.31100000  0.74260000  0.69210000  1.0 -0.2197162206
N  N124  1  0.18900000  0.75740000  0.19210000  1.0 -0.2197162206
N  N125  1  0.18900000  0.24260000  0.69210000  1.0 -0.2197162206
N  N126  1  0.31100000  0.25740000  0.19210000  1.0 -0.2197162206
N  N127  1  0.68900000  0.25740000  0.30790000  1.0 -0.2197162206
N  N128  1  0.81100000  0.24260000  0.80790000  1.0 -0.2197162206
N  N129  1  0.74930000  0.82270000  0.38040000  1.0 -0.1565837306
N  N130  1  0.75070000  0.67730000  0.88040000  1.0 -0.1565837306
N  N131  1  0.24930000  0.67730000  0.61960000  1.0 -0.1565837306
N  N132  1  0.25070000  0.82270000  0.11960000  1.0 -0.1565837306
N  N133  1  0.25070000  0.17730000  0.61960000  1.0 -0.1565837306
N  N134  1  0.24930000  0.32270000  0.11960000  1.0 -0.1565837306
N  N135  1  0.75070000  0.32270000  0.38040000  1.0 -0.1565837306
N  N136  1  0.74930000  0.17730000  0.88040000  1.0 -0.1565837306
N  N137  1  0.76670000  0.82370000  0.34790000  1.0 -0.2685026857
N  N138  1  0.73330000  0.67630000  0.84790000  1.0 -0.2685026857
N  N139  1  0.26670000  0.67630000  0.65210000  1.0 -0.2685026857
N  N140  1  0.23330000  0.82370000  0.15210000  1.0 -0.2685026857
N  N141  1  0.23330000  0.17630000  0.65210000  1.0 -0.2685026857
N  N142  1  0.26670000  0.32370000  0.15210000  1.0 -0.2685026857
N  N143  1  0.73330000  0.32370000  0.34790000  1.0 -0.2685026857
N  N144  1  0.76670000  0.17630000  0.84790000  1.0 -0.2685026857
N  N145  1  0.49840000  0.94480000  0.34510000  1.0 -0.2881562667
N  N146  1  0.00160000  0.55520000  0.84510000  1.0 -0.2881562667
N  N147  1  0.99840000  0.55520000  0.65490000  1.0 -0.2881562667
N  N148  1  0.50160000  0.94480000  0.15490000  1.0 -0.2881562667
N  N149  1  0.50160000  0.05520000  0.65490000  1.0 -0.2881562667
N  N150  1  0.99840000  0.44480000  0.15490000  1.0 -0.2881562667
N  N151  1  0.00160000  0.44480000  0.34510000  1.0 -0.2881562667
N  N152  1  0.49840000  0.05520000  0.84510000  1.0 -0.2881562667
N  N153  1  0.50850000  0.92140000  0.31770000  1.0 -0.2197162206
N  N154  1  0.99150000  0.57860000  0.81770000  1.0 -0.2197162206
N  N155  1  0.00850000  0.57860000  0.68230000  1.0 -0.2197162206
N  N156  1  0.49150000  0.92140000  0.18230000  1.0 -0.2197162206
N  N157  1  0.49150000  0.07860000  0.68230000  1.0 -0.2197162206
N  N158  1  0.00850000  0.42140000  0.18230000  1.0 -0.2197162206
N  N159  1  0.99150000  0.42140000  0.31770000  1.0 -0.2197162206
N  N160  1  0.50850000  0.07860000  0.81770000  1.0 -0.2197162206
N  N161  1  0.59390000  0.75510000  0.13240000  1.0 -0.2974860651
N  N162  1  0.90610000  0.74490000  0.63240000  1.0 -0.2974860651
N  N163  1  0.09390000  0.74490000  0.86760000  1.0 -0.2974860651
N  N164  1  0.40610000  0.75510000  0.36760000  1.0 -0.2974860651
N  N165  1  0.40610000  0.24490000  0.86760000  1.0 -0.2974860651
N  N166  1  0.09390000  0.25510000  0.36760000  1.0 -0.2974860651
N  N167  1  0.90610000  0.25510000  0.13240000  1.0 -0.2974860651
N  N168  1  0.59390000  0.24490000  0.63240000  1.0 -0.2974860651
N  N169  1  0.54940000  0.75990000  0.15130000  1.0 -0.1879446259
N  N170  1  0.95060000  0.74010000  0.65130000  1.0 -0.1879446259
N  N171  1  0.04940000  0.74010000  0.84870000  1.0 -0.1879446259
N  N172  1  0.45060000  0.75990000  0.34870000  1.0 -0.1879446259
N  N173  1  0.45060000  0.24010000  0.84870000  1.0 -0.1879446259
N  N174  1  0.04940000  0.25990000  0.34870000  1.0 -0.1879446259
N  N175  1  0.95060000  0.25990000  0.15130000  1.0 -0.1879446259
N  N176  1  0.54940000  0.24010000  0.65130000  1.0 -0.1879446259
N  N177  1  0.91400000  0.90900000  0.41790000  1.0 -0.3495357441
N  N178  1  0.58600000  0.59100000  0.91790000  1.0 -0.3495357441
N  N179  1  0.41400000  0.59100000  0.58210000  1.0 -0.3495357441
N  N180  1  0.08600000  0.90900000  0.08210000  1.0 -0.3495357441
N  N181  1  0.08600000  0.09100000  0.58210000  1.0 -0.3495357441
N  N182  1  0.41400000  0.40900000  0.08210000  1.0 -0.3495357441
N  N183  1  0.58600000  0.40900000  0.41790000  1.0 -0.3495357441
N  N184  1  0.91400000  0.09100000  0.91790000  1.0 -0.3495357441
N  N185  1  0.92710000  0.87940000  0.43770000  1.0 -0.277979217
N  N186  1  0.57290000  0.62060000  0.93770000  1.0 -0.277979217
N  N187  1  0.42710000  0.62060000  0.56230000  1.0 -0.277979217
N  N188  1  0.07290000  0.87940000  0.06230000  1.0 -0.277979217
N  N189  1  0.07290000  0.12060000  0.56230000  1.0 -0.277979217
N  N190  1  0.42710000  0.37940000  0.06230000  1.0 -0.277979217
N  N191  1  0.57290000  0.37940000  0.43770000  1.0 -0.277979217
N  N192  1  0.92710000  0.12060000  0.93770000  1.0 -0.277979217
O  O1  1  0.70760000  0.62200000  0.30010000  1.0 -0.9498367333
O  O2  1  0.79240000  0.87800000  0.80010000  1.0 -0.9498367333
O  O3  1  0.20760000  0.87800000  0.69990000  1.0 -0.9498367333
O  O4  1  0.29240000  0.62200000  0.19990000  1.0 -0.9498367333
O  O5  1  0.29240000  0.37800000  0.69990000  1.0 -0.9498367333
O  O6  1  0.20760000  0.12200000  0.19990000  1.0 -0.9498367333
O  O7  1  0.79240000  0.12200000  0.30010000  1.0 -0.9498367333
O  O8  1  0.70760000  0.37800000  0.80010000  1.0 -0.9498367333
O  O9  1  0.69680000  0.55680000  0.33070000  1.0 -0.9791344284
O  O10  1  0.80320000  0.94320000  0.83070000  1.0 -0.9791344284
O  O11  1  0.19680000  0.94320000  0.66930000  1.0 -0.9791344284
O  O12  1  0.30320000  0.55680000  0.16930000  1.0 -0.9791344284
O  O13  1  0.30320000  0.44320000  0.66930000  1.0 -0.9791344284
O  O14  1  0.19680000  0.05680000  0.16930000  1.0 -0.9791344284
O  O15  1  0.80320000  0.05680000  0.33070000  1.0 -0.9791344284
O  O16  1  0.69680000  0.44320000  0.83070000  1.0 -0.9791344284
O  O17  1  0.79130000  0.60180000  0.33240000  1.0 -0.9397957184
O  O18  1  0.70870000  0.89820000  0.83240000  1.0 -0.9397957184
O  O19  1  0.29130000  0.89820000  0.66760000  1.0 -0.9397957184
O  O20  1  0.20870000  0.60180000  0.16760000  1.0 -0.9397957184
O  O21  1  0.20870000  0.39820000  0.66760000  1.0 -0.9397957184
O  O22  1  0.29130000  0.10180000  0.16760000  1.0 -0.9397957184
O  O23  1  0.70870000  0.10180000  0.33240000  1.0 -0.9397957184
O  O24  1  0.79130000  0.39820000  0.83240000  1.0 -0.9397957184
O  O25  1  0.78630000  0.52970000  0.33500000  1.0 -1.0267401817
O  O26  1  0.71370000  0.97030000  0.83500000  1.0 -1.0267401817
O  O27  1  0.28630000  0.97030000  0.66500000  1.0 -1.0267401817
O  O28  1  0.21370000  0.52970000  0.16500000  1.0 -1.0267401817
O  O29  1  0.21370000  0.47030000  0.66500000  1.0 -1.0267401817
O  O30  1  0.28630000  0.02970000  0.16500000  1.0 -1.0267401817
O  O31  1  0.71370000  0.02970000  0.33500000  1.0 -1.0267401817
O  O32  1  0.78630000  0.47030000  0.83500000  1.0 -1.0267401817
O  O33  1  0.85440000  0.52780000  0.38860000  1.0 -0.9498367333
O  O34  1  0.64560000  0.97220000  0.88860000  1.0 -0.9498367333
O  O35  1  0.35440000  0.97220000  0.61140000  1.0 -0.9498367333
O  O36  1  0.14560000  0.52780000  0.11140000  1.0 -0.9498367333
O  O37  1  0.14560000  0.47220000  0.61140000  1.0 -0.9498367333
O  O38  1  0.35440000  0.02780000  0.11140000  1.0 -0.9498367333
O  O39  1  0.64560000  0.02780000  0.38860000  1.0 -0.9498367333
O  O40  1  0.85440000  0.47220000  0.88860000  1.0 -0.9498367333
O  O41  1  0.75510000  0.48490000  0.38770000  1.0 -0.9906023549
O  O42  1  0.74490000  0.01510000  0.88770000  1.0 -0.9906023549
O  O43  1  0.25510000  0.01510000  0.61230000  1.0 -0.9906023549
O  O44  1  0.24490000  0.48490000  0.11230000  1.0 -0.9906023549
O  O45  1  0.24490000  0.51510000  0.61230000  1.0 -0.9906023549
O  O46  1  0.25510000  0.98490000  0.11230000  1.0 -0.9906023549
O  O47  1  0.74490000  0.98490000  0.38770000  1.0 -0.9906023549
O  O48  1  0.75510000  0.51510000  0.88770000  1.0 -0.9906023549
O  O49  1  0.67060000  0.52060000  0.38610000  1.0 -0.9697756125
O  O50  1  0.82940000  0.97940000  0.88610000  1.0 -0.9697756125
O  O51  1  0.17060000  0.97940000  0.61390000  1.0 -0.9697756125
O  O52  1  0.32940000  0.52060000  0.11390000  1.0 -0.9697756125
O  O53  1  0.32940000  0.47940000  0.61390000  1.0 -0.9697756125
O  O54  1  0.17060000  0.02060000  0.11390000  1.0 -0.9697756125
O  O55  1  0.82940000  0.02060000  0.38610000  1.0 -0.9697756125
O  O56  1  0.67060000  0.47940000  0.88610000  1.0 -0.9697756125
O  O57  1  0.76060000  0.55830000  0.39050000  1.0 -0.9498367333
O  O58  1  0.73940000  0.94170000  0.89050000  1.0 -0.9498367333
O  O59  1  0.26060000  0.94170000  0.60950000  1.0 -0.9498367333
O  O60  1  0.23940000  0.55830000  0.10950000  1.0 -0.9498367333
O  O61  1  0.23940000  0.44170000  0.60950000  1.0 -0.9498367333
O  O62  1  0.26060000  0.05830000  0.10950000  1.0 -0.9498367333
O  O63  1  0.73940000  0.05830000  0.39050000  1.0 -0.9498367333
O  O64  1  0.76060000  0.44170000  0.89050000  1.0 -0.9498367333
O  O65  1  0.85060000  0.59720000  0.38980000  1.0 -0.999589601
O  O66  1  0.64940000  0.90280000  0.88980000  1.0 -0.999589601
O  O67  1  0.35060000  0.90280000  0.61020000  1.0 -0.999589601
O  O68  1  0.14940000  0.59720000  0.11020000  1.0 -0.999589601
O  O69  1  0.14940000  0.40280000  0.61020000  1.0 -0.999589601
O  O70  1  0.35060000  0.09720000  0.11020000  1.0 -0.999589601
O  O71  1  0.64940000  0.09720000  0.38980000  1.0 -0.999589601
O  O72  1  0.85060000  0.40280000  0.88980000  1.0 -0.999589601
O  O73  1  0.79330000  0.66250000  0.36400000  1.0 -0.9791344284
O  O74  1  0.70670000  0.83750000  0.86400000  1.0 -0.9697756125
O  O75  1  0.29330000  0.83750000  0.63600000  1.0 -0.9791344284
O  O76  1  0.20670000  0.66250000  0.13600000  1.0 -0.9791344284
O  O77  1  0.20670000  0.33750000  0.63600000  1.0 -0.9791344284
O  O78  1  0.29330000  0.16250000  0.13600000  1.0 -0.9791344284
O  O79  1  0.70670000  0.16250000  0.36400000  1.0 -0.9791344284
O  O80  1  0.79330000  0.33750000  0.86400000  1.0 -0.9791344284
O  O81  1  0.70320000  0.62560000  0.36470000  1.0 -0.9397957184
O  O82  1  0.79680000  0.87440000  0.86470000  1.0 -0.9397957184
O  O83  1  0.20320000  0.87440000  0.63530000  1.0 -0.9397957184
O  O84  1  0.29680000  0.62560000  0.13530000  1.0 -0.9397957184
O  O85  1  0.29680000  0.37440000  0.63530000  1.0 -0.9397957184
O  O86  1  0.20320000  0.12560000  0.13530000  1.0 -0.9397957184
O  O87  1  0.79680000  0.12560000  0.36470000  1.0 -0.9397957184
O  O88  1  0.70320000  0.37440000  0.86470000  1.0 -0.9397957184
O  O89  1  0.61320000  0.58710000  0.36070000  1.0 -0.999589601
O  O90  1  0.88680000  0.91290000  0.86070000  1.0 -0.999589601
O  O91  1  0.11320000  0.91290000  0.63930000  1.0 -0.999589601
O  O92  1  0.38680000  0.58710000  0.13930000  1.0 -0.999589601
O  O93  1  0.38680000  0.41290000  0.63930000  1.0 -0.999589601
O  O94  1  0.11320000  0.08710000  0.13930000  1.0 -0.999589601
O  O95  1  0.88680000  0.08710000  0.36070000  1.0 -0.999589601
O  O96  1  0.61320000  0.41290000  0.86070000  1.0 -0.999589601
O  O97  1  0.62110000  0.64420000  0.32570000  1.0 -0.9906023549
O  O98  1  0.87890000  0.85580000  0.82570000  1.0 -0.9906023549
O  O99  1  0.12110000  0.85580000  0.67430000  1.0 -0.9906023549
O  O100  1  0.37890000  0.64420000  0.17430000  1.0 -0.9906023549
O  O101  1  0.37890000  0.35580000  0.67430000  1.0 -0.9906023549
O  O102  1  0.12110000  0.14420000  0.17430000  1.0 -0.9906023549
O  O103  1  0.87890000  0.14420000  0.32570000  1.0 -0.9906023549
O  O104  1  0.62110000  0.35580000  0.82570000  1.0 -0.9906023549
O  O105  1  0.71790000  0.68850000  0.32810000  1.0 -0.9397957184
O  O106  1  0.78210000  0.81150000  0.82810000  1.0 -0.9397957184
O  O107  1  0.21790000  0.81150000  0.67190000  1.0 -0.9397957184
O  O108  1  0.28210000  0.68850000  0.17190000  1.0 -0.9397957184
O  O109  1  0.28210000  0.31150000  0.67190000  1.0 -0.9397957184
O  O110  1  0.21790000  0.18850000  0.17190000  1.0 -0.9397957184
O  O111  1  0.78210000  0.18850000  0.32810000  1.0 -0.9397957184
O  O112  1  0.71790000  0.31150000  0.82810000  1.0 -0.9397957184
O  O113  1  0.71090000  0.75920000  0.33510000  1.0 -0.7806423637
O  O114  1  0.78910000  0.74080000  0.83510000  1.0 -0.7806423637
O  O115  1  0.21090000  0.74080000  0.66490000  1.0 -0.7806423637
O  O116  1  0.28910000  0.75920000  0.16490000  1.0 -0.7806423637
O  O117  1  0.28910000  0.24080000  0.66490000  1.0 -0.7806423637
O  O118  1  0.21090000  0.25920000  0.16490000  1.0 -0.7806423637
O  O119  1  0.78910000  0.25920000  0.33510000  1.0 -0.7806423637
O  O120  1  0.71090000  0.24080000  0.83510000  1.0 -0.7806423637
O  O121  1  0.62770000  0.71580000  0.33650000  1.0 -0.9077002516
O  O122  1  0.87230000  0.78420000  0.83650000  1.0 -0.9077002516
O  O123  1  0.12770000  0.78420000  0.66350000  1.0 -0.9077002516
O  O124  1  0.37230000  0.71580000  0.16350000  1.0 -0.9077002516
O  O125  1  0.37230000  0.28420000  0.66350000  1.0 -0.9077002516
O  O126  1  0.12770000  0.21580000  0.16350000  1.0 -0.9077002516
O  O127  1  0.87230000  0.21580000  0.33650000  1.0 -0.9077002516
O  O128  1  0.62770000  0.28420000  0.83650000  1.0 -0.9077002516
O  O129  1  0.56560000  0.64330000  0.38270000  1.0 -0.9697756125
O  O130  1  0.93440000  0.85670000  0.88270000  1.0 -0.9697756125
O  O131  1  0.06560000  0.85670000  0.61730000  1.0 -0.9697756125
O  O132  1  0.43440000  0.64330000  0.11730000  1.0 -0.9697756125
O  O133  1  0.43440000  0.35670000  0.61730000  1.0 -0.9697756125
O  O134  1  0.06560000  0.14330000  0.11730000  1.0 -0.9697756125
O  O135  1  0.93440000  0.14330000  0.38270000  1.0 -0.9697756125
O  O136  1  0.56560000  0.35670000  0.88270000  1.0 -0.9697756125
O  O137  1  0.65760000  0.67880000  0.38490000  1.0 -0.9397957184
O  O138  1  0.84240000  0.82120000  0.88490000  1.0 -0.9397957184
O  O139  1  0.15760000  0.82120000  0.61510000  1.0 -0.9397957184
O  O140  1  0.34240000  0.67880000  0.11510000  1.0 -0.9397957184
O  O141  1  0.34240000  0.32120000  0.61510000  1.0 -0.9397957184
O  O142  1  0.15760000  0.17880000  0.11510000  1.0 -0.9397957184
O  O143  1  0.84240000  0.17880000  0.38490000  1.0 -0.9397957184
O  O144  1  0.65760000  0.32120000  0.88490000  1.0 -0.9397957184
O  O145  1  0.74480000  0.71640000  0.38590000  1.0 -0.9297717649
O  O146  1  0.75520000  0.78360000  0.88590000  1.0 -0.9297717649
O  O147  1  0.24480000  0.78360000  0.61410000  1.0 -0.9297717649
O  O148  1  0.25520000  0.71640000  0.11410000  1.0 -0.9297717649
O  O149  1  0.25520000  0.28360000  0.61410000  1.0 -0.9297717649
O  O150  1  0.24480000  0.21640000  0.11410000  1.0 -0.9297717649
O  O151  1  0.75520000  0.21640000  0.38590000  1.0 -0.9297717649
O  O152  1  0.74480000  0.28360000  0.88590000  1.0 -0.9297717649
O  O153  1  0.73000000  0.65510000  0.41940000  1.0 -0.8195177274
O  O154  1  0.77000000  0.84490000  0.91940000  1.0 -0.8195177274
O  O155  1  0.23000000  0.84490000  0.58060000  1.0 -0.8195177274
O  O156  1  0.27000000  0.65510000  0.08060000  1.0 -0.8195177274
O  O157  1  0.27000000  0.34490000  0.58060000  1.0 -0.8195177274
O  O158  1  0.23000000  0.15510000  0.08060000  1.0 -0.8195177274
O  O159  1  0.77000000  0.15510000  0.41940000  1.0 -0.8195177274
O  O160  1  0.73000000  0.34490000  0.91940000  1.0 -0.8195177274
O  O161  1  0.64950000  0.62270000  0.41950000  1.0 -0.8361019524
O  O162  1  0.85050000  0.87730000  0.91950000  1.0 -0.8361019524
O  O163  1  0.14950000  0.87730000  0.58050000  1.0 -0.8361019524
O  O164  1  0.35050000  0.62270000  0.08050000  1.0 -0.8361019524
O  O165  1  0.35050000  0.37730000  0.58050000  1.0 -0.8361019524
O  O166  1  0.14950000  0.12270000  0.08050000  1.0 -0.8361019524
O  O167  1  0.85050000  0.12270000  0.41950000  1.0 -0.8361019524
O  O168  1  0.64950000  0.37730000  0.91950000  1.0 -0.8361019524
O  O169  1  0.60910000  0.56050000  0.42800000  1.0 -0.9597699891
O  O170  1  0.89090000  0.93950000  0.92800000  1.0 -0.9597699891
O  O171  1  0.10910000  0.93950000  0.57200000  1.0 -0.9597699891
O  O172  1  0.39090000  0.56050000  0.07200000  1.0 -0.9597699891
O  O173  1  0.39090000  0.43950000  0.57200000  1.0 -0.9597699891
O  O174  1  0.10910000  0.06050000  0.07200000  1.0 -0.9597699891
O  O175  1  0.89090000  0.06050000  0.42800000  1.0 -0.9597699891
O  O176  1  0.60910000  0.43950000  0.92800000  1.0 -0.9597699891
O  O177  1  0.82690000  0.65250000  0.43230000  1.0 -0.9906023549
O  O178  1  0.67310000  0.84750000  0.93230000  1.0 -0.9906023549
O  O179  1  0.32690000  0.84750000  0.56770000  1.0 -0.9906023549
O  O180  1  0.17310000  0.65250000  0.06770000  1.0 -0.9906023549
O  O181  1  0.17310000  0.34750000  0.56770000  1.0 -0.9906023549
O  O182  1  0.32690000  0.15250000  0.06770000  1.0 -0.9906023549
O  O183  1  0.67310000  0.15250000  0.43230000  1.0 -0.9906023549
O  O184  1  0.82690000  0.34750000  0.93230000  1.0 -0.9906023549
O  O185  1  0.78470000  0.59070000  0.44510000  1.0 -0.8195177274
O  O186  1  0.71530000  0.90930000  0.94510000  1.0 -0.8195177274
O  O187  1  0.28470000  0.90930000  0.55490000  1.0 -0.8195177274
O  O188  1  0.21530000  0.59070000  0.05490000  1.0 -0.8195177274
O  O189  1  0.21530000  0.40930000  0.55490000  1.0 -0.8195177274
O  O190  1  0.28470000  0.09070000  0.05490000  1.0 -0.8195177274
O  O191  1  0.71530000  0.09070000  0.44510000  1.0 -0.8195177274
O  O192  1  0.78470000  0.40930000  0.94510000  1.0 -0.8195177274
O  O193  1  0.70540000  0.55640000  0.44320000  1.0 -0.8269519659
O  O194  1  0.79460000  0.94360000  0.94320000  1.0 -0.8269519659
O  O195  1  0.20540000  0.94360000  0.55680000  1.0 -0.8269519659
O  O196  1  0.29460000  0.55640000  0.05680000  1.0 -0.8269519659
O  O197  1  0.29460000  0.44360000  0.55680000  1.0 -0.8269519659
O  O198  1  0.20540000  0.05640000  0.05680000  1.0 -0.8269519659
O  O199  1  0.79460000  0.05640000  0.44320000  1.0 -0.8269519659
O  O200  1  0.70540000  0.44360000  0.94320000  1.0 -0.8269519659
O  O201  1  0.60040000  0.48910000  0.42310000  1.0 -0.8195177274
O  O202  1  0.89960000  0.01090000  0.92310000  1.0 -0.8195177274
O  O203  1  0.10040000  0.01090000  0.57690000  1.0 -0.8195177274
O  O204  1  0.39960000  0.48910000  0.07690000  1.0 -0.8195177274
O  O205  1  0.39960000  0.51090000  0.57690000  1.0 -0.8195177274
O  O206  1  0.10040000  0.98910000  0.07690000  1.0 -0.8195177274
O  O207  1  0.89960000  0.98910000  0.42310000  1.0 -0.8195177274
O  O208  1  0.60040000  0.51090000  0.92310000  1.0 -0.8195177274
O  O209  1  0.69710000  0.48630000  0.44170000  1.0 -0.9197437263
O  O210  1  0.80290000  0.01370000  0.94170000  1.0 -0.9197437263
O  O211  1  0.19710000  0.01370000  0.55830000  1.0 -0.9197437263
O  O212  1  0.30290000  0.48630000  0.05830000  1.0 -0.9197437263
O  O213  1  0.30290000  0.51370000  0.55830000  1.0 -0.9197437263
O  O214  1  0.19710000  0.98630000  0.05830000  1.0 -0.9197437263
O  O215  1  0.80290000  0.98630000  0.44170000  1.0 -0.9197437263
O  O216  1  0.69710000  0.51370000  0.94170000  1.0 -0.9197437263
O  O217  1  0.78660000  0.52460000  0.44200000  1.0 -0.9197437263
O  O218  1  0.71340000  0.97540000  0.94200000  1.0 -0.9197437263
O  O219  1  0.28660000  0.97540000  0.55800000  1.0 -0.9197437263
O  O220  1  0.21340000  0.52460000  0.05800000  1.0 -0.9197437263
O  O221  1  0.21340000  0.47540000  0.55800000  1.0 -0.9197437263
O  O222  1  0.28660000  0.02460000  0.05800000  1.0 -0.9197437263
O  O223  1  0.71340000  0.02460000  0.44200000  1.0 -0.9197437263
O  O224  1  0.78660000  0.47540000  0.94200000  1.0 -0.9197437263
O  O225  1  0.87810000  0.56090000  0.44430000  1.0 -0.9297717649
O  O226  1  0.62190000  0.93910000  0.94430000  1.0 -0.9397957184
O  O227  1  0.37810000  0.93910000  0.55570000  1.0 -0.9397957184
O  O228  1  0.12190000  0.56090000  0.05570000  1.0 -0.9397957184
O  O229  1  0.12190000  0.43910000  0.55570000  1.0 -0.9397957184
O  O230  1  0.37810000  0.06090000  0.05570000  1.0 -0.9397957184
O  O231  1  0.62190000  0.06090000  0.44430000  1.0 -0.9397957184
O  O232  1  0.87810000  0.43910000  0.94430000  1.0 -0.9397957184
O  O233  1  0.83330000  0.47030000  0.42890000  1.0 -0.9697756125
O  O234  1  0.66666667  0.02970000  0.92890000  1.0 -0.9697756125
O  O235  1  0.33333333  0.02970000  0.57110000  1.0 -0.9697756125
O  O236  1  0.16670000  0.47030000  0.07110000  1.0 -0.9697756125
O  O237  1  0.16670000  0.52970000  0.57110000  1.0 -0.9697756125
O  O238  1  0.33333333  0.97030000  0.07110000  1.0 -0.9697756125
O  O239  1  0.66666667  0.97030000  0.42890000  1.0 -0.9697756125
O  O240  1  0.83330000  0.52970000  0.92890000  1.0 -0.9697756125
O  O241  1  0.77100000  0.46520000  0.48590000  1.0 -0.9197437263
O  O242  1  0.72900000  0.03480000  0.98590000  1.0 -0.9197437263
O  O243  1  0.27100000  0.03480000  0.51410000  1.0 -0.9197437263
O  O244  1  0.22900000  0.46520000  0.01410000  1.0 -0.9197437263
O  O245  1  0.22900000  0.53480000  0.51410000  1.0 -0.9197437263
O  O246  1  0.27100000  0.96520000  0.01410000  1.0 -0.9197437263
O  O247  1  0.72900000  0.96520000  0.48590000  1.0 -0.9197437263
O  O248  1  0.77100000  0.53480000  0.98590000  1.0 -0.9197437263
O  O249  1  0.86790000  0.50630000  0.48390000  1.0 -0.8994685254
O  O250  1  0.63210000  0.99370000  0.98390000  1.0 -0.8994685254
O  O251  1  0.36790000  0.99370000  0.51610000  1.0 -0.894797835
O  O252  1  0.13210000  0.50630000  0.01610000  1.0 -0.894797835
O  O253  1  0.13210000  0.49370000  0.51610000  1.0 -0.8994685254
O  O254  1  0.36790000  0.00630000  0.01610000  1.0 -0.8994685254
O  O255  1  0.63210000  0.00630000  0.48390000  1.0 -0.8994685254
O  O256  1  0.86790000  0.49370000  0.98390000  1.0 -0.8994685254
O  O257  1  0.85750000  0.61840000  0.48490000  1.0 -0.9397957184
O  O258  1  0.64250000  0.88160000  0.98490000  1.0 -0.9397957184
O  O259  1  0.35750000  0.88160000  0.51510000  1.0 -0.9397957184
O  O260  1  0.14250000  0.61840000  0.01510000  1.0 -0.9397957184
O  O261  1  0.14250000  0.38160000  0.51510000  1.0 -0.9397957184
O  O262  1  0.35750000  0.11840000  0.01510000  1.0 -0.9498367333
O  O263  1  0.64250000  0.11840000  0.48490000  1.0 -0.9498367333
O  O264  1  0.85750000  0.38160000  0.98490000  1.0 -0.9498367333
O  O265  1  0.63700000  0.52240000  0.48040000  1.0 -0.9498367333
O  O266  1  0.86300000  0.97760000  0.98040000  1.0 -0.9498367333
O  O267  1  0.13700000  0.97760000  0.51960000  1.0 -0.9498367333
O  O268  1  0.36300000  0.52240000  0.01960000  1.0 -0.9498367333
O  O269  1  0.36300000  0.47760000  0.51960000  1.0 -0.9498367333
O  O270  1  0.13700000  0.02240000  0.01960000  1.0 -0.9498367333
O  O271  1  0.86300000  0.02240000  0.48040000  1.0 -0.9498367333
O  O272  1  0.63700000  0.47760000  0.98040000  1.0 -0.9498367333
O  O273  1  0.55540000  0.61500000  0.44720000  1.0 -0.9697756125
O  O274  1  0.94460000  0.88500000  0.94720000  1.0 -0.9697756125
O  O275  1  0.05540000  0.88500000  0.55280000  1.0 -0.9697756125
O  O276  1  0.44460000  0.61500000  0.05280000  1.0 -0.9697756125
O  O277  1  0.44460000  0.38500000  0.55280000  1.0 -0.9697756125
O  O278  1  0.05540000  0.11500000  0.05280000  1.0 -0.9697756125
O  O279  1  0.94460000  0.11500000  0.44720000  1.0 -0.9697756125
O  O280  1  0.55540000  0.38500000  0.94720000  1.0 -0.9697756125
O  O281  1  0.77790000  0.70730000  0.44940000  1.0 -0.9498367333
O  O282  1  0.72210000  0.79270000  0.94940000  1.0 -0.9498367333
O  O283  1  0.27790000  0.79270000  0.55060000  1.0 -0.9498367333
O  O284  1  0.22210000  0.70730000  0.05060000  1.0 -0.9498367333
O  O285  1  0.22210000  0.29270000  0.55060000  1.0 -0.9498367333
O  O286  1  0.27790000  0.20730000  0.05060000  1.0 -0.9498367333
O  O287  1  0.72210000  0.20730000  0.44940000  1.0 -0.9498367333
O  O288  1  0.77790000  0.29270000  0.94940000  1.0 -0.9498367333
O  O289  1  0.65920000  0.75170000  0.39340000  1.0 -0.8639491978
O  O290  1  0.84080000  0.74830000  0.89340000  1.0 -0.8639491978
O  O291  1  0.15920000  0.74830000  0.60660000  1.0 -0.8639491978
O  O292  1  0.34080000  0.75170000  0.10660000  1.0 -0.8639491978
O  O293  1  0.34080000  0.24830000  0.60660000  1.0 -0.8639491978
O  O294  1  0.15920000  0.25170000  0.10660000  1.0 -0.8639491978
O  O295  1  0.84080000  0.25170000  0.39340000  1.0 -0.8639491978
O  O296  1  0.65920000  0.24830000  0.89340000  1.0 -0.8639491978
O  O297  1  0.56320000  0.71080000  0.38750000  1.0 -0.9077002516
O  O298  1  0.93680000  0.78920000  0.88750000  1.0 -0.9077002516
O  O299  1  0.06320000  0.78920000  0.61250000  1.0 -0.9077002516
O  O300  1  0.43680000  0.71080000  0.11250000  1.0 -0.9077002516
O  O301  1  0.43680000  0.28920000  0.61250000  1.0 -0.9077002516
O  O302  1  0.06320000  0.21080000  0.11250000  1.0 -0.9077002516
O  O303  1  0.93680000  0.21080000  0.38750000  1.0 -0.9077002516
O  O304  1  0.56320000  0.28920000  0.88750000  1.0 -0.9077002516
O  O305  1  0.48490000  0.74170000  0.41590000  1.0 -0.8269519659
O  O306  1  0.01510000  0.75830000  0.91590000  1.0 -0.8269519659
O  O307  1  0.98490000  0.75830000  0.58410000  1.0 -0.8269519659
O  O308  1  0.51510000  0.74170000  0.08410000  1.0 -0.8269519659
O  O309  1  0.51510000  0.25830000  0.58410000  1.0 -0.8269519659
O  O310  1  0.98490000  0.24170000  0.08410000  1.0 -0.8269519659
O  O311  1  0.01510000  0.24170000  0.41590000  1.0 -0.8269519659
O  O312  1  0.48490000  0.25830000  0.91590000  1.0 -0.8269519659
O  O313  1  0.57560000  0.77180000  0.42500000  1.0 -0.9397957184
O  O314  1  0.92440000  0.72820000  0.92500000  1.0 -0.9397957184
O  O315  1  0.07560000  0.72820000  0.57500000  1.0 -0.9397957184
O  O316  1  0.42440000  0.77180000  0.07500000  1.0 -0.9397957184
O  O317  1  0.42440000  0.22820000  0.57500000  1.0 -0.9397957184
O  O318  1  0.07560000  0.27180000  0.07500000  1.0 -0.9397957184
O  O319  1  0.92440000  0.27180000  0.42500000  1.0 -0.9397957184
O  O320  1  0.57560000  0.22820000  0.92500000  1.0 -0.9397957184
O  O321  1  0.70930000  0.75800000  0.44920000  1.0 -0.9697756125
O  O322  1  0.79070000  0.74200000  0.94920000  1.0 -0.9697756125
O  O323  1  0.20930000  0.74200000  0.55080000  1.0 -0.9697756125
O  O324  1  0.29070000  0.75800000  0.05080000  1.0 -0.9697756125
O  O325  1  0.29070000  0.24200000  0.55080000  1.0 -0.9697756125
O  O326  1  0.20930000  0.25800000  0.05080000  1.0 -0.9697756125
O  O327  1  0.79070000  0.25800000  0.44920000  1.0 -0.9697756125
O  O328  1  0.70930000  0.24200000  0.94920000  1.0 -0.9697756125
O  O329  1  0.61840000  0.71960000  0.44980000  1.0 -0.9197437263
O  O330  1  0.88160000  0.78040000  0.94980000  1.0 -0.9197437263
O  O331  1  0.11840000  0.78040000  0.55020000  1.0 -0.9197437263
O  O332  1  0.38160000  0.71960000  0.05020000  1.0 -0.9197437263
O  O333  1  0.38160000  0.28040000  0.55020000  1.0 -0.9197437263
O  O334  1  0.11840000  0.21960000  0.05020000  1.0 -0.9197437263
O  O335  1  0.88160000  0.21960000  0.44980000  1.0 -0.9197437263
O  O336  1  0.61840000  0.28040000  0.94980000  1.0 -0.9197437263
O  O337  1  0.52750000  0.68130000  0.44950000  1.0 -0.9397957184
O  O338  1  0.97250000  0.81870000  0.94950000  1.0 -0.9397957184
O  O339  1  0.02750000  0.81870000  0.55050000  1.0 -0.9397957184
O  O340  1  0.47250000  0.68130000  0.05050000  1.0 -0.9397957184
O  O341  1  0.47250000  0.31870000  0.55050000  1.0 -0.9397957184
O  O342  1  0.02750000  0.18130000  0.05050000  1.0 -0.9397957184
O  O343  1  0.97250000  0.18130000  0.44950000  1.0 -0.9397957184
O  O344  1  0.52750000  0.31870000  0.94950000  1.0 -0.9397957184
O  O345  1  0.61290000  0.66230000  0.48250000  1.0 -0.8195177274
O  O346  1  0.88710000  0.83770000  0.98250000  1.0 -0.8195177274
O  O347  1  0.11290000  0.83770000  0.51750000  1.0 -0.8195177274
O  O348  1  0.38710000  0.66230000  0.01750000  1.0 -0.8195177274
O  O349  1  0.38710000  0.33770000  0.51750000  1.0 -0.8195177274
O  O350  1  0.11290000  0.16230000  0.01750000  1.0 -0.8195177274
O  O351  1  0.88710000  0.16230000  0.48250000  1.0 -0.8195177274
O  O352  1  0.61290000  0.33770000  0.98250000  1.0 -0.8195177274
O  O353  1  0.69420000  0.69600000  0.48340000  1.0 -0.8140672328
O  O354  1  0.80580000  0.80400000  0.98340000  1.0 -0.8140672328
O  O355  1  0.19420000  0.80400000  0.51660000  1.0 -0.8140672328
O  O356  1  0.30580000  0.69600000  0.01660000  1.0 -0.8140672328
O  O357  1  0.30580000  0.30400000  0.51660000  1.0 -0.8140672328
O  O358  1  0.19420000  0.19600000  0.01660000  1.0 -0.8140672328
O  O359  1  0.80580000  0.19600000  0.48340000  1.0 -0.8140672328
O  O360  1  0.69420000  0.30400000  0.98340000  1.0 -0.8140672328
O  O361  1  0.77810000  0.70690000  0.51800000  1.0 -0.9498367333
O  O362  1  0.72190000  0.79310000  0.01800000  1.0 -0.9498367333
O  O363  1  0.27810000  0.79310000  0.48200000  1.0 -0.9498367333
O  O364  1  0.22190000  0.70690000  0.98200000  1.0 -0.9498367333
O  O365  1  0.22190000  0.29310000  0.48200000  1.0 -0.9597699891
O  O366  1  0.27810000  0.20690000  0.98200000  1.0 -0.9498367333
O  O367  1  0.72190000  0.20690000  0.51800000  1.0 -0.9498367333
O  O368  1  0.77810000  0.29310000  0.01800000  1.0 -0.9498367333
O  O369  1  0.55840000  0.61530000  0.51600000  1.0 -0.9197437263
O  O370  1  0.94160000  0.88470000  0.01600000  1.0 -0.9197437263
O  O371  1  0.05840000  0.88470000  0.48400000  1.0 -0.9197437263
O  O372  1  0.44160000  0.61530000  0.98400000  1.0 -0.9197437263
O  O373  1  0.44160000  0.38470000  0.48400000  1.0 -0.9197437263
O  O374  1  0.05840000  0.11530000  0.98400000  1.0 -0.9197437263
O  O375  1  0.94160000  0.11530000  0.51600000  1.0 -0.9197437263
O  O376  1  0.55840000  0.38470000  0.01600000  1.0 -0.9197437263
O  O377  1  0.52010000  0.57550000  0.56750000  1.0 -0.8790082889
O  O378  1  0.97990000  0.92450000  0.06750000  1.0 -0.8790082889
O  O379  1  0.02010000  0.92450000  0.43250000  1.0 -0.8790082889
O  O380  1  0.47990000  0.57550000  0.93250000  1.0 -0.8790082889
O  O381  1  0.47990000  0.42450000  0.43250000  1.0 -0.8790082889
O  O382  1  0.02010000  0.07550000  0.93250000  1.0 -0.8790082889
O  O383  1  0.97990000  0.07550000  0.56750000  1.0 -0.8790082889
O  O384  1  0.52010000  0.42450000  0.06750000  1.0 -0.8790082889
O  O385  1  0.64730000  0.62160000  0.54680000  1.0 -0.8269519659
O  O386  1  0.85270000  0.87840000  0.04680000  1.0 -0.8269519659
O  O387  1  0.14730000  0.87840000  0.45320000  1.0 -0.8269519659
O  O388  1  0.35270000  0.62160000  0.95320000  1.0 -0.8269519659
O  O389  1  0.35270000  0.37840000  0.45320000  1.0 -0.8269519659
O  O390  1  0.14730000  0.12160000  0.95320000  1.0 -0.8269519659
O  O391  1  0.85270000  0.12160000  0.54680000  1.0 -0.8269519659
O  O392  1  0.64730000  0.37840000  0.04680000  1.0 -0.8269519659
O  O393  1  0.72500000  0.65650000  0.54840000  1.0 -0.8195177274
O  O394  1  0.77500000  0.84350000  0.04840000  1.0 -0.8195177274
O  O395  1  0.22500000  0.84350000  0.45160000  1.0 -0.8195177274
O  O396  1  0.27500000  0.65650000  0.95160000  1.0 -0.8195177274
O  O397  1  0.27500000  0.34350000  0.45160000  1.0 -0.8195177274
O  O398  1  0.22500000  0.15650000  0.95160000  1.0 -0.8195177274
O  O399  1  0.77500000  0.15650000  0.54840000  1.0 -0.8195177274
O  O400  1  0.72500000  0.34350000  0.04840000  1.0 -0.8195177274
O  O401  1  0.84140000  0.71500000  0.57220000  1.0 -0.8361019524
O  O402  1  0.65860000  0.78500000  0.07220000  1.0 -0.8361019524
O  O403  1  0.34140000  0.78500000  0.42780000  1.0 -0.8361019524
O  O404  1  0.15860000  0.71500000  0.92780000  1.0 -0.8361019524
O  O405  1  0.15860000  0.28500000  0.42780000  1.0 -0.8361019524
O  O406  1  0.34140000  0.21500000  0.92780000  1.0 -0.8361019524
O  O407  1  0.65860000  0.21500000  0.57220000  1.0 -0.8361019524
O  O408  1  0.84140000  0.28500000  0.07220000  1.0 -0.8361019524
O  O409  1  0.82360000  0.65260000  0.53790000  1.0 -0.9297717649
O  O410  1  0.67640000  0.84740000  0.03790000  1.0 -0.9297717649
O  O411  1  0.32360000  0.84740000  0.46210000  1.0 -0.9297717649
O  O412  1  0.17640000  0.65260000  0.96210000  1.0 -0.9297717649
O  O413  1  0.17640000  0.34740000  0.46210000  1.0 -0.9297717649
O  O414  1  0.32360000  0.15260000  0.96210000  1.0 -0.9297717649
O  O415  1  0.67640000  0.15260000  0.53790000  1.0 -0.9297717649
O  O416  1  0.82360000  0.34740000  0.03790000  1.0 -0.9297717649
O  O417  1  0.60630000  0.56010000  0.53340000  1.0 -0.9791344284
O  O418  1  0.89370000  0.93990000  0.03340000  1.0 -0.9791344284
O  O419  1  0.10630000  0.93990000  0.46660000  1.0 -0.9697756125
O  O420  1  0.39370000  0.56010000  0.96660000  1.0 -0.9697756125
O  O421  1  0.39370000  0.43990000  0.46660000  1.0 -0.9791344284
O  O422  1  0.10630000  0.06010000  0.96660000  1.0 -0.9791344284
O  O423  1  0.89370000  0.06010000  0.53340000  1.0 -0.9791344284
O  O424  1  0.60630000  0.43990000  0.03340000  1.0 -0.9791344284
O  O425  1  0.70410000  0.55660000  0.52120000  1.0 -0.8269519659
O  O426  1  0.79590000  0.94340000  0.02120000  1.0 -0.8269519659
O  O427  1  0.20410000  0.94340000  0.47880000  1.0 -0.8269519659
O  O428  1  0.29590000  0.55660000  0.97880000  1.0 -0.8269519659
O  O429  1  0.29590000  0.44340000  0.47880000  1.0 -0.8269519659
O  O430  1  0.20410000  0.05660000  0.97880000  1.0 -0.8269519659
O  O431  1  0.79590000  0.05660000  0.52120000  1.0 -0.8269519659
O  O432  1  0.70410000  0.44340000  0.02120000  1.0 -0.8269519659
O  O433  1  0.78160000  0.59150000  0.52310000  1.0 -0.8269519659
O  O434  1  0.71840000  0.90850000  0.02310000  1.0 -0.8269519659
O  O435  1  0.28160000  0.90850000  0.47690000  1.0 -0.8269519659
O  O436  1  0.21840000  0.59150000  0.97690000  1.0 -0.8269519659
O  O437  1  0.21840000  0.40850000  0.47690000  1.0 -0.8269519659
O  O438  1  0.28160000  0.09150000  0.97690000  1.0 -0.8269519659
O  O439  1  0.71840000  0.09150000  0.52310000  1.0 -0.8269519659
O  O440  1  0.78160000  0.40850000  0.02310000  1.0 -0.8269519659
O  O441  1  0.87400000  0.56200000  0.52570000  1.0 -0.9297717649
O  O442  1  0.62600000  0.93800000  0.02570000  1.0 -0.9297717649
O  O443  1  0.37400000  0.93800000  0.47430000  1.0 -0.9297717649
O  O444  1  0.12600000  0.56200000  0.97430000  1.0 -0.9297717649
O  O445  1  0.12600000  0.43800000  0.47430000  1.0 -0.9297717649
O  O446  1  0.37400000  0.06200000  0.97430000  1.0 -0.9297717649
O  O447  1  0.62600000  0.06200000  0.52570000  1.0 -0.9297717649
O  O448  1  0.87400000  0.43800000  0.02570000  1.0 -0.9297717649
O  O449  1  0.78510000  0.52580000  0.52440000  1.0 -0.9297717649
O  O450  1  0.71490000  0.97420000  0.02440000  1.0 -0.9297717649
O  O451  1  0.28510000  0.97420000  0.47560000  1.0 -0.9297717649
O  O452  1  0.21490000  0.52580000  0.97560000  1.0 -0.9297717649
O  O453  1  0.21490000  0.47420000  0.47560000  1.0 -0.9297717649
O  O454  1  0.28510000  0.02580000  0.97560000  1.0 -0.9297717649
O  O455  1  0.71490000  0.02580000  0.52440000  1.0 -0.9297717649
O  O456  1  0.78510000  0.47420000  0.02440000  1.0 -0.9297717649
O  O457  1  0.69570000  0.48400000  0.52080000  1.0 -0.9597699891
O  O458  1  0.80430000  0.01600000  0.02080000  1.0 -0.9597699891
O  O459  1  0.19570000  0.01600000  0.47920000  1.0 -0.9597699891
O  O460  1  0.30430000  0.48400000  0.97920000  1.0 -0.9597699891
O  O461  1  0.30430000  0.51600000  0.47920000  1.0 -0.9597699891
O  O462  1  0.19570000  0.98400000  0.97920000  1.0 -0.9597699891
O  O463  1  0.80430000  0.98400000  0.52080000  1.0 -0.9597699891
O  O464  1  0.69570000  0.51600000  0.02080000  1.0 -0.9597699891
O  O465  1  0.83160000  0.47090000  0.54150000  1.0 -0.9197437263
O  O466  1  0.66840000  0.02910000  0.04150000  1.0 -0.9197437263
O  O467  1  0.33160000  0.02910000  0.45850000  1.0 -0.9197437263
O  O468  1  0.16840000  0.47090000  0.95850000  1.0 -0.9197437263
O  O469  1  0.16840000  0.52910000  0.45850000  1.0 -0.9197437263
O  O470  1  0.33160000  0.97090000  0.95850000  1.0 -0.9197437263
O  O471  1  0.66840000  0.97090000  0.54150000  1.0 -0.9197437263
O  O472  1  0.83160000  0.52910000  0.04150000  1.0 -0.9197437263
O  O473  1  0.85030000  0.52770000  0.57960000  1.0 -0.999589601
O  O474  1  0.64970000  0.97230000  0.07960000  1.0 -0.999589601
O  O475  1  0.35030000  0.97230000  0.42040000  1.0 -0.999589601
O  O476  1  0.14970000  0.52770000  0.92040000  1.0 -0.999589601
O  O477  1  0.14970000  0.47230000  0.42040000  1.0 -0.999589601
O  O478  1  0.35030000  0.02770000  0.92040000  1.0 -0.999589601
O  O479  1  0.64970000  0.02770000  0.57960000  1.0 -0.999589601
O  O480  1  0.85030000  0.47230000  0.07960000  1.0 -0.999589601
O  O481  1  0.74790000  0.48690000  0.57880000  1.0 -0.9197437263
O  O482  1  0.75210000  0.01310000  0.07880000  1.0 -0.9197437263
O  O483  1  0.24790000  0.01310000  0.42120000  1.0 -0.9197437263
O  O484  1  0.25210000  0.48690000  0.92120000  1.0 -0.9197437263
O  O485  1  0.25210000  0.51310000  0.42120000  1.0 -0.9197437263
O  O486  1  0.24790000  0.98690000  0.92120000  1.0 -0.9197437263
O  O487  1  0.75210000  0.98690000  0.57880000  1.0 -0.9197437263
O  O488  1  0.74790000  0.51310000  0.07880000  1.0 -0.9197437263
O  O489  1  0.66450000  0.52020000  0.57740000  1.0 -0.999589601
O  O490  1  0.83550000  0.97980000  0.07740000  1.0 -0.999589601
O  O491  1  0.16450000  0.97980000  0.42260000  1.0 -0.999589601
O  O492  1  0.33550000  0.52020000  0.92260000  1.0 -0.999589601
O  O493  1  0.33550000  0.47980000  0.42260000  1.0 -0.999589601
O  O494  1  0.16450000  0.02020000  0.92260000  1.0 -0.999589601
O  O495  1  0.83550000  0.02020000  0.57740000  1.0 -0.999589601
O  O496  1  0.66450000  0.47980000  0.07740000  1.0 -0.999589601
O  O497  1  0.75370000  0.55820000  0.57760000  1.0 -0.9297717649
O  O498  1  0.74630000  0.94180000  0.07760000  1.0 -0.9297717649
O  O499  1  0.25370000  0.94180000  0.42240000  1.0 -0.9297717649
O  O500  1  0.24630000  0.55820000  0.92240000  1.0 -0.9297717649
O  O501  1  0.24630000  0.44180000  0.42240000  1.0 -0.9297717649
O  O502  1  0.25370000  0.05820000  0.92240000  1.0 -0.9297717649
O  O503  1  0.74630000  0.05820000  0.57760000  1.0 -0.9297717649
O  O504  1  0.75370000  0.44180000  0.07760000  1.0 -0.9297717649
O  O505  1  0.84660000  0.59610000  0.57990000  1.0 -0.9297717649
O  O506  1  0.65340000  0.90390000  0.07990000  1.0 -0.9297717649
O  O507  1  0.34660000  0.90390000  0.42010000  1.0 -0.9297717649
O  O508  1  0.15340000  0.59610000  0.92010000  1.0 -0.9297717649
O  O509  1  0.15340000  0.40390000  0.42010000  1.0 -0.9297717649
O  O510  1  0.34660000  0.09610000  0.92010000  1.0 -0.9297717649
O  O511  1  0.65340000  0.09610000  0.57990000  1.0 -0.9297717649
O  O512  1  0.84660000  0.40390000  0.07990000  1.0 -0.9297717649
O  O513  1  0.78820000  0.66160000  0.60410000  1.0 -0.9498367333
O  O514  1  0.71180000  0.83840000  0.10410000  1.0 -0.9498367333
O  O515  1  0.28820000  0.83840000  0.39590000  1.0 -0.9498367333
O  O516  1  0.21180000  0.66160000  0.89590000  1.0 -0.9498367333
O  O517  1  0.21180000  0.33840000  0.39590000  1.0 -0.9498367333
O  O518  1  0.28820000  0.16160000  0.89590000  1.0 -0.9498367333
O  O519  1  0.71180000  0.16160000  0.60410000  1.0 -0.9498367333
O  O520  1  0.78820000  0.33840000  0.10410000  1.0 -0.9498367333
O  O521  1  0.69680000  0.62490000  0.60200000  1.0 -0.9297717649
O  O522  1  0.80320000  0.87510000  0.10200000  1.0 -0.9297717649
O  O523  1  0.19680000  0.87510000  0.39800000  1.0 -0.9297717649
O  O524  1  0.30320000  0.62490000  0.89800000  1.0 -0.9297717649
O  O525  1  0.30320000  0.37510000  0.39800000  1.0 -0.9297717649
O  O526  1  0.19680000  0.12490000  0.89800000  1.0 -0.9297717649
O  O527  1  0.80320000  0.12490000  0.60200000  1.0 -0.9297717649
O  O528  1  0.69680000  0.37510000  0.10200000  1.0 -0.9297717649
O  O529  1  0.61070000  0.58400000  0.60320000  1.0 -0.9697756125
O  O530  1  0.88930000  0.91600000  0.10320000  1.0 -0.9697756125
O  O531  1  0.11070000  0.91600000  0.39680000  1.0 -0.9697756125
O  O532  1  0.38930000  0.58400000  0.89680000  1.0 -0.9697756125
O  O533  1  0.38930000  0.41600000  0.39680000  1.0 -0.9697756125
O  O534  1  0.11070000  0.08400000  0.89680000  1.0 -0.9697756125
O  O535  1  0.88930000  0.08400000  0.60320000  1.0 -0.9697756125
O  O536  1  0.61070000  0.41600000  0.10320000  1.0 -0.9697756125
O  O537  1  0.56370000  0.64020000  0.57890000  1.0 -0.9498367333
O  O538  1  0.93630000  0.85980000  0.07890000  1.0 -0.9498367333
O  O539  1  0.06370000  0.85980000  0.42110000  1.0 -0.9498367333
O  O540  1  0.43630000  0.64020000  0.92110000  1.0 -0.9498367333
O  O541  1  0.43630000  0.35980000  0.42110000  1.0 -0.9498367333
O  O542  1  0.06370000  0.14020000  0.92110000  1.0 -0.9498367333
O  O543  1  0.93630000  0.14020000  0.57890000  1.0 -0.9498367333
O  O544  1  0.56370000  0.35980000  0.07890000  1.0 -0.9498367333
O  O545  1  0.65170000  0.67670000  0.58030000  1.0 -0.9397957184
O  O546  1  0.84830000  0.82330000  0.08030000  1.0 -0.9397957184
O  O547  1  0.15170000  0.82330000  0.41970000  1.0 -0.9397957184
O  O548  1  0.34830000  0.67670000  0.91970000  1.0 -0.9397957184
O  O549  1  0.34830000  0.32330000  0.41970000  1.0 -0.9397957184
O  O550  1  0.15170000  0.17670000  0.91970000  1.0 -0.9397957184
O  O551  1  0.84830000  0.17670000  0.58030000  1.0 -0.9397957184
O  O552  1  0.65170000  0.32330000  0.08030000  1.0 -0.9397957184
O  O553  1  0.74000000  0.71730000  0.58310000  1.0 -0.9397957184
O  O554  1  0.76000000  0.78270000  0.08310000  1.0 -0.9397957184
O  O555  1  0.24000000  0.78270000  0.41690000  1.0 -0.9397957184
O  O556  1  0.26000000  0.71730000  0.91690000  1.0 -0.9397957184
O  O557  1  0.26000000  0.28270000  0.41690000  1.0 -0.9397957184
O  O558  1  0.24000000  0.21730000  0.91690000  1.0 -0.9397957184
O  O559  1  0.76000000  0.21730000  0.58310000  1.0 -0.9397957184
O  O560  1  0.74000000  0.28270000  0.08310000  1.0 -0.9397957184
O  O561  1  0.70930000  0.75810000  0.51630000  1.0 -0.9697756125
O  O562  1  0.79070000  0.74190000  0.01630000  1.0 -0.9697756125
O  O563  1  0.20930000  0.74190000  0.48370000  1.0 -0.9697756125
O  O564  1  0.29070000  0.75810000  0.98370000  1.0 -0.9697756125
O  O565  1  0.29070000  0.24190000  0.48370000  1.0 -0.9697756125
O  O566  1  0.20930000  0.25810000  0.98370000  1.0 -0.9697756125
O  O567  1  0.79070000  0.25810000  0.51630000  1.0 -0.9697756125
O  O568  1  0.70930000  0.24190000  0.01630000  1.0 -0.9697756125
O  O569  1  0.61940000  0.71840000  0.51430000  1.0 -0.9397957184
O  O570  1  0.88060000  0.78160000  0.01430000  1.0 -0.9397957184
O  O571  1  0.11940000  0.78160000  0.48570000  1.0 -0.9397957184
O  O572  1  0.38060000  0.71840000  0.98570000  1.0 -0.9397957184
O  O573  1  0.38060000  0.28160000  0.48570000  1.0 -0.9397957184
O  O574  1  0.11940000  0.21840000  0.98570000  1.0 -0.9397957184
O  O575  1  0.88060000  0.21840000  0.51430000  1.0 -0.9397957184
O  O576  1  0.61940000  0.28160000  0.01430000  1.0 -0.9397957184
O  O577  1  0.52560000  0.68150000  0.51660000  1.0 -0.9697756125
O  O578  1  0.97440000  0.81850000  0.01660000  1.0 -0.9597699891
O  O579  1  0.02560000  0.81850000  0.48340000  1.0 -0.9697756125
O  O580  1  0.47440000  0.68150000  0.98340000  1.0 -0.9697756125
O  O581  1  0.47440000  0.31850000  0.48340000  1.0 -0.9697756125
O  O582  1  0.02560000  0.18150000  0.98340000  1.0 -0.9697756125
O  O583  1  0.97440000  0.18150000  0.51660000  1.0 -0.9597699891
O  O584  1  0.52560000  0.31850000  0.01660000  1.0 -0.9697756125
O  O585  1  0.53450000  0.74120000  0.48290000  1.0 -0.8733033868
O  O586  1  0.96550000  0.75880000  0.98290000  1.0 -0.8733033868
O  O587  1  0.03450000  0.75880000  0.51710000  1.0 -0.8733033868
O  O588  1  0.46550000  0.74120000  0.01710000  1.0 -0.8733033868
O  O589  1  0.46550000  0.25880000  0.51710000  1.0 -0.8733033868
O  O590  1  0.03450000  0.24120000  0.01710000  1.0 -0.8733033868
O  O591  1  0.96550000  0.24120000  0.48290000  1.0 -0.8733033868
O  O592  1  0.53450000  0.25880000  0.98290000  1.0 -0.8733033868
O  O593  1  0.63400000  0.78320000  0.48560000  1.0 -0.9397957184
O  O594  1  0.86600000  0.71680000  0.98560000  1.0 -0.9397957184
O  O595  1  0.13400000  0.71680000  0.51440000  1.0 -0.9397957184
O  O596  1  0.36600000  0.78320000  0.01440000  1.0 -0.9397957184
O  O597  1  0.36600000  0.21680000  0.51440000  1.0 -0.9397957184
O  O598  1  0.13400000  0.28320000  0.01440000  1.0 -0.9397957184
O  O599  1  0.86600000  0.28320000  0.48560000  1.0 -0.9397957184
O  O600  1  0.63400000  0.21680000  0.98560000  1.0 -0.9397957184
O  O601  1  0.57510000  0.77040000  0.54250000  1.0 -0.9597699891
O  O602  1  0.92490000  0.72960000  0.04250000  1.0 -0.9597699891
O  O603  1  0.07510000  0.72960000  0.45750000  1.0 -0.9597699891
O  O604  1  0.42490000  0.77040000  0.95750000  1.0 -0.9597699891
O  O605  1  0.42490000  0.22960000  0.45750000  1.0 -0.9597699891
O  O606  1  0.07510000  0.27040000  0.95750000  1.0 -0.9597699891
O  O607  1  0.92490000  0.27040000  0.54250000  1.0 -0.9597699891
O  O608  1  0.57510000  0.22960000  0.04250000  1.0 -0.9597699891
O  O609  1  0.55720000  0.71020000  0.57370000  1.0 -0.9077002516
O  O610  1  0.94280000  0.78980000  0.07370000  1.0 -0.9077002516
O  O611  1  0.05720000  0.78980000  0.42630000  1.0 -0.9077002516
O  O612  1  0.44280000  0.71020000  0.92630000  1.0 -0.9077002516
O  O613  1  0.44280000  0.28980000  0.42630000  1.0 -0.9077002516
O  O614  1  0.05720000  0.21020000  0.92630000  1.0 -0.9077002516
O  O615  1  0.94280000  0.21020000  0.57370000  1.0 -0.9077002516
O  O616  1  0.55720000  0.28980000  0.07370000  1.0 -0.9077002516
O  O617  1  0.65640000  0.74940000  0.57800000  1.0 -0.8994685254
O  O618  1  0.84360000  0.75060000  0.07800000  1.0 -0.9077002516
O  O619  1  0.15640000  0.75060000  0.42200000  1.0 -0.8994685254
O  O620  1  0.34360000  0.74940000  0.92200000  1.0 -0.8994685254
O  O621  1  0.34360000  0.25060000  0.42200000  1.0 -0.9077002516
O  O622  1  0.15640000  0.24940000  0.92200000  1.0 -0.8994685254
O  O623  1  0.84360000  0.24940000  0.57800000  1.0 -0.8994685254
O  O624  1  0.65640000  0.25060000  0.07800000  1.0 -0.9077002516
O  O625  1  0.61780000  0.71250000  0.63080000  1.0 -0.9597699891
O  O626  1  0.88220000  0.78750000  0.13080000  1.0 -0.9597699891
O  O627  1  0.11780000  0.78750000  0.36920000  1.0 -0.9597699891
O  O628  1  0.38220000  0.71250000  0.86920000  1.0 -0.9597699891
O  O629  1  0.38220000  0.28750000  0.36920000  1.0 -0.9597699891
O  O630  1  0.11780000  0.21250000  0.86920000  1.0 -0.9597699891
O  O631  1  0.88220000  0.21250000  0.63080000  1.0 -0.9597699891
O  O632  1  0.61780000  0.28750000  0.13080000  1.0 -0.9597699891
O  O633  1  0.61080000  0.64220000  0.63830000  1.0 -0.9597699891
O  O634  1  0.88920000  0.85780000  0.13830000  1.0 -0.9597699891
O  O635  1  0.11080000  0.85780000  0.36170000  1.0 -0.9597699891
O  O636  1  0.38920000  0.64220000  0.86170000  1.0 -0.9597699891
O  O637  1  0.38920000  0.35780000  0.36170000  1.0 -0.9597699891
O  O638  1  0.11080000  0.14220000  0.86170000  1.0 -0.9597699891
O  O639  1  0.88920000  0.14220000  0.63830000  1.0 -0.9597699891
O  O640  1  0.61080000  0.35780000  0.13830000  1.0 -0.9597699891
O  O641  1  0.71370000  0.68430000  0.64150000  1.0 -0.9597699891
O  O642  1  0.78630000  0.81570000  0.14150000  1.0 -0.9597699891
O  O643  1  0.21370000  0.81570000  0.35850000  1.0 -0.9597699891
O  O644  1  0.28630000  0.68430000  0.85850000  1.0 -0.9597699891
O  O645  1  0.28630000  0.31570000  0.35850000  1.0 -0.9597699891
O  O646  1  0.21370000  0.18430000  0.85850000  1.0 -0.9597699891
O  O647  1  0.78630000  0.18430000  0.64150000  1.0 -0.9597699891
O  O648  1  0.71370000  0.31570000  0.14150000  1.0 -0.9597699891
O  O649  1  0.69950000  0.62130000  0.66800000  1.0 -0.9791344284
O  O650  1  0.80050000  0.87870000  0.16800000  1.0 -0.9791344284
O  O651  1  0.19950000  0.87870000  0.33200000  1.0 -0.9791344284
O  O652  1  0.30050000  0.62130000  0.83200000  1.0 -0.9791344284
O  O653  1  0.30050000  0.37870000  0.33200000  1.0 -0.9791344284
O  O654  1  0.19950000  0.12130000  0.83200000  1.0 -0.9791344284
O  O655  1  0.80050000  0.12130000  0.66800000  1.0 -0.9791344284
O  O656  1  0.69950000  0.37870000  0.16800000  1.0 -0.9791344284
O  O657  1  0.68820000  0.55990000  0.63470000  1.0 -0.9906023549
O  O658  1  0.81180000  0.94010000  0.13470000  1.0 -0.9906023549
O  O659  1  0.18820000  0.94010000  0.36530000  1.0 -0.9906023549
O  O660  1  0.31180000  0.55990000  0.86530000  1.0 -0.9906023549
O  O661  1  0.31180000  0.44010000  0.36530000  1.0 -0.9906023549
O  O662  1  0.18820000  0.05990000  0.86530000  1.0 -0.9906023549
O  O663  1  0.81180000  0.05990000  0.63470000  1.0 -0.9906023549
O  O664  1  0.68820000  0.44010000  0.13470000  1.0 -0.9906023549
O  O665  1  0.78660000  0.59710000  0.63510000  1.0 -0.9397957184
O  O666  1  0.71340000  0.90290000  0.13510000  1.0 -0.9397957184
O  O667  1  0.28660000  0.90290000  0.36490000  1.0 -0.9397957184
O  O668  1  0.21340000  0.59710000  0.86490000  1.0 -0.9397957184
O  O669  1  0.21340000  0.40290000  0.36490000  1.0 -0.9397957184
O  O670  1  0.28660000  0.09710000  0.86490000  1.0 -0.9397957184
O  O671  1  0.71340000  0.09710000  0.63510000  1.0 -0.9397957184
O  O672  1  0.78660000  0.40290000  0.13510000  1.0 -0.9397957184
O  O673  1  0.77750000  0.52820000  0.63230000  1.0 -0.9791344284
O  O674  1  0.72250000  0.97180000  0.13230000  1.0 -0.9791344284
O  O675  1  0.27750000  0.97180000  0.36770000  1.0 -0.9791344284
O  O676  1  0.22250000  0.52820000  0.86770000  1.0 -0.9791344284
O  O677  1  0.22250000  0.47180000  0.36770000  1.0 -0.9791344284
O  O678  1  0.27750000  0.02820000  0.86770000  1.0 -0.9791344284
O  O679  1  0.72250000  0.02820000  0.63230000  1.0 -0.9791344284
O  O680  1  0.77750000  0.47180000  0.13230000  1.0 -0.9791344284
O  O681  1  0.68140000  0.61050000  0.48140000  1.0 -0.0773858423
O  O682  1  0.81860000  0.88950000  0.98140000  1.0 -0.0773858423
O  O683  1  0.18140000  0.88950000  0.51860000  1.0 -0.0773858423
O  O684  1  0.31860000  0.61050000  0.01860000  1.0 -0.0773858423
O  O685  1  0.31860000  0.38950000  0.51860000  1.0 -0.0773858423
O  O686  1  0.18140000  0.11050000  0.01860000  1.0 -0.0773858423
O  O687  1  0.81860000  0.11050000  0.48140000  1.0 -0.0773858423
O  O688  1  0.68140000  0.38950000  0.98140000  1.0 -0.0773858423
O  O689  1  0.72800000  0.62960000  0.48640000  1.0 -0.0704924422
O  O690  1  0.77200000  0.87040000  0.98640000  1.0 -0.0704924422
O  O691  1  0.22800000  0.87040000  0.51360000  1.0 -0.0704924422
O  O692  1  0.27200000  0.62960000  0.01360000  1.0 -0.0704924422
O  O693  1  0.27200000  0.37040000  0.51360000  1.0 -0.0704924422
O  O694  1  0.22800000  0.12960000  0.01360000  1.0 -0.0704924422
O  O695  1  0.77200000  0.12960000  0.48640000  1.0 -0.0704924422
O  O696  1  0.72800000  0.37040000  0.98640000  1.0 -0.0704924422
