# DDEC6 charges by PACMAN v1.1 (https://github.com/mtap-research/PACMAN-charge/)
data_RUSVOT_FSR_pacman
_symmetry_space_group_name_H-M   'P 1'
_cell_length_a   23.07450000
_cell_length_b   23.07450000
_cell_length_c   23.07450000
_cell_angle_alpha   36.82170000
_cell_angle_beta   36.82170000
_cell_angle_gamma   36.82170000
_symmetry_Int_Tables_number   1
_chemical_formula_structural   KCu3H12C24(NO5)3
_chemical_formula_sum   'K4 Cu12 H48 C96 N12 O60'
_cell_volume   3952.76546258
_cell_formula_units_Z   4
loop_
 _symmetry_equiv_pos_site_id
 _symmetry_equiv_pos_as_xyz
  1  'x, y, z'
loop_
 _atom_site_type_symbol
 _atom_site_label
 _atom_site_symmetry_multiplicity
 _atom_site_fract_x
 _atom_site_fract_y
 _atom_site_fract_z
 _atom_site_occupancy
 _atom_site_charge
K  K1  1  0.15813000  0.15813000  0.15813000  1.0 0.8186822002
K  K2  1  0.84187000  0.84187000  0.84187000  1.0 0.8186822002
K  K3  1  0.34187000  0.34187000  0.34187000  1.0 0.8186822002
K  K4  1  0.65813000  0.65813000  0.65813000  1.0 0.8186822002
Cu  Cu1  1  0.18961000  0.39559000  0.90049000  1.0 0.798303839
Cu  Cu2  1  0.90049000  0.18961000  0.39559000  1.0 0.798303839
Cu  Cu3  1  0.39559000  0.90049000  0.18961000  1.0 0.798303839
Cu  Cu4  1  0.81039000  0.60441000  0.09951000  1.0 0.798303839
Cu  Cu5  1  0.09951000  0.81039000  0.60441000  1.0 0.798303839
Cu  Cu6  1  0.60441000  0.09951000  0.81039000  1.0 0.798303839
Cu  Cu7  1  0.31039000  0.59951000  0.10441000  1.0 0.798303839
Cu  Cu8  1  0.59951000  0.10441000  0.31039000  1.0 0.798303839
Cu  Cu9  1  0.10441000  0.31039000  0.59951000  1.0 0.798303839
Cu  Cu10  1  0.68961000  0.40049000  0.89559000  1.0 0.798303839
Cu  Cu11  1  0.40049000  0.89559000  0.68961000  1.0 0.798303839
Cu  Cu12  1  0.89559000  0.68961000  0.40049000  1.0 0.798303839
H  H1  1  0.92535000  0.32287000  0.10305000  1.0 0.1185015777
H  H2  1  0.77692000  0.45568000  0.07353000  1.0 0.1185015777
H  H3  1  0.76370000  0.62567000  0.93535000  1.0 0.1185015777
H  H4  1  0.89892000  0.66708000  0.83189000  1.0 0.1276451264
H  H5  1  0.10305000  0.92535000  0.32287000  1.0 0.1185015777
H  H6  1  0.07353000  0.77692000  0.45568000  1.0 0.1185015777
H  H7  1  0.93535000  0.76370000  0.62567000  1.0 0.1185015777
H  H8  1  0.83189000  0.89892000  0.66708000  1.0 0.1276451264
H  H9  1  0.32287000  0.10305000  0.92535000  1.0 0.1185015777
H  H10  1  0.45568000  0.07353000  0.77692000  1.0 0.1185015777
H  H11  1  0.62567000  0.93535000  0.76370000  1.0 0.1185015777
H  H12  1  0.66708000  0.83189000  0.89892000  1.0 0.1276451264
H  H13  1  0.07465000  0.67713000  0.89695000  1.0 0.1185015777
H  H14  1  0.22308000  0.54432000  0.92647000  1.0 0.1185015777
H  H15  1  0.23630000  0.37433000  0.06465000  1.0 0.1185015777
H  H16  1  0.10108000  0.33292000  0.16811000  1.0 0.1276451264
H  H17  1  0.89695000  0.07465000  0.67713000  1.0 0.1185015777
H  H18  1  0.92647000  0.22308000  0.54432000  1.0 0.1185015777
H  H19  1  0.06465000  0.23630000  0.37433000  1.0 0.1185015777
H  H20  1  0.16811000  0.10108000  0.33292000  1.0 0.1276451264
H  H21  1  0.67713000  0.89695000  0.07465000  1.0 0.1185015777
H  H22  1  0.54432000  0.92647000  0.22308000  1.0 0.1185015777
H  H23  1  0.37433000  0.06465000  0.23630000  1.0 0.1185015777
H  H24  1  0.33292000  0.16811000  0.10108000  1.0 0.1276451264
H  H25  1  0.57465000  0.39695000  0.17713000  1.0 0.1185015777
H  H26  1  0.72308000  0.42647000  0.04432000  1.0 0.1185015777
H  H27  1  0.73630000  0.56465000  0.87433000  1.0 0.1185015777
H  H28  1  0.60108000  0.66811000  0.83292000  1.0 0.1276451264
H  H29  1  0.39695000  0.17713000  0.57465000  1.0 0.1185015777
H  H30  1  0.42647000  0.04432000  0.72308000  1.0 0.1185015777
H  H31  1  0.56465000  0.87433000  0.73630000  1.0 0.1185015777
H  H32  1  0.66811000  0.83292000  0.60108000  1.0 0.1276451264
H  H33  1  0.17713000  0.57465000  0.39695000  1.0 0.1185015777
H  H34  1  0.04432000  0.72308000  0.42647000  1.0 0.1185015777
H  H35  1  0.87433000  0.73630000  0.56465000  1.0 0.1185015777
H  H36  1  0.83292000  0.60108000  0.66811000  1.0 0.1276451264
H  H37  1  0.42535000  0.60305000  0.82287000  1.0 0.1185015777
H  H38  1  0.27692000  0.57353000  0.95568000  1.0 0.1185015777
H  H39  1  0.26370000  0.43535000  0.12567000  1.0 0.1185015777
H  H40  1  0.39892000  0.33189000  0.16708000  1.0 0.1276451264
H  H41  1  0.60305000  0.82287000  0.42535000  1.0 0.1185015777
H  H42  1  0.57353000  0.95568000  0.27692000  1.0 0.1185015777
H  H43  1  0.43535000  0.12567000  0.26370000  1.0 0.1185015777
H  H44  1  0.33189000  0.16708000  0.39892000  1.0 0.1276451264
H  H45  1  0.82287000  0.42535000  0.60305000  1.0 0.1185015777
H  H46  1  0.95568000  0.27692000  0.57353000  1.0 0.1185015777
H  H47  1  0.12567000  0.26370000  0.43535000  1.0 0.1185015777
H  H48  1  0.16708000  0.39892000  0.33189000  1.0 0.1276451264
C  C1  1  0.20195000  0.58865000  0.74645000  1.0 0.4902432178
C  C2  1  0.09567000  0.61357000  0.77867000  1.0 0.3835598766
C  C3  1  0.99264000  0.51874000  0.90564000  1.0 0.1276451264
C  C4  1  0.00443000  0.41153000  0.98753000  1.0 0.2372795506
C  C5  1  0.92067000  0.39187000  0.04847000  1.0 -0.2315770746
C  C6  1  0.83206000  0.47116000  0.03016000  1.0 -0.0671833926
C  C7  1  0.82297000  0.57307000  0.94907000  1.0 -0.1156541716
C  C8  1  0.90499000  0.59759000  0.88609000  1.0 -0.1745635878
C  C9  1  0.74645000  0.20195000  0.58865000  1.0 0.4902432178
C  C10  1  0.77867000  0.09567000  0.61357000  1.0 0.3835598766
C  C11  1  0.90564000  0.99264000  0.51874000  1.0 0.1276451264
C  C12  1  0.98753000  0.00443000  0.41153000  1.0 0.2372795506
C  C13  1  0.04847000  0.92067000  0.39187000  1.0 -0.2315770746
C  C14  1  0.03016000  0.83206000  0.47116000  1.0 -0.0671833926
C  C15  1  0.94907000  0.82297000  0.57307000  1.0 -0.1156541716
C  C16  1  0.88609000  0.90499000  0.59759000  1.0 -0.1745635878
C  C17  1  0.58865000  0.74645000  0.20195000  1.0 0.4902432178
C  C18  1  0.61357000  0.77867000  0.09567000  1.0 0.3835598766
C  C19  1  0.51874000  0.90564000  0.99264000  1.0 0.1276451264
C  C20  1  0.41153000  0.98753000  0.00443000  1.0 0.2372795506
C  C21  1  0.39187000  0.04847000  0.92067000  1.0 -0.2315770746
C  C22  1  0.47116000  0.03016000  0.83206000  1.0 -0.0671833926
C  C23  1  0.57307000  0.94907000  0.82297000  1.0 -0.1156541716
C  C24  1  0.59759000  0.88609000  0.90499000  1.0 -0.1745635878
C  C25  1  0.79805000  0.41135000  0.25355000  1.0 0.4902432178
C  C26  1  0.90433000  0.38643000  0.22133000  1.0 0.3835598766
C  C27  1  0.00736000  0.48126000  0.09436000  1.0 0.1276451264
C  C28  1  0.99557000  0.58847000  0.01247000  1.0 0.2372795506
C  C29  1  0.07933000  0.60813000  0.95153000  1.0 -0.2315770746
C  C30  1  0.16794000  0.52884000  0.96984000  1.0 -0.0671833926
C  C31  1  0.17703000  0.42693000  0.05093000  1.0 -0.1156541716
C  C32  1  0.09501000  0.40241000  0.11391000  1.0 -0.1745635878
C  C33  1  0.25355000  0.79805000  0.41135000  1.0 0.4902432178
C  C34  1  0.22133000  0.90433000  0.38643000  1.0 0.3835598766
C  C35  1  0.09436000  0.00736000  0.48126000  1.0 0.1276451264
C  C36  1  0.01247000  0.99557000  0.58847000  1.0 0.2372795506
C  C37  1  0.95153000  0.07933000  0.60813000  1.0 -0.2315770746
C  C38  1  0.96984000  0.16794000  0.52884000  1.0 -0.0671833926
C  C39  1  0.05093000  0.17703000  0.42693000  1.0 -0.1156541716
C  C40  1  0.11391000  0.09501000  0.40241000  1.0 -0.1745635878
C  C41  1  0.41135000  0.25355000  0.79805000  1.0 0.4902432178
C  C42  1  0.38643000  0.22133000  0.90433000  1.0 0.3835598766
C  C43  1  0.48126000  0.09436000  0.00736000  1.0 0.1276451264
C  C44  1  0.58847000  0.01247000  0.99557000  1.0 0.2372795506
C  C45  1  0.60813000  0.95153000  0.07933000  1.0 -0.2315770746
C  C46  1  0.52884000  0.96984000  0.16794000  1.0 -0.0671833926
C  C47  1  0.42693000  0.05093000  0.17703000  1.0 -0.1156541716
C  C48  1  0.40241000  0.11391000  0.09501000  1.0 -0.1745635878
C  C49  1  0.29805000  0.75355000  0.91135000  1.0 0.4902432178
C  C50  1  0.40433000  0.72133000  0.88643000  1.0 0.3835598766
C  C51  1  0.50736000  0.59436000  0.98126000  1.0 0.1276451264
C  C52  1  0.49557000  0.51247000  0.08847000  1.0 0.2372795506
C  C53  1  0.57933000  0.45153000  0.10813000  1.0 -0.2315770746
C  C54  1  0.66794000  0.46984000  0.02884000  1.0 -0.0671833926
C  C55  1  0.67703000  0.55093000  0.92693000  1.0 -0.1156541716
C  C56  1  0.59501000  0.61391000  0.90241000  1.0 -0.1745635878
C  C57  1  0.75355000  0.91135000  0.29805000  1.0 0.4902432178
C  C58  1  0.72133000  0.88643000  0.40433000  1.0 0.3835598766
C  C59  1  0.59436000  0.98126000  0.50736000  1.0 0.1276451264
C  C60  1  0.51247000  0.08847000  0.49557000  1.0 0.2372795506
C  C61  1  0.45153000  0.10813000  0.57933000  1.0 -0.2315770746
C  C62  1  0.46984000  0.02884000  0.66794000  1.0 -0.0671833926
C  C63  1  0.55093000  0.92693000  0.67703000  1.0 -0.1156541716
C  C64  1  0.61391000  0.90241000  0.59501000  1.0 -0.1745635878
C  C65  1  0.91135000  0.29805000  0.75355000  1.0 0.4902432178
C  C66  1  0.88643000  0.40433000  0.72133000  1.0 0.3835598766
C  C67  1  0.98126000  0.50736000  0.59436000  1.0 0.1276451264
C  C68  1  0.08847000  0.49557000  0.51247000  1.0 0.2372795506
C  C69  1  0.10813000  0.57933000  0.45153000  1.0 -0.2315770746
C  C70  1  0.02884000  0.66794000  0.46984000  1.0 -0.0671833926
C  C71  1  0.92693000  0.67703000  0.55093000  1.0 -0.1156541716
C  C72  1  0.90241000  0.59501000  0.61391000  1.0 -0.1745635878
C  C73  1  0.70195000  0.24645000  0.08865000  1.0 0.4902432178
C  C74  1  0.59567000  0.27867000  0.11357000  1.0 0.3835598766
C  C75  1  0.49264000  0.40564000  0.01874000  1.0 0.1276451264
C  C76  1  0.50443000  0.48753000  0.91153000  1.0 0.2372795506
C  C77  1  0.42067000  0.54847000  0.89187000  1.0 -0.2315770746
C  C78  1  0.33206000  0.53016000  0.97116000  1.0 -0.0671833926
C  C79  1  0.32297000  0.44907000  0.07307000  1.0 -0.1156541716
C  C80  1  0.40499000  0.38609000  0.09759000  1.0 -0.1745635878
C  C81  1  0.24645000  0.08865000  0.70195000  1.0 0.4902432178
C  C82  1  0.27867000  0.11357000  0.59567000  1.0 0.3835598766
C  C83  1  0.40564000  0.01874000  0.49264000  1.0 0.1276451264
C  C84  1  0.48753000  0.91153000  0.50443000  1.0 0.2372795506
C  C85  1  0.54847000  0.89187000  0.42067000  1.0 -0.2315770746
C  C86  1  0.53016000  0.97116000  0.33206000  1.0 -0.0671833926
C  C87  1  0.44907000  0.07307000  0.32297000  1.0 -0.1156541716
C  C88  1  0.38609000  0.09759000  0.40499000  1.0 -0.1745635878
C  C89  1  0.08865000  0.70195000  0.24645000  1.0 0.4902432178
C  C90  1  0.11357000  0.59567000  0.27867000  1.0 0.3835598766
C  C91  1  0.01874000  0.49264000  0.40564000  1.0 0.1276451264
C  C92  1  0.91153000  0.50443000  0.48753000  1.0 0.2372795506
C  C93  1  0.89187000  0.42067000  0.54847000  1.0 -0.2315770746
C  C94  1  0.97116000  0.33206000  0.53016000  1.0 -0.0671833926
C  C95  1  0.07307000  0.32297000  0.44907000  1.0 -0.1156541716
C  C96  1  0.09759000  0.40499000  0.38609000  1.0 -0.1745635878
N  N1  1  0.08071000  0.52821000  0.85211000  1.0 -0.4206311838
N  N2  1  0.85211000  0.08071000  0.52821000  1.0 -0.4206311838
N  N3  1  0.52821000  0.85211000  0.08071000  1.0 -0.4206311838
N  N4  1  0.91929000  0.47179000  0.14789000  1.0 -0.4206311838
N  N5  1  0.14789000  0.91929000  0.47179000  1.0 -0.4206311838
N  N6  1  0.47179000  0.14789000  0.91929000  1.0 -0.4206311838
N  N7  1  0.41929000  0.64789000  0.97179000  1.0 -0.4206311838
N  N8  1  0.64789000  0.97179000  0.41929000  1.0 -0.4206311838
N  N9  1  0.97179000  0.41929000  0.64789000  1.0 -0.4206311838
N  N10  1  0.58071000  0.35211000  0.02821000  1.0 -0.4206311838
N  N11  1  0.35211000  0.02821000  0.58071000  1.0 -0.4206311838
N  N12  1  0.02821000  0.58071000  0.35211000  1.0 -0.4206311838
O  O1  1  0.25908000  0.49058000  0.79228000  1.0 -0.4792635328
O  O2  1  0.22328000  0.66468000  0.67738000  1.0 -0.4792635328
O  O3  1  0.03530000  0.70990000  0.73440000  1.0 -0.5199282106
O  O4  1  0.09224000  0.33634000  0.00254000  1.0 -0.6274431682
O  O5  1  0.14570000  0.12570000  0.08070000  1.0 0.3220592259
O  O6  1  0.79228000  0.25908000  0.49058000  1.0 -0.4792635328
O  O7  1  0.67738000  0.22328000  0.66468000  1.0 -0.4792635328
O  O8  1  0.73440000  0.03530000  0.70990000  1.0 -0.5199282106
O  O9  1  0.00254000  0.09224000  0.33634000  1.0 -0.6274431682
O  O10  1  0.08070000  0.14570000  0.12570000  1.0 0.3220592259
O  O11  1  0.49058000  0.79228000  0.25908000  1.0 -0.4792635328
O  O12  1  0.66468000  0.67738000  0.22328000  1.0 -0.4792635328
O  O13  1  0.70990000  0.73440000  0.03530000  1.0 -0.5199282106
O  O14  1  0.33634000  0.00254000  0.09224000  1.0 -0.6274431682
O  O15  1  0.12570000  0.08070000  0.14570000  1.0 0.3220592259
O  O16  1  0.74092000  0.50942000  0.20772000  1.0 -0.4792635328
O  O17  1  0.77672000  0.33532000  0.32262000  1.0 -0.4792635328
O  O18  1  0.96470000  0.29010000  0.26560000  1.0 -0.5199282106
O  O19  1  0.90776000  0.66366000  0.99746000  1.0 -0.6274431682
O  O20  1  0.85430000  0.87430000  0.91930000  1.0 0.3220592259
O  O21  1  0.20772000  0.74092000  0.50942000  1.0 -0.4792635328
O  O22  1  0.32262000  0.77672000  0.33532000  1.0 -0.4792635328
O  O23  1  0.26560000  0.96470000  0.29010000  1.0 -0.5199282106
O  O24  1  0.99746000  0.90776000  0.66366000  1.0 -0.6274431682
O  O25  1  0.91930000  0.85430000  0.87430000  1.0 0.3220592259
O  O26  1  0.50942000  0.20772000  0.74092000  1.0 -0.4792635328
O  O27  1  0.33532000  0.32262000  0.77672000  1.0 -0.4792635328
O  O28  1  0.29010000  0.26560000  0.96470000  1.0 -0.5199282106
O  O29  1  0.66366000  0.99746000  0.90776000  1.0 -0.6274431682
O  O30  1  0.87430000  0.91930000  0.85430000  1.0 0.3220592259
O  O31  1  0.24092000  0.70772000  0.00942000  1.0 -0.4792635328
O  O32  1  0.27672000  0.82262000  0.83532000  1.0 -0.4792635328
O  O33  1  0.46470000  0.76560000  0.79010000  1.0 -0.5199282106
O  O34  1  0.40776000  0.49746000  0.16366000  1.0 -0.6274431682
O  O35  1  0.35430000  0.41930000  0.37430000  1.0 0.3220592259
O  O36  1  0.70772000  0.00942000  0.24092000  1.0 -0.4792635328
O  O37  1  0.82262000  0.83532000  0.27672000  1.0 -0.4792635328
O  O38  1  0.76560000  0.79010000  0.46470000  1.0 -0.5199282106
O  O39  1  0.49746000  0.16366000  0.40776000  1.0 -0.6274431682
O  O40  1  0.41930000  0.37430000  0.35430000  1.0 0.3220592259
O  O41  1  0.00942000  0.24092000  0.70772000  1.0 -0.4792635328
O  O42  1  0.83532000  0.27672000  0.82262000  1.0 -0.4792635328
O  O43  1  0.79010000  0.46470000  0.76560000  1.0 -0.5199282106
O  O44  1  0.16366000  0.40776000  0.49746000  1.0 -0.6274431682
O  O45  1  0.37430000  0.35430000  0.41930000  1.0 0.3220592259
O  O46  1  0.75908000  0.29228000  0.99058000  1.0 -0.4792635328
O  O47  1  0.72328000  0.17738000  0.16468000  1.0 -0.4792635328
O  O48  1  0.53530000  0.23440000  0.20990000  1.0 -0.5199282106
O  O49  1  0.59224000  0.50254000  0.83634000  1.0 -0.6274431682
O  O50  1  0.64570000  0.58070000  0.62570000  1.0 0.3220592259
O  O51  1  0.29228000  0.99058000  0.75908000  1.0 -0.4792635328
O  O52  1  0.17738000  0.16468000  0.72328000  1.0 -0.4792635328
O  O53  1  0.23440000  0.20990000  0.53530000  1.0 -0.5199282106
O  O54  1  0.50254000  0.83634000  0.59224000  1.0 -0.6274431682
O  O55  1  0.58070000  0.62570000  0.64570000  1.0 0.3220592259
O  O56  1  0.99058000  0.75908000  0.29228000  1.0 -0.4792635328
O  O57  1  0.16468000  0.72328000  0.17738000  1.0 -0.4792635328
O  O58  1  0.20990000  0.53530000  0.23440000  1.0 -0.5199282106
O  O59  1  0.83634000  0.59224000  0.50254000  1.0 -0.6274431682
O  O60  1  0.62570000  0.64570000  0.58070000  1.0 0.326536334
