# DDEC6 charges by PACMAN v1.1 (https://github.com/mtap-research/PACMAN-charge/)
data_RUTBIU_ASR_pacman
_symmetry_space_group_name_H-M   'P 1'
_cell_length_a   14.65390000
_cell_length_b   14.65390000
_cell_length_c   23.11100000
_cell_angle_alpha   81.14190000
_cell_angle_beta   98.85810000
_cell_angle_gamma   72.81080000
_symmetry_Int_Tables_number   1
_chemical_formula_structural   Zn9Mo24P2H24C48(NO16)4
_chemical_formula_sum   'Zn9 Mo24 P2 H24 C48 N4 O64'
_cell_volume   4578.75037091
_cell_formula_units_Z   1
loop_
 _symmetry_equiv_pos_site_id
 _symmetry_equiv_pos_as_xyz
  1  'x, y, z'
loop_
 _atom_site_type_symbol
 _atom_site_label
 _atom_site_symmetry_multiplicity
 _atom_site_fract_x
 _atom_site_fract_y
 _atom_site_fract_z
 _atom_site_occupancy
 _atom_site_charge
Zn  Zn1  1  0.93012000  0.32004000  0.66003000  1.0 1.0127056072
Zn  Zn2  1  0.32004000  0.93012000  0.33997000  1.0 1.0127056072
Zn  Zn3  1  0.06988000  0.67996000  0.33997000  1.0 1.0127056072
Zn  Zn4  1  0.67996000  0.06988000  0.66003000  1.0 1.0127056072
Zn  Zn5  1  0.90051000  0.09949000  0.44922000  1.0 1.0386719535
Zn  Zn6  1  0.56468000  0.43532000  0.44964000  1.0 1.0386719535
Zn  Zn7  1  0.09949000  0.90051000  0.55078000  1.0 1.0386719535
Zn  Zn8  1  0.43532000  0.56468000  0.55036000  1.0 1.0386719535
Zn  Zn9  1  0.50000000  0.50000000  0.00000000  1.0 0.6148010324
Mo  Mo1  1  0.68021000  0.46763000  0.59533000  1.0 1.6668551693
Mo  Mo2  1  0.78318000  0.47724000  0.51234000  1.0 1.8455906342
Mo  Mo3  1  0.78327000  0.35305000  0.39851000  1.0 2.0868948529
Mo  Mo4  1  0.88479000  0.96697000  0.59501000  1.0 1.6808388959
Mo  Mo5  1  0.72543000  0.01435000  0.51220000  1.0 1.8426699867
Mo  Mo6  1  0.46763000  0.68021000  0.40467000  1.0 1.6668551693
Mo  Mo7  1  0.47724000  0.78318000  0.48766000  1.0 1.8426699867
Mo  Mo8  1  0.35305000  0.78327000  0.60149000  1.0 2.0838469098
Mo  Mo9  1  0.96697000  0.88479000  0.40499000  1.0 1.6808388959
Mo  Mo10  1  0.01435000  0.72543000  0.48780000  1.0 1.8275179297
Mo  Mo11  1  0.31979000  0.53237000  0.40467000  1.0 1.6668551693
Mo  Mo12  1  0.21682000  0.52276000  0.48766000  1.0 1.8426699867
Mo  Mo13  1  0.21673000  0.64695000  0.60149000  1.0 2.0838469098
Mo  Mo14  1  0.11521000  0.03303000  0.40499000  1.0 1.6808388959
Mo  Mo15  1  0.27457000  0.98565000  0.48780000  1.0 1.8275179297
Mo  Mo16  1  0.53237000  0.31979000  0.59533000  1.0 1.6668551693
Mo  Mo17  1  0.52276000  0.21682000  0.51234000  1.0 1.8455906342
Mo  Mo18  1  0.64695000  0.21673000  0.39851000  1.0 2.0868948529
Mo  Mo19  1  0.03303000  0.11521000  0.59501000  1.0 1.6808388959
Mo  Mo20  1  0.98565000  0.27457000  0.51220000  1.0 1.8275179297
Mo  Mo21  1  0.73134000  0.26866000  0.70986000  1.0 2.1094728539
Mo  Mo22  1  0.91384000  0.08616000  0.70973000  1.0 2.1094728539
Mo  Mo23  1  0.26866000  0.73134000  0.29014000  1.0 2.1094728539
Mo  Mo24  1  0.08616000  0.91384000  0.29027000  1.0 2.1094728539
P  P1  1  0.76774000  0.23226000  0.55360000  1.0 1.4205384086
P  P2  1  0.23226000  0.76774000  0.44640000  1.0 1.4205384086
H  H1  1  0.24849000  0.33043000  0.94870000  1.0 0.0979019071
H  H2  1  0.29083000  0.60491000  0.78608000  1.0 0.0895811448
H  H3  1  0.00606000  0.53252000  0.79119000  1.0 0.0979019071
H  H4  1  0.11924000  0.57536000  0.85360000  1.0 0.0979019071
H  H5  1  0.33474000  0.34776000  0.83161000  1.0 0.0979019071
H  H6  1  0.22158000  0.30492000  0.76920000  1.0 0.0979019071
H  H7  1  0.33043000  0.24849000  0.05130000  1.0 0.0979019071
H  H8  1  0.60491000  0.29083000  0.21392000  1.0 0.0895811448
H  H9  1  0.53252000  0.00606000  0.20881000  1.0 0.0979019071
H  H10  1  0.57536000  0.11924000  0.14640000  1.0 0.0979019071
H  H11  1  0.34776000  0.33474000  0.16839000  1.0 0.0979019071
H  H12  1  0.30492000  0.22158000  0.23080000  1.0 0.0979019071
H  H13  1  0.75151000  0.66957000  0.05130000  1.0 0.0979019071
H  H14  1  0.70917000  0.39509000  0.21392000  1.0 0.0895811448
H  H15  1  0.99394000  0.46748000  0.20881000  1.0 0.0979019071
H  H16  1  0.88076000  0.42464000  0.14640000  1.0 0.0979019071
H  H17  1  0.66526000  0.65224000  0.16839000  1.0 0.0979019071
H  H18  1  0.77842000  0.69508000  0.23080000  1.0 0.0979019071
H  H19  1  0.66957000  0.75151000  0.94870000  1.0 0.0979019071
H  H20  1  0.39509000  0.70917000  0.78608000  1.0 0.0895811448
H  H21  1  0.46748000  0.99394000  0.79119000  1.0 0.0979019071
H  H22  1  0.42464000  0.88076000  0.85360000  1.0 0.0979019071
H  H23  1  0.65224000  0.66526000  0.83161000  1.0 0.0979019071
H  H24  1  0.69508000  0.77842000  0.76920000  1.0 0.0979019071
C  C1  1  0.29890000  0.34350000  0.97190000  1.0 -0.2215861102
C  C2  1  0.34280000  0.41500000  0.95370000  1.0 0.1431797872
C  C3  1  0.31390000  0.47850000  0.89630000  1.0 -0.0829751623
C  C4  1  0.35490000  0.55110000  0.87820000  1.0 0.1515911947
C  C5  1  0.33510000  0.60730000  0.81880000  1.0 -0.2345839982
C  C6  1  0.10260000  0.41440000  0.77400000  1.0 -0.0583469757
C  C7  1  0.07190000  0.49550000  0.79930000  1.0 -0.1253701431
C  C8  1  0.13980000  0.52120000  0.83670000  1.0 -0.1861449053
C  C9  1  0.23820000  0.46580000  0.84880000  1.0 0.0560168213
C  C10  1  0.26880000  0.38480000  0.82350000  1.0 -0.1809084584
C  C11  1  0.20110000  0.35910000  0.78610000  1.0 -0.1234921348
C  C12  1  0.03060000  0.38820000  0.73220000  1.0 0.464725336
C  C13  1  0.34350000  0.29890000  0.02810000  1.0 -0.2215861102
C  C14  1  0.41500000  0.34280000  0.04630000  1.0 0.1431797872
C  C15  1  0.47850000  0.31390000  0.10370000  1.0 -0.0829751623
C  C16  1  0.55110000  0.35490000  0.12180000  1.0 0.1515911947
C  C17  1  0.60730000  0.33510000  0.18120000  1.0 -0.2345839982
C  C18  1  0.41440000  0.10260000  0.22600000  1.0 -0.0583469757
C  C19  1  0.49550000  0.07190000  0.20070000  1.0 -0.1253701431
C  C20  1  0.52120000  0.13980000  0.16330000  1.0 -0.1861449053
C  C21  1  0.46580000  0.23820000  0.15120000  1.0 0.0560168213
C  C22  1  0.38480000  0.26880000  0.17650000  1.0 -0.1809084584
C  C23  1  0.35910000  0.20110000  0.21390000  1.0 -0.1234921348
C  C24  1  0.38820000  0.03060000  0.26780000  1.0 0.464725336
C  C25  1  0.70110000  0.65650000  0.02810000  1.0 -0.2215861102
C  C26  1  0.65720000  0.58500000  0.04630000  1.0 0.1431797872
C  C27  1  0.68610000  0.52150000  0.10370000  1.0 -0.0829751623
C  C28  1  0.64510000  0.44890000  0.12180000  1.0 0.1515911947
C  C29  1  0.66490000  0.39270000  0.18120000  1.0 -0.2345839982
C  C30  1  0.89740000  0.58560000  0.22600000  1.0 -0.0583469757
C  C31  1  0.92810000  0.50450000  0.20070000  1.0 -0.1253701431
C  C32  1  0.86020000  0.47880000  0.16330000  1.0 -0.1861449053
C  C33  1  0.76180000  0.53420000  0.15120000  1.0 0.0560168213
C  C34  1  0.73120000  0.61520000  0.17650000  1.0 -0.1809084584
C  C35  1  0.79890000  0.64090000  0.21390000  1.0 -0.1234921348
C  C36  1  0.96940000  0.61180000  0.26780000  1.0 0.464725336
C  C37  1  0.65650000  0.70110000  0.97190000  1.0 -0.2215861102
C  C38  1  0.58500000  0.65720000  0.95370000  1.0 0.1431797872
C  C39  1  0.52150000  0.68610000  0.89630000  1.0 -0.0829751623
C  C40  1  0.44890000  0.64510000  0.87820000  1.0 0.1515911947
C  C41  1  0.39270000  0.66490000  0.81880000  1.0 -0.2345839982
C  C42  1  0.58560000  0.89740000  0.77400000  1.0 -0.0583469757
C  C43  1  0.50450000  0.92810000  0.79930000  1.0 -0.1253701431
C  C44  1  0.47880000  0.86020000  0.83670000  1.0 -0.1861449053
C  C45  1  0.53420000  0.76180000  0.84880000  1.0 0.0560168213
C  C46  1  0.61520000  0.73120000  0.82350000  1.0 -0.1809084584
C  C47  1  0.64090000  0.79890000  0.78610000  1.0 -0.1234921348
C  C48  1  0.61180000  0.96940000  0.73220000  1.0 0.464725336
N  N1  1  0.43230000  0.56770000  0.91240000  1.0 -0.409320878
N  N2  1  0.56770000  0.43230000  0.08760000  1.0 -0.409320878
N  N3  1  0.41400000  0.41400000  0.00000000  1.0 -0.3948394825
N  N4  1  0.58600000  0.58600000  0.00000000  1.0 -0.3948394825
O  O1  1  0.05650000  0.31570000  0.71250000  1.0 -0.4436817636
O  O2  1  0.94240000  0.42900000  0.72120000  1.0 -0.4572499563
O  O3  1  0.90670000  0.97690000  0.68150000  1.0 -0.8835250308
O  O4  1  0.87060000  0.23100000  0.70120000  1.0 -1.0318859473
O  O5  1  0.71990000  0.39610000  0.68180000  1.0 -0.8705165555
O  O6  1  0.82240000  0.42300000  0.59890000  1.0 -0.9469372252
O  O7  1  0.92430000  0.41750000  0.51020000  1.0 -0.9469372252
O  O8  1  0.80890000  0.29970000  0.51360000  1.0 -0.9074703326
O  O9  1  0.64810000  0.47610000  0.50820000  1.0 -0.9469372252
O  O10  1  0.91410000  0.30830000  0.42610000  1.0 -0.8467575183
O  O11  1  0.75650000  0.46570000  0.42580000  1.0 -0.8603949418
O  O12  1  0.74670000  0.00910000  0.59840000  1.0 -0.923170047
O  O13  1  0.85660000  0.01940000  0.50800000  1.0 -0.9436373582
O  O14  1  0.31570000  0.05650000  0.28750000  1.0 -0.4436817636
O  O15  1  0.42900000  0.94240000  0.27880000  1.0 -0.4572499563
O  O16  1  0.97690000  0.90670000  0.31850000  1.0 -0.8835250308
O  O17  1  0.23100000  0.87060000  0.29880000  1.0 -1.0318859473
O  O18  1  0.39610000  0.71990000  0.31820000  1.0 -0.8705165555
O  O19  1  0.42300000  0.82240000  0.40110000  1.0 -0.9469372252
O  O20  1  0.41750000  0.92430000  0.48980000  1.0 -0.9469372252
O  O21  1  0.29970000  0.80890000  0.48640000  1.0 -0.9074703326
O  O22  1  0.47610000  0.64810000  0.49180000  1.0 -0.9469372252
O  O23  1  0.30830000  0.91410000  0.57390000  1.0 -0.8467575183
O  O24  1  0.46570000  0.75650000  0.57420000  1.0 -0.8603949418
O  O25  1  0.00910000  0.74670000  0.40160000  1.0 -0.923170047
O  O26  1  0.01940000  0.85660000  0.49200000  1.0 -0.9436373582
O  O27  1  0.94350000  0.68430000  0.28750000  1.0 -0.4436817636
O  O28  1  0.05760000  0.57100000  0.27880000  1.0 -0.4572499563
O  O29  1  0.09330000  0.02310000  0.31850000  1.0 -0.8835250308
O  O30  1  0.12940000  0.76900000  0.29880000  1.0 -1.0318859473
O  O31  1  0.28010000  0.60390000  0.31820000  1.0 -0.8705165555
O  O32  1  0.17760000  0.57700000  0.40110000  1.0 -0.9469372252
O  O33  1  0.07570000  0.58250000  0.48980000  1.0 -0.9469372252
O  O34  1  0.19110000  0.70030000  0.48640000  1.0 -0.9074703326
O  O35  1  0.35190000  0.52390000  0.49180000  1.0 -0.9469372252
O  O36  1  0.08590000  0.69170000  0.57390000  1.0 -0.8467575183
O  O37  1  0.24350000  0.53430000  0.57420000  1.0 -0.8603949418
O  O38  1  0.25330000  0.99090000  0.40160000  1.0 -0.923170047
O  O39  1  0.14340000  0.98060000  0.49200000  1.0 -0.9436373582
O  O40  1  0.68430000  0.94350000  0.71250000  1.0 -0.4436817636
O  O41  1  0.57100000  0.05760000  0.72120000  1.0 -0.4572499563
O  O42  1  0.02310000  0.09330000  0.68150000  1.0 -0.8835250308
O  O43  1  0.76900000  0.12940000  0.70120000  1.0 -1.0318859473
O  O44  1  0.60390000  0.28010000  0.68180000  1.0 -0.8705165555
O  O45  1  0.57700000  0.17760000  0.59890000  1.0 -0.9469372252
O  O46  1  0.58250000  0.07570000  0.51020000  1.0 -0.9469372252
O  O47  1  0.70030000  0.19110000  0.51360000  1.0 -0.9074703326
O  O48  1  0.52390000  0.35190000  0.50820000  1.0 -0.9469372252
O  O49  1  0.69170000  0.08590000  0.42610000  1.0 -0.8467575183
O  O50  1  0.53430000  0.24350000  0.42580000  1.0 -0.8603949418
O  O51  1  0.99090000  0.25330000  0.59840000  1.0 -0.923170047
O  O52  1  0.98060000  0.14340000  0.50800000  1.0 -0.9436373582
O  O53  1  0.85630000  0.14370000  0.59360000  1.0 -0.885635214
O  O54  1  0.70790000  0.29210000  0.59370000  1.0 -0.8835250308
O  O55  1  0.98140000  0.01860000  0.40440000  1.0 -0.9925151636
O  O56  1  0.78730000  0.21270000  0.40550000  1.0 -1.0318859473
O  O57  1  0.64660000  0.35340000  0.40430000  1.0 -1.0361406972
O  O58  1  0.45200000  0.54800000  0.40430000  1.0 -0.9790967275
O  O59  1  0.14370000  0.85630000  0.40640000  1.0 -0.885635214
O  O60  1  0.29210000  0.70790000  0.40630000  1.0 -0.8835250308
O  O61  1  0.01860000  0.98140000  0.59560000  1.0 -0.9925151636
O  O62  1  0.21270000  0.78730000  0.59450000  1.0 -1.0318859473
O  O63  1  0.35340000  0.64660000  0.59570000  1.0 -1.0318859473
O  O64  1  0.54800000  0.45200000  0.59570000  1.0 -0.9790967275
