# DDEC6 charges by PACMAN v1.1 (https://github.com/mtap-research/PACMAN-charge/)
data_RUTPAY_FSR_pacman
_symmetry_space_group_name_H-M   'P 1'
_cell_length_a   29.70650000
_cell_length_b   29.70650000
_cell_length_c   29.70650000
_cell_angle_alpha   63.09340000
_cell_angle_beta   63.09340000
_cell_angle_gamma   63.09340000
_symmetry_Int_Tables_number   1
_chemical_formula_structural   Zn4H63Pd3C84I6N9O13
_chemical_formula_sum   'Zn16 H252 Pd12 C336 I24 N36 O52'
_cell_volume   19809.10765102
_cell_formula_units_Z   4
loop_
 _symmetry_equiv_pos_site_id
 _symmetry_equiv_pos_as_xyz
  1  'x, y, z'
loop_
 _atom_site_type_symbol
 _atom_site_label
 _atom_site_symmetry_multiplicity
 _atom_site_fract_x
 _atom_site_fract_y
 _atom_site_fract_z
 _atom_site_occupancy
 _atom_site_charge
Zn  Zn1  1  0.05033000  0.05033000  0.05033000  1.0 0.9218792968
Zn  Zn2  1  0.55033000  0.55033000  0.55033000  1.0 0.9218792968
Zn  Zn3  1  0.15486000  0.05639000  0.04911000  1.0 0.9405804627
Zn  Zn4  1  0.04911000  0.15486000  0.05639000  1.0 0.9405804627
Zn  Zn5  1  0.05639000  0.04911000  0.15486000  1.0 0.9405804627
Zn  Zn6  1  0.65486000  0.54911000  0.55639000  1.0 0.9405804627
Zn  Zn7  1  0.54911000  0.55639000  0.65486000  1.0 0.9405804627
Zn  Zn8  1  0.55639000  0.65486000  0.54911000  1.0 0.9405804627
Zn  Zn9  1  0.44967000  0.44967000  0.44967000  1.0 0.9218792968
Zn  Zn10  1  0.94967000  0.94967000  0.94967000  1.0 0.9218792968
Zn  Zn11  1  0.34514000  0.45089000  0.44361000  1.0 0.9405804627
Zn  Zn12  1  0.45089000  0.44361000  0.34514000  1.0 0.9405804627
Zn  Zn13  1  0.44361000  0.34514000  0.45089000  1.0 0.9405804627
Zn  Zn14  1  0.84514000  0.94361000  0.95089000  1.0 0.9405804627
Zn  Zn15  1  0.95089000  0.84514000  0.94361000  1.0 0.9405804627
Zn  Zn16  1  0.94361000  0.95089000  0.84514000  1.0 0.9405804627
H  H1  1  0.12640000  0.94760000  0.95950000  1.0 0.1281715126
H  H2  1  0.95950000  0.12640000  0.94760000  1.0 0.1281715126
H  H3  1  0.94760000  0.95950000  0.12640000  1.0 0.1281715126
H  H4  1  0.62640000  0.45950000  0.44760000  1.0 0.1281715126
H  H5  1  0.45950000  0.44760000  0.62640000  1.0 0.1281715126
H  H6  1  0.44760000  0.62640000  0.45950000  1.0 0.1281715126
H  H7  1  0.17360000  0.90250000  0.89710000  1.0 0.1217023865
H  H8  1  0.89710000  0.17360000  0.90250000  1.0 0.1217023865
H  H9  1  0.90250000  0.89710000  0.17360000  1.0 0.1217023865
H  H10  1  0.67360000  0.39710000  0.40250000  1.0 0.1217023865
H  H11  1  0.39710000  0.40250000  0.67360000  1.0 0.1217023865
H  H12  1  0.40250000  0.67360000  0.39710000  1.0 0.1217023865
H  H13  1  0.30550000  0.91660000  0.88340000  1.0 0.1217023865
H  H14  1  0.88340000  0.30550000  0.91660000  1.0 0.1217023865
H  H15  1  0.91660000  0.88340000  0.30550000  1.0 0.1217023865
H  H16  1  0.80550000  0.38340000  0.41660000  1.0 0.1217023865
H  H17  1  0.38340000  0.41660000  0.80550000  1.0 0.1217023865
H  H18  1  0.41660000  0.80550000  0.38340000  1.0 0.1217023865
H  H19  1  0.25810000  0.96090000  0.94620000  1.0 0.1281715126
H  H20  1  0.94620000  0.25810000  0.96090000  1.0 0.1281715126
H  H21  1  0.96090000  0.94620000  0.25810000  1.0 0.1281715126
H  H22  1  0.75810000  0.44620000  0.46090000  1.0 0.1281715126
H  H23  1  0.44620000  0.46090000  0.75810000  1.0 0.1281715126
H  H24  1  0.46090000  0.75810000  0.44620000  1.0 0.1281715126
H  H25  1  0.36860000  0.76020000  0.84620000  1.0 0.1281715126
H  H26  1  0.84620000  0.36860000  0.76020000  1.0 0.1281715126
H  H27  1  0.76020000  0.84620000  0.36860000  1.0 0.1281715126
H  H28  1  0.86860000  0.34620000  0.26020000  1.0 0.1281715126
H  H29  1  0.34620000  0.26020000  0.86860000  1.0 0.1281715126
H  H30  1  0.26020000  0.86860000  0.34620000  1.0 0.1281715126
H  H31  1  0.32130000  0.82060000  0.89370000  1.0 0.1106721136
H  H32  1  0.89370000  0.32130000  0.82060000  1.0 0.1106721136
H  H33  1  0.82060000  0.89370000  0.32130000  1.0 0.1106721136
H  H34  1  0.82130000  0.39370000  0.32060000  1.0 0.1106721136
H  H35  1  0.39370000  0.32060000  0.82130000  1.0 0.1106721136
H  H36  1  0.32060000  0.82130000  0.39370000  1.0 0.1106721136
H  H37  1  0.21480000  0.99150000  0.79570000  1.0 0.1477680321
H  H38  1  0.79570000  0.21480000  0.99150000  1.0 0.1477680321
H  H39  1  0.99150000  0.79570000  0.21480000  1.0 0.1477680321
H  H40  1  0.71480000  0.29570000  0.49150000  1.0 0.1477680321
H  H41  1  0.29570000  0.49150000  0.71480000  1.0 0.1477680321
H  H42  1  0.49150000  0.71480000  0.29570000  1.0 0.1477680321
H  H43  1  0.19260000  0.00720000  0.75000000  1.0 0.1281715126
H  H44  1  0.75000000  0.19260000  0.00720000  1.0 0.1281715126
H  H45  1  0.00720000  0.75000000  0.19260000  1.0 0.1281715126
H  H46  1  0.69260000  0.25000000  0.50720000  1.0 0.1281715126
H  H47  1  0.25000000  0.50720000  0.69260000  1.0 0.1281715126
H  H48  1  0.50720000  0.69260000  0.25000000  1.0 0.1281715126
H  H49  1  0.16670000  0.97440000  0.80780000  1.0 0.1385112722
H  H50  1  0.80780000  0.16670000  0.97440000  1.0 0.1385112722
H  H51  1  0.97440000  0.80780000  0.16670000  1.0 0.1385112722
H  H52  1  0.66666667  0.30780000  0.47440000  1.0 0.1385112722
H  H53  1  0.30780000  0.47440000  0.66666667  1.0 0.1385112722
H  H54  1  0.47440000  0.66666667  0.30780000  1.0 0.1385112722
H  H55  1  0.33920000  0.84420000  0.66080000  1.0 0.1385112722
H  H56  1  0.66080000  0.33920000  0.84420000  1.0 0.1385112722
H  H57  1  0.84420000  0.66080000  0.33920000  1.0 0.1385112722
H  H58  1  0.83920000  0.16080000  0.34420000  1.0 0.1385112722
H  H59  1  0.16080000  0.34420000  0.83920000  1.0 0.1385112722
H  H60  1  0.34420000  0.83920000  0.16080000  1.0 0.1385112722
H  H61  1  0.29390000  0.81780000  0.69440000  1.0 0.1477680321
H  H62  1  0.69440000  0.29390000  0.81780000  1.0 0.1477680321
H  H63  1  0.81780000  0.69440000  0.29390000  1.0 0.1477680321
H  H64  1  0.79390000  0.19440000  0.31780000  1.0 0.1477680321
H  H65  1  0.19440000  0.31780000  0.79390000  1.0 0.1477680321
H  H66  1  0.31780000  0.79390000  0.19440000  1.0 0.1477680321
H  H67  1  0.28280000  0.87480000  0.65330000  1.0 0.1217023865
H  H68  1  0.65330000  0.28280000  0.87480000  1.0 0.1217023865
H  H69  1  0.87480000  0.65330000  0.28280000  1.0 0.1217023865
H  H70  1  0.78280000  0.15330000  0.37480000  1.0 0.1217023865
H  H71  1  0.15330000  0.37480000  0.78280000  1.0 0.1217023865
H  H72  1  0.37480000  0.78280000  0.15330000  1.0 0.1217023865
H  H73  1  0.42770000  0.64780000  0.74890000  1.0 0.1217023865
H  H74  1  0.74890000  0.42770000  0.64780000  1.0 0.1217023865
H  H75  1  0.64780000  0.74890000  0.42770000  1.0 0.1217023865
H  H76  1  0.92770000  0.24890000  0.14780000  1.0 0.1217023865
H  H77  1  0.24890000  0.14780000  0.92770000  1.0 0.1217023865
H  H78  1  0.14780000  0.92770000  0.24890000  1.0 0.1217023865
H  H79  1  0.41000000  0.82180000  0.68950000  1.0 0.1217023865
H  H80  1  0.68950000  0.41000000  0.82180000  1.0 0.1217023865
H  H81  1  0.82180000  0.68950000  0.41000000  1.0 0.1217023865
H  H82  1  0.91000000  0.18950000  0.32180000  1.0 0.1217023865
H  H83  1  0.18950000  0.32180000  0.91000000  1.0 0.1217023865
H  H84  1  0.32180000  0.91000000  0.18950000  1.0 0.1217023865
H  H85  1  0.46740000  0.77140000  0.62940000  1.0 0.1281715126
H  H86  1  0.62940000  0.46740000  0.77140000  1.0 0.1281715126
H  H87  1  0.77140000  0.62940000  0.46740000  1.0 0.1281715126
H  H88  1  0.96740000  0.12940000  0.27140000  1.0 0.1281715126
H  H89  1  0.12940000  0.27140000  0.96740000  1.0 0.1281715126
H  H90  1  0.27140000  0.96740000  0.12940000  1.0 0.1281715126
H  H91  1  0.36410000  0.69900000  0.80210000  1.0 0.1217023865
H  H92  1  0.80210000  0.36410000  0.69900000  1.0 0.1217023865
H  H93  1  0.69900000  0.80210000  0.36410000  1.0 0.1217023865
H  H94  1  0.86410000  0.30210000  0.19900000  1.0 0.1217023865
H  H95  1  0.30210000  0.19900000  0.86410000  1.0 0.1217023865
H  H96  1  0.19900000  0.86410000  0.30210000  1.0 0.1217023865
H  H97  1  0.19580000  0.95130000  0.58190000  1.0 0.1020805201
H  H98  1  0.58190000  0.19580000  0.95130000  1.0 0.1020805201
H  H99  1  0.95130000  0.58190000  0.19580000  1.0 0.1020805201
H  H100  1  0.69580000  0.08190000  0.45130000  1.0 0.1020805201
H  H101  1  0.08190000  0.45130000  0.69580000  1.0 0.1106721136
H  H102  1  0.45130000  0.69580000  0.08190000  1.0 0.1020805201
H  H103  1  0.16150000  0.00700000  0.51190000  1.0 0.1385112722
H  H104  1  0.51190000  0.16150000  0.00700000  1.0 0.1385112722
H  H105  1  0.00700000  0.51190000  0.16150000  1.0 0.1385112722
H  H106  1  0.66150000  0.01190000  0.50700000  1.0 0.1385112722
H  H107  1  0.01190000  0.50700000  0.66150000  1.0 0.1385112722
H  H108  1  0.50700000  0.66150000  0.01190000  1.0 0.1385112722
H  H109  1  0.12560000  0.09790000  0.49830000  1.0 0.1106721136
H  H110  1  0.49830000  0.12560000  0.09790000  1.0 0.1106721136
H  H111  1  0.09790000  0.49830000  0.12560000  1.0 0.1106721136
H  H112  1  0.62560000  0.99830000  0.59790000  1.0 0.1106721136
H  H113  1  0.99830000  0.59790000  0.62560000  1.0 0.1106721136
H  H114  1  0.59790000  0.62560000  0.99830000  1.0 0.1106721136
H  H115  1  0.12400000  0.13300000  0.55480000  1.0 0.1281715126
H  H116  1  0.55480000  0.12400000  0.13300000  1.0 0.1281715126
H  H117  1  0.13300000  0.55480000  0.12400000  1.0 0.1281715126
H  H118  1  0.62400000  0.05480000  0.63300000  1.0 0.1281715126
H  H119  1  0.05480000  0.63300000  0.62400000  1.0 0.1281715126
H  H120  1  0.63300000  0.62400000  0.05480000  1.0 0.1281715126
H  H121  1  0.15830000  0.07730000  0.62480000  1.0 0.1020805201
H  H122  1  0.62480000  0.15830000  0.07730000  1.0 0.0945936569
H  H123  1  0.07730000  0.62480000  0.15830000  1.0 0.1020805201
H  H124  1  0.65830000  0.12480000  0.57730000  1.0 0.1020805201
H  H125  1  0.12480000  0.57730000  0.65830000  1.0 0.1020805201
H  H126  1  0.57730000  0.65830000  0.12480000  1.0 0.0945936569
H  H127  1  0.37360000  0.54050000  0.55240000  1.0 0.1281715126
H  H128  1  0.54050000  0.55240000  0.37360000  1.0 0.1281715126
H  H129  1  0.55240000  0.37360000  0.54050000  1.0 0.1281715126
H  H130  1  0.87360000  0.05240000  0.04050000  1.0 0.1281715126
H  H131  1  0.04050000  0.87360000  0.05240000  1.0 0.1281715126
H  H132  1  0.05240000  0.04050000  0.87360000  1.0 0.1281715126
H  H133  1  0.32640000  0.60290000  0.59750000  1.0 0.1217023865
H  H134  1  0.60290000  0.59750000  0.32640000  1.0 0.1217023865
H  H135  1  0.59750000  0.32640000  0.60290000  1.0 0.1217023865
H  H136  1  0.82640000  0.09750000  0.10290000  1.0 0.1217023865
H  H137  1  0.10290000  0.82640000  0.09750000  1.0 0.1217023865
H  H138  1  0.09750000  0.10290000  0.82640000  1.0 0.1217023865
H  H139  1  0.19450000  0.61660000  0.58340000  1.0 0.1217023865
H  H140  1  0.61660000  0.58340000  0.19450000  1.0 0.1217023865
H  H141  1  0.58340000  0.19450000  0.61660000  1.0 0.1217023865
H  H142  1  0.69450000  0.08340000  0.11660000  1.0 0.1217023865
H  H143  1  0.11660000  0.69450000  0.08340000  1.0 0.1217023865
H  H144  1  0.08340000  0.11660000  0.69450000  1.0 0.1217023865
H  H145  1  0.24190000  0.55380000  0.53910000  1.0 0.1281715126
H  H146  1  0.55380000  0.53910000  0.24190000  1.0 0.1281715126
H  H147  1  0.53910000  0.24190000  0.55380000  1.0 0.1281715126
H  H148  1  0.74190000  0.03910000  0.05380000  1.0 0.1281715126
H  H149  1  0.05380000  0.74190000  0.03910000  1.0 0.1281715126
H  H150  1  0.03910000  0.05380000  0.74190000  1.0 0.1281715126
H  H151  1  0.13140000  0.65380000  0.73980000  1.0 0.1281715126
H  H152  1  0.65380000  0.73980000  0.13140000  1.0 0.1281715126
H  H153  1  0.73980000  0.13140000  0.65380000  1.0 0.1281715126
H  H154  1  0.63140000  0.23980000  0.15380000  1.0 0.1281715126
H  H155  1  0.15380000  0.63140000  0.23980000  1.0 0.1281715126
H  H156  1  0.23980000  0.15380000  0.63140000  1.0 0.1281715126
H  H157  1  0.17870000  0.60630000  0.67940000  1.0 0.1106721136
H  H158  1  0.60630000  0.67940000  0.17870000  1.0 0.1106721136
H  H159  1  0.67940000  0.17870000  0.60630000  1.0 0.1106721136
H  H160  1  0.67870000  0.17940000  0.10630000  1.0 0.1106721136
H  H161  1  0.10630000  0.67870000  0.17940000  1.0 0.1106721136
H  H162  1  0.17940000  0.10630000  0.67870000  1.0 0.1106721136
H  H163  1  0.28520000  0.70430000  0.50850000  1.0 0.1477680321
H  H164  1  0.70430000  0.50850000  0.28520000  1.0 0.1477680321
H  H165  1  0.50850000  0.28520000  0.70430000  1.0 0.1477680321
H  H166  1  0.78520000  0.00850000  0.20430000  1.0 0.1477680321
H  H167  1  0.20430000  0.78520000  0.00850000  1.0 0.1477680321
H  H168  1  0.00850000  0.20430000  0.78520000  1.0 0.1477680321
H  H169  1  0.30740000  0.75000000  0.49280000  1.0 0.1281715126
H  H170  1  0.75000000  0.49280000  0.30740000  1.0 0.1281715126
H  H171  1  0.49280000  0.30740000  0.75000000  1.0 0.1281715126
H  H172  1  0.80740000  0.99280000  0.25000000  1.0 0.1281715126
H  H173  1  0.25000000  0.80740000  0.99280000  1.0 0.1281715126
H  H174  1  0.99280000  0.25000000  0.80740000  1.0 0.1281715126
H  H175  1  0.33333333  0.69220000  0.52560000  1.0 0.1385112722
H  H176  1  0.69220000  0.52560000  0.33333333  1.0 0.1385112722
H  H177  1  0.52560000  0.33333333  0.69220000  1.0 0.1385112722
H  H178  1  0.83330000  0.02560000  0.19220000  1.0 0.1385112722
H  H179  1  0.19220000  0.83330000  0.02560000  1.0 0.1385112722
H  H180  1  0.02560000  0.19220000  0.83330000  1.0 0.1385112722
H  H181  1  0.16080000  0.83920000  0.65580000  1.0 0.1385112722
H  H182  1  0.83920000  0.65580000  0.16080000  1.0 0.1385112722
H  H183  1  0.65580000  0.16080000  0.83920000  1.0 0.1385112722
H  H184  1  0.66080000  0.15580000  0.33920000  1.0 0.1385112722
H  H185  1  0.33920000  0.66080000  0.15580000  1.0 0.1385112722
H  H186  1  0.15580000  0.33920000  0.66080000  1.0 0.1385112722
H  H187  1  0.20610000  0.80560000  0.68220000  1.0 0.1477680321
H  H188  1  0.80560000  0.68220000  0.20610000  1.0 0.1477680321
H  H189  1  0.68220000  0.20610000  0.80560000  1.0 0.1477680321
H  H190  1  0.70610000  0.18220000  0.30560000  1.0 0.1477680321
H  H191  1  0.30560000  0.70610000  0.18220000  1.0 0.1477680321
H  H192  1  0.18220000  0.30560000  0.70610000  1.0 0.1477680321
H  H193  1  0.21720000  0.84670000  0.62520000  1.0 0.1217023865
H  H194  1  0.84670000  0.62520000  0.21720000  1.0 0.1217023865
H  H195  1  0.62520000  0.21720000  0.84670000  1.0 0.1217023865
H  H196  1  0.71720000  0.12520000  0.34670000  1.0 0.1217023865
H  H197  1  0.34670000  0.71720000  0.12520000  1.0 0.1217023865
H  H198  1  0.12520000  0.34670000  0.71720000  1.0 0.1217023865
H  H199  1  0.07230000  0.75110000  0.85220000  1.0 0.1217023865
H  H200  1  0.75110000  0.85220000  0.07230000  1.0 0.1217023865
H  H201  1  0.85220000  0.07230000  0.75110000  1.0 0.1217023865
H  H202  1  0.57230000  0.35220000  0.25110000  1.0 0.1217023865
H  H203  1  0.25110000  0.57230000  0.35220000  1.0 0.1217023865
H  H204  1  0.35220000  0.25110000  0.57230000  1.0 0.1217023865
H  H205  1  0.09000000  0.81050000  0.67820000  1.0 0.1217023865
H  H206  1  0.81050000  0.67820000  0.09000000  1.0 0.1217023865
H  H207  1  0.67820000  0.09000000  0.81050000  1.0 0.1217023865
H  H208  1  0.59000000  0.17820000  0.31050000  1.0 0.1217023865
H  H209  1  0.31050000  0.59000000  0.17820000  1.0 0.1217023865
H  H210  1  0.17820000  0.31050000  0.59000000  1.0 0.1217023865
H  H211  1  0.03260000  0.87060000  0.72860000  1.0 0.1281715126
H  H212  1  0.87060000  0.72860000  0.03260000  1.0 0.1281715126
H  H213  1  0.72860000  0.03260000  0.87060000  1.0 0.1281715126
H  H214  1  0.53260000  0.22860000  0.37060000  1.0 0.1281715126
H  H215  1  0.37060000  0.53260000  0.22860000  1.0 0.1281715126
H  H216  1  0.22860000  0.37060000  0.53260000  1.0 0.1281715126
H  H217  1  0.13590000  0.69790000  0.80100000  1.0 0.1217023865
H  H218  1  0.69790000  0.80100000  0.13590000  1.0 0.1217023865
H  H219  1  0.80100000  0.13590000  0.69790000  1.0 0.1217023865
H  H220  1  0.63590000  0.30100000  0.19790000  1.0 0.1217023865
H  H221  1  0.19790000  0.63590000  0.30100000  1.0 0.1217023865
H  H222  1  0.30100000  0.19790000  0.63590000  1.0 0.1217023865
H  H223  1  0.30420000  0.91810000  0.54870000  1.0 0.1020805201
H  H224  1  0.91810000  0.54870000  0.30420000  1.0 0.1020805201
H  H225  1  0.54870000  0.30420000  0.91810000  1.0 0.1106721136
H  H226  1  0.80420000  0.04870000  0.41810000  1.0 0.1020805201
H  H227  1  0.41810000  0.80420000  0.04870000  1.0 0.1020805201
H  H228  1  0.04870000  0.41810000  0.80420000  1.0 0.1020805201
H  H229  1  0.33850000  0.98810000  0.49300000  1.0 0.1385112722
H  H230  1  0.98810000  0.49300000  0.33850000  1.0 0.1385112722
H  H231  1  0.49300000  0.33850000  0.98810000  1.0 0.1385112722
H  H232  1  0.83850000  0.99300000  0.48810000  1.0 0.1385112722
H  H233  1  0.48810000  0.83850000  0.99300000  1.0 0.1385112722
H  H234  1  0.99300000  0.48810000  0.83850000  1.0 0.1385112722
H  H235  1  0.37440000  0.00170000  0.40210000  1.0 0.1106721136
H  H236  1  0.00170000  0.40210000  0.37440000  1.0 0.1106721136
H  H237  1  0.40210000  0.37440000  0.00170000  1.0 0.1106721136
H  H238  1  0.87440000  0.90210000  0.50170000  1.0 0.1106721136
H  H239  1  0.50170000  0.87440000  0.90210000  1.0 0.1106721136
H  H240  1  0.90210000  0.50170000  0.87440000  1.0 0.1106721136
H  H241  1  0.37600000  0.94520000  0.36700000  1.0 0.1281715126
H  H242  1  0.94520000  0.36700000  0.37600000  1.0 0.1281715126
H  H243  1  0.36700000  0.37600000  0.94520000  1.0 0.1281715126
H  H244  1  0.87600000  0.86700000  0.44520000  1.0 0.1281715126
H  H245  1  0.44520000  0.87600000  0.86700000  1.0 0.1281715126
H  H246  1  0.86700000  0.44520000  0.87600000  1.0 0.1281715126
H  H247  1  0.34170000  0.87520000  0.42270000  1.0 0.1020805201
H  H248  1  0.87520000  0.42270000  0.34170000  1.0 0.0945936569
H  H249  1  0.42270000  0.34170000  0.87520000  1.0 0.1020805201
H  H250  1  0.84170000  0.92270000  0.37520000  1.0 0.0945936569
H  H251  1  0.37520000  0.84170000  0.92270000  1.0 0.0945936569
H  H252  1  0.92270000  0.37520000  0.84170000  1.0 0.0945936569
Pd  Pd1  1  0.21231000  0.96665000  0.66854000  1.0 0.1020805201
Pd  Pd2  1  0.66854000  0.21231000  0.96665000  1.0 0.1106721136
Pd  Pd3  1  0.96665000  0.66854000  0.21231000  1.0 0.1020805201
Pd  Pd4  1  0.71231000  0.16854000  0.46665000  1.0 0.1106721136
Pd  Pd5  1  0.16854000  0.46665000  0.71231000  1.0 0.1106721136
Pd  Pd6  1  0.46665000  0.71231000  0.16854000  1.0 0.1020805201
Pd  Pd7  1  0.28769000  0.83146000  0.53335000  1.0 0.1020805201
Pd  Pd8  1  0.83146000  0.53335000  0.28769000  1.0 0.1106721136
Pd  Pd9  1  0.53335000  0.28769000  0.83146000  1.0 0.1020805201
Pd  Pd10  1  0.78769000  0.03335000  0.33146000  1.0 0.1106721136
Pd  Pd11  1  0.33146000  0.78769000  0.03335000  1.0 0.1020805201
Pd  Pd12  1  0.03335000  0.33146000  0.78769000  1.0 0.1106721136
C  C1  1  0.15240000  0.99660000  0.99460000  1.0 0.5901583103
C  C2  1  0.99460000  0.15240000  0.99660000  1.0 0.5901583103
C  C3  1  0.99660000  0.99460000  0.15240000  1.0 0.5901583103
C  C4  1  0.65240000  0.49460000  0.49660000  1.0 0.5901583103
C  C5  1  0.49460000  0.49660000  0.65240000  1.0 0.5901583103
C  C6  1  0.49660000  0.65240000  0.49460000  1.0 0.5901583103
C  C7  1  0.16260000  0.94270000  0.94350000  1.0 -0.0995724734
C  C8  1  0.94350000  0.16260000  0.94270000  1.0 -0.0995724734
C  C9  1  0.94270000  0.94350000  0.16260000  1.0 -0.0995724734
C  C10  1  0.66260000  0.44350000  0.44270000  1.0 -0.0995724734
C  C11  1  0.44350000  0.44270000  0.66260000  1.0 -0.0995724734
C  C12  1  0.44270000  0.66260000  0.44350000  1.0 -0.0995724734
C  C13  1  0.19090000  0.91470000  0.90660000  1.0 -0.1585393421
C  C14  1  0.90660000  0.19090000  0.91470000  1.0 -0.1585393421
C  C15  1  0.91470000  0.90660000  0.19090000  1.0 -0.1585393421
C  C16  1  0.69090000  0.40660000  0.41470000  1.0 -0.1585393421
C  C17  1  0.40660000  0.41470000  0.69090000  1.0 -0.1585393421
C  C18  1  0.41470000  0.69090000  0.40660000  1.0 -0.1585393421
C  C19  1  0.24530000  0.90540000  0.88460000  1.0 0.0808329753
C  C20  1  0.88460000  0.24530000  0.90540000  1.0 0.0808329753
C  C21  1  0.90540000  0.88460000  0.24530000  1.0 0.0808329753
C  C22  1  0.74530000  0.38460000  0.40540000  1.0 0.0808329753
C  C23  1  0.38460000  0.40540000  0.74530000  1.0 0.0808329753
C  C24  1  0.40540000  0.74530000  0.38460000  1.0 0.0808329753
C  C25  1  0.26900000  0.92270000  0.89850000  1.0 -0.1492746693
C  C26  1  0.89850000  0.26900000  0.92270000  1.0 -0.1492746693
C  C27  1  0.92270000  0.89850000  0.26900000  1.0 -0.1492746693
C  C28  1  0.76900000  0.39850000  0.42270000  1.0 -0.1492746693
C  C29  1  0.39850000  0.42270000  0.76900000  1.0 -0.1492746693
C  C30  1  0.42270000  0.76900000  0.39850000  1.0 -0.1492746693
C  C31  1  0.24010000  0.95060000  0.93580000  1.0 -0.0889095099
C  C32  1  0.93580000  0.24010000  0.95060000  1.0 -0.0889095099
C  C33  1  0.95060000  0.93580000  0.24010000  1.0 -0.0889095099
C  C34  1  0.74010000  0.43580000  0.45060000  1.0 -0.0889095099
C  C35  1  0.43580000  0.45060000  0.74010000  1.0 -0.0889095099
C  C36  1  0.45060000  0.74010000  0.43580000  1.0 -0.0889095099
C  C37  1  0.18530000  0.96300000  0.95720000  1.0 -0.0287132192
C  C38  1  0.95720000  0.18530000  0.96300000  1.0 -0.0287132192
C  C39  1  0.96300000  0.95720000  0.18530000  1.0 -0.0287132192
C  C40  1  0.68530000  0.45720000  0.46300000  1.0 -0.0287132192
C  C41  1  0.45720000  0.46300000  0.68530000  1.0 -0.0287132192
C  C42  1  0.46300000  0.68530000  0.45720000  1.0 -0.0287132192
C  C43  1  0.27610000  0.87500000  0.84670000  1.0 -0.0093195756
C  C44  1  0.84670000  0.27610000  0.87500000  1.0 -0.0093195756
C  C45  1  0.87500000  0.84670000  0.27610000  1.0 -0.0093195756
C  C46  1  0.77610000  0.34670000  0.37500000  1.0 -0.0093195756
C  C47  1  0.34670000  0.37500000  0.77610000  1.0 -0.0093195756
C  C48  1  0.37500000  0.77610000  0.34670000  1.0 -0.0093195756
C  C49  1  0.34580000  0.79290000  0.83240000  1.0 -0.1585393421
C  C50  1  0.83240000  0.34580000  0.79290000  1.0 -0.1585393421
C  C51  1  0.79290000  0.83240000  0.34580000  1.0 -0.1585393421
C  C52  1  0.84580000  0.33240000  0.29290000  1.0 -0.1585393421
C  C53  1  0.33240000  0.29290000  0.84580000  1.0 -0.1585393421
C  C54  1  0.29290000  0.84580000  0.33240000  1.0 -0.1585393421
C  C55  1  0.31510000  0.82840000  0.86240000  1.0 -0.1585393421
C  C56  1  0.86240000  0.31510000  0.82840000  1.0 -0.1585393421
C  C57  1  0.82840000  0.86240000  0.31510000  1.0 -0.1585393421
C  C58  1  0.81510000  0.36240000  0.32840000  1.0 -0.1585393421
C  C59  1  0.36240000  0.32840000  0.81510000  1.0 -0.1585393421
C  C60  1  0.32840000  0.81510000  0.36240000  1.0 -0.1585393421
C  C61  1  0.29910000  0.85170000  0.76690000  1.0 0.0190562538
C  C62  1  0.76690000  0.29910000  0.85170000  1.0 0.0190562538
C  C63  1  0.85170000  0.76690000  0.29910000  1.0 0.0190562538
C  C64  1  0.79910000  0.26690000  0.35170000  1.0 0.0190562538
C  C65  1  0.26690000  0.35170000  0.79910000  1.0 0.0190562538
C  C66  1  0.35170000  0.79910000  0.26690000  1.0 0.0190562538
C  C67  1  0.49430000  0.66120000  0.65720000  1.0 0.5901583103
C  C68  1  0.65720000  0.49430000  0.66120000  1.0 0.5901583103
C  C69  1  0.66120000  0.65720000  0.49430000  1.0 0.5901583103
C  C70  1  0.99430000  0.15720000  0.16120000  1.0 0.5901583103
C  C71  1  0.15720000  0.16120000  0.99430000  1.0 0.5901583103
C  C72  1  0.16120000  0.99430000  0.15720000  1.0 0.5901583103
C  C73  1  0.34210000  0.80690000  0.78040000  1.0 0.0293129161
C  C74  1  0.78040000  0.34210000  0.80690000  1.0 0.0293129161
C  C75  1  0.80690000  0.78040000  0.34210000  1.0 0.0293129161
C  C76  1  0.84210000  0.28040000  0.30690000  1.0 0.0293129161
C  C77  1  0.28040000  0.30690000  0.84210000  1.0 0.0293129161
C  C78  1  0.30690000  0.84210000  0.28040000  1.0 0.0293129161
C  C79  1  0.24690000  0.92350000  0.72270000  1.0 -0.0093195756
C  C80  1  0.72270000  0.24690000  0.92350000  1.0 -0.0093195756
C  C81  1  0.92350000  0.72270000  0.24690000  1.0 -0.0093195756
C  C82  1  0.74690000  0.22270000  0.42350000  1.0 -0.0093195756
C  C83  1  0.22270000  0.42350000  0.74690000  1.0 -0.0093195756
C  C84  1  0.42350000  0.74690000  0.22270000  1.0 -0.0093195756
C  C85  1  0.27090000  0.88810000  0.79830000  1.0 0.0293129161
C  C86  1  0.79830000  0.27090000  0.88810000  1.0 0.036320585
C  C87  1  0.88810000  0.79830000  0.27090000  1.0 0.0293129161
C  C88  1  0.77090000  0.29830000  0.38810000  1.0 0.036320585
C  C89  1  0.29830000  0.38810000  0.77090000  1.0 0.0293129161
C  C90  1  0.38810000  0.77090000  0.29830000  1.0 0.0293129161
C  C91  1  0.19940000  0.98020000  0.78190000  1.0 -0.3418196557
C  C92  1  0.78190000  0.19940000  0.98020000  1.0 -0.3418196557
C  C93  1  0.98020000  0.78190000  0.19940000  1.0 -0.3418196557
C  C94  1  0.69940000  0.28190000  0.48020000  1.0 -0.3418196557
C  C95  1  0.28190000  0.48020000  0.69940000  1.0 -0.3418196557
C  C96  1  0.48020000  0.69940000  0.28190000  1.0 -0.3418196557
C  C97  1  0.30170000  0.85070000  0.67860000  1.0 -0.3641457604
C  C98  1  0.67860000  0.30170000  0.85070000  1.0 -0.3641457604
C  C99  1  0.85070000  0.67860000  0.30170000  1.0 -0.3641457604
C  C100  1  0.80170000  0.17860000  0.35070000  1.0 -0.3641457604
C  C101  1  0.17860000  0.35070000  0.80170000  1.0 -0.3641457604
C  C102  1  0.35070000  0.80170000  0.17860000  1.0 -0.3641457604
C  C103  1  0.38200000  0.76690000  0.74960000  1.0 0.0636913356
C  C104  1  0.74960000  0.38200000  0.76690000  1.0 0.0636913356
C  C105  1  0.76690000  0.74960000  0.38200000  1.0 0.065363919
C  C106  1  0.88200000  0.24960000  0.26690000  1.0 0.0636913356
C  C107  1  0.24960000  0.26690000  0.88200000  1.0 0.0636913356
C  C108  1  0.26690000  0.88200000  0.24960000  1.0 0.0636913356
C  C109  1  0.42290000  0.68400000  0.73580000  1.0 -0.0889095099
C  C110  1  0.73580000  0.42290000  0.68400000  1.0 -0.0889095099
C  C111  1  0.68400000  0.73580000  0.42290000  1.0 -0.0889095099
C  C112  1  0.92290000  0.23580000  0.18400000  1.0 -0.0889095099
C  C113  1  0.23580000  0.18400000  0.92290000  1.0 -0.0889095099
C  C114  1  0.18400000  0.92290000  0.23580000  1.0 -0.0889095099
C  C115  1  0.41250000  0.78630000  0.70090000  1.0 -0.1492746693
C  C116  1  0.70090000  0.41250000  0.78630000  1.0 -0.1492746693
C  C117  1  0.78630000  0.70090000  0.41250000  1.0 -0.1492746693
C  C118  1  0.91250000  0.20090000  0.28630000  1.0 -0.1492746693
C  C119  1  0.20090000  0.28630000  0.91250000  1.0 -0.1492746693
C  C120  1  0.28630000  0.91250000  0.20090000  1.0 -0.1492746693
C  C121  1  0.44890000  0.75630000  0.66420000  1.0 -0.0842123426
C  C122  1  0.66420000  0.44890000  0.75630000  1.0 -0.0842123426
C  C123  1  0.75630000  0.66420000  0.44890000  1.0 -0.0842123426
C  C124  1  0.94890000  0.16420000  0.25630000  1.0 -0.0889095099
C  C125  1  0.16420000  0.25630000  0.94890000  1.0 -0.0842123426
C  C126  1  0.25630000  0.94890000  0.16420000  1.0 -0.0842123426
C  C127  1  0.45320000  0.70290000  0.68630000  1.0 -0.0287132192
C  C128  1  0.68630000  0.45320000  0.70290000  1.0 -0.0287132192
C  C129  1  0.70290000  0.68630000  0.45320000  1.0 -0.0287132192
C  C130  1  0.95320000  0.18630000  0.20290000  1.0 -0.0287132192
C  C131  1  0.18630000  0.20290000  0.95320000  1.0 -0.0287132192
C  C132  1  0.20290000  0.95320000  0.18630000  1.0 -0.0287132192
C  C133  1  0.38560000  0.71370000  0.76890000  1.0 -0.1585393421
C  C134  1  0.76890000  0.38560000  0.71370000  1.0 -0.1585393421
C  C135  1  0.71370000  0.76890000  0.38560000  1.0 -0.1585393421
C  C136  1  0.88560000  0.26890000  0.21370000  1.0 -0.1585393421
C  C137  1  0.26890000  0.21370000  0.88560000  1.0 -0.1585393421
C  C138  1  0.21370000  0.88560000  0.26890000  1.0 -0.1585393421
C  C139  1  0.18140000  0.98770000  0.57640000  1.0 0.0190562538
C  C140  1  0.57640000  0.18140000  0.98770000  1.0 0.0293129161
C  C141  1  0.98770000  0.57640000  0.18140000  1.0 0.0293129161
C  C142  1  0.68140000  0.07640000  0.48770000  1.0 0.0293129161
C  C143  1  0.07640000  0.48770000  0.68140000  1.0 0.0293129161
C  C144  1  0.48770000  0.68140000  0.07640000  1.0 0.0293129161
C  C145  1  0.16080000  0.02110000  0.53450000  1.0 -0.1278394799
C  C146  1  0.53450000  0.16080000  0.02110000  1.0 -0.1278394799
C  C147  1  0.02110000  0.53450000  0.16080000  1.0 -0.1278394799
C  C148  1  0.66080000  0.03450000  0.52110000  1.0 -0.1278394799
C  C149  1  0.03450000  0.52110000  0.66080000  1.0 -0.1278394799
C  C150  1  0.52110000  0.66080000  0.03450000  1.0 -0.1278394799
C  C151  1  0.13940000  0.07550000  0.52640000  1.0 -0.042585544
C  C152  1  0.52640000  0.13940000  0.07550000  1.0 -0.042585544
C  C153  1  0.07550000  0.52640000  0.13940000  1.0 -0.042585544
C  C154  1  0.63940000  0.02640000  0.57550000  1.0 -0.042585544
C  C155  1  0.02640000  0.57550000  0.63940000  1.0 -0.042585544
C  C156  1  0.57550000  0.63940000  0.02640000  1.0 -0.042585544
C  C157  1  0.13850000  0.09660000  0.56020000  1.0 -0.1402521776
C  C158  1  0.56020000  0.13850000  0.09660000  1.0 -0.1402521776
C  C159  1  0.09660000  0.56020000  0.13850000  1.0 -0.1402521776
C  C160  1  0.63850000  0.06020000  0.59660000  1.0 -0.1402521776
C  C161  1  0.06020000  0.59660000  0.63850000  1.0 -0.1402521776
C  C162  1  0.59660000  0.63850000  0.06020000  1.0 -0.1402521776
C  C163  1  0.15890000  0.06330000  0.60220000  1.0 0.036320585
C  C164  1  0.60220000  0.15890000  0.06330000  1.0 0.036320585
C  C165  1  0.06330000  0.60220000  0.15890000  1.0 0.036320585
C  C166  1  0.65890000  0.10220000  0.56330000  1.0 0.036320585
C  C167  1  0.10220000  0.56330000  0.65890000  1.0 0.036320585
C  C168  1  0.56330000  0.65890000  0.10220000  1.0 0.036320585
C  C169  1  0.34760000  0.50540000  0.50340000  1.0 0.5901583103
C  C170  1  0.50540000  0.50340000  0.34760000  1.0 0.5901583103
C  C171  1  0.50340000  0.34760000  0.50540000  1.0 0.5901583103
C  C172  1  0.84760000  0.00340000  0.00540000  1.0 0.5901583103
C  C173  1  0.00540000  0.84760000  0.00340000  1.0 0.5901583103
C  C174  1  0.00340000  0.00540000  0.84760000  1.0 0.5901583103
C  C175  1  0.33740000  0.55650000  0.55730000  1.0 -0.0995724734
C  C176  1  0.55650000  0.55730000  0.33740000  1.0 -0.0995724734
C  C177  1  0.55730000  0.33740000  0.55650000  1.0 -0.0995724734
C  C178  1  0.83740000  0.05730000  0.05650000  1.0 -0.0995724734
C  C179  1  0.05650000  0.83740000  0.05730000  1.0 -0.0995724734
C  C180  1  0.05730000  0.05650000  0.83740000  1.0 -0.0995724734
C  C181  1  0.30910000  0.59340000  0.58530000  1.0 -0.1585393421
C  C182  1  0.59340000  0.58530000  0.30910000  1.0 -0.1585393421
C  C183  1  0.58530000  0.30910000  0.59340000  1.0 -0.1585393421
C  C184  1  0.80910000  0.08530000  0.09340000  1.0 -0.1585393421
C  C185  1  0.09340000  0.80910000  0.08530000  1.0 -0.1585393421
C  C186  1  0.08530000  0.09340000  0.80910000  1.0 -0.1585393421
C  C187  1  0.25470000  0.61540000  0.59460000  1.0 0.0808329753
C  C188  1  0.61540000  0.59460000  0.25470000  1.0 0.0808329753
C  C189  1  0.59460000  0.25470000  0.61540000  1.0 0.0808329753
C  C190  1  0.75470000  0.09460000  0.11540000  1.0 0.0808329753
C  C191  1  0.11540000  0.75470000  0.09460000  1.0 0.0808329753
C  C192  1  0.09460000  0.11540000  0.75470000  1.0 0.0808329753
C  C193  1  0.23100000  0.60150000  0.57730000  1.0 -0.1492746693
C  C194  1  0.60150000  0.57730000  0.23100000  1.0 -0.1492746693
C  C195  1  0.57730000  0.23100000  0.60150000  1.0 -0.1492746693
C  C196  1  0.73100000  0.07730000  0.10150000  1.0 -0.1492746693
C  C197  1  0.10150000  0.73100000  0.07730000  1.0 -0.1492746693
C  C198  1  0.07730000  0.10150000  0.73100000  1.0 -0.1492746693
C  C199  1  0.25990000  0.56420000  0.54940000  1.0 -0.0889095099
C  C200  1  0.56420000  0.54940000  0.25990000  1.0 -0.0889095099
C  C201  1  0.54940000  0.25990000  0.56420000  1.0 -0.0889095099
C  C202  1  0.75990000  0.04940000  0.06420000  1.0 -0.0889095099
C  C203  1  0.06420000  0.75990000  0.04940000  1.0 -0.0889095099
C  C204  1  0.04940000  0.06420000  0.75990000  1.0 -0.0889095099
C  C205  1  0.31470000  0.54280000  0.53700000  1.0 -0.0287132192
C  C206  1  0.54280000  0.53700000  0.31470000  1.0 -0.0287132192
C  C207  1  0.53700000  0.31470000  0.54280000  1.0 -0.0287132192
C  C208  1  0.81470000  0.03700000  0.04280000  1.0 -0.0287132192
C  C209  1  0.04280000  0.81470000  0.03700000  1.0 -0.0287132192
C  C210  1  0.03700000  0.04280000  0.81470000  1.0 -0.0287132192
C  C211  1  0.22390000  0.65330000  0.62500000  1.0 -0.0093195756
C  C212  1  0.65330000  0.62500000  0.22390000  1.0 -0.004729714
C  C213  1  0.62500000  0.22390000  0.65330000  1.0 -0.0093195756
C  C214  1  0.72390000  0.12500000  0.15330000  1.0 -0.0093195756
C  C215  1  0.15330000  0.72390000  0.12500000  1.0 -0.0093195756
C  C216  1  0.12500000  0.15330000  0.72390000  1.0 -0.0093195756
C  C217  1  0.15420000  0.66760000  0.70710000  1.0 -0.1585393421
C  C218  1  0.66760000  0.70710000  0.15420000  1.0 -0.1585393421
C  C219  1  0.70710000  0.15420000  0.66760000  1.0 -0.1585393421
C  C220  1  0.65420000  0.20710000  0.16760000  1.0 -0.1585393421
C  C221  1  0.16760000  0.65420000  0.20710000  1.0 -0.1585393421
C  C222  1  0.20710000  0.16760000  0.65420000  1.0 -0.1585393421
C  C223  1  0.18490000  0.63760000  0.67160000  1.0 -0.1585393421
C  C224  1  0.63760000  0.67160000  0.18490000  1.0 -0.1585393421
C  C225  1  0.67160000  0.18490000  0.63760000  1.0 -0.1585393421
C  C226  1  0.68490000  0.17160000  0.13760000  1.0 -0.1585393421
C  C227  1  0.13760000  0.68490000  0.17160000  1.0 -0.1585393421
C  C228  1  0.17160000  0.13760000  0.68490000  1.0 -0.1585393421
C  C229  1  0.20090000  0.73310000  0.64830000  1.0 0.0190562538
C  C230  1  0.73310000  0.64830000  0.20090000  1.0 0.0190562538
C  C231  1  0.64830000  0.20090000  0.73310000  1.0 0.0190562538
C  C232  1  0.70090000  0.14830000  0.23310000  1.0 0.0190562538
C  C233  1  0.23310000  0.70090000  0.14830000  1.0 0.0190562538
C  C234  1  0.14830000  0.23310000  0.70090000  1.0 0.0190562538
C  C235  1  0.00570000  0.84280000  0.83880000  1.0 0.5901583103
C  C236  1  0.84280000  0.83880000  0.00570000  1.0 0.5901583103
C  C237  1  0.83880000  0.00570000  0.84280000  1.0 0.5955588125
C  C238  1  0.50570000  0.33880000  0.34280000  1.0 0.5901583103
C  C239  1  0.34280000  0.50570000  0.33880000  1.0 0.5901583103
C  C240  1  0.33880000  0.34280000  0.50570000  1.0 0.5901583103
C  C241  1  0.15790000  0.71960000  0.69310000  1.0 0.0293129161
C  C242  1  0.71960000  0.69310000  0.15790000  1.0 0.0293129161
C  C243  1  0.69310000  0.15790000  0.71960000  1.0 0.0293129161
C  C244  1  0.65790000  0.19310000  0.21960000  1.0 0.0293129161
C  C245  1  0.21960000  0.65790000  0.19310000  1.0 0.0293129161
C  C246  1  0.19310000  0.21960000  0.65790000  1.0 0.0293129161
C  C247  1  0.25310000  0.77730000  0.57650000  1.0 -0.0093195756
C  C248  1  0.77730000  0.57650000  0.25310000  1.0 -0.0093195756
C  C249  1  0.57650000  0.25310000  0.77730000  1.0 -0.0093195756
C  C250  1  0.75310000  0.07650000  0.27730000  1.0 -0.0093195756
C  C251  1  0.27730000  0.75310000  0.07650000  1.0 -0.0093195756
C  C252  1  0.07650000  0.27730000  0.75310000  1.0 -0.0093195756
C  C253  1  0.22910000  0.70170000  0.61190000  1.0 0.0293129161
C  C254  1  0.70170000  0.61190000  0.22910000  1.0 0.0293129161
C  C255  1  0.61190000  0.22910000  0.70170000  1.0 0.036320585
C  C256  1  0.72910000  0.11190000  0.20170000  1.0 0.0293129161
C  C257  1  0.20170000  0.72910000  0.11190000  1.0 0.0293129161
C  C258  1  0.11190000  0.20170000  0.72910000  1.0 0.0293129161
C  C259  1  0.30060000  0.71810000  0.51980000  1.0 -0.3418196557
C  C260  1  0.71810000  0.51980000  0.30060000  1.0 -0.3418196557
C  C261  1  0.51980000  0.30060000  0.71810000  1.0 -0.3418196557
C  C262  1  0.80060000  0.01980000  0.21810000  1.0 -0.3418196557
C  C263  1  0.21810000  0.80060000  0.01980000  1.0 -0.3418196557
C  C264  1  0.01980000  0.21810000  0.80060000  1.0 -0.3418196557
C  C265  1  0.19830000  0.82140000  0.64930000  1.0 -0.3641457604
C  C266  1  0.82140000  0.64930000  0.19830000  1.0 -0.3641457604
C  C267  1  0.64930000  0.19830000  0.82140000  1.0 -0.3641457604
C  C268  1  0.69830000  0.14930000  0.32140000  1.0 -0.3641457604
C  C269  1  0.32140000  0.69830000  0.14930000  1.0 -0.3641457604
C  C270  1  0.14930000  0.32140000  0.69830000  1.0 -0.3641457604
C  C271  1  0.11800000  0.75040000  0.73310000  1.0 0.0636913356
C  C272  1  0.75040000  0.73310000  0.11800000  1.0 0.0636913356
C  C273  1  0.73310000  0.11800000  0.75040000  1.0 0.0636913356
C  C274  1  0.61800000  0.23310000  0.25040000  1.0 0.0636913356
C  C275  1  0.25040000  0.61800000  0.23310000  1.0 0.0636913356
C  C276  1  0.23310000  0.25040000  0.61800000  1.0 0.0636913356
C  C277  1  0.07710000  0.76420000  0.81600000  1.0 -0.0889095099
C  C278  1  0.76420000  0.81600000  0.07710000  1.0 -0.0889095099
C  C279  1  0.81600000  0.07710000  0.76420000  1.0 -0.0889095099
C  C280  1  0.57710000  0.31600000  0.26420000  1.0 -0.0889095099
C  C281  1  0.26420000  0.57710000  0.31600000  1.0 -0.0889095099
C  C282  1  0.31600000  0.26420000  0.57710000  1.0 -0.0889095099
C  C283  1  0.08750000  0.79910000  0.71370000  1.0 -0.1492746693
C  C284  1  0.79910000  0.71370000  0.08750000  1.0 -0.1492746693
C  C285  1  0.71370000  0.08750000  0.79910000  1.0 -0.1492746693
C  C286  1  0.58750000  0.21370000  0.29910000  1.0 -0.1492746693
C  C287  1  0.29910000  0.58750000  0.21370000  1.0 -0.1492746693
C  C288  1  0.21370000  0.29910000  0.58750000  1.0 -0.1492746693
C  C289  1  0.05110000  0.83580000  0.74370000  1.0 -0.0842123426
C  C290  1  0.83580000  0.74370000  0.05110000  1.0 -0.0842123426
C  C291  1  0.74370000  0.05110000  0.83580000  1.0 -0.0842123426
C  C292  1  0.55110000  0.24370000  0.33580000  1.0 -0.0842123426
C  C293  1  0.33580000  0.55110000  0.24370000  1.0 -0.0842123426
C  C294  1  0.24370000  0.33580000  0.55110000  1.0 -0.0842123426
C  C295  1  0.04680000  0.81370000  0.79710000  1.0 -0.0287132192
C  C296  1  0.81370000  0.79710000  0.04680000  1.0 -0.0287132192
C  C297  1  0.79710000  0.04680000  0.81370000  1.0 -0.0287132192
C  C298  1  0.54680000  0.29710000  0.31370000  1.0 -0.0287132192
C  C299  1  0.31370000  0.54680000  0.29710000  1.0 -0.0287132192
C  C300  1  0.29710000  0.31370000  0.54680000  1.0 -0.0287132192
C  C301  1  0.11440000  0.73110000  0.78630000  1.0 -0.1585393421
C  C302  1  0.73110000  0.78630000  0.11440000  1.0 -0.1585393421
C  C303  1  0.78630000  0.11440000  0.73110000  1.0 -0.1585393421
C  C304  1  0.61440000  0.28630000  0.23110000  1.0 -0.1585393421
C  C305  1  0.23110000  0.61440000  0.28630000  1.0 -0.1585393421
C  C306  1  0.28630000  0.23110000  0.61440000  1.0 -0.1585393421
C  C307  1  0.31860000  0.92360000  0.51230000  1.0 0.0293129161
C  C308  1  0.92360000  0.51230000  0.31860000  1.0 0.0293129161
C  C309  1  0.51230000  0.31860000  0.92360000  1.0 0.0293129161
C  C310  1  0.81860000  0.01230000  0.42360000  1.0 0.0293129161
C  C311  1  0.42360000  0.81860000  0.01230000  1.0 0.0293129161
C  C312  1  0.01230000  0.42360000  0.81860000  1.0 0.0293129161
C  C313  1  0.33920000  0.96550000  0.47890000  1.0 -0.1278394799
C  C314  1  0.96550000  0.47890000  0.33920000  1.0 -0.1278394799
C  C315  1  0.47890000  0.33920000  0.96550000  1.0 -0.1278394799
C  C316  1  0.83920000  0.97890000  0.46550000  1.0 -0.1278394799
C  C317  1  0.46550000  0.83920000  0.97890000  1.0 -0.1278394799
C  C318  1  0.97890000  0.46550000  0.83920000  1.0 -0.1278394799
C  C319  1  0.36060000  0.97360000  0.42450000  1.0 -0.042585544
C  C320  1  0.97360000  0.42450000  0.36060000  1.0 -0.042585544
C  C321  1  0.42450000  0.36060000  0.97360000  1.0 -0.042585544
C  C322  1  0.86060000  0.92450000  0.47360000  1.0 -0.042585544
C  C323  1  0.47360000  0.86060000  0.92450000  1.0 -0.042585544
C  C324  1  0.92450000  0.47360000  0.86060000  1.0 -0.042585544
C  C325  1  0.36150000  0.93980000  0.40340000  1.0 -0.1402521776
C  C326  1  0.93980000  0.40340000  0.36150000  1.0 -0.1402521776
C  C327  1  0.40340000  0.36150000  0.93980000  1.0 -0.1402521776
C  C328  1  0.86150000  0.90340000  0.43980000  1.0 -0.1402521776
C  C329  1  0.43980000  0.86150000  0.90340000  1.0 -0.1402521776
C  C330  1  0.90340000  0.43980000  0.86150000  1.0 -0.1402521776
C  C331  1  0.34110000  0.89780000  0.43670000  1.0 0.036320585
C  C332  1  0.89780000  0.43670000  0.34110000  1.0 0.036320585
C  C333  1  0.43670000  0.34110000  0.89780000  1.0 0.036320585
C  C334  1  0.84110000  0.93670000  0.39780000  1.0 0.0293129161
C  C335  1  0.39780000  0.84110000  0.93670000  1.0 0.0293129161
C  C336  1  0.93670000  0.39780000  0.84110000  1.0 0.036320585
I  I1  1  0.13887000  0.92171000  0.72368000  1.0 -0.3326812568
I  I2  1  0.72368000  0.13887000  0.92171000  1.0 -0.3418196557
I  I3  1  0.92171000  0.72368000  0.13887000  1.0 -0.3326812568
I  I4  1  0.63887000  0.22368000  0.42171000  1.0 -0.3418196557
I  I5  1  0.22368000  0.42171000  0.63887000  1.0 -0.3326812568
I  I6  1  0.42171000  0.63887000  0.22368000  1.0 -0.3418196557
I  I7  1  0.28805000  0.00896000  0.62084000  1.0 -0.3418196557
I  I8  1  0.62084000  0.28805000  0.00896000  1.0 -0.3418196557
I  I9  1  0.00896000  0.62084000  0.28805000  1.0 -0.3418196557
I  I10  1  0.78805000  0.12084000  0.50896000  1.0 -0.3418196557
I  I11  1  0.12084000  0.50896000  0.78805000  1.0 -0.3418196557
I  I12  1  0.50896000  0.78805000  0.12084000  1.0 -0.3418196557
I  I13  1  0.36113000  0.77632000  0.57829000  1.0 -0.3418196557
I  I14  1  0.77632000  0.57829000  0.36113000  1.0 -0.3326812568
I  I15  1  0.57829000  0.36113000  0.77632000  1.0 -0.3326812568
I  I16  1  0.86113000  0.07829000  0.27632000  1.0 -0.3326812568
I  I17  1  0.27632000  0.86113000  0.07829000  1.0 -0.3326812568
I  I18  1  0.07829000  0.27632000  0.86113000  1.0 -0.3418196557
I  I19  1  0.21195000  0.87916000  0.49104000  1.0 -0.3418196557
I  I20  1  0.87916000  0.49104000  0.21195000  1.0 -0.3418196557
I  I21  1  0.49104000  0.21195000  0.87916000  1.0 -0.3418196557
I  I22  1  0.71195000  0.99104000  0.37916000  1.0 -0.3418196557
I  I23  1  0.37916000  0.71195000  0.99104000  1.0 -0.3418196557
I  I24  1  0.99104000  0.37916000  0.71195000  1.0 -0.3418196557
N  N1  1  0.28450000  0.87490000  0.72170000  1.0 0.0636913356
N  N2  1  0.72170000  0.28450000  0.87490000  1.0 0.0636913356
N  N3  1  0.87490000  0.72170000  0.28450000  1.0 0.0636913356
N  N4  1  0.78450000  0.22170000  0.37490000  1.0 0.0636913356
N  N5  1  0.22170000  0.37490000  0.78450000  1.0 0.0636913356
N  N6  1  0.37490000  0.78450000  0.22170000  1.0 0.0636913356
N  N7  1  0.23720000  0.92960000  0.76980000  1.0 0.0499410098
N  N8  1  0.76980000  0.23720000  0.92960000  1.0 0.0499410098
N  N9  1  0.92960000  0.76980000  0.23720000  1.0 0.0499410098
N  N10  1  0.73720000  0.26980000  0.42960000  1.0 0.0499410098
N  N11  1  0.26980000  0.42960000  0.73720000  1.0 0.0499410098
N  N12  1  0.42960000  0.73720000  0.26980000  1.0 0.0499410098
N  N13  1  0.18040000  0.00880000  0.61030000  1.0 -0.0995724734
N  N14  1  0.61030000  0.18040000  0.00880000  1.0 -0.0995724734
N  N15  1  0.00880000  0.61030000  0.18040000  1.0 -0.1051090754
N  N16  1  0.68040000  0.11030000  0.50880000  1.0 -0.0995724734
N  N17  1  0.11030000  0.50880000  0.68040000  1.0 -0.0995724734
N  N18  1  0.50880000  0.68040000  0.11030000  1.0 -0.0995724734
N  N19  1  0.21550000  0.77830000  0.62510000  1.0 0.0636913356
N  N20  1  0.77830000  0.62510000  0.21550000  1.0 0.0636913356
N  N21  1  0.62510000  0.21550000  0.77830000  1.0 0.0636913356
N  N22  1  0.71550000  0.12510000  0.27830000  1.0 0.0636913356
N  N23  1  0.27830000  0.71550000  0.12510000  1.0 0.0636913356
N  N24  1  0.12510000  0.27830000  0.71550000  1.0 0.0636913356
N  N25  1  0.26280000  0.73020000  0.57040000  1.0 0.0499410098
N  N26  1  0.73020000  0.57040000  0.26280000  1.0 0.0499410098
N  N27  1  0.57040000  0.26280000  0.73020000  1.0 0.0499410098
N  N28  1  0.76280000  0.07040000  0.23020000  1.0 0.0499410098
N  N29  1  0.23020000  0.76280000  0.07040000  1.0 0.0499410098
N  N30  1  0.07040000  0.23020000  0.76280000  1.0 0.0499410098
N  N31  1  0.31960000  0.88970000  0.49120000  1.0 -0.0995724734
N  N32  1  0.88970000  0.49120000  0.31960000  1.0 -0.1051090754
N  N33  1  0.49120000  0.31960000  0.88970000  1.0 -0.0995724734
N  N34  1  0.81960000  0.99120000  0.38970000  1.0 -0.1051090754
N  N35  1  0.38970000  0.81960000  0.99120000  1.0 -0.0995724734
N  N36  1  0.99120000  0.38970000  0.81960000  1.0 -0.0995724734
O  O1  1  0.07767000  0.07767000  0.07767000  1.0 -1.0211829044
O  O2  1  0.57767000  0.57767000  0.57767000  1.0 -1.0211829044
O  O3  1  0.10460000  0.00020000  0.01240000  1.0 -0.5280517833
O  O4  1  0.01240000  0.10460000  0.00020000  1.0 -0.5280517833
O  O5  1  0.00020000  0.01240000  0.10460000  1.0 -0.5280517833
O  O6  1  0.60460000  0.51240000  0.50020000  1.0 -0.5280517833
O  O7  1  0.51240000  0.50020000  0.60460000  1.0 -0.5280517833
O  O8  1  0.50020000  0.60460000  0.51240000  1.0 -0.5280517833
O  O9  1  0.17750000  0.01240000  0.00350000  1.0 -0.4858529312
O  O10  1  0.00350000  0.17750000  0.01240000  1.0 -0.4858529312
O  O11  1  0.01240000  0.00350000  0.17750000  1.0 -0.4858529312
O  O12  1  0.67750000  0.50350000  0.51240000  1.0 -0.4858529312
O  O13  1  0.50350000  0.51240000  0.67750000  1.0 -0.4858529312
O  O14  1  0.51240000  0.67750000  0.50350000  1.0 -0.4844606019
O  O15  1  0.50020000  0.61400000  0.67930000  1.0 -0.5103194065
O  O16  1  0.67930000  0.50020000  0.61400000  1.0 -0.5103194065
O  O17  1  0.61400000  0.67930000  0.50020000  1.0 -0.5103194065
O  O18  1  0.00020000  0.17930000  0.11400000  1.0 -0.5103194065
O  O19  1  0.17930000  0.11400000  0.00020000  1.0 -0.5103194065
O  O20  1  0.11400000  0.00020000  0.17930000  1.0 -0.5103194065
O  O21  1  0.50670000  0.68690000  0.60740000  1.0 -0.5390691705
O  O22  1  0.60740000  0.50670000  0.68690000  1.0 -0.5390691705
O  O23  1  0.68690000  0.60740000  0.50670000  1.0 -0.5390691705
O  O24  1  0.00670000  0.10740000  0.18690000  1.0 -0.5390691705
O  O25  1  0.10740000  0.18690000  0.00670000  1.0 -0.5390691705
O  O26  1  0.18690000  0.00670000  0.10740000  1.0 -0.5390691705
O  O27  1  0.42233000  0.42233000  0.42233000  1.0 -1.0211829044
O  O28  1  0.92233000  0.92233000  0.92233000  1.0 -1.0211829044
O  O29  1  0.39540000  0.48760000  0.49980000  1.0 -0.5280517833
O  O30  1  0.48760000  0.49980000  0.39540000  1.0 -0.5280517833
O  O31  1  0.49980000  0.39540000  0.48760000  1.0 -0.5280517833
O  O32  1  0.89540000  0.99980000  0.98760000  1.0 -0.5280517833
O  O33  1  0.98760000  0.89540000  0.99980000  1.0 -0.5280517833
O  O34  1  0.99980000  0.98760000  0.89540000  1.0 -0.5280517833
O  O35  1  0.32250000  0.49650000  0.48760000  1.0 -0.4858529312
O  O36  1  0.49650000  0.48760000  0.32250000  1.0 -0.4858529312
O  O37  1  0.48760000  0.32250000  0.49650000  1.0 -0.4858529312
O  O38  1  0.82250000  0.98760000  0.99650000  1.0 -0.4858529312
O  O39  1  0.99650000  0.82250000  0.98760000  1.0 -0.4858529312
O  O40  1  0.98760000  0.99650000  0.82250000  1.0 -0.4858529312
O  O41  1  0.99980000  0.82070000  0.88600000  1.0 -0.5103194065
O  O42  1  0.82070000  0.88600000  0.99980000  1.0 -0.5103194065
O  O43  1  0.88600000  0.99980000  0.82070000  1.0 -0.5103194065
O  O44  1  0.49980000  0.38600000  0.32070000  1.0 -0.5103194065
O  O45  1  0.32070000  0.49980000  0.38600000  1.0 -0.5103194065
O  O46  1  0.38600000  0.32070000  0.49980000  1.0 -0.5103194065
O  O47  1  0.99330000  0.89260000  0.81310000  1.0 -0.5390691705
O  O48  1  0.89260000  0.81310000  0.99330000  1.0 -0.5390691705
O  O49  1  0.81310000  0.99330000  0.89260000  1.0 -0.5390691705
O  O50  1  0.49330000  0.31310000  0.39260000  1.0 -0.5390691705
O  O51  1  0.39260000  0.49330000  0.31310000  1.0 -0.5390691705
O  O52  1  0.31310000  0.39260000  0.49330000  1.0 -0.5390691705
