# DDEC6 charges by PACMAN v1.1 (https://github.com/mtap-research/PACMAN-charge/)
data_RUVKAV_ASR_pacman
_symmetry_space_group_name_H-M   'P 1'
_cell_length_a   17.38840000
_cell_length_b   17.38840000
_cell_length_c   17.38840000
_cell_angle_alpha   65.35440000
_cell_angle_beta   65.35440000
_cell_angle_gamma   65.35440000
_symmetry_Int_Tables_number   1
_chemical_formula_structural   CuH3(C5O2)2
_chemical_formula_sum   'Cu6 H18 C60 O24'
_cell_volume   4150.92517320
_cell_formula_units_Z   6
loop_
 _symmetry_equiv_pos_site_id
 _symmetry_equiv_pos_as_xyz
  1  'x, y, z'
loop_
 _atom_site_type_symbol
 _atom_site_label
 _atom_site_symmetry_multiplicity
 _atom_site_fract_x
 _atom_site_fract_y
 _atom_site_fract_z
 _atom_site_occupancy
 _atom_site_charge
Cu  Cu1  1  0.99612000  0.42698000  0.99612000  1.0 0.8555310606
Cu  Cu2  1  0.42698000  0.99612000  0.99612000  1.0 0.8549639224
Cu  Cu3  1  0.99612000  0.99612000  0.42698000  1.0 0.8549639224
Cu  Cu4  1  0.00388000  0.00388000  0.57302000  1.0 0.8555310606
Cu  Cu5  1  0.57302000  0.00388000  0.00388000  1.0 0.8555310606
Cu  Cu6  1  0.00388000  0.57302000  0.00388000  1.0 0.8549639224
H  H1  1  0.26950000  0.26950000  0.97220000  1.0 0.1377006311
H  H2  1  0.26950000  0.97220000  0.26950000  1.0 0.1377006311
H  H3  1  0.97220000  0.26950000  0.26950000  1.0 0.1377006311
H  H4  1  0.73050000  0.02780000  0.73050000  1.0 0.1377006311
H  H5  1  0.73050000  0.73050000  0.02780000  1.0 0.1377006311
H  H6  1  0.02780000  0.73050000  0.73050000  1.0 0.1377006311
H  H7  1  0.27900000  0.49360000  0.97980000  1.0 0.1377006311
H  H8  1  0.49360000  0.97980000  0.27900000  1.0 0.1377006311
H  H9  1  0.97980000  0.27900000  0.49360000  1.0 0.1377006311
H  H10  1  0.72100000  0.02020000  0.50640000  1.0 0.1377006311
H  H11  1  0.50640000  0.72100000  0.02020000  1.0 0.1377006311
H  H12  1  0.02020000  0.50640000  0.72100000  1.0 0.1377006311
H  H13  1  0.72100000  0.50640000  0.02020000  1.0 0.1377006311
H  H14  1  0.50640000  0.02020000  0.72100000  1.0 0.1377006311
H  H15  1  0.02020000  0.72100000  0.50640000  1.0 0.1377006311
H  H16  1  0.27900000  0.97980000  0.49360000  1.0 0.1377006311
H  H17  1  0.49360000  0.27900000  0.97980000  1.0 0.1377006311
H  H18  1  0.97980000  0.49360000  0.27900000  1.0 0.1377006311
C  C1  1  0.43980000  0.43980000  0.98590000  1.0 -0.0642953166
C  C2  1  0.43980000  0.98590000  0.43980000  1.0 -0.0642953166
C  C3  1  0.98590000  0.43980000  0.43980000  1.0 -0.0642953166
C  C4  1  0.56020000  0.01410000  0.56020000  1.0 -0.0642953166
C  C5  1  0.56020000  0.56020000  0.01410000  1.0 -0.0642953166
C  C6  1  0.01410000  0.56020000  0.56020000  1.0 -0.0642953166
C  C7  1  0.47740000  0.47740000  0.99530000  1.0 -0.0432867164
C  C8  1  0.47740000  0.99530000  0.47740000  1.0 -0.0432867164
C  C9  1  0.99530000  0.47740000  0.47740000  1.0 -0.0432867164
C  C10  1  0.52260000  0.00470000  0.52260000  1.0 -0.0432867164
C  C11  1  0.52260000  0.52260000  0.00470000  1.0 -0.0432867164
C  C12  1  0.00470000  0.52260000  0.52260000  1.0 -0.0432867164
C  C13  1  0.25945000  0.38825000  0.97525000  1.0 -0.0232993556
C  C14  1  0.38825000  0.97525000  0.25945000  1.0 -0.0232993556
C  C15  1  0.97525000  0.25945000  0.38825000  1.0 -0.0232993556
C  C16  1  0.74055000  0.02475000  0.61175000  1.0 -0.0232993556
C  C17  1  0.61175000  0.74055000  0.02475000  1.0 -0.0232993556
C  C18  1  0.02475000  0.61175000  0.74055000  1.0 -0.0232993556
C  C19  1  0.74055000  0.61175000  0.02475000  1.0 -0.0232993556
C  C20  1  0.61175000  0.02475000  0.74055000  1.0 -0.0232993556
C  C21  1  0.02475000  0.74055000  0.61175000  1.0 -0.0232993556
C  C22  1  0.25945000  0.97525000  0.38825000  1.0 -0.0232993556
C  C23  1  0.38825000  0.25945000  0.97525000  1.0 -0.0232993556
C  C24  1  0.97525000  0.38825000  0.25945000  1.0 -0.0232993556
C  C25  1  0.30078000  0.30078000  0.97393000  1.0 -0.0926425444
C  C26  1  0.30078000  0.97393000  0.30078000  1.0 -0.0926425444
C  C27  1  0.97393000  0.30078000  0.30078000  1.0 -0.0926425444
C  C28  1  0.69922000  0.02607000  0.69922000  1.0 -0.0926425444
C  C29  1  0.69922000  0.69922000  0.02607000  1.0 -0.0926425444
C  C30  1  0.02607000  0.69922000  0.69922000  1.0 -0.0926425444
C  C31  1  0.39360000  0.39360000  0.98035000  1.0 0.0977722196
C  C32  1  0.39360000  0.98035000  0.39360000  1.0 0.0977722196
C  C33  1  0.98035000  0.39360000  0.39360000  1.0 0.0977722196
C  C34  1  0.60640000  0.01965000  0.60640000  1.0 0.0977722196
C  C35  1  0.60640000  0.60640000  0.01965000  1.0 0.0977722196
C  C36  1  0.01965000  0.60640000  0.60640000  1.0 0.0977722196
C  C37  1  0.30607000  0.43517000  0.97867000  1.0 -0.1189578174
C  C38  1  0.43517000  0.97867000  0.30607000  1.0 -0.1189578174
C  C39  1  0.97867000  0.30607000  0.43517000  1.0 -0.1189578174
C  C40  1  0.69393000  0.02133000  0.56483000  1.0 -0.1189578174
C  C41  1  0.56483000  0.69393000  0.02133000  1.0 -0.1189578174
C  C42  1  0.02133000  0.56483000  0.69393000  1.0 -0.1189578174
C  C43  1  0.69393000  0.56483000  0.02133000  1.0 -0.1189578174
C  C44  1  0.56483000  0.02133000  0.69393000  1.0 -0.1189578174
C  C45  1  0.02133000  0.69393000  0.56483000  1.0 -0.1189578174
C  C46  1  0.30607000  0.97867000  0.43517000  1.0 -0.1189578174
C  C47  1  0.43517000  0.30607000  0.97867000  1.0 -0.1189578174
C  C48  1  0.97867000  0.43517000  0.30607000  1.0 -0.1189578174
C  C49  1  0.16358000  0.43098000  0.97898000  1.0 0.5809491514
C  C50  1  0.43098000  0.97898000  0.16358000  1.0 0.5809491514
C  C51  1  0.97898000  0.16358000  0.43098000  1.0 0.5809491514
C  C52  1  0.83642000  0.02102000  0.56902000  1.0 0.5809491514
C  C53  1  0.56902000  0.83642000  0.02102000  1.0 0.5809491514
C  C54  1  0.02102000  0.56902000  0.83642000  1.0 0.5809491514
C  C55  1  0.83642000  0.56902000  0.02102000  1.0 0.5809491514
C  C56  1  0.56902000  0.02102000  0.83642000  1.0 0.5809491514
C  C57  1  0.02102000  0.83642000  0.56902000  1.0 0.5809491514
C  C58  1  0.16358000  0.97898000  0.43098000  1.0 0.5809491514
C  C59  1  0.43098000  0.16358000  0.97898000  1.0 0.5809491514
C  C60  1  0.97898000  0.43098000  0.16358000  1.0 0.5809491514
O  O1  1  0.12384000  0.38518000  0.97866000  1.0 -0.5108202459
O  O2  1  0.38518000  0.97866000  0.12384000  1.0 -0.5108202459
O  O3  1  0.97866000  0.12384000  0.38518000  1.0 -0.5108202459
O  O4  1  0.87616000  0.02134000  0.61482000  1.0 -0.5108202459
O  O5  1  0.61482000  0.87616000  0.02134000  1.0 -0.5108202459
O  O6  1  0.02134000  0.61482000  0.87616000  1.0 -0.5108202459
O  O7  1  0.87616000  0.61482000  0.02134000  1.0 -0.5108202459
O  O8  1  0.61482000  0.02134000  0.87616000  1.0 -0.5108202459
O  O9  1  0.02134000  0.87616000  0.61482000  1.0 -0.5108202459
O  O10  1  0.12384000  0.97866000  0.38518000  1.0 -0.5108202459
O  O11  1  0.38518000  0.12384000  0.97866000  1.0 -0.5108202459
O  O12  1  0.97866000  0.38518000  0.12384000  1.0 -0.5108202459
O  O13  1  0.13039000  0.50835000  0.98442000  1.0 -0.5108202459
O  O14  1  0.50835000  0.98442000  0.13039000  1.0 -0.5108202459
O  O15  1  0.98442000  0.13039000  0.50835000  1.0 -0.5108202459
O  O16  1  0.86961000  0.01558000  0.49165000  1.0 -0.5108202459
O  O17  1  0.49165000  0.86961000  0.01558000  1.0 -0.5108202459
O  O18  1  0.01558000  0.49165000  0.86961000  1.0 -0.5108202459
O  O19  1  0.86961000  0.49165000  0.01558000  1.0 -0.5108202459
O  O20  1  0.49165000  0.01558000  0.86961000  1.0 -0.5108202459
O  O21  1  0.01558000  0.86961000  0.49165000  1.0 -0.5108202459
O  O22  1  0.13039000  0.98442000  0.50835000  1.0 -0.5108202459
O  O23  1  0.50835000  0.13039000  0.98442000  1.0 -0.5108202459
O  O24  1  0.98442000  0.50835000  0.13039000  1.0 -0.5108202459
