# DDEC6 charges by PACMAN v1.1 (https://github.com/mtap-research/PACMAN-charge/)
data_RUVMAX_ASR_pacman
_symmetry_space_group_name_H-M   'P 1'
_cell_length_a   12.91400000
_cell_length_b   12.91400000
_cell_length_c   14.76500000
_cell_angle_alpha   88.47760000
_cell_angle_beta   91.52240000
_cell_angle_gamma   89.64240000
_symmetry_Int_Tables_number   1
_chemical_formula_structural   ZnH5C10N3O4
_chemical_formula_sum   'Zn6 H30 C60 N18 O24'
_cell_volume   2460.58213796
_cell_formula_units_Z   6
loop_
 _symmetry_equiv_pos_site_id
 _symmetry_equiv_pos_as_xyz
  1  'x, y, z'
loop_
 _atom_site_type_symbol
 _atom_site_label
 _atom_site_symmetry_multiplicity
 _atom_site_fract_x
 _atom_site_fract_y
 _atom_site_fract_z
 _atom_site_occupancy
 _atom_site_charge
Zn  Zn1  1  0.58884000  0.93416000  0.77449000  1.0 0.6895139049
Zn  Zn2  1  0.93416000  0.58884000  0.72551000  1.0 0.6895139049
Zn  Zn3  1  0.41116000  0.06584000  0.22551000  1.0 0.6895139049
Zn  Zn4  1  0.06584000  0.41116000  0.27449000  1.0 0.6895139049
Zn  Zn5  1  0.38174000  0.38174000  0.75000000  1.0 0.7180326562
Zn  Zn6  1  0.61826000  0.61826000  0.25000000  1.0 0.7180326562
H  H1  1  0.55600000  0.15800000  0.50900000  1.0 0.3611616473
H  H2  1  0.15800000  0.55600000  0.99100000  1.0 0.3611616473
H  H3  1  0.44400000  0.84200000  0.49100000  1.0 0.3611616473
H  H4  1  0.84200000  0.44400000  0.00900000  1.0 0.3611616473
H  H5  1  0.96300000  0.96300000  0.75000000  1.0 0.3322930615
H  H6  1  0.03700000  0.03700000  0.25000000  1.0 0.3322930615
H  H7  1  0.47630000  0.23210000  0.09290000  1.0 0.1129281762
H  H8  1  0.23210000  0.47630000  0.40710000  1.0 0.1129281762
H  H9  1  0.52370000  0.76790000  0.90710000  1.0 0.1129281762
H  H10  1  0.76790000  0.52370000  0.59290000  1.0 0.1129281762
H  H11  1  0.49610000  0.26470000  0.94380000  1.0 0.1507366429
H  H12  1  0.26470000  0.49610000  0.55620000  1.0 0.1507366429
H  H13  1  0.50390000  0.73530000  0.05620000  1.0 0.1507366429
H  H14  1  0.73530000  0.50390000  0.44380000  1.0 0.1507366429
H  H15  1  0.36100000  0.99580000  0.89030000  1.0 0.1507366429
H  H16  1  0.99580000  0.36100000  0.60970000  1.0 0.1507366429
H  H17  1  0.63900000  0.00420000  0.10970000  1.0 0.1507366429
H  H18  1  0.00420000  0.63900000  0.39030000  1.0 0.1448203455
H  H19  1  0.34260000  0.96900000  0.04320000  1.0 0.1170313618
H  H20  1  0.96900000  0.34260000  0.45680000  1.0 0.1170313618
H  H21  1  0.65740000  0.03100000  0.95680000  1.0 0.1170313618
H  H22  1  0.03100000  0.65740000  0.54320000  1.0 0.1170313618
H  H23  1  0.46870000  0.54710000  0.62500000  1.0 0.1170313618
H  H24  1  0.54710000  0.46870000  0.87500000  1.0 0.1170313618
H  H25  1  0.53130000  0.45290000  0.37500000  1.0 0.1170313618
H  H26  1  0.45290000  0.53130000  0.12500000  1.0 0.1170313618
H  H27  1  0.58630000  0.67930000  0.62460000  1.0 0.1507366429
H  H28  1  0.67930000  0.58630000  0.87540000  1.0 0.1507366429
H  H29  1  0.41370000  0.32070000  0.37540000  1.0 0.1507366429
H  H30  1  0.32070000  0.41370000  0.12460000  1.0 0.1507366429
C  C1  1  0.45560000  0.14740000  0.80230000  1.0 0.3027314599
C  C2  1  0.14740000  0.45560000  0.69770000  1.0 0.3027314599
C  C3  1  0.54440000  0.85260000  0.19770000  1.0 0.3027314599
C  C4  1  0.85260000  0.54440000  0.30230000  1.0 0.3027314599
C  C5  1  0.51080000  0.11320000  0.67050000  1.0 -0.0088221222
C  C6  1  0.11320000  0.51080000  0.82950000  1.0 -0.0088221222
C  C7  1  0.48920000  0.88680000  0.32950000  1.0 -0.0088221222
C  C8  1  0.88680000  0.48920000  0.17050000  1.0 -0.0088221222
C  C9  1  0.47060000  0.21000000  0.66620000  1.0 -0.0193720414
C  C10  1  0.21000000  0.47060000  0.83380000  1.0 -0.0193720414
C  C11  1  0.52940000  0.79000000  0.33380000  1.0 -0.0193720414
C  C12  1  0.79000000  0.52940000  0.16620000  1.0 -0.0193720414
C  C13  1  0.56370000  0.05210000  0.60240000  1.0 0.5710496883
C  C14  1  0.05210000  0.56370000  0.89760000  1.0 0.5710496883
C  C15  1  0.43630000  0.94790000  0.39760000  1.0 0.5710496883
C  C16  1  0.94790000  0.43630000  0.10240000  1.0 0.5710496883
C  C17  1  0.45800000  0.28760000  0.59110000  1.0 0.5599887352
C  C18  1  0.28760000  0.45800000  0.90890000  1.0 0.5599887352
C  C19  1  0.54200000  0.71240000  0.40890000  1.0 0.5599887352
C  C20  1  0.71240000  0.54200000  0.09110000  1.0 0.5599887352
C  C21  1  0.45430000  0.18310000  0.05170000  1.0 0.0582764344
C  C22  1  0.18310000  0.45430000  0.44830000  1.0 0.0582764344
C  C23  1  0.54570000  0.81690000  0.94830000  1.0 0.0582764344
C  C24  1  0.81690000  0.54570000  0.55170000  1.0 0.0582764344
C  C25  1  0.46580000  0.20280000  0.96250000  1.0 -0.1645016094
C  C26  1  0.20280000  0.46580000  0.53750000  1.0 -0.1645016094
C  C27  1  0.53420000  0.79720000  0.03750000  1.0 -0.1645016094
C  C28  1  0.79720000  0.53420000  0.46250000  1.0 -0.1707199368
C  C29  1  0.43370000  0.13350000  0.89850000  1.0 0.0838746048
C  C30  1  0.13350000  0.43370000  0.60150000  1.0 0.0838746048
C  C31  1  0.56630000  0.86650000  0.10150000  1.0 0.0838746048
C  C32  1  0.86650000  0.56630000  0.39850000  1.0 0.0838746048
C  C33  1  0.38600000  0.04440000  0.93060000  1.0 -0.1707199368
C  C34  1  0.04440000  0.38600000  0.56940000  1.0 -0.1707199368
C  C35  1  0.61400000  0.95560000  0.06940000  1.0 -0.1707199368
C  C36  1  0.95560000  0.61400000  0.43060000  1.0 -0.1707199368
C  C37  1  0.37590000  0.02830000  0.02250000  1.0 0.0838746048
C  C38  1  0.02830000  0.37590000  0.47750000  1.0 0.0870056118
C  C39  1  0.62410000  0.97170000  0.97750000  1.0 0.0838746048
C  C40  1  0.97170000  0.62410000  0.52250000  1.0 0.0838746048
C  C41  1  0.72740000  0.72740000  0.75000000  1.0 0.29194629
C  C42  1  0.27260000  0.27260000  0.25000000  1.0 0.29194629
C  C43  1  0.79990000  0.87590000  0.75560000  1.0 -0.0193720414
C  C44  1  0.87590000  0.79990000  0.74440000  1.0 -0.0193720414
C  C45  1  0.20010000  0.12410000  0.24440000  1.0 -0.0193720414
C  C46  1  0.12410000  0.20010000  0.25560000  1.0 -0.0193720414
C  C47  1  0.80680000  0.98720000  0.76560000  1.0 0.5710496883
C  C48  1  0.98720000  0.80680000  0.73440000  1.0 0.5710496883
C  C49  1  0.19320000  0.01280000  0.23440000  1.0 0.5710496883
C  C50  1  0.01280000  0.19320000  0.26560000  1.0 0.5710496883
C  C51  1  0.50930000  0.55710000  0.67690000  1.0 0.0870056118
C  C52  1  0.55710000  0.50930000  0.82310000  1.0 0.0870056118
C  C53  1  0.49070000  0.44290000  0.32310000  1.0 0.0870056118
C  C54  1  0.44290000  0.49070000  0.17690000  1.0 0.0870056118
C  C55  1  0.58140000  0.63520000  0.67520000  1.0 -0.1707199368
C  C56  1  0.63520000  0.58140000  0.82480000  1.0 -0.1707199368
C  C57  1  0.41860000  0.36480000  0.32480000  1.0 -0.1707199368
C  C58  1  0.36480000  0.41860000  0.17520000  1.0 -0.1707199368
C  C59  1  0.64670000  0.64670000  0.75000000  1.0 0.0714052151
C  C60  1  0.35330000  0.35330000  0.25000000  1.0 0.0714052151
N  N1  1  0.50200000  0.07140000  0.75630000  1.0 -0.3539975702
N  N2  1  0.07140000  0.50200000  0.74370000  1.0 -0.3539975702
N  N3  1  0.49800000  0.92860000  0.24370000  1.0 -0.3539975702
N  N4  1  0.92860000  0.49800000  0.25630000  1.0 -0.3539975702
N  N5  1  0.43560000  0.23400000  0.75110000  1.0 -0.3539975702
N  N6  1  0.23400000  0.43560000  0.74890000  1.0 -0.3551687021
N  N7  1  0.56440000  0.76600000  0.24890000  1.0 -0.3551687021
N  N8  1  0.76600000  0.56440000  0.25110000  1.0 -0.3539975702
N  N9  1  0.41230000  0.09510000  0.08290000  1.0 -0.2175227646
N  N10  1  0.09510000  0.41230000  0.41710000  1.0 -0.2175227646
N  N11  1  0.58770000  0.90490000  0.91710000  1.0 -0.2175227646
N  N12  1  0.90490000  0.58770000  0.58290000  1.0 -0.2175227646
N  N13  1  0.70750000  0.82830000  0.75680000  1.0 -0.3168136497
N  N14  1  0.82830000  0.70750000  0.74320000  1.0 -0.3168136497
N  N15  1  0.29250000  0.17170000  0.24320000  1.0 -0.3168136497
N  N16  1  0.17170000  0.29250000  0.25680000  1.0 -0.3168136497
N  N17  1  0.49420000  0.49420000  0.75000000  1.0 -0.2308567186
N  N18  1  0.50580000  0.50580000  0.25000000  1.0 -0.2308567186
O  O1  1  0.59490000  0.96330000  0.62410000  1.0 -0.4745709021
O  O2  1  0.96330000  0.59490000  0.87590000  1.0 -0.4773504157
O  O3  1  0.40510000  0.03670000  0.37590000  1.0 -0.4773504157
O  O4  1  0.03670000  0.40510000  0.12410000  1.0 -0.4745709021
O  O5  1  0.57610000  0.09270000  0.52310000  1.0 -0.4116189797
O  O6  1  0.09270000  0.57610000  0.97690000  1.0 -0.4150657971
O  O7  1  0.42390000  0.90730000  0.47690000  1.0 -0.4116189797
O  O8  1  0.90730000  0.42390000  0.02310000  1.0 -0.4116189797
O  O9  1  0.40860000  0.36860000  0.60840000  1.0 -0.5434230585
O  O10  1  0.36860000  0.40860000  0.89160000  1.0 -0.5434230585
O  O11  1  0.59140000  0.63140000  0.39160000  1.0 -0.5434230585
O  O12  1  0.63140000  0.59140000  0.10840000  1.0 -0.5434230585
O  O13  1  0.49560000  0.26840000  0.51640000  1.0 -0.5100859965
O  O14  1  0.26840000  0.49560000  0.98360000  1.0 -0.5100859965
O  O15  1  0.50440000  0.73160000  0.48360000  1.0 -0.5100859965
O  O16  1  0.73160000  0.50440000  0.01640000  1.0 -0.5100859965
O  O17  1  0.72600000  0.03600000  0.78020000  1.0 -0.5100859965
O  O18  1  0.03600000  0.72600000  0.71980000  1.0 -0.5100859965
O  O19  1  0.27400000  0.96400000  0.21980000  1.0 -0.5100859965
O  O20  1  0.96400000  0.27400000  0.28020000  1.0 -0.5100859965
O  O21  1  0.89600000  0.03080000  0.76050000  1.0 -0.5100859965
O  O22  1  0.03080000  0.89600000  0.73950000  1.0 -0.5100859965
O  O23  1  0.10400000  0.96920000  0.23950000  1.0 -0.5034434219
O  O24  1  0.96920000  0.10400000  0.26050000  1.0 -0.5100859965
