# DDEC6 charges by PACMAN v1.1 (https://github.com/mtap-research/PACMAN-charge/)
data_RUYKAZ_ion_pacman
_symmetry_space_group_name_H-M   'P 1'
_cell_length_a   19.47520000
_cell_length_b   25.54320000
_cell_length_c   21.97610000
_cell_angle_alpha   90.00000000
_cell_angle_beta   119.57900000
_cell_angle_gamma   90.00000000
_symmetry_Int_Tables_number   1
_chemical_formula_structural   Ag2P2H89C79S8N4OF12
_chemical_formula_sum   'Ag8 P8 H356 C316 S32 N16 O4 F48'
_cell_volume   9507.47721436
_cell_formula_units_Z   4
loop_
 _symmetry_equiv_pos_site_id
 _symmetry_equiv_pos_as_xyz
  1  'x, y, z'
loop_
 _atom_site_type_symbol
 _atom_site_label
 _atom_site_symmetry_multiplicity
 _atom_site_fract_x
 _atom_site_fract_y
 _atom_site_fract_z
 _atom_site_occupancy
 _atom_site_charge
Ag  Ag1  1  0.06227000  0.02783000  0.35676000  1.0 0.3427873841
Ag  Ag2  1  0.93773000  0.52783000  0.14324000  1.0 0.3427873841
Ag  Ag3  1  0.93773000  0.97217000  0.64324000  1.0 0.3427873841
Ag  Ag4  1  0.06227000  0.47217000  0.85676000  1.0 0.3427873841
Ag  Ag5  1  0.41873000  0.06981000  0.12752000  1.0 0.3631910747
Ag  Ag6  1  0.58127000  0.56981000  0.37248000  1.0 0.3631910747
Ag  Ag7  1  0.58127000  0.93019000  0.87248000  1.0 0.3631910747
Ag  Ag8  1  0.41873000  0.43019000  0.62752000  1.0 0.3631910747
P  P1  1  0.02416000  0.66856000  0.91930000  1.0 1.4318872085
P  P2  1  0.97584000  0.16856000  0.58070000  1.0 1.4318872085
P  P3  1  0.97584000  0.33144000  0.08070000  1.0 1.4318872085
P  P4  1  0.02416000  0.83144000  0.41930000  1.0 1.4318872085
P  P5  1  0.56620000  0.64300000  0.60340000  1.0 1.5144675961
P  P6  1  0.43380000  0.14300000  0.89660000  1.0 1.5144675961
P  P7  1  0.43380000  0.35700000  0.39660000  1.0 1.5144675961
P  P8  1  0.56620000  0.85700000  0.10340000  1.0 1.516334056
H  H1  1  0.38910000  0.08700000  0.41670000  1.0 0.1198805531
H  H2  1  0.61090000  0.58700000  0.08330000  1.0 0.1198805531
H  H3  1  0.61090000  0.91300000  0.58330000  1.0 0.1198805531
H  H4  1  0.38910000  0.41300000  0.91670000  1.0 0.1198805531
H  H5  1  0.40480000  0.10000000  0.24070000  1.0 0.100679205
H  H6  1  0.59520000  0.60000000  0.25930000  1.0 0.100679205
H  H7  1  0.59520000  0.90000000  0.75930000  1.0 0.100679205
H  H8  1  0.40480000  0.40000000  0.74070000  1.0 0.100679205
H  H9  1  0.54940000  0.93580000  0.42800000  1.0 0.1198805531
H  H10  1  0.45060000  0.43580000  0.07200000  1.0 0.1198805531
H  H11  1  0.45060000  0.06420000  0.57200000  1.0 0.1198805531
H  H12  1  0.54940000  0.56420000  0.92800000  1.0 0.1198805531
H  H13  1  0.55880000  0.94060000  0.35930000  1.0 0.1294093987
H  H14  1  0.44120000  0.44060000  0.14070000  1.0 0.1294093987
H  H15  1  0.44120000  0.05940000  0.64070000  1.0 0.1294093987
H  H16  1  0.55880000  0.55940000  0.85930000  1.0 0.1294093987
H  H17  1  0.58470000  0.86410000  0.31150000  1.0 0.13929493
H  H18  1  0.41530000  0.36410000  0.18850000  1.0 0.13929493
H  H19  1  0.41530000  0.13590000  0.68850000  1.0 0.13929493
H  H20  1  0.58470000  0.63590000  0.81150000  1.0 0.13929493
H  H21  1  0.58890000  0.77300000  0.30310000  1.0 0.1294093987
H  H22  1  0.41110000  0.27300000  0.19690000  1.0 0.1294093987
H  H23  1  0.41110000  0.22700000  0.69690000  1.0 0.1294093987
H  H24  1  0.58890000  0.72700000  0.80310000  1.0 0.1294093987
H  H25  1  0.54640000  0.75690000  0.46480000  1.0 0.1486692383
H  H26  1  0.45360000  0.25690000  0.03520000  1.0 0.1486692383
H  H27  1  0.45360000  0.24310000  0.53520000  1.0 0.1486692383
H  H28  1  0.54640000  0.74310000  0.96480000  1.0 0.1486692383
H  H29  1  0.53010000  0.84720000  0.46370000  1.0 0.1294093987
H  H30  1  0.46990000  0.34720000  0.03630000  1.0 0.1294093987
H  H31  1  0.46990000  0.15280000  0.53630000  1.0 0.1294093987
H  H32  1  0.53010000  0.65280000  0.96370000  1.0 0.1294093987
H  H33  1  0.36010000  0.17800000  0.40880000  1.0 0.1198805531
H  H34  1  0.63990000  0.67800000  0.09120000  1.0 0.1198805531
H  H35  1  0.63990000  0.82200000  0.59120000  1.0 0.1198805531
H  H36  1  0.36010000  0.32200000  0.90880000  1.0 0.1198805531
H  H37  1  0.31580000  0.21390000  0.34050000  1.0 0.13929493
H  H38  1  0.68420000  0.71390000  0.15950000  1.0 0.13929493
H  H39  1  0.68420000  0.78610000  0.65950000  1.0 0.13929493
H  H40  1  0.31580000  0.28610000  0.84050000  1.0 0.13929493
H  H41  1  0.29160000  0.15370000  0.33740000  1.0 0.1294093987
H  H42  1  0.70840000  0.65370000  0.16260000  1.0 0.1294093987
H  H43  1  0.70840000  0.84630000  0.66260000  1.0 0.1294093987
H  H44  1  0.29160000  0.34630000  0.83740000  1.0 0.1294093987
H  H45  1  0.51670000  0.18740000  0.38260000  1.0 0.13929493
H  H46  1  0.48330000  0.68740000  0.11740000  1.0 0.13929493
H  H47  1  0.48330000  0.81260000  0.61740000  1.0 0.13929493
H  H48  1  0.51670000  0.31260000  0.88260000  1.0 0.13929493
H  H49  1  0.47400000  0.20910000  0.42380000  1.0 0.1294093987
H  H50  1  0.52600000  0.70910000  0.07620000  1.0 0.1294093987
H  H51  1  0.52600000  0.79090000  0.57620000  1.0 0.1294093987
H  H52  1  0.47400000  0.29090000  0.92380000  1.0 0.1294093987
H  H53  1  0.50130000  0.14920000  0.43230000  1.0 0.1198805531
H  H54  1  0.49870000  0.64920000  0.06770000  1.0 0.1198805531
H  H55  1  0.49870000  0.85080000  0.56770000  1.0 0.1198805531
H  H56  1  0.50130000  0.35080000  0.93230000  1.0 0.1198805531
H  H57  1  0.31300000  0.18260000  0.23510000  1.0 0.1198805531
H  H58  1  0.68700000  0.68260000  0.26490000  1.0 0.1198805531
H  H59  1  0.68700000  0.81740000  0.76490000  1.0 0.1198805531
H  H60  1  0.31300000  0.31740000  0.73510000  1.0 0.1198805531
H  H61  1  0.38220000  0.22510000  0.26990000  1.0 0.1294093987
H  H62  1  0.61780000  0.72510000  0.23010000  1.0 0.1294093987
H  H63  1  0.61780000  0.77490000  0.73010000  1.0 0.1294093987
H  H64  1  0.38220000  0.27490000  0.76990000  1.0 0.1294093987
H  H65  1  0.39740000  0.17070000  0.24240000  1.0 0.1198805531
H  H66  1  0.60260000  0.67070000  0.25760000  1.0 0.1198805531
H  H67  1  0.60260000  0.82930000  0.75760000  1.0 0.1198805531
H  H68  1  0.39740000  0.32930000  0.74240000  1.0 0.1198805531
H  H69  1  0.13680000  0.85970000  0.30880000  1.0 0.1198805531
H  H70  1  0.86320000  0.35970000  0.19120000  1.0 0.1198805531
H  H71  1  0.86320000  0.14030000  0.69120000  1.0 0.1198805531
H  H72  1  0.13680000  0.64030000  0.80880000  1.0 0.1198805531
H  H73  1  0.37260000  0.87680000  0.43160000  1.0 0.1294093987
H  H74  1  0.62740000  0.37680000  0.06840000  1.0 0.1294093987
H  H75  1  0.62740000  0.12320000  0.56840000  1.0 0.1294093987
H  H76  1  0.37260000  0.62320000  0.93160000  1.0 0.1294093987
H  H77  1  0.27980000  0.08570000  0.47890000  1.0 0.1486692383
H  H78  1  0.72020000  0.58570000  0.02110000  1.0 0.1486692383
H  H79  1  0.72020000  0.91430000  0.52110000  1.0 0.1486692383
H  H80  1  0.27980000  0.41430000  0.97890000  1.0 0.1486692383
H  H81  1  0.31320000  0.02720000  0.49410000  1.0 0.1198805531
H  H82  1  0.68680000  0.52720000  0.00590000  1.0 0.1198805531
H  H83  1  0.68680000  0.97280000  0.50590000  1.0 0.1198805531
H  H84  1  0.31320000  0.47280000  0.99410000  1.0 0.1198805531
H  H85  1  0.20030000  0.10990000  0.52540000  1.0 0.1294093987
H  H86  1  0.79970000  0.60990000  0.97460000  1.0 0.1294093987
H  H87  1  0.79970000  0.89010000  0.47460000  1.0 0.1294093987
H  H88  1  0.20030000  0.39010000  0.02540000  1.0 0.1294093987
H  H89  1  0.12420000  0.08880000  0.57730000  1.0 0.1294093987
H  H90  1  0.87580000  0.58880000  0.92270000  1.0 0.1294093987
H  H91  1  0.87580000  0.91120000  0.42270000  1.0 0.1294093987
H  H92  1  0.12420000  0.41120000  0.07730000  1.0 0.1294093987
H  H93  1  0.12290000  0.93570000  0.52430000  1.0 0.1294093987
H  H94  1  0.87710000  0.43570000  0.97570000  1.0 0.1294093987
H  H95  1  0.87710000  0.06430000  0.47570000  1.0 0.1294093987
H  H96  1  0.12290000  0.56430000  0.02430000  1.0 0.1294093987
H  H97  1  0.20560000  0.95540000  0.48060000  1.0 0.1294093987
H  H98  1  0.79440000  0.45540000  0.01940000  1.0 0.1294093987
H  H99  1  0.79440000  0.04460000  0.51940000  1.0 0.1294093987
H  H100  1  0.20560000  0.54460000  0.98060000  1.0 0.1294093987
H  H101  1  0.34840000  0.74160000  0.42500000  1.0 0.069525589
H  H102  1  0.65160000  0.24160000  0.07500000  1.0 0.069525589
H  H103  1  0.65160000  0.25840000  0.57500000  1.0 0.069525589
H  H104  1  0.34840000  0.75840000  0.92500000  1.0 0.069525589
H  H105  1  0.38670000  0.79630000  0.42180000  1.0 0.0610647351
H  H106  1  0.61330000  0.29630000  0.07820000  1.0 0.0610647351
H  H107  1  0.61330000  0.20370000  0.57820000  1.0 0.0610647351
H  H108  1  0.38670000  0.70370000  0.92180000  1.0 0.0610647351
H  H109  1  0.35190000  0.78930000  0.47380000  1.0 0.0900202365
H  H110  1  0.64810000  0.28930000  0.02620000  1.0 0.0900202365
H  H111  1  0.64810000  0.21070000  0.52620000  1.0 0.0900202365
H  H112  1  0.35190000  0.71070000  0.97380000  1.0 0.0900202365
H  H113  1  0.22520000  0.74100000  0.41290000  1.0 0.0304411729
H  H114  1  0.77480000  0.24100000  0.08710000  1.0 0.0304411729
H  H115  1  0.77480000  0.25900000  0.58710000  1.0 0.0304411729
H  H116  1  0.22520000  0.75900000  0.91290000  1.0 0.0304411729
H  H117  1  0.17700000  0.79460000  0.39900000  1.0 0.069525589
H  H118  1  0.82300000  0.29460000  0.10100000  1.0 0.069525589
H  H119  1  0.82300000  0.20540000  0.60100000  1.0 0.069525589
H  H120  1  0.17700000  0.70540000  0.89900000  1.0 0.069525589
H  H121  1  0.15950000  0.75660000  0.33500000  1.0 0.1089328008
H  H122  1  0.84050000  0.25660000  0.16500000  1.0 0.1089328008
H  H123  1  0.84050000  0.24340000  0.66500000  1.0 0.1089328008
H  H124  1  0.15950000  0.74340000  0.83500000  1.0 0.1089328008
H  H125  1  0.20630000  0.77560000  0.26610000  1.0 0.0033857006
H  H126  1  0.79370000  0.27560000  0.23390000  1.0 0.0033857006
H  H127  1  0.79370000  0.22440000  0.73390000  1.0 0.0033857006
H  H128  1  0.20630000  0.72440000  0.76610000  1.0 0.0033857006
H  H129  1  0.26460000  0.82390000  0.28080000  1.0 0.0900202365
H  H130  1  0.73540000  0.32390000  0.21920000  1.0 0.0900202365
H  H131  1  0.73540000  0.17610000  0.71920000  1.0 0.0900202365
H  H132  1  0.26460000  0.67610000  0.78080000  1.0 0.0900202365
H  H133  1  0.29960000  0.76610000  0.30400000  1.0 0.100679205
H  H134  1  0.70040000  0.26610000  0.19600000  1.0 0.100679205
H  H135  1  0.70040000  0.23390000  0.69600000  1.0 0.100679205
H  H136  1  0.29960000  0.73390000  0.80400000  1.0 0.100679205
H  H137  1  0.07740000  0.07250000  0.06770000  1.0 0.1089328008
H  H138  1  0.92260000  0.57250000  0.43230000  1.0 0.1089328008
H  H139  1  0.92260000  0.92750000  0.93230000  1.0 0.1089328008
H  H140  1  0.07740000  0.42750000  0.56770000  1.0 0.1089328008
H  H141  1  0.05370000  0.06370000  0.24000000  1.0 0.1089328008
H  H142  1  0.94630000  0.56370000  0.26000000  1.0 0.1089328008
H  H143  1  0.94630000  0.93630000  0.76000000  1.0 0.1089328008
H  H144  1  0.05370000  0.43630000  0.74000000  1.0 0.1089328008
H  H145  1  0.97680000  0.88790000  0.06690000  1.0 0.1294093987
H  H146  1  0.02320000  0.38790000  0.43310000  1.0 0.1294093987
H  H147  1  0.02320000  0.11210000  0.93310000  1.0 0.1294093987
H  H148  1  0.97680000  0.61210000  0.56690000  1.0 0.1294093987
H  H149  1  0.97090000  0.90090000  0.13560000  1.0 0.1198805531
H  H150  1  0.02910000  0.40090000  0.36440000  1.0 0.1198805531
H  H151  1  0.02910000  0.09910000  0.86440000  1.0 0.1198805531
H  H152  1  0.97090000  0.59910000  0.63560000  1.0 0.1198805531
H  H153  1  0.01970000  0.79870000  0.05380000  1.0 0.1294093987
H  H154  1  0.98030000  0.29870000  0.44620000  1.0 0.1294093987
H  H155  1  0.98030000  0.20130000  0.94620000  1.0 0.1294093987
H  H156  1  0.01970000  0.70130000  0.55380000  1.0 0.1294093987
H  H157  1  0.00910000  0.70850000  0.06750000  1.0 0.1198805531
H  H158  1  0.99090000  0.20850000  0.43250000  1.0 0.1198805531
H  H159  1  0.99090000  0.29150000  0.93250000  1.0 0.1198805531
H  H160  1  0.00910000  0.79150000  0.56750000  1.0 0.1198805531
H  H161  1  0.95680000  0.74050000  0.22240000  1.0 0.1294093987
H  H162  1  0.04320000  0.24050000  0.27760000  1.0 0.1294093987
H  H163  1  0.04320000  0.25950000  0.77760000  1.0 0.1294093987
H  H164  1  0.95680000  0.75950000  0.72240000  1.0 0.1294093987
H  H165  1  0.97140000  0.83050000  0.20990000  1.0 0.1294093987
H  H166  1  0.02860000  0.33050000  0.29010000  1.0 0.1294093987
H  H167  1  0.02860000  0.16950000  0.79010000  1.0 0.1294093987
H  H168  1  0.97140000  0.66950000  0.70990000  1.0 0.1294093987
H  H169  1  0.15220000  0.15750000  0.20320000  1.0 0.1294093987
H  H170  1  0.84780000  0.65750000  0.29680000  1.0 0.1294093987
H  H171  1  0.84780000  0.84250000  0.79680000  1.0 0.1294093987
H  H172  1  0.15220000  0.34250000  0.70320000  1.0 0.1294093987
H  H173  1  0.09230000  0.20190000  0.19930000  1.0 0.1294093987
H  H174  1  0.90770000  0.70190000  0.30070000  1.0 0.1294093987
H  H175  1  0.90770000  0.79810000  0.80070000  1.0 0.1294093987
H  H176  1  0.09230000  0.29810000  0.69930000  1.0 0.1294093987
H  H177  1  0.10890000  0.15200000  0.24860000  1.0 0.1294093987
H  H178  1  0.89110000  0.65200000  0.25140000  1.0 0.1294093987
H  H179  1  0.89110000  0.84800000  0.75140000  1.0 0.1294093987
H  H180  1  0.10890000  0.34800000  0.74860000  1.0 0.1294093987
H  H181  1  0.06020000  0.14730000  0.06350000  1.0 0.1089328008
H  H182  1  0.93980000  0.64730000  0.43650000  1.0 0.1089328008
H  H183  1  0.93980000  0.85270000  0.93650000  1.0 0.1089328008
H  H184  1  0.06020000  0.35270000  0.56350000  1.0 0.1089328008
H  H185  1  0.96740000  0.14740000  0.03710000  1.0 0.1198805531
H  H186  1  0.03260000  0.64740000  0.46290000  1.0 0.1198805531
H  H187  1  0.03260000  0.85260000  0.96290000  1.0 0.1198805531
H  H188  1  0.96740000  0.35260000  0.53710000  1.0 0.1198805531
H  H189  1  0.02020000  0.19730000  0.07740000  1.0 0.1294093987
H  H190  1  0.97980000  0.69730000  0.42260000  1.0 0.1294093987
H  H191  1  0.97980000  0.80270000  0.92260000  1.0 0.1294093987
H  H192  1  0.02020000  0.30270000  0.57740000  1.0 0.1294093987
H  H193  1  0.94500000  0.18040000  0.14310000  1.0 0.13929493
H  H194  1  0.05500000  0.68040000  0.35690000  1.0 0.13929493
H  H195  1  0.05500000  0.81960000  0.85690000  1.0 0.13929493
H  H196  1  0.94500000  0.31960000  0.64310000  1.0 0.13929493
H  H197  1  0.91590000  0.12320000  0.11130000  1.0 0.1294093987
H  H198  1  0.08410000  0.62320000  0.38870000  1.0 0.1294093987
H  H199  1  0.08410000  0.87680000  0.88870000  1.0 0.1294093987
H  H200  1  0.91590000  0.37680000  0.61130000  1.0 0.1294093987
H  H201  1  0.96780000  0.13090000  0.19410000  1.0 0.1294093987
H  H202  1  0.03220000  0.63090000  0.30590000  1.0 0.1294093987
H  H203  1  0.03220000  0.86910000  0.80590000  1.0 0.1294093987
H  H204  1  0.96780000  0.36910000  0.69410000  1.0 0.1294093987
H  H205  1  0.40630000  0.89270000  0.17990000  1.0 0.1198805531
H  H206  1  0.59370000  0.39270000  0.32010000  1.0 0.1198805531
H  H207  1  0.59370000  0.10730000  0.82010000  1.0 0.1198805531
H  H208  1  0.40630000  0.60730000  0.67990000  1.0 0.1198805531
H  H209  1  0.17180000  0.87300000  0.05950000  1.0 0.100679205
H  H210  1  0.82820000  0.37300000  0.44050000  1.0 0.100679205
H  H211  1  0.82820000  0.12700000  0.94050000  1.0 0.100679205
H  H212  1  0.17180000  0.62700000  0.55950000  1.0 0.100679205
H  H213  1  0.15810000  0.05350000  0.99530000  1.0 0.1294093987
H  H214  1  0.84190000  0.55350000  0.50470000  1.0 0.1294093987
H  H215  1  0.84190000  0.94650000  0.00470000  1.0 0.1294093987
H  H216  1  0.15810000  0.44650000  0.49530000  1.0 0.1294093987
H  H217  1  0.24100000  0.04200000  0.99890000  1.0 0.13929493
H  H218  1  0.75900000  0.54200000  0.50110000  1.0 0.13929493
H  H219  1  0.75900000  0.95800000  0.00110000  1.0 0.13929493
H  H220  1  0.24100000  0.45800000  0.49890000  1.0 0.13929493
H  H221  1  0.18680000  0.15120000  0.07210000  1.0 0.1198805531
H  H222  1  0.81320000  0.65120000  0.42790000  1.0 0.1198805531
H  H223  1  0.81320000  0.84880000  0.92790000  1.0 0.1198805531
H  H224  1  0.18680000  0.34880000  0.57210000  1.0 0.1198805531
H  H225  1  0.19430000  0.23870000  0.04690000  1.0 0.1294093987
H  H226  1  0.80570000  0.73870000  0.45310000  1.0 0.1294093987
H  H227  1  0.80570000  0.76130000  0.95310000  1.0 0.1294093987
H  H228  1  0.19430000  0.26130000  0.54690000  1.0 0.1294093987
H  H229  1  0.26220000  0.19790000  0.90970000  1.0 0.1294093987
H  H230  1  0.73780000  0.69790000  0.59030000  1.0 0.1294093987
H  H231  1  0.73780000  0.80210000  0.09030000  1.0 0.1294093987
H  H232  1  0.26220000  0.30210000  0.40970000  1.0 0.1294093987
H  H233  1  0.25430000  0.10790000  0.93380000  1.0 0.1486692383
H  H234  1  0.74570000  0.60790000  0.56620000  1.0 0.1486692383
H  H235  1  0.74570000  0.89210000  0.06620000  1.0 0.1486692383
H  H236  1  0.25430000  0.39210000  0.43380000  1.0 0.1486692383
H  H237  1  0.35900000  0.83990000  0.05820000  1.0 0.100679205
H  H238  1  0.64100000  0.33990000  0.44180000  1.0 0.100679205
H  H239  1  0.64100000  0.16010000  0.94180000  1.0 0.100679205
H  H240  1  0.35900000  0.66010000  0.55820000  1.0 0.100679205
H  H241  1  0.39630000  0.78700000  0.10090000  1.0 0.069525589
H  H242  1  0.60370000  0.28700000  0.39910000  1.0 0.069525589
H  H243  1  0.60370000  0.21300000  0.89910000  1.0 0.069525589
H  H244  1  0.39630000  0.71300000  0.60090000  1.0 0.069525589
H  H245  1  0.31440000  0.78530000  0.02890000  1.0 0.0610647351
H  H246  1  0.68560000  0.28530000  0.47110000  1.0 0.0610647351
H  H247  1  0.68560000  0.21470000  0.97110000  1.0 0.0610647351
H  H248  1  0.31440000  0.71470000  0.52890000  1.0 0.0610647351
H  H249  1  0.21170000  0.77460000  0.03190000  1.0 0.069525589
H  H250  1  0.78830000  0.27460000  0.46810000  1.0 0.069525589
H  H251  1  0.78830000  0.22540000  0.96810000  1.0 0.069525589
H  H252  1  0.21170000  0.72540000  0.53190000  1.0 0.069525589
H  H253  1  0.23460000  0.75140000  0.10720000  1.0 0.1198805531
H  H254  1  0.76540000  0.25140000  0.39280000  1.0 0.1198805531
H  H255  1  0.76540000  0.24860000  0.89280000  1.0 0.1198805531
H  H256  1  0.23460000  0.74860000  0.60720000  1.0 0.1198805531
H  H257  1  0.18490000  0.80450000  0.08070000  1.0 0.1198805531
H  H258  1  0.81510000  0.30450000  0.41930000  1.0 0.1198805531
H  H259  1  0.81510000  0.19550000  0.91930000  1.0 0.1198805531
H  H260  1  0.18490000  0.69550000  0.58070000  1.0 0.1198805531
H  H261  1  0.37660000  0.75960000  0.18980000  1.0 0.1089328008
H  H262  1  0.62340000  0.25960000  0.31020000  1.0 0.1089328008
H  H263  1  0.62340000  0.24040000  0.81020000  1.0 0.1089328008
H  H264  1  0.37660000  0.74040000  0.68980000  1.0 0.1089328008
H  H265  1  0.40540000  0.81870000  0.21180000  1.0 0.1089328008
H  H266  1  0.59460000  0.31870000  0.28820000  1.0 0.1089328008
H  H267  1  0.59460000  0.18130000  0.78820000  1.0 0.1089328008
H  H268  1  0.40540000  0.68130000  0.71180000  1.0 0.1089328008
H  H269  1  0.33150000  0.79690000  0.21720000  1.0 0.0818258554
H  H270  1  0.66850000  0.29690000  0.28280000  1.0 0.0818258554
H  H271  1  0.66850000  0.20310000  0.78280000  1.0 0.0818258554
H  H272  1  0.33150000  0.70310000  0.71720000  1.0 0.0818258554
H  H273  1  0.36750000  0.96020000  0.01750000  1.0 0.1198805531
H  H274  1  0.63250000  0.46020000  0.48250000  1.0 0.1198805531
H  H275  1  0.63250000  0.03980000  0.98250000  1.0 0.1198805531
H  H276  1  0.36750000  0.53980000  0.51750000  1.0 0.1198805531
H  H277  1  0.38190000  0.97750000  0.95470000  1.0 0.1294093987
H  H278  1  0.61810000  0.47750000  0.54530000  1.0 0.1294093987
H  H279  1  0.61810000  0.02250000  0.04530000  1.0 0.1294093987
H  H280  1  0.38190000  0.52250000  0.45470000  1.0 0.1294093987
H  H281  1  0.45390000  0.97730000  0.03340000  1.0 0.1198805531
H  H282  1  0.54610000  0.47730000  0.46660000  1.0 0.1198805531
H  H283  1  0.54610000  0.02270000  0.96660000  1.0 0.1198805531
H  H284  1  0.45390000  0.52270000  0.53340000  1.0 0.1198805531
H  H285  1  0.15820000  0.79940000  0.27310000  1.0 0.0610647351
H  H286  1  0.84180000  0.29940000  0.22690000  1.0 0.0610647351
H  H287  1  0.84180000  0.20060000  0.72690000  1.0 0.0610647351
H  H288  1  0.15820000  0.70060000  0.77310000  1.0 0.0610647351
H  H289  1  0.19600000  0.74220000  0.29420000  1.0 0.0610647351
H  H290  1  0.80400000  0.24220000  0.20580000  1.0 0.0610647351
H  H291  1  0.80400000  0.25780000  0.70580000  1.0 0.0610647351
H  H292  1  0.19600000  0.75780000  0.79420000  1.0 0.0610647351
H  H293  1  0.15020000  0.76650000  0.33120000  1.0 0.100679205
H  H294  1  0.84980000  0.26650000  0.16880000  1.0 0.100679205
H  H295  1  0.84980000  0.23350000  0.66880000  1.0 0.100679205
H  H296  1  0.15020000  0.73350000  0.83120000  1.0 0.100679205
H  H297  1  0.26850000  0.73560000  0.43260000  1.0 0.069525589
H  H298  1  0.73150000  0.23560000  0.06740000  1.0 0.069525589
H  H299  1  0.73150000  0.26440000  0.56740000  1.0 0.069525589
H  H300  1  0.26850000  0.76440000  0.93260000  1.0 0.069525589
H  H301  1  0.34060000  0.77530000  0.47300000  1.0 0.0818258554
H  H302  1  0.65940000  0.27530000  0.02700000  1.0 0.0818258554
H  H303  1  0.65940000  0.22470000  0.52700000  1.0 0.0818258554
H  H304  1  0.34060000  0.72470000  0.97300000  1.0 0.0818258554
H  H305  1  0.25480000  0.79020000  0.46060000  1.0 0.0818258554
H  H306  1  0.74520000  0.29020000  0.03940000  1.0 0.0818258554
H  H307  1  0.74520000  0.20980000  0.53940000  1.0 0.0818258554
H  H308  1  0.25480000  0.70980000  0.96060000  1.0 0.0818258554
H  H309  1  0.37140000  0.76590000  0.38950000  1.0 0.0207621583
H  H310  1  0.62860000  0.26590000  0.11050000  1.0 0.0207621583
H  H311  1  0.62860000  0.23410000  0.61050000  1.0 0.0207621583
H  H312  1  0.37140000  0.73410000  0.88950000  1.0 0.0207621583
H  H313  1  0.30640000  0.76490000  0.30820000  1.0 0.100679205
H  H314  1  0.69360000  0.26490000  0.19180000  1.0 0.100679205
H  H315  1  0.69360000  0.23510000  0.69180000  1.0 0.100679205
H  H316  1  0.30640000  0.73510000  0.80820000  1.0 0.100679205
H  H317  1  0.35070000  0.81840000  0.34410000  1.0 0.069525589
H  H318  1  0.64930000  0.31840000  0.15590000  1.0 0.069525589
H  H319  1  0.64930000  0.18160000  0.65590000  1.0 0.069525589
H  H320  1  0.35070000  0.68160000  0.84410000  1.0 0.069525589
H  H321  1  0.24250000  0.79610000  0.00570000  1.0 0.0610647351
H  H322  1  0.75750000  0.29610000  0.49430000  1.0 0.0610647351
H  H323  1  0.75750000  0.20390000  0.99430000  1.0 0.0610647351
H  H324  1  0.24250000  0.70390000  0.50570000  1.0 0.0610647351
H  H325  1  0.31070000  0.83860000  0.02580000  1.0 0.069525589
H  H326  1  0.68930000  0.33860000  0.47420000  1.0 0.069525589
H  H327  1  0.68930000  0.16140000  0.97420000  1.0 0.069525589
H  H328  1  0.31070000  0.66140000  0.52580000  1.0 0.069525589
H  H329  1  0.33300000  0.77820000  0.04430000  1.0 0.0818258554
H  H330  1  0.66700000  0.27820000  0.45570000  1.0 0.0818258554
H  H331  1  0.66700000  0.22180000  0.95570000  1.0 0.0818258554
H  H332  1  0.33300000  0.72180000  0.54430000  1.0 0.0818258554
H  H333  1  0.18520000  0.80370000  0.08580000  1.0 0.1198805531
H  H334  1  0.81480000  0.30370000  0.41420000  1.0 0.1198805531
H  H335  1  0.81480000  0.19630000  0.91420000  1.0 0.1198805531
H  H336  1  0.18520000  0.69630000  0.58580000  1.0 0.1198805531
H  H337  1  0.23210000  0.74970000  0.09900000  1.0 0.1198805531
H  H338  1  0.76790000  0.24970000  0.40100000  1.0 0.1198805531
H  H339  1  0.76790000  0.25030000  0.90100000  1.0 0.1198805531
H  H340  1  0.23210000  0.75030000  0.59900000  1.0 0.1198805531
H  H341  1  0.24580000  0.78530000  0.16400000  1.0 0.0900202365
H  H342  1  0.75420000  0.28530000  0.33600000  1.0 0.0900202365
H  H343  1  0.75420000  0.21470000  0.83600000  1.0 0.0900202365
H  H344  1  0.24580000  0.71470000  0.66400000  1.0 0.0900202365
H  H345  1  0.37680000  0.76460000  0.19300000  1.0 0.1089328008
H  H346  1  0.62320000  0.26460000  0.30700000  1.0 0.1089328008
H  H347  1  0.62320000  0.23540000  0.80700000  1.0 0.1089328008
H  H348  1  0.37680000  0.73540000  0.69300000  1.0 0.1089328008
H  H349  1  0.41770000  0.78930000  0.15190000  1.0 0.0900202365
H  H350  1  0.58230000  0.28930000  0.34810000  1.0 0.0818258554
H  H351  1  0.58230000  0.21070000  0.84810000  1.0 0.0818258554
H  H352  1  0.41770000  0.71070000  0.65190000  1.0 0.0818258554
H  H353  1  0.40590000  0.82420000  0.20650000  1.0 0.1198805531
H  H354  1  0.59410000  0.32420000  0.29350000  1.0 0.1089328008
H  H355  1  0.59410000  0.17580000  0.79350000  1.0 0.1198805531
H  H356  1  0.40590000  0.67580000  0.70650000  1.0 0.1198805531
C  C1  1  0.41390000  0.02540000  0.27510000  1.0 0.0375244041
C  C2  1  0.58610000  0.52540000  0.22490000  1.0 0.0375244041
C  C3  1  0.58610000  0.97460000  0.72490000  1.0 0.0375244041
C  C4  1  0.41390000  0.47460000  0.77510000  1.0 0.0375244041
C  C5  1  0.41240000  0.99350000  0.32680000  1.0 0.0033857006
C  C6  1  0.58760000  0.49350000  0.17320000  1.0 0.0033857006
C  C7  1  0.58760000  0.00650000  0.67320000  1.0 0.0033857006
C  C8  1  0.41240000  0.50650000  0.82680000  1.0 0.0033857006
C  C9  1  0.40260000  0.01810000  0.37860000  1.0 0.0304411729
C  C10  1  0.59740000  0.51810000  0.12140000  1.0 0.0304411729
C  C11  1  0.59740000  0.98190000  0.62140000  1.0 0.0304411729
C  C12  1  0.40260000  0.48190000  0.87860000  1.0 0.0304411729
C  C13  1  0.39650000  0.07150000  0.38100000  1.0 -0.1903110652
C  C14  1  0.60350000  0.57150000  0.11900000  1.0 -0.1903110652
C  C15  1  0.60350000  0.92850000  0.61900000  1.0 -0.1903110652
C  C16  1  0.39650000  0.42850000  0.88100000  1.0 -0.1903110652
C  C17  1  0.40090000  0.10370000  0.33070000  1.0 0.100679205
C  C18  1  0.59910000  0.60370000  0.16930000  1.0 0.100679205
C  C19  1  0.59910000  0.89630000  0.66930000  1.0 0.0900202365
C  C20  1  0.40090000  0.39630000  0.83070000  1.0 0.0900202365
C  C21  1  0.40630000  0.07930000  0.27720000  1.0 -0.1903110652
C  C22  1  0.59370000  0.57930000  0.22280000  1.0 -0.1903110652
C  C23  1  0.59370000  0.92070000  0.72280000  1.0 -0.1903110652
C  C24  1  0.40630000  0.42070000  0.77720000  1.0 -0.1903110652
C  C25  1  0.53220000  0.92130000  0.38090000  1.0 -0.2594942921
C  C26  1  0.46780000  0.42130000  0.11910000  1.0 -0.2594942921
C  C27  1  0.46780000  0.07870000  0.61910000  1.0 -0.2594942921
C  C28  1  0.53220000  0.57870000  0.88090000  1.0 -0.2594942921
C  C29  1  0.54950000  0.86280000  0.38460000  1.0 0.1294093987
C  C30  1  0.45050000  0.36280000  0.11540000  1.0 0.1294093987
C  C31  1  0.45050000  0.13720000  0.61540000  1.0 0.1294093987
C  C32  1  0.54950000  0.63720000  0.88460000  1.0 0.1294093987
C  C33  1  0.57310000  0.84200000  0.34000000  1.0 -0.1445407578
C  C34  1  0.42690000  0.34200000  0.16000000  1.0 -0.1445407578
C  C35  1  0.42690000  0.15800000  0.66000000  1.0 -0.1445407578
C  C36  1  0.57310000  0.65800000  0.84000000  1.0 -0.1445407578
C  C37  1  0.57940000  0.78840000  0.33760000  1.0 -0.0899183142
C  C38  1  0.42060000  0.28840000  0.16240000  1.0 -0.0899183142
C  C39  1  0.42060000  0.21160000  0.66240000  1.0 -0.0899183142
C  C40  1  0.57940000  0.71160000  0.83760000  1.0 -0.0899183142
C  C41  1  0.57210000  0.75720000  0.38510000  1.0 0.0207621583
C  C42  1  0.42790000  0.25720000  0.11490000  1.0 0.0207621583
C  C43  1  0.42790000  0.24280000  0.61490000  1.0 0.0207621583
C  C44  1  0.57210000  0.74280000  0.88510000  1.0 0.0207621583
C  C45  1  0.55260000  0.77830000  0.43250000  1.0 -0.1081290999
C  C46  1  0.44740000  0.27830000  0.06750000  1.0 -0.1081290999
C  C47  1  0.44740000  0.22170000  0.56750000  1.0 -0.1081290999
C  C48  1  0.55260000  0.72170000  0.93250000  1.0 -0.1081290999
C  C49  1  0.54250000  0.83160000  0.43100000  1.0 -0.1500784411
C  C50  1  0.45750000  0.33160000  0.06900000  1.0 -0.1500784411
C  C51  1  0.45750000  0.16840000  0.56900000  1.0 -0.1500784411
C  C52  1  0.54250000  0.66840000  0.93100000  1.0 -0.1500784411
C  C53  1  0.57700000  0.70030000  0.38120000  1.0 0.3017417594
C  C54  1  0.42300000  0.20030000  0.11880000  1.0 0.3017417594
C  C55  1  0.42300000  0.29970000  0.61880000  1.0 0.3017417594
C  C56  1  0.57700000  0.79970000  0.88120000  1.0 0.3017417594
C  C57  1  0.39760000  0.16330000  0.33620000  1.0 0.2899661353
C  C58  1  0.60240000  0.66330000  0.16380000  1.0 0.2899661353
C  C59  1  0.60240000  0.83670000  0.66380000  1.0 0.2899661353
C  C60  1  0.39760000  0.33670000  0.83620000  1.0 0.2899661353
C  C61  1  0.33560000  0.17860000  0.35770000  1.0 -0.4708766818
C  C62  1  0.66440000  0.67860000  0.14230000  1.0 -0.4708766818
C  C63  1  0.66440000  0.82140000  0.64230000  1.0 -0.4708766818
C  C64  1  0.33560000  0.32140000  0.85770000  1.0 -0.4708766818
C  C65  1  0.48020000  0.17870000  0.39970000  1.0 -0.4779626487
C  C66  1  0.51980000  0.67870000  0.10030000  1.0 -0.4779626487
C  C67  1  0.51980000  0.82130000  0.60030000  1.0 -0.4708766818
C  C68  1  0.48020000  0.32130000  0.89970000  1.0 -0.4708766818
C  C69  1  0.37010000  0.18760000  0.26450000  1.0 -0.4779626487
C  C70  1  0.62990000  0.68760000  0.23550000  1.0 -0.4779626487
C  C71  1  0.62990000  0.81240000  0.73550000  1.0 -0.4779626487
C  C72  1  0.37010000  0.31240000  0.76450000  1.0 -0.4779626487
C  C73  1  0.31280000  0.94530000  0.40420000  1.0 0.0495482374
C  C74  1  0.68720000  0.44530000  0.09580000  1.0 0.0495482374
C  C75  1  0.68720000  0.05470000  0.59580000  1.0 0.0495482374
C  C76  1  0.31280000  0.55470000  0.90420000  1.0 0.0495482374
C  C77  1  0.23690000  0.96880000  0.37060000  1.0 -0.0356451766
C  C78  1  0.76310000  0.46880000  0.12940000  1.0 -0.0344937043
C  C79  1  0.76310000  0.03120000  0.62940000  1.0 -0.0356451766
C  C80  1  0.23690000  0.53120000  0.87060000  1.0 -0.0356451766
C  C81  1  0.17320000  0.93540000  0.33320000  1.0 0.0495482374
C  C82  1  0.82680000  0.43540000  0.16680000  1.0 0.0495482374
C  C83  1  0.82680000  0.06460000  0.66680000  1.0 0.0495482374
C  C84  1  0.17320000  0.56460000  0.83320000  1.0 0.0495482374
C  C85  1  0.18200000  0.88110000  0.33440000  1.0 -0.2091103283
C  C86  1  0.81800000  0.38110000  0.16560000  1.0 -0.2091103283
C  C87  1  0.81800000  0.11890000  0.66560000  1.0 -0.2091103283
C  C88  1  0.18200000  0.61890000  0.83440000  1.0 -0.2091103283
C  C89  1  0.25510000  0.85780000  0.37210000  1.0 0.0495482374
C  C90  1  0.74490000  0.35780000  0.12790000  1.0 0.0495482374
C  C91  1  0.74490000  0.14220000  0.62790000  1.0 0.0495482374
C  C92  1  0.25510000  0.64220000  0.87210000  1.0 0.0495482374
C  C93  1  0.32120000  0.89150000  0.40640000  1.0 -0.2210498699
C  C94  1  0.67880000  0.39150000  0.09360000  1.0 -0.2210498699
C  C95  1  0.67880000  0.10850000  0.59360000  1.0 -0.2210498699
C  C96  1  0.32120000  0.60850000  0.90640000  1.0 -0.2210498699
C  C97  1  0.26450000  0.04840000  0.46900000  1.0 -0.2874387034
C  C98  1  0.73550000  0.54840000  0.03100000  1.0 -0.2874387034
C  C99  1  0.73550000  0.95160000  0.53100000  1.0 -0.2874387034
C  C100  1  0.26450000  0.45160000  0.96900000  1.0 -0.2874387034
C  C101  1  0.21050000  0.03510000  0.49770000  1.0 0.1486692383
C  C102  1  0.78950000  0.53510000  0.00230000  1.0 0.1486692383
C  C103  1  0.78950000  0.96490000  0.50230000  1.0 0.1486692383
C  C104  1  0.21050000  0.46490000  0.99770000  1.0 0.1486692383
C  C105  1  0.18590000  0.07450000  0.52650000  1.0 -0.1500784411
C  C106  1  0.81410000  0.57450000  0.97350000  1.0 -0.1500784411
C  C107  1  0.81410000  0.92550000  0.47350000  1.0 -0.1576743641
C  C108  1  0.18590000  0.42550000  0.02650000  1.0 -0.1500784411
C  C109  1  0.14010000  0.06190000  0.55700000  1.0 -0.0982728839
C  C110  1  0.85990000  0.56190000  0.94300000  1.0 -0.0982728839
C  C111  1  0.85990000  0.93810000  0.44300000  1.0 -0.0982728839
C  C112  1  0.14010000  0.43810000  0.05700000  1.0 -0.0982728839
C  C113  1  0.11740000  0.01090000  0.55810000  1.0 0.0207621583
C  C114  1  0.88260000  0.51090000  0.94190000  1.0 0.0207621583
C  C115  1  0.88260000  0.98910000  0.44190000  1.0 0.0207621583
C  C116  1  0.11740000  0.48910000  0.05810000  1.0 0.0207621583
C  C117  1  0.14060000  0.97070000  0.52620000  1.0 -0.0899183142
C  C118  1  0.85940000  0.47070000  0.97380000  1.0 -0.0899183142
C  C119  1  0.85940000  0.02930000  0.47380000  1.0 -0.0899183142
C  C120  1  0.14060000  0.52930000  0.02620000  1.0 -0.0899183142
C  C121  1  0.18770000  0.98240000  0.49900000  1.0 -0.1724913129
C  C122  1  0.81230000  0.48240000  0.00100000  1.0 -0.1724913129
C  C123  1  0.81230000  0.01760000  0.50100000  1.0 -0.1724913129
C  C124  1  0.18770000  0.51760000  0.99900000  1.0 -0.1724913129
C  C125  1  0.06860000  0.99830000  0.58720000  1.0 0.3017417594
C  C126  1  0.93140000  0.49830000  0.91280000  1.0 0.3017417594
C  C127  1  0.93140000  0.00170000  0.41280000  1.0 0.3017417594
C  C128  1  0.06860000  0.50170000  0.08720000  1.0 0.3017417594
C  C129  1  0.26370000  0.79880000  0.37000000  1.0 0.1993325195
C  C130  1  0.73630000  0.29880000  0.13000000  1.0 0.1993325195
C  C131  1  0.73630000  0.20120000  0.63000000  1.0 0.1993325195
C  C132  1  0.26370000  0.70120000  0.87000000  1.0 0.1993325195
C  C133  1  0.34510000  0.77980000  0.42790000  1.0 -0.1903110652
C  C134  1  0.65490000  0.27980000  0.07210000  1.0 -0.1903110652
C  C135  1  0.65490000  0.22020000  0.57210000  1.0 -0.1903110652
C  C136  1  0.34510000  0.72020000  0.92790000  1.0 -0.1903110652
C  C137  1  0.20060000  0.77020000  0.38010000  1.0 -0.2091103283
C  C138  1  0.79940000  0.27020000  0.11990000  1.0 -0.2091103283
C  C139  1  0.79940000  0.22980000  0.61990000  1.0 -0.2091103283
C  C140  1  0.20060000  0.72980000  0.88010000  1.0 -0.2091103283
C  C141  1  0.25810000  0.79040000  0.29890000  1.0 -0.1974789676
C  C142  1  0.74190000  0.29040000  0.20110000  1.0 -0.1974789676
C  C143  1  0.74190000  0.20960000  0.70110000  1.0 -0.1974789676
C  C144  1  0.25810000  0.70960000  0.79890000  1.0 -0.1974789676
C  C145  1  0.07840000  0.99450000  0.21090000  1.0 0.0304411729
C  C146  1  0.92160000  0.49450000  0.28910000  1.0 0.0304411729
C  C147  1  0.92160000  0.00550000  0.78910000  1.0 0.0304411729
C  C148  1  0.07840000  0.50550000  0.71090000  1.0 0.0304411729
C  C149  1  0.09270000  0.96800000  0.16210000  1.0 0.0033857006
C  C150  1  0.90730000  0.46800000  0.33790000  1.0 0.0033857006
C  C151  1  0.90730000  0.03200000  0.83790000  1.0 0.0033857006
C  C152  1  0.09270000  0.53200000  0.66210000  1.0 0.0033857006
C  C153  1  0.09270000  0.99930000  0.10940000  1.0 0.0304411729
C  C154  1  0.90730000  0.49930000  0.39060000  1.0 0.0304411729
C  C155  1  0.90730000  0.00070000  0.89060000  1.0 0.0304411729
C  C156  1  0.09270000  0.50070000  0.60940000  1.0 0.0304411729
C  C157  1  0.07580000  0.05280000  0.10360000  1.0 -0.2091103283
C  C158  1  0.92420000  0.55280000  0.39640000  1.0 -0.2091103283
C  C159  1  0.92420000  0.94720000  0.89640000  1.0 -0.2091103283
C  C160  1  0.07580000  0.44720000  0.60360000  1.0 -0.2091103283
C  C161  1  0.05690000  0.07740000  0.14930000  1.0 0.100679205
C  C162  1  0.94310000  0.57740000  0.35070000  1.0 0.100679205
C  C163  1  0.94310000  0.92260000  0.85070000  1.0 0.100679205
C  C164  1  0.05690000  0.42260000  0.64930000  1.0 0.100679205
C  C165  1  0.06200000  0.04720000  0.20540000  1.0 -0.1974789676
C  C166  1  0.93800000  0.54720000  0.29460000  1.0 -0.1974789676
C  C167  1  0.93800000  0.95280000  0.79460000  1.0 -0.1974789676
C  C168  1  0.06200000  0.45280000  0.70540000  1.0 -0.1974789676
C  C169  1  0.00020000  0.88040000  0.11750000  1.0 -0.2669543682
C  C170  1  0.99980000  0.38040000  0.38250000  1.0 -0.2669543682
C  C171  1  0.99980000  0.11960000  0.88250000  1.0 -0.2669543682
C  C172  1  0.00020000  0.61960000  0.61750000  1.0 -0.2669543682
C  C173  1  0.99360000  0.82250000  0.12850000  1.0 0.13929493
C  C174  1  0.00640000  0.32250000  0.37150000  1.0 0.13929493
C  C175  1  0.00640000  0.17750000  0.87150000  1.0 0.13929493
C  C176  1  0.99360000  0.67750000  0.62850000  1.0 0.13929493
C  C177  1  0.00640000  0.78650000  0.08750000  1.0 -0.1500784411
C  C178  1  0.99360000  0.28650000  0.41250000  1.0 -0.1500784411
C  C179  1  0.99360000  0.21350000  0.91250000  1.0 -0.1500784411
C  C180  1  0.00640000  0.71350000  0.58750000  1.0 -0.1500784411
C  C181  1  0.99990000  0.73310000  0.09510000  1.0 -0.0982728839
C  C182  1  0.00010000  0.23310000  0.40490000  1.0 -0.0982728839
C  C183  1  0.00010000  0.26690000  0.90490000  1.0 -0.0982728839
C  C184  1  0.99990000  0.76690000  0.59510000  1.0 -0.0982728839
C  C185  1  0.97930000  0.71650000  0.14570000  1.0 0.0207621583
C  C186  1  0.02070000  0.21650000  0.35430000  1.0 0.0207621583
C  C187  1  0.02070000  0.28350000  0.85430000  1.0 0.0207621583
C  C188  1  0.97930000  0.78350000  0.64570000  1.0 0.0207621583
C  C189  1  0.96920000  0.75240000  0.18800000  1.0 -0.0798215221
C  C190  1  0.03080000  0.25240000  0.31200000  1.0 -0.0798215221
C  C191  1  0.03080000  0.24760000  0.81200000  1.0 -0.0798215221
C  C192  1  0.96920000  0.74760000  0.68800000  1.0 -0.0798215221
C  C193  1  0.97710000  0.80590000  0.18030000  1.0 -0.1445407578
C  C194  1  0.02290000  0.30590000  0.31970000  1.0 -0.1445407578
C  C195  1  0.02290000  0.19410000  0.81970000  1.0 -0.1445407578
C  C196  1  0.97710000  0.69410000  0.68030000  1.0 -0.1445407578
C  C197  1  0.96970000  0.66090000  0.15180000  1.0 0.2899661353
C  C198  1  0.03030000  0.16090000  0.34820000  1.0 0.2899661353
C  C199  1  0.03030000  0.33910000  0.84820000  1.0 0.2899661353
C  C200  1  0.96970000  0.83910000  0.65180000  1.0 0.2899661353
C  C201  1  0.03560000  0.13540000  0.14420000  1.0 0.2751232973
C  C202  1  0.96440000  0.63540000  0.35580000  1.0 0.2751232973
C  C203  1  0.96440000  0.86460000  0.85580000  1.0 0.27485454
C  C204  1  0.03560000  0.36460000  0.64420000  1.0 0.27485454
C  C205  1  0.10320000  0.16430000  0.20410000  1.0 -0.4708766818
C  C206  1  0.89680000  0.66430000  0.29590000  1.0 -0.4708766818
C  C207  1  0.89680000  0.83570000  0.79590000  1.0 -0.4708766818
C  C208  1  0.10320000  0.33570000  0.70410000  1.0 -0.4708766818
C  C209  1  0.01930000  0.15900000  0.07420000  1.0 -0.4941687146
C  C210  1  0.98070000  0.65900000  0.42580000  1.0 -0.4941687146
C  C211  1  0.98070000  0.84100000  0.92580000  1.0 -0.4941687146
C  C212  1  0.01930000  0.34100000  0.57420000  1.0 -0.4941687146
C  C213  1  0.95900000  0.14320000  0.14860000  1.0 -0.4708766818
C  C214  1  0.04100000  0.64320000  0.35140000  1.0 -0.4708766818
C  C215  1  0.04100000  0.85680000  0.85140000  1.0 -0.4708766818
C  C216  1  0.95900000  0.35680000  0.64860000  1.0 -0.4708766818
C  C217  1  0.20560000  0.94940000  0.08520000  1.0 0.0610647351
C  C218  1  0.79440000  0.44940000  0.41480000  1.0 0.0610647351
C  C219  1  0.79440000  0.05060000  0.91480000  1.0 0.0610647351
C  C220  1  0.20560000  0.55060000  0.58520000  1.0 0.0610647351
C  C221  1  0.26920000  0.98330000  0.11840000  1.0 -0.0212472663
C  C222  1  0.73080000  0.48330000  0.38160000  1.0 -0.0212472663
C  C223  1  0.73080000  0.01670000  0.88160000  1.0 -0.0212472663
C  C224  1  0.26920000  0.51670000  0.61840000  1.0 -0.0212472663
C  C225  1  0.34510000  0.95970000  0.15700000  1.0 0.0610647351
C  C226  1  0.65490000  0.45970000  0.34300000  1.0 0.0610647351
C  C227  1  0.65490000  0.04030000  0.84300000  1.0 0.0610647351
C  C228  1  0.34510000  0.54030000  0.65700000  1.0 0.0610647351
C  C229  1  0.35450000  0.90700000  0.15480000  1.0 -0.2400037375
C  C230  1  0.64550000  0.40700000  0.34520000  1.0 -0.2400037375
C  C231  1  0.64550000  0.09300000  0.84520000  1.0 -0.2400037375
C  C232  1  0.35450000  0.59300000  0.65480000  1.0 -0.2400037375
C  C233  1  0.29130000  0.87340000  0.11720000  1.0 0.0375244041
C  C234  1  0.70870000  0.37340000  0.38280000  1.0 0.0375244041
C  C235  1  0.70870000  0.12660000  0.88280000  1.0 0.0375244041
C  C236  1  0.29130000  0.62660000  0.61720000  1.0 0.0375244041
C  C237  1  0.21650000  0.89510000  0.08380000  1.0 -0.2594942921
C  C238  1  0.78350000  0.39510000  0.41620000  1.0 -0.2594942921
C  C239  1  0.78350000  0.10490000  0.91620000  1.0 -0.2594942921
C  C240  1  0.21650000  0.60490000  0.58380000  1.0 -0.2594942921
C  C241  1  0.21450000  0.06380000  0.01840000  1.0 -0.2817871803
C  C242  1  0.78550000  0.56380000  0.48160000  1.0 -0.2817871803
C  C243  1  0.78550000  0.93620000  0.98160000  1.0 -0.2817871803
C  C244  1  0.21450000  0.43620000  0.51840000  1.0 -0.2817871803
C  C245  1  0.22110000  0.12030000  0.00440000  1.0 0.13929493
C  C246  1  0.77890000  0.62030000  0.49560000  1.0 0.13929493
C  C247  1  0.77890000  0.87970000  0.99560000  1.0 0.13929493
C  C248  1  0.22110000  0.37970000  0.50440000  1.0 0.13929493
C  C249  1  0.20220000  0.16030000  0.03860000  1.0 -0.1576743641
C  C250  1  0.79780000  0.66030000  0.46140000  1.0 -0.1576743641
C  C251  1  0.79780000  0.83970000  0.96140000  1.0 -0.1576743641
C  C252  1  0.20220000  0.33970000  0.53860000  1.0 -0.1576743641
C  C253  1  0.20630000  0.21200000  0.02350000  1.0 -0.1081290999
C  C254  1  0.79370000  0.71200000  0.47650000  1.0 -0.1081290999
C  C255  1  0.79370000  0.78800000  0.97650000  1.0 -0.1081290999
C  C256  1  0.20630000  0.28800000  0.52350000  1.0 -0.1081290999
C  C257  1  0.22690000  0.22470000  0.97600000  1.0 0.0495482374
C  C258  1  0.77310000  0.72470000  0.52400000  1.0 0.0495482374
C  C259  1  0.77310000  0.77530000  0.02400000  1.0 0.0495482374
C  C260  1  0.22690000  0.27530000  0.47600000  1.0 0.0495482374
C  C261  1  0.24620000  0.18800000  0.94250000  1.0 -0.0982728839
C  C262  1  0.75380000  0.68800000  0.55750000  1.0 -0.0982728839
C  C263  1  0.75380000  0.81200000  0.05750000  1.0 -0.0982728839
C  C264  1  0.24620000  0.31200000  0.44250000  1.0 -0.0982728839
C  C265  1  0.24200000  0.13410000  0.95760000  1.0 -0.13452679
C  C266  1  0.75800000  0.63410000  0.54240000  1.0 -0.13452679
C  C267  1  0.75800000  0.86590000  0.04240000  1.0 -0.13452679
C  C268  1  0.24200000  0.36590000  0.45760000  1.0 -0.13452679
C  C269  1  0.22960000  0.27930000  0.95770000  1.0 0.2563439003
C  C270  1  0.77040000  0.77930000  0.54230000  1.0 0.2563439003
C  C271  1  0.77040000  0.72070000  0.04230000  1.0 0.2563439003
C  C272  1  0.22960000  0.22070000  0.45770000  1.0 0.2563439003
C  C273  1  0.30150000  0.81420000  0.11210000  1.0 0.2116143247
C  C274  1  0.69850000  0.31420000  0.38790000  1.0 0.2116143247
C  C275  1  0.69850000  0.18580000  0.88790000  1.0 0.2116143247
C  C276  1  0.30150000  0.68580000  0.61210000  1.0 0.2116143247
C  C277  1  0.34700000  0.80580000  0.07120000  1.0 -0.2091103283
C  C278  1  0.65300000  0.30580000  0.42880000  1.0 -0.2210498699
C  C279  1  0.65300000  0.19420000  0.92880000  1.0 -0.2210498699
C  C280  1  0.34700000  0.69420000  0.57120000  1.0 -0.2210498699
C  C281  1  0.22670000  0.78360000  0.08020000  1.0 -0.2594942921
C  C282  1  0.77330000  0.28360000  0.41980000  1.0 -0.2594942921
C  C283  1  0.77330000  0.21640000  0.91980000  1.0 -0.2594942921
C  C284  1  0.22670000  0.71640000  0.58020000  1.0 -0.2594942921
C  C285  1  0.35930000  0.79560000  0.19020000  1.0 -0.2669543682
C  C286  1  0.64070000  0.29560000  0.30980000  1.0 -0.2669543682
C  C287  1  0.64070000  0.20440000  0.80980000  1.0 -0.2669543682
C  C288  1  0.35930000  0.70440000  0.69020000  1.0 -0.2669543682
C  C289  1  0.39720000  0.98380000  0.00380000  1.0 -0.2540652165
C  C290  1  0.60280000  0.48380000  0.49620000  1.0 -0.2540652165
C  C291  1  0.60280000  0.01620000  0.99620000  1.0 -0.2540652165
C  C292  1  0.39720000  0.51620000  0.50380000  1.0 -0.2540652165
C  C293  1  0.18500000  0.77440000  0.31200000  1.0 -0.2091103283
C  C294  1  0.81500000  0.27440000  0.18800000  1.0 -0.2091103283
C  C295  1  0.81500000  0.22560000  0.68800000  1.0 -0.2091103283
C  C296  1  0.18500000  0.72560000  0.81200000  1.0 -0.2091103283
C  C297  1  0.28360000  0.77260000  0.44060000  1.0 -0.2210498699
C  C298  1  0.71640000  0.27260000  0.05940000  1.0 -0.2210498699
C  C299  1  0.71640000  0.22740000  0.55940000  1.0 -0.2210498699
C  C300  1  0.28360000  0.72740000  0.94060000  1.0 -0.2210498699
C  C301  1  0.32890000  0.78580000  0.35100000  1.0 -0.2091103283
C  C302  1  0.67110000  0.28580000  0.14900000  1.0 -0.2091103283
C  C303  1  0.67110000  0.21420000  0.64900000  1.0 -0.2091103283
C  C304  1  0.32890000  0.71420000  0.85100000  1.0 -0.2091103283
C  C305  1  0.29640000  0.80600000  0.04040000  1.0 -0.2210498699
C  C306  1  0.70360000  0.30600000  0.45960000  1.0 -0.2210498699
C  C307  1  0.70360000  0.19400000  0.95960000  1.0 -0.2210498699
C  C308  1  0.29640000  0.69400000  0.54040000  1.0 -0.2210498699
C  C309  1  0.23530000  0.78570000  0.11550000  1.0 -0.2669543682
C  C310  1  0.76470000  0.28570000  0.38450000  1.0 -0.2669543682
C  C311  1  0.76470000  0.21430000  0.88450000  1.0 -0.2669543682
C  C312  1  0.23530000  0.71430000  0.61550000  1.0 -0.2669543682
C  C313  1  0.38290000  0.79650000  0.17130000  1.0 -0.2594942921
C  C314  1  0.61710000  0.29650000  0.32870000  1.0 -0.2594942921
C  C315  1  0.61710000  0.20350000  0.82870000  1.0 -0.2594942921
C  C316  1  0.38290000  0.70350000  0.67130000  1.0 -0.2594942921
S  S1  1  0.43273000  0.99712000  0.20981000  1.0 0.0084226197
S  S2  1  0.56727000  0.49712000  0.29019000  1.0 0.0084226197
S  S3  1  0.56727000  0.00288000  0.79019000  1.0 0.0084226197
S  S4  1  0.43273000  0.50288000  0.70981000  1.0 0.0084226197
S  S5  1  0.42525000  0.92463000  0.32624000  1.0 -0.0798215221
S  S6  1  0.57475000  0.42463000  0.17376000  1.0 -0.0798215221
S  S7  1  0.57475000  0.07537000  0.67376000  1.0 -0.0798215221
S  S8  1  0.42525000  0.57537000  0.82624000  1.0 -0.0798215221
S  S9  1  0.40278000  0.98171000  0.44836000  1.0 -0.0212472663
S  S10  1  0.59722000  0.48171000  0.05164000  1.0 -0.0212472663
S  S11  1  0.59722000  0.01829000  0.55164000  1.0 -0.0212472663
S  S12  1  0.40278000  0.51829000  0.94836000  1.0 -0.0212472663
S  S13  1  0.22222000  0.03717000  0.37531000  1.0 0.0207621583
S  S14  1  0.77778000  0.53717000  0.12469000  1.0 0.0207621583
S  S15  1  0.77778000  0.96283000  0.62469000  1.0 0.0207621583
S  S16  1  0.22222000  0.46283000  0.87531000  1.0 0.0207621583
S  S17  1  0.07349000  0.95841000  0.27906000  1.0 0.0033857006
S  S18  1  0.92651000  0.45841000  0.22094000  1.0 0.0033857006
S  S19  1  0.92651000  0.04159000  0.72094000  1.0 0.0033857006
S  S20  1  0.07349000  0.54159000  0.77906000  1.0 0.0033857006
S  S21  1  0.10319000  0.89940000  0.16300000  1.0 -0.0899183142
S  S22  1  0.89681000  0.39940000  0.33700000  1.0 -0.0798215221
S  S23  1  0.89681000  0.10060000  0.83700000  1.0 -0.0899183142
S  S24  1  0.10319000  0.60060000  0.66300000  1.0 -0.0899183142
S  S25  1  0.10538000  0.97140000  0.04026000  1.0 -0.0212472663
S  S26  1  0.89462000  0.47140000  0.45974000  1.0 -0.0212472663
S  S27  1  0.89462000  0.02860000  0.95974000  1.0 -0.0212472663
S  S28  1  0.10538000  0.52860000  0.54026000  1.0 -0.0212472663
S  S29  1  0.26048000  0.05267000  0.11315000  1.0 0.0084226197
S  S30  1  0.73952000  0.55267000  0.38685000  1.0 0.0084226197
S  S31  1  0.73952000  0.94733000  0.88685000  1.0 0.0084226197
S  S32  1  0.26048000  0.44733000  0.61315000  1.0 0.0084226197
N  N1  1  0.57910000  0.65630000  0.37720000  1.0 -0.3384995767
N  N2  1  0.42090000  0.15630000  0.12280000  1.0 -0.3384995767
N  N3  1  0.42090000  0.34370000  0.62280000  1.0 -0.3384995767
N  N4  1  0.57910000  0.84370000  0.87720000  1.0 -0.3384995767
N  N5  1  0.02790000  0.98890000  0.60710000  1.0 -0.3128830204
N  N6  1  0.97210000  0.48890000  0.89290000  1.0 -0.3128830204
N  N7  1  0.97210000  0.01110000  0.39290000  1.0 -0.3128830204
N  N8  1  0.02790000  0.51110000  0.10710000  1.0 -0.3128830204
N  N9  1  0.96150000  0.61720000  0.15710000  1.0 -0.3615783462
N  N10  1  0.03850000  0.11720000  0.34290000  1.0 -0.3615783462
N  N11  1  0.03850000  0.38280000  0.84290000  1.0 -0.3615783462
N  N12  1  0.96150000  0.88280000  0.65710000  1.0 -0.3615783462
N  N13  1  0.22950000  0.32280000  0.94240000  1.0 -0.3542934367
N  N14  1  0.77050000  0.82280000  0.55760000  1.0 -0.3542934367
N  N15  1  0.77050000  0.67720000  0.05760000  1.0 -0.3542934367
N  N16  1  0.22950000  0.17720000  0.44240000  1.0 -0.3542934367
O  O1  1  0.37940000  0.03920000  0.01260000  1.0 -0.2993023242
O  O2  1  0.62060000  0.53920000  0.48740000  1.0 -0.2993023242
O  O3  1  0.62060000  0.96080000  0.98740000  1.0 -0.2993023242
O  O4  1  0.37940000  0.46080000  0.51260000  1.0 -0.2874387034
F  F1  1  0.01250000  0.69790000  0.85370000  1.0 -0.4091671207
F  F2  1  0.96050000  0.62730000  0.88170000  1.0 -0.2993023242
F  F3  1  0.96410000  0.70570000  0.92650000  1.0 -0.2400037375
F  F4  1  0.08940000  0.63280000  0.92300000  1.0 -0.3901753211
F  F5  1  0.07220000  0.70640000  0.97070000  1.0 -0.2993023242
F  F6  1  0.02680000  0.63770000  0.98330000  1.0 -0.2594942921
F  F7  1  0.98750000  0.19790000  0.64630000  1.0 -0.4046993264
F  F8  1  0.03950000  0.12730000  0.61830000  1.0 -0.2993023242
F  F9  1  0.03590000  0.20570000  0.57350000  1.0 -0.2400037375
F  F10  1  0.91060000  0.13280000  0.57700000  1.0 -0.3901753211
F  F11  1  0.92780000  0.20640000  0.52930000  1.0 -0.2993023242
F  F12  1  0.97320000  0.13770000  0.51670000  1.0 -0.2594942921
F  F13  1  0.98750000  0.30210000  0.14630000  1.0 -0.4046993264
F  F14  1  0.03950000  0.37270000  0.11830000  1.0 -0.2993023242
F  F15  1  0.03590000  0.29430000  0.07350000  1.0 -0.2400037375
F  F16  1  0.91060000  0.36720000  0.07700000  1.0 -0.3901753211
F  F17  1  0.92780000  0.29360000  0.02930000  1.0 -0.2993023242
F  F18  1  0.97320000  0.36230000  0.01670000  1.0 -0.2594942921
F  F19  1  0.01250000  0.80210000  0.35370000  1.0 -0.4091671207
F  F20  1  0.96050000  0.87270000  0.38170000  1.0 -0.2993023242
F  F21  1  0.96410000  0.79430000  0.42650000  1.0 -0.2400037375
F  F22  1  0.08940000  0.86720000  0.42300000  1.0 -0.3901753211
F  F23  1  0.07220000  0.79360000  0.47070000  1.0 -0.2993023242
F  F24  1  0.02680000  0.86230000  0.48330000  1.0 -0.2594942921
F  F25  1  0.65900000  0.64180000  0.65180000  1.0 -0.380814691
F  F26  1  0.55850000  0.59200000  0.64140000  1.0 -0.380814691
F  F27  1  0.47380000  0.64210000  0.55790000  1.0 -0.4091671207
F  F28  1  0.57110000  0.69360000  0.56710000  1.0 -0.4091671207
F  F29  1  0.56030000  0.67650000  0.66340000  1.0 -0.4207683736
F  F30  1  0.57120000  0.60920000  0.54530000  1.0 -0.3384995767
F  F31  1  0.34100000  0.14180000  0.84820000  1.0 -0.380814691
F  F32  1  0.44150000  0.09200000  0.85860000  1.0 -0.380814691
F  F33  1  0.52620000  0.14210000  0.94210000  1.0 -0.4091671207
F  F34  1  0.42890000  0.19360000  0.93290000  1.0 -0.4091671207
F  F35  1  0.43970000  0.17650000  0.83660000  1.0 -0.4207683736
F  F36  1  0.42880000  0.10920000  0.95470000  1.0 -0.3384995767
F  F37  1  0.34100000  0.35820000  0.34820000  1.0 -0.380814691
F  F38  1  0.44150000  0.40800000  0.35860000  1.0 -0.380814691
F  F39  1  0.52620000  0.35790000  0.44210000  1.0 -0.4091671207
F  F40  1  0.42890000  0.30640000  0.43290000  1.0 -0.4091671207
F  F41  1  0.43970000  0.32350000  0.33660000  1.0 -0.4207683736
F  F42  1  0.42880000  0.39080000  0.45470000  1.0 -0.3384995767
F  F43  1  0.65900000  0.85820000  0.15180000  1.0 -0.380814691
F  F44  1  0.55850000  0.90800000  0.14140000  1.0 -0.380814691
F  F45  1  0.47380000  0.85790000  0.05790000  1.0 -0.4091671207
F  F46  1  0.57110000  0.80640000  0.06710000  1.0 -0.4091671207
F  F47  1  0.56030000  0.82350000  0.16340000  1.0 -0.4207683736
F  F48  1  0.57120000  0.89080000  0.04530000  1.0 -0.3384995767
