# DDEC6 charges by PACMAN v1.1 (https://github.com/mtap-research/PACMAN-charge/)
data_RUZSAJ_FSR_pacman
_symmetry_space_group_name_H-M   'P 1'
_cell_length_a   17.50200000
_cell_length_b   21.74600000
_cell_length_c   25.37300000
_cell_angle_alpha   90.00000000
_cell_angle_beta   90.00000000
_cell_angle_gamma   90.00000000
_symmetry_Int_Tables_number   1
_chemical_formula_structural   Co3H32C65(N2O9)2
_chemical_formula_sum   'Co12 H128 C260 N16 O72'
_cell_volume   9656.92553752
_cell_formula_units_Z   4
loop_
 _symmetry_equiv_pos_site_id
 _symmetry_equiv_pos_as_xyz
  1  'x, y, z'
loop_
 _atom_site_type_symbol
 _atom_site_label
 _atom_site_symmetry_multiplicity
 _atom_site_fract_x
 _atom_site_fract_y
 _atom_site_fract_z
 _atom_site_occupancy
 _atom_site_charge
Co  Co1  1  0.50258000  0.42507000  0.82033000  1.0 0.9479436001
Co  Co2  1  0.99742000  0.92507000  0.17967000  1.0 0.9479436001
Co  Co3  1  0.50258000  0.42507000  0.67967000  1.0 0.9479436001
Co  Co4  1  0.99742000  0.92507000  0.32033000  1.0 0.9479436001
Co  Co5  1  0.38774000  0.33439000  0.75000000  1.0 1.0134980402
Co  Co6  1  0.11226000  0.83439000  0.25000000  1.0 1.0134980402
Co  Co7  1  0.49742000  0.57493000  0.32033000  1.0 0.9479436001
Co  Co8  1  0.00258000  0.07493000  0.67967000  1.0 0.9479436001
Co  Co9  1  0.49742000  0.57493000  0.17967000  1.0 0.9479436001
Co  Co10  1  0.00258000  0.07493000  0.82033000  1.0 0.9479436001
Co  Co11  1  0.61226000  0.66561000  0.25000000  1.0 1.0134980402
Co  Co12  1  0.88774000  0.16561000  0.75000000  1.0 1.0134980402
H  H1  1  0.56082000  0.28597000  0.93679000  1.0 0.1183979577
H  H2  1  0.57302000  0.20865000  0.99788000  1.0 0.1183979577
H  H3  1  0.40948000  0.11233000  0.92462000  1.0 0.1109589737
H  H4  1  0.40174000  0.18729000  0.86054000  1.0 0.1109589737
H  H5  1  0.61108000  0.10552000  0.01752000  1.0 0.1183979577
H  H6  1  0.50995000  0.98757000  0.11615000  1.0 0.1109589737
H  H7  1  0.38340000  0.08970000  0.01748000  1.0 0.1183979577
H  H8  1  0.70480000  0.03098000  0.01833000  1.0 0.1183979577
H  H9  1  0.82343000  0.00080000  0.04691000  1.0 0.128703764
H  H10  1  0.73863000  0.96485000  0.18901000  1.0 0.128703764
H  H11  1  0.62057000  0.00130000  0.16231000  1.0 0.1183979577
H  H12  1  0.40837000  0.92561000  0.11527000  1.0 0.1183979577
H  H13  1  0.30052000  0.88513000  0.15273000  1.0 0.1183979577
H  H14  1  0.18330000  0.03476000  0.11195000  1.0 0.128703764
H  H15  1  0.29273000  0.07871000  0.07942000  1.0 0.128703764
H  H16  1  0.29562000  0.27404000  0.82296000  1.0 0.1384706444
H  H17  1  0.93918000  0.78597000  0.06321000  1.0 0.1183979577
H  H18  1  0.92698000  0.70865000  0.00212000  1.0 0.1183979577
H  H19  1  0.09052000  0.61233000  0.07538000  1.0 0.1109589737
H  H20  1  0.09826000  0.68729000  0.13946000  1.0 0.1109589737
H  H21  1  0.88892000  0.60552000  0.98248000  1.0 0.1183979577
H  H22  1  0.99005000  0.48757000  0.88385000  1.0 0.1109589737
H  H23  1  0.11660000  0.58970000  0.98252000  1.0 0.1183979577
H  H24  1  0.79520000  0.53098000  0.98167000  1.0 0.1183979577
H  H25  1  0.67657000  0.50080000  0.95309000  1.0 0.128703764
H  H26  1  0.76137000  0.46485000  0.81099000  1.0 0.128703764
H  H27  1  0.87943000  0.50130000  0.83769000  1.0 0.1183979577
H  H28  1  0.09163000  0.42561000  0.88473000  1.0 0.1183979577
H  H29  1  0.19948000  0.38513000  0.84727000  1.0 0.1183979577
H  H30  1  0.31670000  0.53476000  0.88805000  1.0 0.128703764
H  H31  1  0.20727000  0.57871000  0.92058000  1.0 0.128703764
H  H32  1  0.20438000  0.77404000  0.17704000  1.0 0.1384706444
H  H33  1  0.56082000  0.28597000  0.56321000  1.0 0.1183979577
H  H34  1  0.57302000  0.20865000  0.50212000  1.0 0.1183979577
H  H35  1  0.40948000  0.11233000  0.57538000  1.0 0.1109589737
H  H36  1  0.40174000  0.18729000  0.63946000  1.0 0.1109589737
H  H37  1  0.61108000  0.10552000  0.48248000  1.0 0.1183979577
H  H38  1  0.50995000  0.98757000  0.38385000  1.0 0.1109589737
H  H39  1  0.38340000  0.08970000  0.48252000  1.0 0.1183979577
H  H40  1  0.70480000  0.03098000  0.48167000  1.0 0.1183979577
H  H41  1  0.82343000  0.00080000  0.45309000  1.0 0.128703764
H  H42  1  0.73863000  0.96485000  0.31099000  1.0 0.128703764
H  H43  1  0.62057000  0.00130000  0.33769000  1.0 0.1183979577
H  H44  1  0.40837000  0.92561000  0.38473000  1.0 0.1183979577
H  H45  1  0.30052000  0.88513000  0.34727000  1.0 0.1183979577
H  H46  1  0.18330000  0.03476000  0.38805000  1.0 0.128703764
H  H47  1  0.29273000  0.07871000  0.42058000  1.0 0.128703764
H  H48  1  0.29562000  0.27404000  0.67704000  1.0 0.1384706444
H  H49  1  0.93918000  0.78597000  0.43679000  1.0 0.1183979577
H  H50  1  0.92698000  0.70865000  0.49788000  1.0 0.1183979577
H  H51  1  0.09052000  0.61233000  0.42462000  1.0 0.1109589737
H  H52  1  0.09826000  0.68729000  0.36054000  1.0 0.1109589737
H  H53  1  0.88892000  0.60552000  0.51752000  1.0 0.1183979577
H  H54  1  0.99005000  0.48757000  0.61615000  1.0 0.1109589737
H  H55  1  0.11660000  0.58970000  0.51748000  1.0 0.1183979577
H  H56  1  0.79520000  0.53098000  0.51833000  1.0 0.1183979577
H  H57  1  0.67657000  0.50080000  0.54691000  1.0 0.128703764
H  H58  1  0.76137000  0.46485000  0.68901000  1.0 0.128703764
H  H59  1  0.87943000  0.50130000  0.66231000  1.0 0.1183979577
H  H60  1  0.09163000  0.42561000  0.61527000  1.0 0.1183979577
H  H61  1  0.19948000  0.38513000  0.65273000  1.0 0.1183979577
H  H62  1  0.31670000  0.53476000  0.61195000  1.0 0.128703764
H  H63  1  0.20727000  0.57871000  0.57942000  1.0 0.128703764
H  H64  1  0.20438000  0.77404000  0.32296000  1.0 0.1384706444
H  H65  1  0.43918000  0.71403000  0.43679000  1.0 0.1183979577
H  H66  1  0.42698000  0.79135000  0.49788000  1.0 0.1183979577
H  H67  1  0.59052000  0.88767000  0.42462000  1.0 0.1109589737
H  H68  1  0.59826000  0.81271000  0.36054000  1.0 0.1109589737
H  H69  1  0.38892000  0.89448000  0.51752000  1.0 0.1183979577
H  H70  1  0.49005000  0.01243000  0.61615000  1.0 0.1109589737
H  H71  1  0.61660000  0.91030000  0.51748000  1.0 0.1183979577
H  H72  1  0.29520000  0.96902000  0.51833000  1.0 0.1183979577
H  H73  1  0.17657000  0.99920000  0.54691000  1.0 0.128703764
H  H74  1  0.26137000  0.03515000  0.68901000  1.0 0.128703764
H  H75  1  0.37943000  0.99870000  0.66231000  1.0 0.1183979577
H  H76  1  0.59163000  0.07439000  0.61527000  1.0 0.1183979577
H  H77  1  0.69948000  0.11487000  0.65273000  1.0 0.1183979577
H  H78  1  0.81670000  0.96524000  0.61195000  1.0 0.128703764
H  H79  1  0.70727000  0.92129000  0.57942000  1.0 0.128703764
H  H80  1  0.70438000  0.72596000  0.32296000  1.0 0.1384706444
H  H81  1  0.06082000  0.21403000  0.56321000  1.0 0.1183979577
H  H82  1  0.07302000  0.29135000  0.50212000  1.0 0.1183979577
H  H83  1  0.90948000  0.38767000  0.57538000  1.0 0.1109589737
H  H84  1  0.90174000  0.31271000  0.63946000  1.0 0.1109589737
H  H85  1  0.11108000  0.39448000  0.48248000  1.0 0.1183979577
H  H86  1  0.00995000  0.51243000  0.38385000  1.0 0.1109589737
H  H87  1  0.88340000  0.41030000  0.48252000  1.0 0.1183979577
H  H88  1  0.20480000  0.46902000  0.48167000  1.0 0.1183979577
H  H89  1  0.32343000  0.49920000  0.45309000  1.0 0.128703764
H  H90  1  0.23863000  0.53515000  0.31099000  1.0 0.128703764
H  H91  1  0.12057000  0.49870000  0.33769000  1.0 0.1183979577
H  H92  1  0.90837000  0.57439000  0.38473000  1.0 0.1183979577
H  H93  1  0.80052000  0.61487000  0.34727000  1.0 0.1183979577
H  H94  1  0.68330000  0.46524000  0.38805000  1.0 0.128703764
H  H95  1  0.79273000  0.42129000  0.42058000  1.0 0.128703764
H  H96  1  0.79562000  0.22596000  0.67704000  1.0 0.1384706444
H  H97  1  0.43918000  0.71403000  0.06321000  1.0 0.1183979577
H  H98  1  0.42698000  0.79135000  0.00212000  1.0 0.1183979577
H  H99  1  0.59052000  0.88767000  0.07538000  1.0 0.1109589737
H  H100  1  0.59826000  0.81271000  0.13946000  1.0 0.1109589737
H  H101  1  0.38892000  0.89448000  0.98248000  1.0 0.1183979577
H  H102  1  0.49005000  0.01243000  0.88385000  1.0 0.1109589737
H  H103  1  0.61660000  0.91030000  0.98252000  1.0 0.1183979577
H  H104  1  0.29520000  0.96902000  0.98167000  1.0 0.1183979577
H  H105  1  0.17657000  0.99920000  0.95309000  1.0 0.128703764
H  H106  1  0.26137000  0.03515000  0.81099000  1.0 0.128703764
H  H107  1  0.37943000  0.99870000  0.83769000  1.0 0.1183979577
H  H108  1  0.59163000  0.07439000  0.88473000  1.0 0.1183979577
H  H109  1  0.69948000  0.11487000  0.84727000  1.0 0.1183979577
H  H110  1  0.81670000  0.96524000  0.88805000  1.0 0.128703764
H  H111  1  0.70727000  0.92129000  0.92058000  1.0 0.128703764
H  H112  1  0.70438000  0.72596000  0.17704000  1.0 0.1384706444
H  H113  1  0.06082000  0.21403000  0.93679000  1.0 0.1183979577
H  H114  1  0.07302000  0.29135000  0.99788000  1.0 0.1183979577
H  H115  1  0.90948000  0.38767000  0.92462000  1.0 0.1109589737
H  H116  1  0.90174000  0.31271000  0.86054000  1.0 0.1109589737
H  H117  1  0.11108000  0.39448000  0.01752000  1.0 0.1183979577
H  H118  1  0.00995000  0.51243000  0.11615000  1.0 0.1109589737
H  H119  1  0.88340000  0.41030000  0.01748000  1.0 0.1183979577
H  H120  1  0.20480000  0.46902000  0.01833000  1.0 0.1183979577
H  H121  1  0.32343000  0.49920000  0.04691000  1.0 0.128703764
H  H122  1  0.23863000  0.53515000  0.18901000  1.0 0.128703764
H  H123  1  0.12057000  0.49870000  0.16231000  1.0 0.1183979577
H  H124  1  0.90837000  0.57439000  0.11527000  1.0 0.1183979577
H  H125  1  0.80052000  0.61487000  0.15273000  1.0 0.1183979577
H  H126  1  0.68330000  0.46524000  0.11195000  1.0 0.128703764
H  H127  1  0.79273000  0.42129000  0.07942000  1.0 0.128703764
H  H128  1  0.79562000  0.22596000  0.82296000  1.0 0.1384706444
C  C1  1  0.47300000  0.29400000  0.85051000  1.0 0.5907419084
C  C2  1  0.47990000  0.24440000  0.89141000  1.0 -0.0268154579
C  C3  1  0.53100000  0.25070000  0.93390000  1.0 -0.0967974325
C  C4  1  0.53690000  0.20490000  0.97120000  1.0 -0.1402234674
C  C5  1  0.49120000  0.15450000  0.96990000  1.0 0.0717885328
C  C6  1  0.43990000  0.14730000  0.92690000  1.0 -0.1504921715
C  C7  1  0.43540000  0.19230000  0.88861000  1.0 -0.1108678595
C  C8  1  0.49650000  0.10550000  0.01090000  1.0 0.0825435827
C  C9  1  0.56710000  0.08700000  0.03050000  1.0 -0.1900138536
C  C10  1  0.57390000  0.04200000  0.06860000  1.0 0.0825435827
C  C11  1  0.50650000  0.01660000  0.08930000  1.0 -0.1900138536
C  C12  1  0.43430000  0.03380000  0.07060000  1.0 0.0825435827
C  C13  1  0.43080000  0.07820000  0.03090000  1.0 -0.1900138536
C  C14  1  0.64970000  0.02170000  0.08780000  1.0 0.0717885328
C  C15  1  0.71150000  0.01950000  0.05330000  1.0 -0.1504921715
C  C16  1  0.78270000  0.00060000  0.07040000  1.0 -0.0893676806
C  C17  1  0.79450000  0.98160000  0.12110000  1.0 -0.0075215741
C  C18  1  0.73260000  0.98010000  0.15500000  1.0 -0.0967974325
C  C19  1  0.66110000  0.00110000  0.13860000  1.0 -0.1504921715
C  C20  1  0.87150000  0.96050000  0.14090000  1.0 0.5156742654
C  C21  1  0.36350000  0.00700000  0.09311000  1.0 0.0717885328
C  C22  1  0.36360000  0.94860000  0.11540000  1.0 -0.1576524877
C  C23  1  0.29850000  0.92410000  0.13780000  1.0 -0.0893676806
C  C24  1  0.23050000  0.95620000  0.13839000  1.0 -0.0268154579
C  C25  1  0.22920000  0.01340000  0.11420000  1.0 -0.0893676806
C  C26  1  0.29460000  0.03920000  0.09340000  1.0 -0.1504921715
C  C27  1  0.16140000  0.92980000  0.16461000  1.0 0.5907419084
C  C28  1  0.27440000  0.25490000  0.79360000  1.0 0.1109589737
C  C29  1  0.20800000  0.19210000  0.86280000  1.0 -0.07723923
C  C30  1  0.23700000  0.17970000  0.95390000  1.0 0.1474257133
C  C31  1  0.27100000  0.28600000  0.94770000  1.0 -0.0035464392
C  C32  1  0.22430000  0.24120000  0.87620000  1.0 -0.0217980549
C  C33  1  0.02700000  0.79400000  0.14949000  1.0 0.5907419084
C  C34  1  0.02010000  0.74440000  0.10859000  1.0 -0.0268154579
C  C35  1  0.96900000  0.75070000  0.06610000  1.0 -0.0967974325
C  C36  1  0.96310000  0.70490000  0.02880000  1.0 -0.1402234674
C  C37  1  0.00880000  0.65450000  0.03010000  1.0 0.0717885328
C  C38  1  0.06010000  0.64730000  0.07310000  1.0 -0.1504921715
C  C39  1  0.06460000  0.69230000  0.11139000  1.0 -0.1108678595
C  C40  1  0.00350000  0.60550000  0.98910000  1.0 0.0825435827
C  C41  1  0.93290000  0.58700000  0.96950000  1.0 -0.1900138536
C  C42  1  0.92610000  0.54200000  0.93140000  1.0 0.0825435827
C  C43  1  0.99350000  0.51660000  0.91070000  1.0 -0.1900138536
C  C44  1  0.06570000  0.53380000  0.92940000  1.0 0.0825435827
C  C45  1  0.06920000  0.57820000  0.96910000  1.0 -0.1900138536
C  C46  1  0.85030000  0.52170000  0.91220000  1.0 0.0717885328
C  C47  1  0.78850000  0.51950000  0.94670000  1.0 -0.1504921715
C  C48  1  0.71730000  0.50060000  0.92960000  1.0 -0.0893676806
C  C49  1  0.70550000  0.48160000  0.87890000  1.0 -0.0075215741
C  C50  1  0.76740000  0.48010000  0.84500000  1.0 -0.0967974325
C  C51  1  0.83890000  0.50110000  0.86140000  1.0 -0.1504921715
C  C52  1  0.62850000  0.46050000  0.85910000  1.0 0.5156742654
C  C53  1  0.13650000  0.50700000  0.90689000  1.0 0.0717885328
C  C54  1  0.13640000  0.44860000  0.88460000  1.0 -0.1576524877
C  C55  1  0.20150000  0.42410000  0.86220000  1.0 -0.0893676806
C  C56  1  0.26950000  0.45620000  0.86161000  1.0 -0.0268154579
C  C57  1  0.27080000  0.51340000  0.88580000  1.0 -0.0893676806
C  C58  1  0.20540000  0.53920000  0.90660000  1.0 -0.1504921715
C  C59  1  0.33860000  0.42980000  0.83539000  1.0 0.5907419084
C  C60  1  0.22560000  0.75490000  0.20640000  1.0 0.1109589737
C  C61  1  0.29200000  0.69210000  0.13720000  1.0 -0.07723923
C  C62  1  0.26300000  0.67970000  0.04610000  1.0 0.1474257133
C  C63  1  0.22900000  0.78600000  0.05230000  1.0 -0.0035464392
C  C64  1  0.27570000  0.74120000  0.12380000  1.0 -0.0217980549
C  C65  1  0.47300000  0.29400000  0.64949000  1.0 0.5907419084
C  C66  1  0.47990000  0.24440000  0.60859000  1.0 -0.0268154579
C  C67  1  0.53100000  0.25070000  0.56610000  1.0 -0.0967974325
C  C68  1  0.53690000  0.20490000  0.52880000  1.0 -0.1402234674
C  C69  1  0.49120000  0.15450000  0.53010000  1.0 0.0717885328
C  C70  1  0.43990000  0.14730000  0.57310000  1.0 -0.1504921715
C  C71  1  0.43540000  0.19230000  0.61139000  1.0 -0.1108678595
C  C72  1  0.49650000  0.10550000  0.48910000  1.0 0.0825435827
C  C73  1  0.56710000  0.08700000  0.46950000  1.0 -0.1900138536
C  C74  1  0.57390000  0.04200000  0.43140000  1.0 0.0825435827
C  C75  1  0.50650000  0.01660000  0.41070000  1.0 -0.1900138536
C  C76  1  0.43430000  0.03380000  0.42940000  1.0 0.0825435827
C  C77  1  0.43080000  0.07820000  0.46910000  1.0 -0.1900138536
C  C78  1  0.64970000  0.02170000  0.41220000  1.0 0.0717885328
C  C79  1  0.71150000  0.01950000  0.44670000  1.0 -0.1504921715
C  C80  1  0.78270000  0.00060000  0.42960000  1.0 -0.0893676806
C  C81  1  0.79450000  0.98160000  0.37890000  1.0 -0.0075215741
C  C82  1  0.73260000  0.98010000  0.34500000  1.0 -0.0967974325
C  C83  1  0.66110000  0.00110000  0.36140000  1.0 -0.1504921715
C  C84  1  0.87150000  0.96050000  0.35910000  1.0 0.5156742654
C  C85  1  0.36350000  0.00700000  0.40689000  1.0 0.0717885328
C  C86  1  0.36360000  0.94860000  0.38460000  1.0 -0.1576524877
C  C87  1  0.29850000  0.92410000  0.36220000  1.0 -0.0893676806
C  C88  1  0.23050000  0.95620000  0.36161000  1.0 -0.0268154579
C  C89  1  0.22920000  0.01340000  0.38580000  1.0 -0.0893676806
C  C90  1  0.29460000  0.03920000  0.40660000  1.0 -0.1504921715
C  C91  1  0.16140000  0.92980000  0.33539000  1.0 0.5907419084
C  C92  1  0.27440000  0.25490000  0.70640000  1.0 0.1109589737
C  C93  1  0.20800000  0.19210000  0.63720000  1.0 -0.07723923
C  C94  1  0.23700000  0.17970000  0.54610000  1.0 0.1474257133
C  C95  1  0.27100000  0.28600000  0.55230000  1.0 -0.0035464392
C  C96  1  0.22430000  0.24120000  0.62380000  1.0 -0.0217980549
C  C97  1  0.02700000  0.79400000  0.35051000  1.0 0.5907419084
C  C98  1  0.02010000  0.74440000  0.39141000  1.0 -0.0268154579
C  C99  1  0.96900000  0.75070000  0.43390000  1.0 -0.0967974325
C  C100  1  0.96310000  0.70490000  0.47120000  1.0 -0.1402234674
C  C101  1  0.00880000  0.65450000  0.46990000  1.0 0.0717885328
C  C102  1  0.06010000  0.64730000  0.42690000  1.0 -0.1504921715
C  C103  1  0.06460000  0.69230000  0.38861000  1.0 -0.1108678595
C  C104  1  0.00350000  0.60550000  0.51090000  1.0 0.0825435827
C  C105  1  0.93290000  0.58700000  0.53050000  1.0 -0.1900138536
C  C106  1  0.92610000  0.54200000  0.56860000  1.0 0.0825435827
C  C107  1  0.99350000  0.51660000  0.58930000  1.0 -0.1900138536
C  C108  1  0.06570000  0.53380000  0.57060000  1.0 0.0825435827
C  C109  1  0.06920000  0.57820000  0.53090000  1.0 -0.1900138536
C  C110  1  0.85030000  0.52170000  0.58780000  1.0 0.0717885328
C  C111  1  0.78850000  0.51950000  0.55330000  1.0 -0.1504921715
C  C112  1  0.71730000  0.50060000  0.57040000  1.0 -0.0893676806
C  C113  1  0.70550000  0.48160000  0.62110000  1.0 -0.0075215741
C  C114  1  0.76740000  0.48010000  0.65500000  1.0 -0.0967974325
C  C115  1  0.83890000  0.50110000  0.63860000  1.0 -0.1504921715
C  C116  1  0.62850000  0.46050000  0.64090000  1.0 0.5156742654
C  C117  1  0.13650000  0.50700000  0.59311000  1.0 0.0717885328
C  C118  1  0.13640000  0.44860000  0.61540000  1.0 -0.1576524877
C  C119  1  0.20150000  0.42410000  0.63780000  1.0 -0.0893676806
C  C120  1  0.26950000  0.45620000  0.63839000  1.0 -0.0268154579
C  C121  1  0.27080000  0.51340000  0.61420000  1.0 -0.0893676806
C  C122  1  0.20540000  0.53920000  0.59340000  1.0 -0.1504921715
C  C123  1  0.33860000  0.42980000  0.66461000  1.0 0.5907419084
C  C124  1  0.22560000  0.75490000  0.29360000  1.0 0.1109589737
C  C125  1  0.29200000  0.69210000  0.36280000  1.0 -0.07723923
C  C126  1  0.26300000  0.67970000  0.45390000  1.0 0.1474257133
C  C127  1  0.22900000  0.78600000  0.44770000  1.0 -0.0035464392
C  C128  1  0.27570000  0.74120000  0.37620000  1.0 -0.0217980549
C  C129  1  0.19860000  0.17560000  0.75000000  1.0 0.0717885328
C  C130  1  0.30140000  0.67560000  0.25000000  1.0 0.0717885328
C  C131  1  0.52700000  0.70600000  0.35051000  1.0 0.5907419084
C  C132  1  0.52010000  0.75560000  0.39141000  1.0 -0.0268154579
C  C133  1  0.46900000  0.74930000  0.43390000  1.0 -0.0967974325
C  C134  1  0.46310000  0.79510000  0.47120000  1.0 -0.1402234674
C  C135  1  0.50880000  0.84550000  0.46990000  1.0 0.0717885328
C  C136  1  0.56010000  0.85270000  0.42690000  1.0 -0.1504921715
C  C137  1  0.56460000  0.80770000  0.38861000  1.0 -0.1108678595
C  C138  1  0.50350000  0.89450000  0.51090000  1.0 0.0825435827
C  C139  1  0.43290000  0.91300000  0.53050000  1.0 -0.1900138536
C  C140  1  0.42610000  0.95800000  0.56860000  1.0 0.0825435827
C  C141  1  0.49350000  0.98340000  0.58930000  1.0 -0.1900138536
C  C142  1  0.56570000  0.96620000  0.57060000  1.0 0.0825435827
C  C143  1  0.56920000  0.92180000  0.53090000  1.0 -0.1900138536
C  C144  1  0.35030000  0.97830000  0.58780000  1.0 0.0717885328
C  C145  1  0.28850000  0.98050000  0.55330000  1.0 -0.1504921715
C  C146  1  0.21730000  0.99940000  0.57040000  1.0 -0.0893676806
C  C147  1  0.20550000  0.01840000  0.62110000  1.0 -0.0075215741
C  C148  1  0.26740000  0.01990000  0.65500000  1.0 -0.0967974325
C  C149  1  0.33890000  0.99890000  0.63860000  1.0 -0.1504921715
C  C150  1  0.12850000  0.03950000  0.64090000  1.0 0.5156742654
C  C151  1  0.63650000  0.99300000  0.59311000  1.0 0.0717885328
C  C152  1  0.63640000  0.05140000  0.61540000  1.0 -0.1576524877
C  C153  1  0.70150000  0.07590000  0.63780000  1.0 -0.0893676806
C  C154  1  0.76950000  0.04380000  0.63839000  1.0 -0.0268154579
C  C155  1  0.77080000  0.98660000  0.61420000  1.0 -0.0893676806
C  C156  1  0.70540000  0.96080000  0.59340000  1.0 -0.1504921715
C  C157  1  0.83860000  0.07020000  0.66461000  1.0 0.5907419084
C  C158  1  0.72560000  0.74510000  0.29360000  1.0 0.1109589737
C  C159  1  0.79200000  0.80790000  0.36280000  1.0 -0.07723923
C  C160  1  0.76300000  0.82030000  0.45390000  1.0 0.1474257133
C  C161  1  0.72900000  0.71400000  0.44770000  1.0 -0.0035464392
C  C162  1  0.77570000  0.75880000  0.37620000  1.0 -0.0217980549
C  C163  1  0.97300000  0.20600000  0.64949000  1.0 0.5907419084
C  C164  1  0.97990000  0.25560000  0.60859000  1.0 -0.0268154579
C  C165  1  0.03100000  0.24930000  0.56610000  1.0 -0.0967974325
C  C166  1  0.03690000  0.29510000  0.52880000  1.0 -0.1402234674
C  C167  1  0.99120000  0.34550000  0.53010000  1.0 0.0717885328
C  C168  1  0.93990000  0.35270000  0.57310000  1.0 -0.1504921715
C  C169  1  0.93540000  0.30770000  0.61139000  1.0 -0.1108678595
C  C170  1  0.99650000  0.39450000  0.48910000  1.0 0.0825435827
C  C171  1  0.06710000  0.41300000  0.46950000  1.0 -0.1900138536
C  C172  1  0.07390000  0.45800000  0.43140000  1.0 0.0825435827
C  C173  1  0.00650000  0.48340000  0.41070000  1.0 -0.1955528983
C  C174  1  0.93430000  0.46620000  0.42940000  1.0 0.0825435827
C  C175  1  0.93080000  0.42180000  0.46910000  1.0 -0.1900138536
C  C176  1  0.14970000  0.47830000  0.41220000  1.0 0.0717885328
C  C177  1  0.21150000  0.48050000  0.44670000  1.0 -0.1504921715
C  C178  1  0.28270000  0.49940000  0.42960000  1.0 -0.0893676806
C  C179  1  0.29450000  0.51840000  0.37890000  1.0 -0.0075215741
C  C180  1  0.23260000  0.51990000  0.34500000  1.0 -0.0967974325
C  C181  1  0.16110000  0.49890000  0.36140000  1.0 -0.1504921715
C  C182  1  0.37150000  0.53950000  0.35910000  1.0 0.5156742654
C  C183  1  0.86350000  0.49300000  0.40689000  1.0 0.0717885328
C  C184  1  0.86360000  0.55140000  0.38460000  1.0 -0.1576524877
C  C185  1  0.79850000  0.57590000  0.36220000  1.0 -0.0893676806
C  C186  1  0.73050000  0.54380000  0.36161000  1.0 -0.0268154579
C  C187  1  0.72920000  0.48660000  0.38580000  1.0 -0.0893676806
C  C188  1  0.79460000  0.46080000  0.40660000  1.0 -0.1504921715
C  C189  1  0.66140000  0.57020000  0.33539000  1.0 0.5907419084
C  C190  1  0.77440000  0.24510000  0.70640000  1.0 0.1109589737
C  C191  1  0.70800000  0.30790000  0.63720000  1.0 -0.07723923
C  C192  1  0.73700000  0.32030000  0.54610000  1.0 0.1474257133
C  C193  1  0.77100000  0.21400000  0.55230000  1.0 0.0008971701
C  C194  1  0.72430000  0.25880000  0.62380000  1.0 -0.0217980549
C  C195  1  0.52700000  0.70600000  0.14949000  1.0 0.5907419084
C  C196  1  0.52010000  0.75560000  0.10859000  1.0 -0.0268154579
C  C197  1  0.46900000  0.74930000  0.06610000  1.0 -0.0967974325
C  C198  1  0.46310000  0.79510000  0.02880000  1.0 -0.1402234674
C  C199  1  0.50880000  0.84550000  0.03010000  1.0 0.0717885328
C  C200  1  0.56010000  0.85270000  0.07310000  1.0 -0.1504921715
C  C201  1  0.56460000  0.80770000  0.11139000  1.0 -0.1108678595
C  C202  1  0.50350000  0.89450000  0.98910000  1.0 0.0825435827
C  C203  1  0.43290000  0.91300000  0.96950000  1.0 -0.1900138536
C  C204  1  0.42610000  0.95800000  0.93140000  1.0 0.0825435827
C  C205  1  0.49350000  0.98340000  0.91070000  1.0 -0.1900138536
C  C206  1  0.56570000  0.96620000  0.92940000  1.0 0.0825435827
C  C207  1  0.56920000  0.92180000  0.96910000  1.0 -0.1900138536
C  C208  1  0.35030000  0.97830000  0.91220000  1.0 0.0717885328
C  C209  1  0.28850000  0.98050000  0.94670000  1.0 -0.1504921715
C  C210  1  0.21730000  0.99940000  0.92960000  1.0 -0.0893676806
C  C211  1  0.20550000  0.01840000  0.87890000  1.0 -0.0075215741
C  C212  1  0.26740000  0.01990000  0.84500000  1.0 -0.0967974325
C  C213  1  0.33890000  0.99890000  0.86140000  1.0 -0.1504921715
C  C214  1  0.12850000  0.03950000  0.85910000  1.0 0.5156742654
C  C215  1  0.63650000  0.99300000  0.90689000  1.0 0.0717885328
C  C216  1  0.63640000  0.05140000  0.88460000  1.0 -0.1576524877
C  C217  1  0.70150000  0.07590000  0.86220000  1.0 -0.0893676806
C  C218  1  0.76950000  0.04380000  0.86161000  1.0 -0.0268154579
C  C219  1  0.77080000  0.98660000  0.88580000  1.0 -0.0893676806
C  C220  1  0.70540000  0.96080000  0.90660000  1.0 -0.1504921715
C  C221  1  0.83860000  0.07020000  0.83539000  1.0 0.5907419084
C  C222  1  0.72560000  0.74510000  0.20640000  1.0 0.1109589737
C  C223  1  0.79200000  0.80790000  0.13720000  1.0 -0.07723923
C  C224  1  0.76300000  0.82030000  0.04610000  1.0 0.1474257133
C  C225  1  0.72900000  0.71400000  0.05230000  1.0 -0.0035464392
C  C226  1  0.77570000  0.75880000  0.12380000  1.0 -0.0217980549
C  C227  1  0.97300000  0.20600000  0.85051000  1.0 0.5907419084
C  C228  1  0.97990000  0.25560000  0.89141000  1.0 -0.0268154579
C  C229  1  0.03100000  0.24930000  0.93390000  1.0 -0.0967974325
C  C230  1  0.03690000  0.29510000  0.97120000  1.0 -0.1402234674
C  C231  1  0.99120000  0.34550000  0.96990000  1.0 0.0717885328
C  C232  1  0.93990000  0.35270000  0.92690000  1.0 -0.1504921715
C  C233  1  0.93540000  0.30770000  0.88861000  1.0 -0.1108678595
C  C234  1  0.99650000  0.39450000  0.01090000  1.0 0.0825435827
C  C235  1  0.06710000  0.41300000  0.03050000  1.0 -0.1900138536
C  C236  1  0.07390000  0.45800000  0.06860000  1.0 0.0825435827
C  C237  1  0.00650000  0.48340000  0.08930000  1.0 -0.1955528983
C  C238  1  0.93430000  0.46620000  0.07060000  1.0 0.0825435827
C  C239  1  0.93080000  0.42180000  0.03090000  1.0 -0.1900138536
C  C240  1  0.14970000  0.47830000  0.08780000  1.0 0.0717885328
C  C241  1  0.21150000  0.48050000  0.05330000  1.0 -0.1504921715
C  C242  1  0.28270000  0.49940000  0.07040000  1.0 -0.0893676806
C  C243  1  0.29450000  0.51840000  0.12110000  1.0 -0.0075215741
C  C244  1  0.23260000  0.51990000  0.15500000  1.0 -0.0967974325
C  C245  1  0.16110000  0.49890000  0.13860000  1.0 -0.1504921715
C  C246  1  0.37150000  0.53950000  0.14090000  1.0 0.5156742654
C  C247  1  0.86350000  0.49300000  0.09311000  1.0 0.0717885328
C  C248  1  0.86360000  0.55140000  0.11540000  1.0 -0.1576524877
C  C249  1  0.79850000  0.57590000  0.13780000  1.0 -0.0893676806
C  C250  1  0.73050000  0.54380000  0.13839000  1.0 -0.0268154579
C  C251  1  0.72920000  0.48660000  0.11420000  1.0 -0.0893676806
C  C252  1  0.79460000  0.46080000  0.09340000  1.0 -0.1504921715
C  C253  1  0.66140000  0.57020000  0.16461000  1.0 0.5907419084
C  C254  1  0.77440000  0.24510000  0.79360000  1.0 0.1109589737
C  C255  1  0.70800000  0.30790000  0.86280000  1.0 -0.07723923
C  C256  1  0.73700000  0.32030000  0.95390000  1.0 0.1474257133
C  C257  1  0.77100000  0.21400000  0.94770000  1.0 0.0008971701
C  C258  1  0.72430000  0.25880000  0.87620000  1.0 -0.0217980549
C  C259  1  0.80140000  0.82440000  0.25000000  1.0 0.0825435827
C  C260  1  0.69860000  0.32440000  0.75000000  1.0 0.0717885328
N  N1  1  0.22470000  0.20970000  0.80200000  1.0 0.0377810395
N  N2  1  0.24290000  0.22810000  0.92940000  1.0 0.0130782614
N  N3  1  0.27530000  0.70970000  0.19800000  1.0 0.0377810395
N  N4  1  0.25710000  0.72810000  0.07060000  1.0 0.0130782614
N  N5  1  0.22470000  0.20970000  0.69800000  1.0 0.0377810395
N  N6  1  0.24290000  0.22810000  0.57060000  1.0 0.0130782614
N  N7  1  0.27530000  0.70970000  0.30200000  1.0 0.0377810395
N  N8  1  0.25710000  0.72810000  0.42940000  1.0 0.0130782614
N  N9  1  0.77530000  0.79030000  0.30200000  1.0 0.0377810395
N  N10  1  0.75710000  0.77190000  0.42940000  1.0 0.0130782614
N  N11  1  0.72470000  0.29030000  0.69800000  1.0 0.0377810395
N  N12  1  0.74290000  0.27190000  0.57060000  1.0 0.0130782614
N  N13  1  0.77530000  0.79030000  0.19800000  1.0 0.0377810395
N  N14  1  0.75710000  0.77190000  0.07060000  1.0 0.0130782614
N  N15  1  0.72470000  0.29030000  0.80200000  1.0 0.0377810395
N  N16  1  0.74290000  0.27190000  0.92940000  1.0 0.0130782614
O  O1  1  0.43628000  0.28058000  0.80930000  1.0 -0.5505690582
O  O2  1  0.50299000  0.34469000  0.86156000  1.0 -0.5169298032
O  O3  1  0.92820000  0.97290000  0.11620000  1.0 -0.4388399431
O  O4  1  0.87840000  0.93380000  0.18160000  1.0 -0.4388399431
O  O5  1  0.16977000  0.88425000  0.19206000  1.0 -0.5505690582
O  O6  1  0.09826000  0.95847000  0.15760000  1.0 -0.5550708154
O  O7  1  0.50330000  0.51170000  0.76870000  1.0 0.1903715453
O  O8  1  0.25380000  0.17170000  0.99930000  1.0 -0.2900717684
O  O9  1  0.06372000  0.78058000  0.19070000  1.0 -0.5505690582
O  O10  1  0.99701000  0.84469000  0.13844000  1.0 -0.5169298032
O  O11  1  0.57180000  0.47290000  0.88380000  1.0 -0.4388399431
O  O12  1  0.62160000  0.43380000  0.81840000  1.0 -0.4337028443
O  O13  1  0.33023000  0.38425000  0.80794000  1.0 -0.5505690582
O  O14  1  0.40174000  0.45847000  0.84240000  1.0 -0.5505690582
O  O15  1  0.99670000  0.01170000  0.23130000  1.0 0.1903715453
O  O16  1  0.24620000  0.67170000  0.00070000  1.0 -0.2900717684
O  O17  1  0.43628000  0.28058000  0.69070000  1.0 -0.5505690582
O  O18  1  0.50299000  0.34469000  0.63844000  1.0 -0.5169298032
O  O19  1  0.92820000  0.97290000  0.38380000  1.0 -0.4388399431
O  O20  1  0.87840000  0.93380000  0.31840000  1.0 -0.4388399431
O  O21  1  0.16977000  0.88425000  0.30794000  1.0 -0.5505690582
O  O22  1  0.09826000  0.95847000  0.34240000  1.0 -0.5550708154
O  O23  1  0.50330000  0.51170000  0.73130000  1.0 0.1903715453
O  O24  1  0.25380000  0.17170000  0.50070000  1.0 -0.2900717684
O  O25  1  0.06372000  0.78058000  0.30930000  1.0 -0.5505690582
O  O26  1  0.99701000  0.84469000  0.36156000  1.0 -0.5169298032
O  O27  1  0.57180000  0.47290000  0.61620000  1.0 -0.4388399431
O  O28  1  0.62160000  0.43380000  0.68160000  1.0 -0.4337028443
O  O29  1  0.33023000  0.38425000  0.69206000  1.0 -0.5505690582
O  O30  1  0.40174000  0.45847000  0.65760000  1.0 -0.5505690582
O  O31  1  0.99670000  0.01170000  0.26870000  1.0 0.1903715453
O  O32  1  0.24620000  0.67170000  0.49930000  1.0 -0.2900717684
O  O33  1  0.49077000  0.38552000  0.75000000  1.0 -0.8508560785
O  O34  1  0.29420000  0.27330000  0.75000000  1.0 -0.2317947575
O  O35  1  0.00923000  0.88552000  0.25000000  1.0 -0.8508560785
O  O36  1  0.20580000  0.77330000  0.25000000  1.0 -0.23540966
O  O37  1  0.56372000  0.71942000  0.30930000  1.0 -0.5505690582
O  O38  1  0.49701000  0.65531000  0.36156000  1.0 -0.5169298032
O  O39  1  0.07180000  0.02710000  0.61620000  1.0 -0.4388399431
O  O40  1  0.12160000  0.06620000  0.68160000  1.0 -0.4337028443
O  O41  1  0.83023000  0.11575000  0.69206000  1.0 -0.5505690582
O  O42  1  0.90174000  0.04153000  0.65760000  1.0 -0.5505690582
O  O43  1  0.49670000  0.48830000  0.26870000  1.0 0.1903715453
O  O44  1  0.74620000  0.82830000  0.49930000  1.0 -0.2900717684
O  O45  1  0.93628000  0.21942000  0.69070000  1.0 -0.5505690582
O  O46  1  0.00299000  0.15531000  0.63844000  1.0 -0.5169298032
O  O47  1  0.42820000  0.52710000  0.38380000  1.0 -0.4388399431
O  O48  1  0.37840000  0.56620000  0.31840000  1.0 -0.4337028443
O  O49  1  0.66977000  0.61575000  0.30794000  1.0 -0.5505690582
O  O50  1  0.59826000  0.54153000  0.34240000  1.0 -0.5505690582
O  O51  1  0.00330000  0.98830000  0.73130000  1.0 0.1800346545
O  O52  1  0.75380000  0.32830000  0.50070000  1.0 -0.2900717684
O  O53  1  0.56372000  0.71942000  0.19070000  1.0 -0.5505690582
O  O54  1  0.49701000  0.65531000  0.13844000  1.0 -0.5169298032
O  O55  1  0.07180000  0.02710000  0.88380000  1.0 -0.4388399431
O  O56  1  0.12160000  0.06620000  0.81840000  1.0 -0.4337028443
O  O57  1  0.83023000  0.11575000  0.80794000  1.0 -0.5505690582
O  O58  1  0.90174000  0.04153000  0.84240000  1.0 -0.5505690582
O  O59  1  0.49670000  0.48830000  0.23130000  1.0 0.1903715453
O  O60  1  0.74620000  0.82830000  0.00070000  1.0 -0.2900717684
O  O61  1  0.93628000  0.21942000  0.80930000  1.0 -0.5505690582
O  O62  1  0.00299000  0.15531000  0.86156000  1.0 -0.5169298032
O  O63  1  0.42820000  0.52710000  0.11620000  1.0 -0.4388399431
O  O64  1  0.37840000  0.56620000  0.18160000  1.0 -0.4337028443
O  O65  1  0.66977000  0.61575000  0.19206000  1.0 -0.5505690582
O  O66  1  0.59826000  0.54153000  0.15760000  1.0 -0.5550708154
O  O67  1  0.00330000  0.98830000  0.76870000  1.0 0.1800346545
O  O68  1  0.75380000  0.32830000  0.99930000  1.0 -0.2900717684
O  O69  1  0.50923000  0.61448000  0.25000000  1.0 -0.8508560785
O  O70  1  0.70580000  0.72670000  0.25000000  1.0 -0.2317947575
O  O71  1  0.99077000  0.11448000  0.75000000  1.0 -0.8508560785
O  O72  1  0.79420000  0.22670000  0.75000000  1.0 -0.2317947575
