# DDEC6 charges by PACMAN v1.1 (https://github.com/mtap-research/PACMAN-charge/)
data_SABNAO_ASR_pacman
_symmetry_space_group_name_H-M   'P 1'
_cell_length_a   19.90910000
_cell_length_b   28.71200000
_cell_length_c   36.27880000
_cell_angle_alpha   90.00000000
_cell_angle_beta   122.91500000
_cell_angle_gamma   90.00000000
_symmetry_Int_Tables_number   1
_chemical_formula_structural   Na5Cu3Te3Mo18P9H18C9N3O62
_chemical_formula_sum   'Na20 Cu12 Te12 Mo72 P36 H72 C36 N12 O248'
_cell_volume   17409.13191232
_cell_formula_units_Z   4
loop_
 _symmetry_equiv_pos_site_id
 _symmetry_equiv_pos_as_xyz
  1  'x, y, z'
loop_
 _atom_site_type_symbol
 _atom_site_label
 _atom_site_symmetry_multiplicity
 _atom_site_fract_x
 _atom_site_fract_y
 _atom_site_fract_z
 _atom_site_occupancy
 _atom_site_charge
Na  Na1  1  0.29602000  0.03830000  0.43902000  1.0 0.9402219644
Na  Na2  1  0.29439000  0.47526000  0.43179000  1.0 0.9246402573
Na  Na3  1  0.18380000  0.76410000  0.69360000  1.0 0.8285472881
Na  Na4  1  0.63580000  0.66070000  0.67450000  1.0 0.8495801728
Na  Na5  1  0.61170000  0.82110000  0.66350000  1.0 0.8495801728
Na  Na6  1  0.70398000  0.03830000  0.06098000  1.0 0.9402219644
Na  Na7  1  0.70561000  0.47526000  0.06821000  1.0 0.9274214696
Na  Na8  1  0.81620000  0.76410000  0.80640000  1.0 0.8285472881
Na  Na9  1  0.36420000  0.66070000  0.82550000  1.0 0.855430026
Na  Na10  1  0.38830000  0.82110000  0.83650000  1.0 0.855430026
Na  Na11  1  0.70398000  0.96170000  0.56098000  1.0 0.9402219644
Na  Na12  1  0.70561000  0.52474000  0.56821000  1.0 0.9246402573
Na  Na13  1  0.81620000  0.23590000  0.30640000  1.0 0.8285472881
Na  Na14  1  0.36420000  0.33930000  0.32550000  1.0 0.8495801728
Na  Na15  1  0.38830000  0.17890000  0.33650000  1.0 0.8495801728
Na  Na16  1  0.29602000  0.96170000  0.93902000  1.0 0.9450848292
Na  Na17  1  0.29439000  0.52474000  0.93179000  1.0 0.9246402573
Na  Na18  1  0.18380000  0.23590000  0.19360000  1.0 0.8285472881
Na  Na19  1  0.63580000  0.33930000  0.17450000  1.0 0.855430026
Na  Na20  1  0.61170000  0.17890000  0.16350000  1.0 0.855430026
Cu  Cu1  1  0.32860000  0.74972000  0.58596000  1.0 0.837012149
Cu  Cu2  1  0.35209000  0.60748000  0.68282000  1.0 0.8285472881
Cu  Cu3  1  0.35358000  0.89226000  0.68073000  1.0 0.837012149
Cu  Cu4  1  0.67140000  0.74972000  0.91404000  1.0 0.837012149
Cu  Cu5  1  0.64791000  0.60748000  0.81718000  1.0 0.837012149
Cu  Cu6  1  0.64642000  0.89226000  0.81927000  1.0 0.837012149
Cu  Cu7  1  0.67140000  0.25028000  0.41404000  1.0 0.837012149
Cu  Cu8  1  0.64791000  0.39252000  0.31718000  1.0 0.837012149
Cu  Cu9  1  0.64642000  0.10774000  0.31927000  1.0 0.837012149
Cu  Cu10  1  0.32860000  0.25028000  0.08596000  1.0 0.837012149
Cu  Cu11  1  0.35209000  0.39252000  0.18282000  1.0 0.8285472881
Cu  Cu12  1  0.35358000  0.10774000  0.18073000  1.0 0.837012149
Te  Te1  1  0.47922000  0.95259000  0.61891000  1.0 1.3907503914
Te  Te2  1  0.47028000  0.54515000  0.61676000  1.0 1.3907503914
Te  Te3  1  0.07600000  0.74951000  0.55425000  1.0 1.3485099068
Te  Te4  1  0.52078000  0.95259000  0.88109000  1.0 1.3907503914
Te  Te5  1  0.52972000  0.54515000  0.88324000  1.0 1.3907503914
Te  Te6  1  0.92400000  0.74951000  0.94575000  1.0 1.3415289711
Te  Te7  1  0.52078000  0.04741000  0.38109000  1.0 1.3907503914
Te  Te8  1  0.52972000  0.45485000  0.38324000  1.0 1.3986872425
Te  Te9  1  0.92400000  0.25049000  0.44575000  1.0 1.3485099068
Te  Te10  1  0.47922000  0.04741000  0.11891000  1.0 1.3986872425
Te  Te11  1  0.47028000  0.45485000  0.11676000  1.0 1.3986872425
Te  Te12  1  0.07600000  0.25049000  0.05425000  1.0 1.3485099068
Mo  Mo1  1  0.68901000  0.94219000  0.66079000  1.0 2.0994417261
Mo  Mo2  1  0.54146000  0.88701000  0.55688000  1.0 2.1377048563
Mo  Mo3  1  0.35233000  0.92487000  0.50449000  1.0 2.1504670214
Mo  Mo4  1  0.29898000  0.02437000  0.54389000  1.0 2.1504670214
Mo  Mo5  1  0.43750000  0.07658000  0.63580000  1.0 1.9796843123
Mo  Mo6  1  0.63752000  0.03108000  0.69961000  1.0 1.7711035004
Mo  Mo7  1  0.35916000  0.58553000  0.50226000  1.0 2.1504670214
Mo  Mo8  1  0.55447000  0.60819000  0.56536000  1.0 2.1157828759
Mo  Mo9  1  0.68470000  0.53898000  0.66416000  1.0 2.0897445749
Mo  Mo10  1  0.60061000  0.45748000  0.69215000  1.0 1.8079693309
Mo  Mo11  1  0.39201000  0.42911000  0.62077000  1.0 2.0381933442
Mo  Mo12  1  0.27755000  0.48782000  0.52831000  1.0 2.1129542182
Mo  Mo13  1  0.00898000  0.69419000  0.61815000  1.0 1.8919945549
Mo  Mo14  1  0.01619000  0.62739000  0.54503000  1.0 1.6727186631
Mo  Mo15  1  0.99964000  0.68055000  0.45035000  1.0 1.9989695739
Mo  Mo16  1  0.00490000  0.79567000  0.44297000  1.0 1.9405072124
Mo  Mo17  1  0.01525000  0.86845000  0.52681000  1.0 1.8079693309
Mo  Mo18  1  0.00444000  0.82157000  0.60828000  1.0 1.8369380227
Mo  Mo19  1  0.31099000  0.94219000  0.83921000  1.0 2.0897445749
Mo  Mo20  1  0.45854000  0.88701000  0.94312000  1.0 2.1377048563
Mo  Mo21  1  0.64767000  0.92487000  0.99551000  1.0 2.1504670214
Mo  Mo22  1  0.70102000  0.02437000  0.95611000  1.0 2.1504670214
Mo  Mo23  1  0.56250000  0.07658000  0.86420000  1.0 1.9796843123
Mo  Mo24  1  0.36248000  0.03108000  0.80039000  1.0 1.7711035004
Mo  Mo25  1  0.64084000  0.58553000  0.99774000  1.0 2.1559880804
Mo  Mo26  1  0.44553000  0.60819000  0.93464000  1.0 2.1157828759
Mo  Mo27  1  0.31530000  0.53898000  0.83584000  1.0 2.0897445749
Mo  Mo28  1  0.39939000  0.45748000  0.80785000  1.0 1.8079693309
Mo  Mo29  1  0.60799000  0.42911000  0.87923000  1.0 2.0381933442
Mo  Mo30  1  0.72245000  0.48782000  0.97169000  1.0 2.1129542182
Mo  Mo31  1  0.99102000  0.69419000  0.88185000  1.0 1.8919945549
Mo  Mo32  1  0.98381000  0.62739000  0.95497000  1.0 1.6727186631
Mo  Mo33  1  0.00036000  0.68055000  0.04965000  1.0 1.9989695739
Mo  Mo34  1  0.99510000  0.79567000  0.05703000  1.0 1.9483159374
Mo  Mo35  1  0.98475000  0.86845000  0.97319000  1.0 1.8079693309
Mo  Mo36  1  0.99556000  0.82157000  0.89172000  1.0 1.8369380227
Mo  Mo37  1  0.31099000  0.05781000  0.33921000  1.0 2.0994417261
Mo  Mo38  1  0.45854000  0.11299000  0.44312000  1.0 2.1377048563
Mo  Mo39  1  0.64767000  0.07513000  0.49551000  1.0 2.1559880804
Mo  Mo40  1  0.70102000  0.97563000  0.45611000  1.0 2.1377048563
Mo  Mo41  1  0.56250000  0.92342000  0.36420000  1.0 1.9796843123
Mo  Mo42  1  0.36248000  0.96892000  0.30039000  1.0 1.7628905367
Mo  Mo43  1  0.64084000  0.41447000  0.49774000  1.0 2.1559880804
Mo  Mo44  1  0.44553000  0.39181000  0.43464000  1.0 2.1157828759
Mo  Mo45  1  0.31530000  0.46102000  0.33584000  1.0 2.0897445749
Mo  Mo46  1  0.39939000  0.54252000  0.30785000  1.0 1.8019048761
Mo  Mo47  1  0.60799000  0.57089000  0.37923000  1.0 2.0548517298
Mo  Mo48  1  0.72245000  0.51218000  0.47169000  1.0 2.0994417261
Mo  Mo49  1  0.99102000  0.30581000  0.38185000  1.0 1.8963362764
Mo  Mo50  1  0.98381000  0.37261000  0.45497000  1.0 1.67883857
Mo  Mo51  1  0.00036000  0.31945000  0.54965000  1.0 1.9989695739
Mo  Mo52  1  0.99510000  0.20433000  0.55703000  1.0 1.9405072124
Mo  Mo53  1  0.98475000  0.13155000  0.47319000  1.0 1.8079693309
Mo  Mo54  1  0.99556000  0.17843000  0.39172000  1.0 1.8369380227
Mo  Mo55  1  0.68901000  0.05781000  0.16079000  1.0 2.0897445749
Mo  Mo56  1  0.54146000  0.11299000  0.05688000  1.0 2.1377048563
Mo  Mo57  1  0.35233000  0.07513000  0.00449000  1.0 2.1559880804
Mo  Mo58  1  0.29898000  0.97563000  0.04389000  1.0 2.1346096586
Mo  Mo59  1  0.43750000  0.92342000  0.13580000  1.0 1.9796843123
Mo  Mo60  1  0.63752000  0.96892000  0.19961000  1.0 1.7711035004
Mo  Mo61  1  0.35916000  0.41447000  0.00226000  1.0 2.1559880804
Mo  Mo62  1  0.55447000  0.39181000  0.06536000  1.0 2.1157828759
Mo  Mo63  1  0.68470000  0.46102000  0.16416000  1.0 2.0848497938
Mo  Mo64  1  0.60061000  0.54252000  0.19215000  1.0 1.8159457039
Mo  Mo65  1  0.39201000  0.57089000  0.12077000  1.0 2.0381933442
Mo  Mo66  1  0.27755000  0.51218000  0.02831000  1.0 2.0994417261
Mo  Mo67  1  0.00898000  0.30581000  0.11815000  1.0 1.8963362764
Mo  Mo68  1  0.01619000  0.37261000  0.04503000  1.0 1.67883857
Mo  Mo69  1  0.99964000  0.31945000  0.95035000  1.0 1.9989695739
Mo  Mo70  1  0.00490000  0.20433000  0.94297000  1.0 1.9405072124
Mo  Mo71  1  0.01525000  0.13155000  0.02681000  1.0 1.8079693309
Mo  Mo72  1  0.00444000  0.17843000  0.10828000  1.0 1.8455288004
P  P1  1  0.40522000  0.83209000  0.57112000  1.0 1.2831263136
P  P2  1  0.42555000  0.67043000  0.58004000  1.0 1.3000513335
P  P3  1  0.18081000  0.73337000  0.49688000  1.0 1.2885472145
P  P4  1  0.29101000  0.52658000  0.62048000  1.0 1.3000513335
P  P5  1  0.36790000  0.56470000  0.76325000  1.0 1.2885472145
P  P6  1  0.18961000  0.65629000  0.64051000  1.0 1.3000513335
P  P7  1  0.18489000  0.85312000  0.62577000  1.0 1.2885472145
P  P8  1  0.35743000  0.92191000  0.76277000  1.0 1.3067230772
P  P9  1  0.32958000  0.98872000  0.64233000  1.0 1.2885472145
P  P10  1  0.59478000  0.83209000  0.92888000  1.0 1.2885472145
P  P11  1  0.57445000  0.67043000  0.91996000  1.0 1.3000513335
P  P12  1  0.81919000  0.73337000  0.00312000  1.0 1.2885472145
P  P13  1  0.70899000  0.52658000  0.87952000  1.0 1.3000513335
P  P14  1  0.63210000  0.56470000  0.73675000  1.0 1.2885472145
P  P15  1  0.81039000  0.65629000  0.85949000  1.0 1.3000513335
P  P16  1  0.81511000  0.85312000  0.87423000  1.0 1.2885472145
P  P17  1  0.64257000  0.92191000  0.73723000  1.0 1.3067230772
P  P18  1  0.67042000  0.98872000  0.85767000  1.0 1.2885472145
P  P19  1  0.59478000  0.16791000  0.42888000  1.0 1.2831263136
P  P20  1  0.57445000  0.32957000  0.41996000  1.0 1.3000513335
P  P21  1  0.81919000  0.26663000  0.50312000  1.0 1.2885472145
P  P22  1  0.70899000  0.47342000  0.37952000  1.0 1.3000513335
P  P23  1  0.63210000  0.43530000  0.23675000  1.0 1.2885472145
P  P24  1  0.81039000  0.34371000  0.35949000  1.0 1.3000513335
P  P25  1  0.81511000  0.14688000  0.37423000  1.0 1.2885472145
P  P26  1  0.64257000  0.07809000  0.23723000  1.0 1.3067230772
P  P27  1  0.67042000  0.01128000  0.35767000  1.0 1.3000513335
P  P28  1  0.40522000  0.16791000  0.07112000  1.0 1.2885472145
P  P29  1  0.42555000  0.32957000  0.08004000  1.0 1.3000513335
P  P30  1  0.18081000  0.26663000  0.99688000  1.0 1.2885472145
P  P31  1  0.29101000  0.47342000  0.12048000  1.0 1.3000513335
P  P32  1  0.36790000  0.43530000  0.26325000  1.0 1.2885472145
P  P33  1  0.18961000  0.34371000  0.14051000  1.0 1.3000513335
P  P34  1  0.18489000  0.14688000  0.12577000  1.0 1.2885472145
P  P35  1  0.35743000  0.07809000  0.26277000  1.0 1.3067230772
P  P36  1  0.32958000  0.01128000  0.14233000  1.0 1.3000513335
H  H1  1  0.37621000  0.79519000  0.50650000  1.0 0.1197302773
H  H2  1  0.29625000  0.80870000  0.50256000  1.0 0.1091112915
H  H3  1  0.41286000  0.70914000  0.52050000  1.0 0.1197302773
H  H4  1  0.46077000  0.74016000  0.56275000  1.0 0.1091112915
H  H5  1  0.26038000  0.73828000  0.46821000  1.0 0.1091112915
H  H6  1  0.27921000  0.69194000  0.49501000  1.0 0.1091112915
H  H7  1  0.19398000  0.51535000  0.63690000  1.0 0.100511283
H  H8  1  0.17532000  0.56116000  0.60932000  1.0 0.100511283
H  H9  1  0.24142000  0.53269000  0.71661000  1.0 0.1091112915
H  H10  1  0.30220000  0.51028000  0.70698000  1.0 0.1091112915
H  H11  1  0.14602000  0.59079000  0.65901000  1.0 0.1091112915
H  H12  1  0.21542000  0.61484000  0.70173000  1.0 0.100511283
H  H13  1  0.14115000  0.92287000  0.63760000  1.0 0.100511283
H  H14  1  0.17651000  0.93147000  0.60871000  1.0 0.1091112915
H  H15  1  0.22919000  0.94963000  0.71682000  1.0 0.1091112915
H  H16  1  0.23083000  0.89553000  0.71110000  1.0 0.100511283
H  H17  1  0.22324000  0.99739000  0.65204000  1.0 0.100511283
H  H18  1  0.30440000  0.99630000  0.69800000  1.0 0.100511283
H  H19  1  0.62379000  0.79519000  0.99350000  1.0 0.1197302773
H  H20  1  0.70375000  0.80870000  0.99744000  1.0 0.1091112915
H  H21  1  0.58714000  0.70914000  0.97950000  1.0 0.1197302773
H  H22  1  0.53923000  0.74016000  0.93725000  1.0 0.1091112915
H  H23  1  0.73962000  0.73828000  0.03179000  1.0 0.1091112915
H  H24  1  0.72079000  0.69194000  0.00499000  1.0 0.1091112915
H  H25  1  0.80602000  0.51535000  0.86310000  1.0 0.1091112915
H  H26  1  0.82468000  0.56116000  0.89068000  1.0 0.100511283
H  H27  1  0.75858000  0.53269000  0.78339000  1.0 0.1091112915
H  H28  1  0.69780000  0.51028000  0.79302000  1.0 0.1091112915
H  H29  1  0.85398000  0.59079000  0.84099000  1.0 0.1091112915
H  H30  1  0.78458000  0.61484000  0.79827000  1.0 0.100511283
H  H31  1  0.85885000  0.92287000  0.86240000  1.0 0.1091112915
H  H32  1  0.82349000  0.93147000  0.89129000  1.0 0.1091112915
H  H33  1  0.77081000  0.94963000  0.78318000  1.0 0.1091112915
H  H34  1  0.76917000  0.89553000  0.78890000  1.0 0.100511283
H  H35  1  0.77676000  0.99739000  0.84796000  1.0 0.100511283
H  H36  1  0.69560000  0.99630000  0.80200000  1.0 0.100511283
H  H37  1  0.62379000  0.20481000  0.49350000  1.0 0.1197302773
H  H38  1  0.70375000  0.19130000  0.49744000  1.0 0.1091112915
H  H39  1  0.58714000  0.29086000  0.47950000  1.0 0.1197302773
H  H40  1  0.53923000  0.25984000  0.43725000  1.0 0.100511283
H  H41  1  0.73962000  0.26172000  0.53179000  1.0 0.1091112915
H  H42  1  0.72079000  0.30806000  0.50499000  1.0 0.1091112915
H  H43  1  0.80602000  0.48465000  0.36310000  1.0 0.1091112915
H  H44  1  0.82468000  0.43884000  0.39068000  1.0 0.100511283
H  H45  1  0.75858000  0.46731000  0.28339000  1.0 0.1091112915
H  H46  1  0.69780000  0.48972000  0.29302000  1.0 0.1091112915
H  H47  1  0.85398000  0.40921000  0.34099000  1.0 0.1091112915
H  H48  1  0.78458000  0.38516000  0.29827000  1.0 0.0936481546
H  H49  1  0.85885000  0.07713000  0.36240000  1.0 0.100511283
H  H50  1  0.82349000  0.06853000  0.39129000  1.0 0.1091112915
H  H51  1  0.77081000  0.05037000  0.28318000  1.0 0.1091112915
H  H52  1  0.76917000  0.10447000  0.28890000  1.0 0.0936481546
H  H53  1  0.77676000  0.00261000  0.34796000  1.0 0.100511283
H  H54  1  0.69560000  0.00370000  0.30200000  1.0 0.100511283
H  H55  1  0.37621000  0.20481000  0.00650000  1.0 0.1197302773
H  H56  1  0.29625000  0.19130000  0.00256000  1.0 0.1091112915
H  H57  1  0.41286000  0.29086000  0.02050000  1.0 0.1197302773
H  H58  1  0.46077000  0.25984000  0.06275000  1.0 0.100511283
H  H59  1  0.26038000  0.26172000  0.96821000  1.0 0.1091112915
H  H60  1  0.27921000  0.30806000  0.99501000  1.0 0.1091112915
H  H61  1  0.19398000  0.48465000  0.13690000  1.0 0.1091112915
H  H62  1  0.17532000  0.43884000  0.10932000  1.0 0.100511283
H  H63  1  0.24142000  0.46731000  0.21661000  1.0 0.1091112915
H  H64  1  0.30220000  0.48972000  0.20698000  1.0 0.1091112915
H  H65  1  0.14602000  0.40921000  0.15901000  1.0 0.1091112915
H  H66  1  0.21542000  0.38516000  0.20173000  1.0 0.100511283
H  H67  1  0.14115000  0.07713000  0.13760000  1.0 0.100511283
H  H68  1  0.17651000  0.06853000  0.10871000  1.0 0.1091112915
H  H69  1  0.22919000  0.05037000  0.21682000  1.0 0.1091112915
H  H70  1  0.23083000  0.10447000  0.21110000  1.0 0.100511283
H  H71  1  0.22324000  0.00261000  0.15204000  1.0 0.100511283
H  H72  1  0.30440000  0.00370000  0.19800000  1.0 0.100511283
C  C1  1  0.34900000  0.79540000  0.52200000  1.0 -0.4736737196
C  C2  1  0.41470000  0.71990000  0.54640000  1.0 -0.4817999263
C  C3  1  0.26960000  0.72500000  0.49520000  1.0 -0.4613562037
C  C4  1  0.21770000  0.54320000  0.63340000  1.0 -0.4613562037
C  C5  1  0.28500000  0.53940000  0.71280000  1.0 -0.4817999263
C  C6  1  0.19820000  0.60530000  0.67220000  1.0 -0.4817999263
C  C7  1  0.18520000  0.91520000  0.63440000  1.0 -0.4909630645
C  C8  1  0.25880000  0.92440000  0.71420000  1.0 -0.4909630645
C  C9  1  0.27460000  0.98180000  0.66930000  1.0 -0.4613562037
C  C10  1  0.65100000  0.79540000  0.97800000  1.0 -0.4736737196
C  C11  1  0.58530000  0.71990000  0.95360000  1.0 -0.4817999263
C  C12  1  0.73040000  0.72500000  0.00480000  1.0 -0.4613562037
C  C13  1  0.78230000  0.54320000  0.86660000  1.0 -0.4613562037
C  C14  1  0.71500000  0.53940000  0.78720000  1.0 -0.4817999263
C  C15  1  0.80180000  0.60530000  0.82780000  1.0 -0.4817999263
C  C16  1  0.81480000  0.91520000  0.86560000  1.0 -0.4909630645
C  C17  1  0.74120000  0.92440000  0.78580000  1.0 -0.4960320303
C  C18  1  0.72540000  0.98180000  0.83070000  1.0 -0.4613562037
C  C19  1  0.65100000  0.20460000  0.47800000  1.0 -0.4736737196
C  C20  1  0.58530000  0.28010000  0.45360000  1.0 -0.4817999263
C  C21  1  0.73040000  0.27500000  0.50480000  1.0 -0.4613562037
C  C22  1  0.78230000  0.45680000  0.36660000  1.0 -0.4613562037
C  C23  1  0.71500000  0.46060000  0.28720000  1.0 -0.4817999263
C  C24  1  0.80180000  0.39470000  0.32780000  1.0 -0.4817999263
C  C25  1  0.81480000  0.08480000  0.36560000  1.0 -0.4909630645
C  C26  1  0.74120000  0.07560000  0.28580000  1.0 -0.4960320303
C  C27  1  0.72540000  0.01820000  0.33070000  1.0 -0.4613562037
C  C28  1  0.34900000  0.20460000  0.02200000  1.0 -0.4736737196
C  C29  1  0.41470000  0.28010000  0.04640000  1.0 -0.4817999263
C  C30  1  0.26960000  0.27500000  0.99520000  1.0 -0.4613562037
C  C31  1  0.21770000  0.45680000  0.13340000  1.0 -0.4613562037
C  C32  1  0.28500000  0.46060000  0.21280000  1.0 -0.4817999263
C  C33  1  0.19820000  0.39470000  0.17220000  1.0 -0.4817999263
C  C34  1  0.18520000  0.08480000  0.13440000  1.0 -0.4909630645
C  C35  1  0.25880000  0.07560000  0.21420000  1.0 -0.4960320303
C  C36  1  0.27460000  0.01820000  0.16930000  1.0 -0.4613562037
N  N1  1  0.34020000  0.74670000  0.53260000  1.0 -0.0405790145
N  N2  1  0.25560000  0.57110000  0.67430000  1.0 -0.0405790145
N  N3  1  0.26160000  0.93190000  0.67400000  1.0 -0.0405790145
N  N4  1  0.65980000  0.74670000  0.96740000  1.0 -0.0405790145
N  N5  1  0.74440000  0.57110000  0.82570000  1.0 -0.0405790145
N  N6  1  0.73840000  0.93190000  0.82600000  1.0 -0.0405790145
N  N7  1  0.65980000  0.25330000  0.46740000  1.0 -0.0405790145
N  N8  1  0.74440000  0.42890000  0.32570000  1.0 -0.0405790145
N  N9  1  0.73840000  0.06810000  0.32600000  1.0 -0.0405790145
N  N10  1  0.34020000  0.25330000  0.03260000  1.0 -0.0405790145
N  N11  1  0.25560000  0.42890000  0.17430000  1.0 -0.0405790145
N  N12  1  0.26160000  0.06810000  0.17400000  1.0 -0.0405790145
O  O1  1  0.68780000  0.50380000  0.62690000  1.0 -0.7907060513
O  O2  1  0.01750000  0.63350000  0.59960000  1.0 -1.0888874043
O  O3  1  0.01230000  0.87630000  0.57950000  1.0 -1.1061425317
O  O4  1  0.99270000  0.73430000  0.41690000  1.0 -1.1439360786
O  O5  1  0.32300000  0.46130000  0.50470000  1.0 -0.8389866014
O  O6  1  0.69970000  0.97560000  0.62550000  1.0 -0.7740276862
O  O7  1  0.37440000  0.54280000  0.47460000  1.0 -0.7486537654
O  O8  1  0.03720000  0.75870000  0.62670000  1.0 -1.1321849037
O  O9  1  0.58000000  0.56570000  0.54290000  1.0 -0.7166142125
O  O10  1  0.33380000  0.04890000  0.51420000  1.0 -0.8203984092
O  O11  1  0.48880000  0.45240000  0.66950000  1.0 -0.9995673374
O  O12  1  0.42790000  0.52530000  0.78520000  1.0 -0.8203984092
O  O13  1  0.57180000  0.93010000  0.53680000  1.0 -0.7331150581
O  O14  1  0.14070000  0.82620000  0.64230000  1.0 -0.9308138981
O  O15  1  0.43216000  0.88170000  0.50866000  1.0 -1.0364265252
O  O16  1  0.33160000  0.48120000  0.64300000  1.0 -0.8299345455
O  O17  1  0.04330000  0.64820000  0.50480000  1.0 -0.9898688695
O  O18  1  0.14370000  0.69340000  0.64830000  1.0 -0.9386236157
O  O19  1  0.02850000  0.74260000  0.49410000  1.0 -0.9724251835
O  O20  1  0.39810000  0.49590000  0.59160000  1.0 -0.9308138981
O  O21  1  0.01410000  0.70320000  0.55800000  1.0 -0.9386236157
O  O22  1  0.34360000  0.58290000  0.79350000  1.0 -0.9197741955
O  O23  1  0.00840000  0.79790000  0.54930000  1.0 -0.9386236157
O  O24  1  0.04550000  0.83630000  0.49250000  1.0 -0.9995673374
O  O25  1  0.36430000  0.96770000  0.47540000  1.0 -0.7907060513
O  O26  1  0.69470000  0.49280000  0.70450000  1.0 -1.069787577
O  O27  1  0.12870000  0.69020000  0.47520000  1.0 -0.7989769388
O  O28  1  0.29060000  0.43670000  0.56600000  1.0 -1.0973836113
O  O29  1  0.13900000  0.77820000  0.47390000  1.0 -0.8203984092
O  O30  1  0.29840000  0.55070000  0.51860000  1.0 -0.9898688695
O  O31  1  0.27650000  0.66960000  0.65840000  1.0 -0.7907060513
O  O32  1  0.24310000  0.52320000  0.57060000  1.0 -0.7989769388
O  O33  1  0.39980000  0.60330000  0.74810000  1.0 -0.7804639562
O  O34  1  0.34760000  0.56820000  0.63660000  1.0 -0.8136846154
O  O35  1  0.21480000  0.73440000  0.54600000  1.0 -0.7989769388
O  O36  1  0.56050000  0.50730000  0.63760000  1.0 -0.9026663561
O  O37  1  0.32880000  0.07470000  0.58450000  1.0 -1.0973836113
O  O38  1  0.42017000  0.00820000  0.60137000  1.0 -0.9386236157
O  O39  1  0.71790000  0.98710000  0.70590000  1.0 -1.0801378299
O  O40  1  0.53080000  0.04660000  0.68210000  1.0 -0.9898688695
O  O41  1  0.62220000  0.58780000  0.62530000  1.0 -1.069787577
O  O42  1  0.14480000  0.64350000  0.59160000  1.0 -0.8136846154
O  O43  1  0.27320000  0.83950000  0.65100000  1.0 -0.7804639562
O  O44  1  0.35221000  0.90260000  0.80021000  1.0 -0.9197741955
O  O45  1  0.40260000  0.89000000  0.75020000  1.0 -0.7989769388
O  O46  1  0.41080000  0.69070000  0.61370000  1.0 -0.7989769388
O  O47  1  0.36458000  0.63400000  0.55208000  1.0 -0.8299345455
O  O48  1  0.50930000  0.65150000  0.60020000  1.0 -0.9308138981
O  O49  1  0.46715000  0.94330000  0.56435000  1.0 -0.8798864592
O  O50  1  0.37740000  0.03340000  0.66160000  1.0 -0.7989769388
O  O51  1  0.57812000  0.98260000  0.64232000  1.0 -0.9112131406
O  O52  1  0.27220000  0.99030000  0.59270000  1.0 -0.8203984092
O  O53  1  0.49250000  0.83830000  0.58640000  1.0 -0.9112131406
O  O54  1  0.45170000  0.62350000  0.51550000  1.0 -1.0300623585
O  O55  1  0.14380000  0.84740000  0.57620000  1.0 -0.8136846154
O  O56  1  0.39720000  0.80670000  0.60550000  1.0 -0.7804639562
O  O57  1  0.61150000  0.89940000  0.61760000  1.0 -1.0539314756
O  O58  1  0.39397000  0.97010000  0.77367000  1.0 -0.8203984092
O  O59  1  0.30662000  0.96140000  0.52922000  1.0 -0.9898688695
O  O60  1  0.46645000  0.55870000  0.56535000  1.0 -0.8719925293
O  O61  1  0.38350000  0.94620000  0.65810000  1.0 -0.8136846154
O  O62  1  0.36124000  0.87830000  0.55744000  1.0 -0.8299345455
O  O63  1  0.31220000  0.50380000  0.87310000  1.0 -0.7907060513
O  O64  1  0.98250000  0.63350000  0.90040000  1.0 -1.0801378299
O  O65  1  0.98770000  0.87630000  0.92050000  1.0 -1.1061425317
O  O66  1  0.00730000  0.73430000  0.08310000  1.0 -1.1439360786
O  O67  1  0.67700000  0.46130000  0.99530000  1.0 -0.8389866014
O  O68  1  0.30030000  0.97560000  0.87450000  1.0 -0.7740276862
O  O69  1  0.62560000  0.54280000  0.02540000  1.0 -0.7486537654
O  O70  1  0.96280000  0.75870000  0.87330000  1.0 -1.1239359785
O  O71  1  0.42000000  0.56570000  0.95710000  1.0 -0.7166142125
O  O72  1  0.66620000  0.04890000  0.98580000  1.0 -0.8203984092
O  O73  1  0.51120000  0.45240000  0.83050000  1.0 -0.9995673374
O  O74  1  0.57210000  0.52530000  0.71480000  1.0 -0.8203984092
O  O75  1  0.42820000  0.93010000  0.96320000  1.0 -0.7331150581
O  O76  1  0.85930000  0.82620000  0.85770000  1.0 -0.9308138981
O  O77  1  0.56784000  0.88170000  0.99134000  1.0 -1.0364265252
O  O78  1  0.66840000  0.48120000  0.85700000  1.0 -0.8299345455
O  O79  1  0.95670000  0.64820000  0.99520000  1.0 -0.9796050597
O  O80  1  0.85630000  0.69340000  0.85170000  1.0 -0.9386236157
O  O81  1  0.97150000  0.74260000  0.00590000  1.0 -0.9796050597
O  O82  1  0.60190000  0.49590000  0.90840000  1.0 -0.9308138981
O  O83  1  0.98590000  0.70320000  0.94200000  1.0 -0.9308138981
O  O84  1  0.65640000  0.58290000  0.70650000  1.0 -0.9197741955
O  O85  1  0.99160000  0.79790000  0.95070000  1.0 -0.9386236157
O  O86  1  0.95450000  0.83630000  0.00750000  1.0 -0.9995673374
O  O87  1  0.63570000  0.96770000  0.02460000  1.0 -0.7907060513
O  O88  1  0.30530000  0.49280000  0.79550000  1.0 -1.069787577
O  O89  1  0.87130000  0.69020000  0.02480000  1.0 -0.7989769388
O  O90  1  0.70940000  0.43670000  0.93400000  1.0 -1.0801378299
O  O91  1  0.86100000  0.77820000  0.02610000  1.0 -0.8136846154
O  O92  1  0.70160000  0.55070000  0.98140000  1.0 -0.9898688695
O  O93  1  0.72350000  0.66960000  0.84160000  1.0 -0.7907060513
O  O94  1  0.75690000  0.52320000  0.92940000  1.0 -0.7989769388
O  O95  1  0.60020000  0.60330000  0.75190000  1.0 -0.7804639562
O  O96  1  0.65240000  0.56820000  0.86340000  1.0 -0.8136846154
O  O97  1  0.78520000  0.73440000  0.95400000  1.0 -0.7989769388
O  O98  1  0.43950000  0.50730000  0.86240000  1.0 -0.9026663561
O  O99  1  0.67120000  0.07470000  0.91550000  1.0 -1.0888874043
O  O100  1  0.57983000  0.00820000  0.89863000  1.0 -0.9308138981
O  O101  1  0.28210000  0.98710000  0.79410000  1.0 -1.0801378299
O  O102  1  0.46920000  0.04660000  0.81790000  1.0 -0.9898688695
O  O103  1  0.37780000  0.58780000  0.87470000  1.0 -1.0801378299
O  O104  1  0.85520000  0.64350000  0.90840000  1.0 -0.8136846154
O  O105  1  0.72680000  0.83950000  0.84900000  1.0 -0.7804639562
O  O106  1  0.64779000  0.90260000  0.69979000  1.0 -0.9197741955
O  O107  1  0.59740000  0.89000000  0.74980000  1.0 -0.7989769388
O  O108  1  0.58920000  0.69070000  0.88630000  1.0 -0.7989769388
O  O109  1  0.63542000  0.63400000  0.94792000  1.0 -0.8299345455
O  O110  1  0.49070000  0.65150000  0.89980000  1.0 -0.9308138981
O  O111  1  0.53285000  0.94330000  0.93565000  1.0 -0.8798864592
O  O112  1  0.62260000  0.03340000  0.83840000  1.0 -0.7989769388
O  O113  1  0.42188000  0.98260000  0.85768000  1.0 -0.9197741955
O  O114  1  0.72780000  0.99030000  0.90730000  1.0 -0.8203984092
O  O115  1  0.50750000  0.83830000  0.91360000  1.0 -0.9112131406
O  O116  1  0.54830000  0.62350000  0.98450000  1.0 -1.0300623585
O  O117  1  0.85620000  0.84740000  0.92380000  1.0 -0.8136846154
O  O118  1  0.60280000  0.80670000  0.89450000  1.0 -0.7907060513
O  O119  1  0.38850000  0.89940000  0.88240000  1.0 -1.0539314756
O  O120  1  0.60603000  0.97010000  0.72633000  1.0 -0.8203984092
O  O121  1  0.69338000  0.96140000  0.97078000  1.0 -0.9898688695
O  O122  1  0.53355000  0.55870000  0.93465000  1.0 -0.8719925293
O  O123  1  0.61650000  0.94620000  0.84190000  1.0 -0.8203984092
O  O124  1  0.63876000  0.87830000  0.94256000  1.0 -0.8299345455
O  O125  1  0.31220000  0.49620000  0.37310000  1.0 -0.7907060513
O  O126  1  0.98250000  0.36650000  0.40040000  1.0 -1.0888874043
O  O127  1  0.98770000  0.12370000  0.42050000  1.0 -1.1061425317
O  O128  1  0.00730000  0.26570000  0.58310000  1.0 -1.1629507948
O  O129  1  0.67700000  0.53870000  0.49530000  1.0 -0.8389866014
O  O130  1  0.30030000  0.02440000  0.37450000  1.0 -0.7804639562
O  O131  1  0.62560000  0.45720000  0.52540000  1.0 -0.7486537654
O  O132  1  0.96280000  0.24130000  0.37330000  1.0 -1.1239359785
O  O133  1  0.42000000  0.43430000  0.45710000  1.0 -0.7166142125
O  O134  1  0.66620000  0.95110000  0.48580000  1.0 -0.8203984092
O  O135  1  0.51120000  0.54760000  0.33050000  1.0 -0.9995673374
O  O136  1  0.57210000  0.47470000  0.21480000  1.0 -0.8203984092
O  O137  1  0.42820000  0.06990000  0.46320000  1.0 -0.73635916
O  O138  1  0.85930000  0.17380000  0.35770000  1.0 -0.9308138981
O  O139  1  0.56784000  0.11830000  0.49134000  1.0 -1.0300623585
O  O140  1  0.66840000  0.51880000  0.35700000  1.0 -0.8203984092
O  O141  1  0.95670000  0.35180000  0.49520000  1.0 -0.9796050597
O  O142  1  0.85630000  0.30660000  0.35170000  1.0 -0.9386236157
O  O143  1  0.97150000  0.25740000  0.50590000  1.0 -0.9724251835
O  O144  1  0.60190000  0.50410000  0.40840000  1.0 -0.9308138981
O  O145  1  0.98590000  0.29680000  0.44200000  1.0 -0.9386236157
O  O146  1  0.65640000  0.41710000  0.20650000  1.0 -0.9197741955
O  O147  1  0.99160000  0.20210000  0.45070000  1.0 -0.9386236157
O  O148  1  0.95450000  0.16370000  0.50750000  1.0 -0.9995673374
O  O149  1  0.63570000  0.03230000  0.52460000  1.0 -0.7907060513
O  O150  1  0.30530000  0.50720000  0.29550000  1.0 -1.069787577
O  O151  1  0.87130000  0.30980000  0.52480000  1.0 -0.7989769388
O  O152  1  0.70940000  0.56330000  0.43400000  1.0 -1.0973836113
O  O153  1  0.86100000  0.22180000  0.52610000  1.0 -0.8203984092
O  O154  1  0.70160000  0.44930000  0.48140000  1.0 -0.9898688695
O  O155  1  0.72350000  0.33040000  0.34160000  1.0 -0.7907060513
O  O156  1  0.75690000  0.47680000  0.42940000  1.0 -0.7989769388
O  O157  1  0.60020000  0.39670000  0.25190000  1.0 -0.7804639562
O  O158  1  0.65240000  0.43180000  0.36340000  1.0 -0.8136846154
O  O159  1  0.78520000  0.26560000  0.45400000  1.0 -0.7989769388
O  O160  1  0.43950000  0.49270000  0.36240000  1.0 -0.9026663561
O  O161  1  0.67120000  0.92530000  0.41550000  1.0 -1.0801378299
O  O162  1  0.57983000  0.99180000  0.39863000  1.0 -0.9386236157
O  O163  1  0.28210000  0.01290000  0.29410000  1.0 -1.0801378299
O  O164  1  0.46920000  0.95340000  0.31790000  1.0 -0.9995673374
O  O165  1  0.37780000  0.41220000  0.37470000  1.0 -1.069787577
O  O166  1  0.85520000  0.35650000  0.40840000  1.0 -0.8136846154
O  O167  1  0.72680000  0.16050000  0.34900000  1.0 -0.7804639562
O  O168  1  0.64779000  0.09740000  0.19979000  1.0 -0.9197741955
O  O169  1  0.59740000  0.11000000  0.24980000  1.0 -0.7907060513
O  O170  1  0.58920000  0.30930000  0.38630000  1.0 -0.7989769388
O  O171  1  0.63542000  0.36600000  0.44792000  1.0 -0.8299345455
O  O172  1  0.49070000  0.34850000  0.39980000  1.0 -0.9308138981
O  O173  1  0.53285000  0.05670000  0.43565000  1.0 -0.8798864592
O  O174  1  0.62260000  0.96660000  0.33840000  1.0 -0.7989769388
O  O175  1  0.42188000  0.01740000  0.35768000  1.0 -0.9112131406
O  O176  1  0.72780000  0.00970000  0.40730000  1.0 -0.8203984092
O  O177  1  0.50750000  0.16170000  0.41360000  1.0 -0.9112131406
O  O178  1  0.54830000  0.37650000  0.48450000  1.0 -1.0300623585
O  O179  1  0.85620000  0.15260000  0.42380000  1.0 -0.8136846154
O  O180  1  0.60280000  0.19330000  0.39450000  1.0 -0.7804639562
O  O181  1  0.38850000  0.10060000  0.38240000  1.0 -1.0539314756
O  O182  1  0.60603000  0.02990000  0.22633000  1.0 -0.8203984092
O  O183  1  0.69338000  0.03860000  0.47078000  1.0 -0.9898688695
O  O184  1  0.53355000  0.44130000  0.43465000  1.0 -0.8719925293
O  O185  1  0.61650000  0.05380000  0.34190000  1.0 -0.8136846154
O  O186  1  0.63876000  0.12170000  0.44256000  1.0 -0.8299345455
O  O187  1  0.68780000  0.49620000  0.12690000  1.0 -0.7907060513
O  O188  1  0.01750000  0.36650000  0.09960000  1.0 -1.0888874043
O  O189  1  0.01230000  0.12370000  0.07950000  1.0 -1.1061425317
O  O190  1  0.99270000  0.26570000  0.91690000  1.0 -1.1439360786
O  O191  1  0.32300000  0.53870000  0.00470000  1.0 -0.8389866014
O  O192  1  0.69970000  0.02440000  0.12550000  1.0 -0.7804639562
O  O193  1  0.37440000  0.45720000  0.97460000  1.0 -0.7486537654
O  O194  1  0.03720000  0.24130000  0.12670000  1.0 -1.1321849037
O  O195  1  0.58000000  0.43430000  0.04290000  1.0 -0.7166142125
O  O196  1  0.33380000  0.95110000  0.01420000  1.0 -0.8203984092
O  O197  1  0.48880000  0.54760000  0.16950000  1.0 -0.9995673374
O  O198  1  0.42790000  0.47470000  0.28520000  1.0 -0.8203984092
O  O199  1  0.57180000  0.06990000  0.03680000  1.0 -0.73635916
O  O200  1  0.14070000  0.17380000  0.14230000  1.0 -0.9308138981
O  O201  1  0.43216000  0.11830000  0.00866000  1.0 -1.0364265252
O  O202  1  0.33160000  0.51880000  0.14300000  1.0 -0.8299345455
O  O203  1  0.04330000  0.35180000  0.00480000  1.0 -0.9898688695
O  O204  1  0.14370000  0.30660000  0.14830000  1.0 -0.9386236157
O  O205  1  0.02850000  0.25740000  0.99410000  1.0 -0.9724251835
O  O206  1  0.39810000  0.50410000  0.09160000  1.0 -0.9308138981
O  O207  1  0.01410000  0.29680000  0.05800000  1.0 -0.9386236157
O  O208  1  0.34360000  0.41710000  0.29350000  1.0 -0.9197741955
O  O209  1  0.00840000  0.20210000  0.04930000  1.0 -0.9453627277
O  O210  1  0.04550000  0.16370000  0.99250000  1.0 -0.9995673374
O  O211  1  0.36430000  0.03230000  0.97540000  1.0 -0.7907060513
O  O212  1  0.69470000  0.50720000  0.20450000  1.0 -1.069787577
O  O213  1  0.12870000  0.30980000  0.97520000  1.0 -0.7989769388
O  O214  1  0.29060000  0.56330000  0.06600000  1.0 -1.0973836113
O  O215  1  0.13900000  0.22180000  0.97390000  1.0 -0.8203984092
O  O216  1  0.29840000  0.44930000  0.01860000  1.0 -0.9898688695
O  O217  1  0.27650000  0.33040000  0.15840000  1.0 -0.7907060513
O  O218  1  0.24310000  0.47680000  0.07060000  1.0 -0.7989769388
O  O219  1  0.39980000  0.39670000  0.24810000  1.0 -0.7804639562
O  O220  1  0.34760000  0.43180000  0.13660000  1.0 -0.8136846154
O  O221  1  0.21480000  0.26560000  0.04600000  1.0 -0.7989769388
O  O222  1  0.56050000  0.49270000  0.13760000  1.0 -0.9026663561
O  O223  1  0.32880000  0.92530000  0.08450000  1.0 -1.0973836113
O  O224  1  0.42017000  0.99180000  0.10137000  1.0 -0.9386236157
O  O225  1  0.71790000  0.01290000  0.20590000  1.0 -1.0801378299
O  O226  1  0.53080000  0.95340000  0.18210000  1.0 -0.9898688695
O  O227  1  0.62220000  0.41220000  0.12530000  1.0 -1.069787577
O  O228  1  0.14480000  0.35650000  0.09160000  1.0 -0.8136846154
O  O229  1  0.27320000  0.16050000  0.15100000  1.0 -0.7804639562
O  O230  1  0.35221000  0.09740000  0.30021000  1.0 -0.9197741955
O  O231  1  0.40260000  0.11000000  0.25020000  1.0 -0.7907060513
O  O232  1  0.41080000  0.30930000  0.11370000  1.0 -0.7989769388
O  O233  1  0.36458000  0.36600000  0.05208000  1.0 -0.8299345455
O  O234  1  0.50930000  0.34850000  0.10020000  1.0 -0.9308138981
O  O235  1  0.46715000  0.05670000  0.06435000  1.0 -0.8852972795
O  O236  1  0.37740000  0.96660000  0.16160000  1.0 -0.7989769388
O  O237  1  0.57812000  0.01740000  0.14232000  1.0 -0.9112131406
O  O238  1  0.27220000  0.00970000  0.09270000  1.0 -0.8203984092
O  O239  1  0.49250000  0.16170000  0.08640000  1.0 -0.9112131406
O  O240  1  0.45170000  0.37650000  0.01550000  1.0 -1.0300623585
O  O241  1  0.14380000  0.15260000  0.07620000  1.0 -0.8136846154
O  O242  1  0.39720000  0.19330000  0.10550000  1.0 -0.7804639562
O  O243  1  0.61150000  0.10060000  0.11760000  1.0 -1.0611076761
O  O244  1  0.39397000  0.02990000  0.27367000  1.0 -0.8203984092
O  O245  1  0.30662000  0.03860000  0.02922000  1.0 -0.9898688695
O  O246  1  0.46645000  0.44130000  0.06535000  1.0 -0.8798864592
O  O247  1  0.38350000  0.05380000  0.15810000  1.0 -0.8203984092
O  O248  1  0.36124000  0.12170000  0.05744000  1.0 -0.8299345455
