# DDEC6 charges by PACMAN v1.1 (https://github.com/mtap-research/PACMAN-charge/)
data_SABVOH_FSR_pacman
_symmetry_space_group_name_H-M   'P 1'
_cell_length_a   6.62840000
_cell_length_b   12.18160000
_cell_length_c   17.12900000
_cell_angle_alpha   90.00000000
_cell_angle_beta   90.00000000
_cell_angle_gamma   90.00000000
_symmetry_Int_Tables_number   1
_chemical_formula_structural   AlC8O5
_chemical_formula_sum   'Al4 C32 O20'
_cell_volume   1383.07283923
_cell_formula_units_Z   4
loop_
 _symmetry_equiv_pos_site_id
 _symmetry_equiv_pos_as_xyz
  1  'x, y, z'
loop_
 _atom_site_type_symbol
 _atom_site_label
 _atom_site_symmetry_multiplicity
 _atom_site_fract_x
 _atom_site_fract_y
 _atom_site_fract_z
 _atom_site_occupancy
 _atom_site_charge
Al  Al1  1  0.00000000  0.00000000  0.00000000  1.0 1.6193058526
Al  Al2  1  0.00000000  0.50000000  0.50000000  1.0 1.6193058526
Al  Al3  1  0.50000000  0.50000000  0.50000000  1.0 1.6193058526
Al  Al4  1  0.50000000  0.00000000  0.00000000  1.0 1.6193058526
C  C1  1  0.75000000  0.37000000  0.39800000  1.0 0.6526961362
C  C2  1  0.25000000  0.87000000  0.10200000  1.0 0.6526961362
C  C3  1  0.75000000  0.13000000  0.89800000  1.0 0.6526961362
C  C4  1  0.25000000  0.63000000  0.60200000  1.0 0.6526961362
C  C5  1  0.75000000  0.11100000  0.12300000  1.0 0.678217206
C  C6  1  0.25000000  0.61100000  0.37700000  1.0 0.678217206
C  C7  1  0.75000000  0.38900000  0.62300000  1.0 0.678217206
C  C8  1  0.25000000  0.88900000  0.87700000  1.0 0.678217206
C  C9  1  0.75000000  0.29300000  0.33500000  1.0 -0.1118073093
C  C10  1  0.25000000  0.79300000  0.16500000  1.0 -0.1118073093
C  C11  1  0.75000000  0.20700000  0.83500000  1.0 -0.1118073093
C  C12  1  0.25000000  0.70700000  0.66500000  1.0 -0.1118073093
C  C13  1  0.75000000  0.19400000  0.18500000  1.0 -0.1395013595
C  C14  1  0.25000000  0.69400000  0.31500000  1.0 -0.1395013595
C  C15  1  0.75000000  0.30600000  0.68500000  1.0 -0.1395013595
C  C16  1  0.25000000  0.80600000  0.81500000  1.0 -0.1395013595
C  C17  1  0.92800000  0.19800000  0.23120000  1.0 0.0367545805
C  C18  1  0.07200000  0.69800000  0.26880000  1.0 0.0367545805
C  C19  1  0.57200000  0.30200000  0.73120000  1.0 0.0367545805
C  C20  1  0.42800000  0.80200000  0.76880000  1.0 0.0367545805
C  C21  1  0.07200000  0.80200000  0.76880000  1.0 0.0367545805
C  C22  1  0.92800000  0.30200000  0.73120000  1.0 0.0367545805
C  C23  1  0.42800000  0.69800000  0.26880000  1.0 0.0367545805
C  C24  1  0.57200000  0.19800000  0.23120000  1.0 0.0367545805
C  C25  1  0.92600000  0.25800000  0.30300000  1.0 0.0641103807
C  C26  1  0.07400000  0.75800000  0.19700000  1.0 0.0654319784
C  C27  1  0.57400000  0.24200000  0.80300000  1.0 0.0641103807
C  C28  1  0.42600000  0.74200000  0.69700000  1.0 0.0641103807
C  C29  1  0.07400000  0.74200000  0.69700000  1.0 0.0641103807
C  C30  1  0.92600000  0.24200000  0.80300000  1.0 0.0641103807
C  C31  1  0.42600000  0.75800000  0.19700000  1.0 0.0654319784
C  C32  1  0.57400000  0.25800000  0.30300000  1.0 0.0641103807
O  O1  1  0.75000000  0.92900000  0.00000000  1.0 -0.8609766925
O  O2  1  0.25000000  0.42900000  0.50000000  1.0 -0.8609766925
O  O3  1  0.75000000  0.57100000  0.50000000  1.0 -0.8609766925
O  O4  1  0.25000000  0.07100000  0.00000000  1.0 -0.8609766925
O  O5  1  0.91700000  0.08800000  0.08670000  1.0 -0.501035508
O  O6  1  0.08300000  0.58800000  0.41330000  1.0 -0.501035508
O  O7  1  0.58300000  0.41200000  0.58670000  1.0 -0.501035508
O  O8  1  0.41700000  0.91200000  0.91330000  1.0 -0.501035508
O  O9  1  0.08300000  0.91200000  0.91330000  1.0 -0.501035508
O  O10  1  0.91700000  0.41200000  0.58670000  1.0 -0.501035508
O  O11  1  0.41700000  0.58800000  0.41330000  1.0 -0.501035508
O  O12  1  0.58300000  0.08800000  0.08670000  1.0 -0.501035508
O  O13  1  0.91700000  0.39000000  0.43500000  1.0 -0.5191267694
O  O14  1  0.08300000  0.89000000  0.06500000  1.0 -0.5191267694
O  O15  1  0.58300000  0.11000000  0.93500000  1.0 -0.5191267694
O  O16  1  0.41700000  0.61000000  0.56500000  1.0 -0.5191267694
O  O17  1  0.08300000  0.61000000  0.56500000  1.0 -0.5191267694
O  O18  1  0.91700000  0.11000000  0.93500000  1.0 -0.5191267694
O  O19  1  0.41700000  0.89000000  0.06500000  1.0 -0.5191267694
O  O20  1  0.58300000  0.39000000  0.43500000  1.0 -0.5191267694
