# DDEC6 charges by PACMAN v1.1 (https://github.com/mtap-research/PACMAN-charge/)
data_SABYIG_FSR_pacman
_symmetry_space_group_name_H-M   'P 1'
_cell_length_a   10.52800000
_cell_length_b   10.67100000
_cell_length_c   11.37800000
_cell_angle_alpha   83.14000000
_cell_angle_beta   74.61000000
_cell_angle_gamma   69.34000000
_symmetry_Int_Tables_number   1
_chemical_formula_structural   Sm2CuH20C32(NO7)4
_chemical_formula_sum   'Sm2 Cu1 H20 C32 N4 O28'
_cell_volume   1152.68930562
_cell_formula_units_Z   1
loop_
 _symmetry_equiv_pos_site_id
 _symmetry_equiv_pos_as_xyz
  1  'x, y, z'
loop_
 _atom_site_type_symbol
 _atom_site_label
 _atom_site_symmetry_multiplicity
 _atom_site_fract_x
 _atom_site_fract_y
 _atom_site_fract_z
 _atom_site_occupancy
 _atom_site_charge
Sm  Sm1  1  0.58795000  0.59672000  0.63094000  1.0 2.1463392924
Sm  Sm2  1  0.41205000  0.40328000  0.36906000  1.0 2.1463392924
Cu  Cu1  1  0.00000000  0.50000000  0.50000000  1.0 0.9002017926
H  H1  1  0.35010000  0.98780000  0.46260000  1.0 0.1405721724
H  H2  1  0.64990000  0.01220000  0.53740000  1.0 0.1405721724
H  H3  1  0.99270000  0.16430000  0.35390000  1.0 0.1319981616
H  H4  1  0.00730000  0.83570000  0.64610000  1.0 0.1319981616
H  H5  1  0.17730000  0.76320000  0.33840000  1.0 0.1405721724
H  H6  1  0.82270000  0.23680000  0.66160000  1.0 0.1405721724
H  H7  1  0.68920000  0.48120000  0.94780000  1.0 0.1405721724
H  H8  1  0.31080000  0.51880000  0.05220000  1.0 0.1405721724
H  H9  1  0.91560000  0.32570000  0.19770000  1.0 0.1319981616
H  H10  1  0.08440000  0.67430000  0.80230000  1.0 0.1319981616
H  H11  1  0.10870000  0.33820000  0.84170000  1.0 0.1405721724
H  H12  1  0.89130000  0.66180000  0.15830000  1.0 0.1405721724
H  H13  1  0.48770000  0.75780000  0.86030000  1.0 0.430229279
H  H14  1  0.51230000  0.24220000  0.13970000  1.0 0.430229279
H  H15  1  0.45580000  0.85350000  0.75610000  1.0 0.430229279
H  H16  1  0.54420000  0.14650000  0.24390000  1.0 0.430229279
H  H17  1  0.75280000  0.56900000  0.36230000  1.0 0.4352909874
H  H18  1  0.24720000  0.43100000  0.63770000  1.0 0.4352909874
H  H19  1  0.78090000  0.43350000  0.42460000  1.0 0.4244129013
H  H20  1  0.21910000  0.56650000  0.57540000  1.0 0.4244129013
C  C1  1  0.28090000  0.85570000  0.40610000  1.0 -0.0102911291
C  C2  1  0.71910000  0.14430000  0.59390000  1.0 -0.0102911291
C  C3  1  0.27930000  0.98150000  0.43150000  1.0 -0.1051394839
C  C4  1  0.72070000  0.01850000  0.56850000  1.0 -0.1004862884
C  C5  1  0.17260000  0.09710000  0.41060000  1.0 -0.0102911291
C  C6  1  0.82740000  0.90290000  0.58940000  1.0 -0.0102911291
C  C7  1  0.06680000  0.08810000  0.36490000  1.0 -0.1402969658
C  C8  1  0.93320000  0.91190000  0.63510000  1.0 -0.1402969658
C  C9  1  0.07380000  0.96320000  0.33620000  1.0 0.0574390206
C  C10  1  0.92620000  0.03680000  0.66380000  1.0 0.0574390206
C  C11  1  0.17710000  0.84590000  0.35680000  1.0 -0.1321974669
C  C12  1  0.82290000  0.15410000  0.64320000  1.0 -0.1321974669
C  C13  1  0.39090000  0.73180000  0.43810000  1.0 0.6513414334
C  C14  1  0.60910000  0.26820000  0.56190000  1.0 0.6513414334
C  C15  1  0.16740000  0.23340000  0.43770000  1.0 0.6083536099
C  C16  1  0.83260000  0.76660000  0.56230000  1.0 0.6083536099
C  C17  1  0.89730000  0.41600000  0.87490000  1.0 -0.0202376621
C  C18  1  0.10270000  0.58400000  0.12510000  1.0 -0.0202376621
C  C19  1  0.77550000  0.44130000  0.96720000  1.0 -0.1004862884
C  C20  1  0.22450000  0.55870000  0.03280000  1.0 -0.1004862884
C  C21  1  0.78070000  0.40790000  0.08810000  1.0 -0.0102911291
C  C22  1  0.21930000  0.59210000  0.91190000  1.0 -0.0102911291
C  C23  1  0.91020000  0.34860000  0.11730000  1.0 -0.1402969658
C  C24  1  0.08980000  0.65140000  0.88270000  1.0 -0.1402969658
C  C25  1  0.03110000  0.32470000  0.02330000  1.0 0.0533456996
C  C26  1  0.96890000  0.67530000  0.97670000  1.0 0.0533456996
C  C27  1  0.02660000  0.35640000  0.90300000  1.0 -0.1402969658
C  C28  1  0.97340000  0.64360000  0.09700000  1.0 -0.1402969658
C  C29  1  0.89260000  0.45180000  0.74480000  1.0 0.6191885423
C  C30  1  0.10740000  0.54820000  0.25520000  1.0 0.6191885423
C  C31  1  0.64920000  0.42900000  0.18700000  1.0 0.5539862167
C  C32  1  0.35080000  0.57100000  0.81300000  1.0 0.5539862167
N  N1  1  0.96080000  0.95680000  0.28630000  1.0 0.5002393078
N  N2  1  0.03920000  0.04320000  0.71370000  1.0 0.5002393078
N  N3  1  0.16790000  0.26450000  0.05230000  1.0 0.5002393078
N  N4  1  0.83210000  0.73550000  0.94770000  1.0 0.5002393078
O  O1  1  0.39590000  0.62080000  0.40760000  1.0 -0.6853805531
O  O2  1  0.60410000  0.37920000  0.59240000  1.0 -0.6853805531
O  O3  1  0.47030000  0.74780000  0.49540000  1.0 -0.6566400428
O  O4  1  0.52970000  0.25220000  0.50460000  1.0 -0.6566400428
O  O5  1  0.27560000  0.25220000  0.44230000  1.0 -0.6315117527
O  O6  1  0.72440000  0.74780000  0.55770000  1.0 -0.6315117527
O  O7  1  0.04670000  0.32000000  0.45480000  1.0 -0.5430413533
O  O8  1  0.95330000  0.68000000  0.54520000  1.0 -0.5430413533
O  O9  1  0.87410000  0.06100000  0.26310000  1.0 -0.3169996042
O  O10  1  0.12590000  0.93900000  0.73690000  1.0 -0.3169996042
O  O11  1  0.95370000  0.84790000  0.27440000  1.0 -0.2926895071
O  O12  1  0.04630000  0.15210000  0.72560000  1.0 -0.2926895071
O  O13  1  0.00570000  0.44090000  0.66840000  1.0 -0.5113359738
O  O14  1  0.99430000  0.55910000  0.33160000  1.0 -0.5113359738
O  O15  1  0.77630000  0.48890000  0.71780000  1.0 -0.7055761863
O  O16  1  0.22370000  0.51110000  0.28220000  1.0 -0.7048777987
O  O17  1  0.53280000  0.48090000  0.16170000  1.0 -0.5983313371
O  O18  1  0.46720000  0.51910000  0.83830000  1.0 -0.5983313371
O  O19  1  0.66050000  0.38870000  0.29510000  1.0 -0.6566400428
O  O20  1  0.33950000  0.61130000  0.70490000  1.0 -0.6566400428
O  O21  1  0.17200000  0.24910000  0.15930000  1.0 -0.3092303325
O  O22  1  0.82800000  0.75090000  0.84070000  1.0 -0.3092303325
O  O23  1  0.27150000  0.23990000  0.96810000  1.0 -0.3092303325
O  O24  1  0.72850000  0.76010000  0.03190000  1.0 -0.3092303325
O  O25  1  0.50410000  0.77050000  0.77860000  1.0 -0.8194022227
O  O26  1  0.49590000  0.22950000  0.22140000  1.0 -0.8194022227
O  O27  1  0.74420000  0.52360000  0.43310000  1.0 -0.843862151
O  O28  1  0.25580000  0.47640000  0.56690000  1.0 -0.843862151
