# DDEC6 charges by PACMAN v1.1 (https://github.com/mtap-research/PACMAN-charge/)
data_SADRIC_ASR_pacman
_symmetry_space_group_name_H-M   'P 1'
_cell_length_a   34.38950000
_cell_length_b   34.38950000
_cell_length_c   21.34600000
_cell_angle_alpha   75.36560000
_cell_angle_beta   104.63400000
_cell_angle_gamma   157.12600000
_symmetry_Int_Tables_number   1
_chemical_formula_structural   Mn2H92C103O12
_chemical_formula_sum   'Mn8 H368 C412 O48'
_cell_volume   9481.12298581
_cell_formula_units_Z   4
loop_
 _symmetry_equiv_pos_site_id
 _symmetry_equiv_pos_as_xyz
  1  'x, y, z'
loop_
 _atom_site_type_symbol
 _atom_site_label
 _atom_site_symmetry_multiplicity
 _atom_site_fract_x
 _atom_site_fract_y
 _atom_site_fract_z
 _atom_site_occupancy
 _atom_site_charge
Mn  Mn1  1  0.62257000  0.49409000  0.35085000  1.0 1.0493378166
Mn  Mn2  1  0.51758000  0.39978000  0.19100000  1.0 0.9819653158
Mn  Mn3  1  0.50591000  0.37743000  0.85085000  1.0 1.0493378166
Mn  Mn4  1  0.60022000  0.48242000  0.69100000  1.0 0.9819653158
Mn  Mn5  1  0.49409000  0.62257000  0.14915000  1.0 1.0493378166
Mn  Mn6  1  0.39978000  0.51758000  0.30900000  1.0 0.9819653158
Mn  Mn7  1  0.37743000  0.50591000  0.64915000  1.0 1.0493378166
Mn  Mn8  1  0.48242000  0.60022000  0.80900000  1.0 0.9819653158
H  H1  1  0.97860000  0.60160000  0.72970000  1.0 0.1298883633
H  H2  1  0.23310000  0.87230000  0.79610000  1.0 0.1202229141
H  H3  1  0.43010000  0.02290000  0.58260000  1.0 0.1298883633
H  H4  1  0.97440000  0.57120000  0.48460000  1.0 0.1202229141
H  H5  1  0.90470000  0.62530000  0.61920000  1.0 0.1105795552
H  H6  1  0.85220000  0.54080000  0.66520000  1.0 0.1202229141
H  H7  1  0.25620000  0.97340000  0.76850000  1.0 0.1202229141
H  H8  1  0.21750000  0.95870000  0.69710000  1.0 0.1105795552
H  H9  1  0.38650000  0.21630000  0.38400000  1.0 0.1202229141
H  H10  1  0.17210000  0.75050000  0.51680000  1.0 0.1298883633
H  H11  1  0.40260000  0.16200000  0.40220000  1.0 0.1202229141
H  H12  1  0.07870000  0.71790000  0.42100000  1.0 0.1202229141
H  H13  1  0.07950000  0.76190000  0.43280000  1.0 0.1105795552
H  H14  1  0.90020000  0.74160000  0.71150000  1.0 0.1202229141
H  H15  1  0.02880000  0.83200000  0.56400000  1.0 0.1202229141
H  H16  1  0.54170000  0.16930000  0.63990000  1.0 0.1298883633
H  H17  1  0.40150000  0.06090000  0.78720000  1.0 0.1202229141
H  H18  1  0.84060000  0.46640000  0.63710000  1.0 0.1202229141
H  H19  1  0.48550000  0.14550000  0.52860000  1.0 0.1202229141
H  H20  1  0.39800000  0.09680000  0.51230000  1.0 0.1105795552
H  H21  1  0.95520000  0.71940000  0.71520000  1.0 0.099989997
H  H22  1  0.06090000  0.83630000  0.71820000  1.0 0.1105795552
H  H23  1  0.11690000  0.89190000  0.34620000  1.0 0.1202229141
H  H24  1  0.81260000  0.54480000  0.31710000  1.0 0.1202229141
H  H25  1  0.39570000  0.16510000  0.66270000  1.0 0.1202229141
H  H26  1  0.95350000  0.69230000  0.36870000  1.0 0.1202229141
H  H27  1  0.36360000  0.18380000  0.71540000  1.0 0.1202229141
H  H28  1  0.30550000  0.25290000  0.76980000  1.0 0.1298883633
H  H29  1  0.96460000  0.82920000  0.49530000  1.0 0.1105795552
H  H30  1  0.09870000  0.94370000  0.33070000  1.0 0.1105795552
H  H31  1  0.84040000  0.74520000  0.64050000  1.0 0.1202229141
H  H32  1  0.45800000  0.22040000  0.24560000  1.0 0.1298883633
H  H33  1  0.42580000  0.12400000  0.28040000  1.0 0.1105795552
H  H34  1  0.33860000  0.03840000  0.39520000  1.0 0.099989997
H  H35  1  0.22880000  0.93500000  0.36570000  1.0 0.1105795552
H  H36  1  0.96810000  0.73350000  0.51370000  1.0 0.1202229141
H  H37  1  0.03450000  0.78730000  0.45950000  1.0 0.1105795552
H  H38  1  0.38140000  0.13500000  0.54940000  1.0 0.099989997
H  H39  1  0.27630000  0.04790000  0.51290000  1.0 0.1105795552
H  H40  1  0.19480000  0.02940000  0.52230000  1.0 0.1202229141
H  H41  1  0.79960000  0.54740000  0.52460000  1.0 0.1298883633
H  H42  1  0.65940000  0.39940000  0.47360000  1.0 0.1202229141
H  H43  1  0.16320000  0.04920000  0.57130000  1.0 0.1202229141
H  H44  1  0.13490000  0.10070000  0.78420000  1.0 0.1105795552
H  H45  1  0.05760000  0.01960000  0.38540000  1.0 0.1202229141
H  H46  1  0.08970000  0.98350000  0.39240000  1.0 0.1202229141
H  H47  1  0.31860000  0.28960000  0.30770000  1.0 0.1298883633
H  H48  1  0.52030000  0.17190000  0.36390000  1.0 0.1202229141
H  H49  1  0.64750000  0.31650000  0.41430000  1.0 0.1298883633
H  H50  1  0.08040000  0.97120000  0.67790000  1.0 0.1105795552
H  H51  1  0.02530000  0.96250000  0.73960000  1.0 0.1105795552
H  H52  1  0.17100000  0.17320000  0.34080000  1.0 0.1202229141
H  H53  1  0.72910000  0.71010000  0.37480000  1.0 0.1105795552
H  H54  1  0.79910000  0.83310000  0.39160000  1.0 0.099989997
H  H55  1  0.90490000  0.92790000  0.48220000  1.0 0.099989997
H  H56  1  0.94070000  0.89970000  0.55610000  1.0 0.1105795552
H  H57  1  0.66160000  0.30920000  0.75110000  1.0 0.1298883633
H  H58  1  0.71690000  0.31990000  0.78690000  1.0 0.1298883633
H  H59  1  0.68860000  0.30280000  0.71240000  1.0 0.1298883633
H  H60  1  0.87360000  0.38600000  0.55220000  1.0 0.138299555
H  H61  1  0.88100000  0.42980000  0.49210000  1.0 0.1298883633
H  H62  1  0.96920000  0.50100000  0.54510000  1.0 0.1298883633
H  H63  1  0.49510000  0.08990000  0.85210000  1.0 0.1298883633
H  H64  1  0.60920000  0.20300000  0.86370000  1.0 0.1298883633
H  H65  1  0.53370000  0.16970000  0.83950000  1.0 0.1202229141
H  H66  1  0.93380000  0.47140000  0.66000000  1.0 0.1298883633
H  H67  1  0.83300000  0.39840000  0.67140000  1.0 0.1202229141
H  H68  1  0.83250000  0.35550000  0.65670000  1.0 0.1298883633
H  H69  1  0.23010000  0.81630000  0.87960000  1.0 0.1202229141
H  H70  1  0.23100000  0.77140000  0.88080000  1.0 0.138299555
H  H71  1  0.27420000  0.84280000  0.82230000  1.0 0.1298883633
H  H72  1  0.97730000  0.56910000  0.85070000  1.0 0.1202229141
H  H73  1  0.05020000  0.60680000  0.90060000  1.0 0.1298883633
H  H74  1  0.05570000  0.65830000  0.89370000  1.0 0.1298883633
H  H75  1  0.15130000  0.69990000  0.75150000  1.0 0.138299555
H  H76  1  0.10650000  0.63090000  0.81360000  1.0 0.1298883633
H  H77  1  0.03640000  0.59620000  0.76210000  1.0 0.1298883633
H  H78  1  0.70880000  0.26740000  0.57270000  1.0 0.1298883633
H  H79  1  0.71520000  0.31660000  0.58370000  1.0 0.1202229141
H  H80  1  0.72780000  0.32180000  0.51440000  1.0 0.1298883633
H  H81  1  0.56890000  0.13770000  0.71040000  1.0 0.1298883633
H  H82  1  0.62780000  0.17520000  0.77730000  1.0 0.138299555
H  H83  1  0.51040000  0.06700000  0.77320000  1.0 0.138299555
H  H84  1  0.40470000  0.93070000  0.50770000  1.0 0.1105795552
H  H85  1  0.47070000  0.97570000  0.57200000  1.0 0.0794587571
H  H86  1  0.38480000  0.87000000  0.55330000  1.0 0.0794587571
H  H87  1  0.42700000  0.94100000  0.68420000  1.0 0.099989997
H  H88  1  0.34230000  0.89570000  0.66230000  1.0 0.099989997
H  H89  1  0.31540000  0.82520000  0.67730000  1.0 0.0617344482
H  H90  1  0.19960000  0.75120000  0.63240000  1.0 0.099989997
H  H91  1  0.23790000  0.74730000  0.61600000  1.0 0.0895217315
H  H92  1  0.25910000  0.77310000  0.68570000  1.0 0.0895217315
H  H93  1  0.39840000  0.02140000  0.22970000  1.0 0.1298883633
H  H94  1  0.12770000  0.76690000  0.29610000  1.0 0.1202229141
H  H95  1  0.97710000  0.56990000  0.08260000  1.0 0.1298883633
H  H96  1  0.42880000  0.02560000  0.98460000  1.0 0.1298883633
H  H97  1  0.37470000  0.09530000  0.11920000  1.0 0.1105795552
H  H98  1  0.45920000  0.14780000  0.16520000  1.0 0.1202229141
H  H99  1  0.02660000  0.74380000  0.26850000  1.0 0.1202229141
H  H100  1  0.04130000  0.78250000  0.19710000  1.0 0.1105795552
H  H101  1  0.78370000  0.61350000  0.88400000  1.0 0.1202229141
H  H102  1  0.24950000  0.82790000  0.01680000  1.0 0.1298883633
H  H103  1  0.83800000  0.59740000  0.90220000  1.0 0.1202229141
H  H104  1  0.28210000  0.92130000  0.92100000  1.0 0.1202229141
H  H105  1  0.23810000  0.92050000  0.93280000  1.0 0.1105795552
H  H106  1  0.25840000  0.09980000  0.21150000  1.0 0.1202229141
H  H107  1  0.16800000  0.97120000  0.06400000  1.0 0.1202229141
H  H108  1  0.83070000  0.45830000  0.13990000  1.0 0.1298883633
H  H109  1  0.93910000  0.59850000  0.28720000  1.0 0.1202229141
H  H110  1  0.53360000  0.15940000  0.13710000  1.0 0.1202229141
H  H111  1  0.85450000  0.51450000  0.02860000  1.0 0.1202229141
H  H112  1  0.90320000  0.60200000  0.01230000  1.0 0.1105795552
H  H113  1  0.28060000  0.04480000  0.21520000  1.0 0.099989997
H  H114  1  0.16370000  0.93910000  0.21820000  1.0 0.1105795552
H  H115  1  0.10810000  0.88310000  0.84620000  1.0 0.1202229141
H  H116  1  0.45520000  0.18740000  0.81710000  1.0 0.1202229141
H  H117  1  0.83490000  0.60430000  0.16270000  1.0 0.1202229141
H  H118  1  0.30770000  0.04650000  0.86870000  1.0 0.1202229141
H  H119  1  0.81620000  0.63640000  0.21540000  1.0 0.1202229141
H  H120  1  0.74710000  0.69450000  0.26980000  1.0 0.1298883633
H  H121  1  0.17080000  0.03540000  0.99530000  1.0 0.1105795552
H  H122  1  0.05630000  0.90130000  0.83070000  1.0 0.1105795552
H  H123  1  0.25480000  0.15960000  0.14050000  1.0 0.1202229141
H  H124  1  0.77960000  0.54200000  0.74560000  1.0 0.1298883633
H  H125  1  0.87600000  0.57420000  0.78040000  1.0 0.1105795552
H  H126  1  0.96160000  0.66140000  0.89520000  1.0 0.099989997
H  H127  1  0.06500000  0.77120000  0.86570000  1.0 0.1105795552
H  H128  1  0.26650000  0.03190000  0.01370000  1.0 0.1202229141
H  H129  1  0.21270000  0.96550000  0.95950000  1.0 0.1105795552
H  H130  1  0.86500000  0.61860000  0.04940000  1.0 0.099989997
H  H131  1  0.95210000  0.72370000  0.01290000  1.0 0.1105795552
H  H132  1  0.97060000  0.80520000  0.02230000  1.0 0.1202229141
H  H133  1  0.45260000  0.20040000  0.02460000  1.0 0.1298883633
H  H134  1  0.60060000  0.34060000  0.97360000  1.0 0.1202229141
H  H135  1  0.95080000  0.83680000  0.07130000  1.0 0.1202229141
H  H136  1  0.89930000  0.86510000  0.28420000  1.0 0.1105795552
H  H137  1  0.98040000  0.94240000  0.88540000  1.0 0.1202229141
H  H138  1  0.01650000  0.91030000  0.89240000  1.0 0.1202229141
H  H139  1  0.71040000  0.68140000  0.80770000  1.0 0.1298883633
H  H140  1  0.82810000  0.47970000  0.86390000  1.0 0.1202229141
H  H141  1  0.68350000  0.35250000  0.91430000  1.0 0.1298883633
H  H142  1  0.02880000  0.91960000  0.17790000  1.0 0.1105795552
H  H143  1  0.03750000  0.97470000  0.23960000  1.0 0.1105795552
H  H144  1  0.82680000  0.82900000  0.84080000  1.0 0.1202229141
H  H145  1  0.28990000  0.27090000  0.87480000  1.0 0.1105795552
H  H146  1  0.16690000  0.20090000  0.89160000  1.0 0.099989997
H  H147  1  0.07210000  0.09510000  0.98220000  1.0 0.099989997
H  H148  1  0.10030000  0.05930000  0.05610000  1.0 0.1105795552
H  H149  1  0.69080000  0.33840000  0.25110000  1.0 0.1298883633
H  H150  1  0.68010000  0.28310000  0.28690000  1.0 0.1298883633
H  H151  1  0.69720000  0.31140000  0.21240000  1.0 0.1298883633
H  H152  1  0.61400000  0.12640000  0.05220000  1.0 0.138299555
H  H153  1  0.57020000  0.11900000  0.99210000  1.0 0.1298883633
H  H154  1  0.49900000  0.03080000  0.04510000  1.0 0.1298883633
H  H155  1  0.91010000  0.50490000  0.35210000  1.0 0.1298883633
H  H156  1  0.79700000  0.39080000  0.36370000  1.0 0.1298883633
H  H157  1  0.83030000  0.46630000  0.33950000  1.0 0.1202229141
H  H158  1  0.52860000  0.06620000  0.16000000  1.0 0.1298883633
H  H159  1  0.60160000  0.16700000  0.17140000  1.0 0.1202229141
H  H160  1  0.64450000  0.16750000  0.15670000  1.0 0.1298883633
H  H161  1  0.18370000  0.76990000  0.37960000  1.0 0.1202229141
H  H162  1  0.22860000  0.76900000  0.38080000  1.0 0.138299555
H  H163  1  0.15720000  0.72580000  0.32230000  1.0 0.1298883633
H  H164  1  0.43090000  0.02270000  0.35070000  1.0 0.1202229141
H  H165  1  0.39320000  0.94980000  0.40060000  1.0 0.1298883633
H  H166  1  0.34170000  0.94430000  0.39370000  1.0 0.1298883633
H  H167  1  0.30010000  0.84870000  0.25150000  1.0 0.138299555
H  H168  1  0.36910000  0.89350000  0.31360000  1.0 0.1298883633
H  H169  1  0.40380000  0.96360000  0.26210000  1.0 0.1298883633
H  H170  1  0.73260000  0.29120000  0.07270000  1.0 0.1298883633
H  H171  1  0.68340000  0.28480000  0.08370000  1.0 0.1202229141
H  H172  1  0.67820000  0.27220000  0.01440000  1.0 0.1298883633
H  H173  1  0.86230000  0.43110000  0.21040000  1.0 0.1298883633
H  H174  1  0.82480000  0.37220000  0.27730000  1.0 0.138299555
H  H175  1  0.93300000  0.48960000  0.27320000  1.0 0.138299555
H  H176  1  0.06930000  0.59530000  0.00770000  1.0 0.1105795552
H  H177  1  0.02430000  0.52930000  0.07200000  1.0 0.0794587571
H  H178  1  0.13000000  0.61520000  0.05330000  1.0 0.0794587571
H  H179  1  0.05900000  0.57300000  0.18420000  1.0 0.099989997
H  H180  1  0.10430000  0.65770000  0.16230000  1.0 0.099989997
H  H181  1  0.17480000  0.68460000  0.17730000  1.0 0.0617344482
H  H182  1  0.24880000  0.80040000  0.13240000  1.0 0.099989997
H  H183  1  0.25270000  0.76210000  0.11600000  1.0 0.0895217315
H  H184  1  0.22690000  0.74090000  0.18570000  1.0 0.0895217315
H  H185  1  0.60160000  0.97860000  0.77030000  1.0 0.1298883633
H  H186  1  0.87230000  0.23310000  0.70390000  1.0 0.1202229141
H  H187  1  0.02290000  0.43010000  0.91740000  1.0 0.1298883633
H  H188  1  0.57120000  0.97440000  0.01540000  1.0 0.1202229141
H  H189  1  0.62530000  0.90470000  0.88080000  1.0 0.1105795552
H  H190  1  0.54080000  0.85220000  0.83480000  1.0 0.1202229141
H  H191  1  0.97340000  0.25620000  0.73150000  1.0 0.1202229141
H  H192  1  0.95870000  0.21750000  0.80290000  1.0 0.1105795552
H  H193  1  0.21630000  0.38650000  0.11600000  1.0 0.1202229141
H  H194  1  0.75050000  0.17210000  0.98320000  1.0 0.1298883633
H  H195  1  0.16200000  0.40260000  0.09780000  1.0 0.1202229141
H  H196  1  0.71790000  0.07870000  0.07900000  1.0 0.1202229141
H  H197  1  0.76190000  0.07950000  0.06720000  1.0 0.1105795552
H  H198  1  0.74160000  0.90020000  0.78850000  1.0 0.1202229141
H  H199  1  0.83200000  0.02880000  0.93600000  1.0 0.1202229141
H  H200  1  0.16930000  0.54170000  0.86010000  1.0 0.1298883633
H  H201  1  0.06090000  0.40150000  0.71280000  1.0 0.1202229141
H  H202  1  0.46640000  0.84060000  0.86290000  1.0 0.1202229141
H  H203  1  0.14550000  0.48550000  0.97140000  1.0 0.1202229141
H  H204  1  0.09680000  0.39800000  0.98770000  1.0 0.1105795552
H  H205  1  0.71940000  0.95520000  0.78480000  1.0 0.099989997
H  H206  1  0.83630000  0.06090000  0.78180000  1.0 0.1105795552
H  H207  1  0.89190000  0.11690000  0.15380000  1.0 0.1202229141
H  H208  1  0.54480000  0.81260000  0.18290000  1.0 0.1202229141
H  H209  1  0.16510000  0.39570000  0.83730000  1.0 0.1202229141
H  H210  1  0.69230000  0.95350000  0.13130000  1.0 0.1202229141
H  H211  1  0.18380000  0.36360000  0.78460000  1.0 0.1202229141
H  H212  1  0.25290000  0.30550000  0.73020000  1.0 0.1298883633
H  H213  1  0.82920000  0.96460000  0.00470000  1.0 0.1105795552
H  H214  1  0.94370000  0.09870000  0.16930000  1.0 0.1105795552
H  H215  1  0.74520000  0.84040000  0.85950000  1.0 0.1202229141
H  H216  1  0.22040000  0.45800000  0.25440000  1.0 0.1298883633
H  H217  1  0.12400000  0.42580000  0.21960000  1.0 0.1105795552
H  H218  1  0.03840000  0.33860000  0.10480000  1.0 0.099989997
H  H219  1  0.93500000  0.22880000  0.13430000  1.0 0.1105795552
H  H220  1  0.73350000  0.96810000  0.98630000  1.0 0.1202229141
H  H221  1  0.78730000  0.03450000  0.04050000  1.0 0.1105795552
H  H222  1  0.13500000  0.38140000  0.95060000  1.0 0.099989997
H  H223  1  0.04790000  0.27630000  0.98710000  1.0 0.1105795552
H  H224  1  0.02940000  0.19480000  0.97770000  1.0 0.1202229141
H  H225  1  0.54740000  0.79960000  0.97540000  1.0 0.1298883633
H  H226  1  0.39940000  0.65940000  0.02640000  1.0 0.1202229141
H  H227  1  0.04920000  0.16320000  0.92870000  1.0 0.1202229141
H  H228  1  0.10070000  0.13490000  0.71580000  1.0 0.1105795552
H  H229  1  0.01960000  0.05760000  0.11460000  1.0 0.1202229141
H  H230  1  0.98350000  0.08970000  0.10760000  1.0 0.1202229141
H  H231  1  0.28960000  0.31860000  0.19230000  1.0 0.1298883633
H  H232  1  0.17190000  0.52030000  0.13610000  1.0 0.1202229141
H  H233  1  0.31650000  0.64750000  0.08570000  1.0 0.1298883633
H  H234  1  0.97120000  0.08040000  0.82210000  1.0 0.1105795552
H  H235  1  0.96250000  0.02530000  0.76040000  1.0 0.1105795552
H  H236  1  0.17320000  0.17100000  0.15920000  1.0 0.1202229141
H  H237  1  0.71010000  0.72910000  0.12520000  1.0 0.1105795552
H  H238  1  0.83310000  0.79910000  0.10840000  1.0 0.099989997
H  H239  1  0.92790000  0.90490000  0.01780000  1.0 0.099989997
H  H240  1  0.89970000  0.94070000  0.94390000  1.0 0.1105795552
H  H241  1  0.30920000  0.66160000  0.74890000  1.0 0.1298883633
H  H242  1  0.31990000  0.71690000  0.71310000  1.0 0.1298883633
H  H243  1  0.30280000  0.68860000  0.78760000  1.0 0.1298883633
H  H244  1  0.38600000  0.87360000  0.94780000  1.0 0.138299555
H  H245  1  0.42980000  0.88100000  0.00790000  1.0 0.1298883633
H  H246  1  0.50100000  0.96920000  0.95490000  1.0 0.1298883633
H  H247  1  0.08990000  0.49510000  0.64790000  1.0 0.1298883633
H  H248  1  0.20300000  0.60920000  0.63630000  1.0 0.1298883633
H  H249  1  0.16970000  0.53370000  0.66050000  1.0 0.1202229141
H  H250  1  0.47140000  0.93380000  0.84000000  1.0 0.1298883633
H  H251  1  0.39840000  0.83300000  0.82860000  1.0 0.1202229141
H  H252  1  0.35550000  0.83250000  0.84330000  1.0 0.1298883633
H  H253  1  0.81630000  0.23010000  0.62040000  1.0 0.1202229141
H  H254  1  0.77140000  0.23100000  0.61920000  1.0 0.138299555
H  H255  1  0.84280000  0.27420000  0.67770000  1.0 0.1298883633
H  H256  1  0.56910000  0.97730000  0.64930000  1.0 0.1202229141
H  H257  1  0.60680000  0.05020000  0.59940000  1.0 0.1298883633
H  H258  1  0.65830000  0.05570000  0.60630000  1.0 0.1298883633
H  H259  1  0.69990000  0.15130000  0.74850000  1.0 0.138299555
H  H260  1  0.63090000  0.10650000  0.68640000  1.0 0.1298883633
H  H261  1  0.59620000  0.03640000  0.73790000  1.0 0.1298883633
H  H262  1  0.26740000  0.70880000  0.92730000  1.0 0.1298883633
H  H263  1  0.31660000  0.71520000  0.91630000  1.0 0.1202229141
H  H264  1  0.32180000  0.72780000  0.98560000  1.0 0.1298883633
H  H265  1  0.13770000  0.56890000  0.78960000  1.0 0.1298883633
H  H266  1  0.17520000  0.62780000  0.72270000  1.0 0.138299555
H  H267  1  0.06700000  0.51040000  0.72680000  1.0 0.138299555
H  H268  1  0.93070000  0.40470000  0.99230000  1.0 0.1105795552
H  H269  1  0.97570000  0.47070000  0.92800000  1.0 0.0794587571
H  H270  1  0.87000000  0.38480000  0.94670000  1.0 0.0794587571
H  H271  1  0.94100000  0.42700000  0.81580000  1.0 0.099989997
H  H272  1  0.89570000  0.34230000  0.83770000  1.0 0.099989997
H  H273  1  0.82520000  0.31540000  0.82270000  1.0 0.0617344482
H  H274  1  0.75120000  0.19960000  0.86760000  1.0 0.099989997
H  H275  1  0.74730000  0.23790000  0.88400000  1.0 0.0895217315
H  H276  1  0.77310000  0.25910000  0.81430000  1.0 0.0895217315
H  H277  1  0.02140000  0.39840000  0.27030000  1.0 0.1298883633
H  H278  1  0.76690000  0.12770000  0.20390000  1.0 0.1202229141
H  H279  1  0.56990000  0.97710000  0.41740000  1.0 0.1298883633
H  H280  1  0.02560000  0.42880000  0.51540000  1.0 0.1298883633
H  H281  1  0.09530000  0.37470000  0.38080000  1.0 0.1105795552
H  H282  1  0.14780000  0.45920000  0.33480000  1.0 0.1202229141
H  H283  1  0.74380000  0.02660000  0.23150000  1.0 0.1202229141
H  H284  1  0.78250000  0.04130000  0.30290000  1.0 0.1105795552
H  H285  1  0.61350000  0.78370000  0.61600000  1.0 0.1202229141
H  H286  1  0.82790000  0.24950000  0.48320000  1.0 0.1298883633
H  H287  1  0.59740000  0.83800000  0.59780000  1.0 0.1202229141
H  H288  1  0.92130000  0.28210000  0.57900000  1.0 0.1202229141
H  H289  1  0.92050000  0.23810000  0.56720000  1.0 0.1105795552
H  H290  1  0.09980000  0.25840000  0.28850000  1.0 0.1202229141
H  H291  1  0.97120000  0.16800000  0.43600000  1.0 0.1202229141
H  H292  1  0.45830000  0.83070000  0.36010000  1.0 0.1298883633
H  H293  1  0.59850000  0.93910000  0.21280000  1.0 0.1202229141
H  H294  1  0.15940000  0.53360000  0.36290000  1.0 0.1202229141
H  H295  1  0.51450000  0.85450000  0.47140000  1.0 0.1202229141
H  H296  1  0.60200000  0.90320000  0.48770000  1.0 0.1105795552
H  H297  1  0.04480000  0.28060000  0.28480000  1.0 0.099989997
H  H298  1  0.93910000  0.16370000  0.28180000  1.0 0.1105795552
H  H299  1  0.88310000  0.10810000  0.65380000  1.0 0.1202229141
H  H300  1  0.18740000  0.45520000  0.68290000  1.0 0.1202229141
H  H301  1  0.60430000  0.83490000  0.33730000  1.0 0.1202229141
H  H302  1  0.04650000  0.30770000  0.63130000  1.0 0.1202229141
H  H303  1  0.63640000  0.81620000  0.28460000  1.0 0.1202229141
H  H304  1  0.69450000  0.74710000  0.23020000  1.0 0.1298883633
H  H305  1  0.03540000  0.17080000  0.50470000  1.0 0.1105795552
H  H306  1  0.90130000  0.05630000  0.66930000  1.0 0.1105795552
H  H307  1  0.15960000  0.25480000  0.35950000  1.0 0.1202229141
H  H308  1  0.54200000  0.77960000  0.75440000  1.0 0.1298883633
H  H309  1  0.57420000  0.87600000  0.71960000  1.0 0.1105795552
H  H310  1  0.66140000  0.96160000  0.60480000  1.0 0.099989997
H  H311  1  0.77120000  0.06500000  0.63430000  1.0 0.1105795552
H  H312  1  0.03190000  0.26650000  0.48630000  1.0 0.1202229141
H  H313  1  0.96550000  0.21270000  0.54050000  1.0 0.1105795552
H  H314  1  0.61860000  0.86500000  0.45060000  1.0 0.099989997
H  H315  1  0.72370000  0.95210000  0.48710000  1.0 0.1105795552
H  H316  1  0.80520000  0.97060000  0.47770000  1.0 0.1202229141
H  H317  1  0.20040000  0.45260000  0.47540000  1.0 0.1298883633
H  H318  1  0.34060000  0.60060000  0.52640000  1.0 0.1202229141
H  H319  1  0.83680000  0.95080000  0.42870000  1.0 0.1202229141
H  H320  1  0.86510000  0.89930000  0.21580000  1.0 0.1105795552
H  H321  1  0.94240000  0.98040000  0.61460000  1.0 0.1202229141
H  H322  1  0.91030000  0.01650000  0.60760000  1.0 0.1202229141
H  H323  1  0.68140000  0.71040000  0.69230000  1.0 0.1298883633
H  H324  1  0.47970000  0.82810000  0.63610000  1.0 0.1202229141
H  H325  1  0.35250000  0.68350000  0.58570000  1.0 0.1298883633
H  H326  1  0.91960000  0.02880000  0.32210000  1.0 0.1105795552
H  H327  1  0.97470000  0.03750000  0.26040000  1.0 0.1105795552
H  H328  1  0.82900000  0.82680000  0.65920000  1.0 0.1202229141
H  H329  1  0.27090000  0.28990000  0.62520000  1.0 0.1105795552
H  H330  1  0.20090000  0.16690000  0.60840000  1.0 0.099989997
H  H331  1  0.09510000  0.07210000  0.51780000  1.0 0.099989997
H  H332  1  0.05930000  0.10030000  0.44390000  1.0 0.1105795552
H  H333  1  0.33840000  0.69080000  0.24890000  1.0 0.1298883633
H  H334  1  0.28310000  0.68010000  0.21310000  1.0 0.1298883633
H  H335  1  0.31140000  0.69720000  0.28760000  1.0 0.1298883633
H  H336  1  0.12640000  0.61400000  0.44780000  1.0 0.138299555
H  H337  1  0.11900000  0.57020000  0.50790000  1.0 0.1298883633
H  H338  1  0.03080000  0.49900000  0.45490000  1.0 0.1298883633
H  H339  1  0.50490000  0.91010000  0.14790000  1.0 0.1298883633
H  H340  1  0.39080000  0.79700000  0.13630000  1.0 0.1298883633
H  H341  1  0.46630000  0.83030000  0.16050000  1.0 0.1202229141
H  H342  1  0.06620000  0.52860000  0.34000000  1.0 0.1298883633
H  H343  1  0.16700000  0.60160000  0.32860000  1.0 0.1202229141
H  H344  1  0.16750000  0.64450000  0.34330000  1.0 0.1298883633
H  H345  1  0.76990000  0.18370000  0.12040000  1.0 0.1202229141
H  H346  1  0.76900000  0.22860000  0.11920000  1.0 0.138299555
H  H347  1  0.72580000  0.15720000  0.17770000  1.0 0.1298883633
H  H348  1  0.02270000  0.43090000  0.14930000  1.0 0.1202229141
H  H349  1  0.94980000  0.39320000  0.09940000  1.0 0.1298883633
H  H350  1  0.94430000  0.34170000  0.10630000  1.0 0.1298883633
H  H351  1  0.84870000  0.30010000  0.24850000  1.0 0.138299555
H  H352  1  0.89350000  0.36910000  0.18640000  1.0 0.1298883633
H  H353  1  0.96360000  0.40380000  0.23790000  1.0 0.1298883633
H  H354  1  0.29120000  0.73260000  0.42730000  1.0 0.1298883633
H  H355  1  0.28480000  0.68340000  0.41630000  1.0 0.1202229141
H  H356  1  0.27220000  0.67820000  0.48560000  1.0 0.1298883633
H  H357  1  0.43110000  0.86230000  0.28960000  1.0 0.1298883633
H  H358  1  0.37220000  0.82480000  0.22270000  1.0 0.138299555
H  H359  1  0.48960000  0.93300000  0.22680000  1.0 0.138299555
H  H360  1  0.59530000  0.06930000  0.49230000  1.0 0.1105795552
H  H361  1  0.52930000  0.02430000  0.42800000  1.0 0.0794587571
H  H362  1  0.61520000  0.13000000  0.44670000  1.0 0.0794587571
H  H363  1  0.57300000  0.05900000  0.31580000  1.0 0.099989997
H  H364  1  0.65770000  0.10430000  0.33770000  1.0 0.099989997
H  H365  1  0.68460000  0.17480000  0.32270000  1.0 0.0617344482
H  H366  1  0.80040000  0.24880000  0.36760000  1.0 0.099989997
H  H367  1  0.76210000  0.25270000  0.38400000  1.0 0.0895217315
H  H368  1  0.74090000  0.22690000  0.31430000  1.0 0.0895217315
C  C1  1  0.06982000  0.77398000  0.69172000  1.0 0.099989997
C  C2  1  0.15819000  0.84741000  0.73019000  1.0 0.0482622999
C  C3  1  0.00874000  0.65606000  0.50264000  1.0 0.0482622999
C  C4  1  0.25869000  0.92011000  0.49029000  1.0 0.1105795552
C  C5  1  0.02355000  0.66345000  0.73045000  1.0 -0.2206383189
C  C6  1  0.92442000  0.59078000  0.59372000  1.0 0.0412760903
C  C7  1  0.98654000  0.66006000  0.54324000  1.0 0.1105795552
C  C8  1  0.00322000  0.68218000  0.68932000  1.0 0.0412760903
C  C9  1  0.96877000  0.78323000  0.64427000  1.0 0.0794587571
C  C10  1  0.17418000  0.82362000  0.77008000  1.0 -0.2206383189
C  C11  1  0.36956000  0.97344000  0.55846000  1.0 -0.2283195757
C  C12  1  0.34801000  0.99339000  0.52791000  1.0 0.0482622999
C  C13  1  0.18992000  0.82688000  0.48732000  1.0 0.0482622999
C  C14  1  0.10616000  0.73104000  0.77226000  1.0 0.0691288018
C  C15  1  0.33322000  0.02518000  0.70042000  1.0 0.0412760903
C  C16  1  0.34472000  0.04168000  0.63462000  1.0 0.099989997
C  C17  1  0.96264000  0.57656000  0.51244000  1.0 -0.2283195757
C  C18  1  0.91213000  0.60407000  0.64183000  1.0 -0.2895577948
C  C19  1  0.24044000  0.95456000  0.72594000  1.0 -0.2895577948
C  C20  1  0.42008000  0.09232000  0.61068000  1.0 0.0412760903
C  C21  1  0.89889000  0.50451000  0.56279000  1.0 0.0691288018
C  C22  1  0.33117000  0.15023000  0.37727000  1.0 -0.1390242767
C  C23  1  0.21674000  0.81186000  0.51964000  1.0 -0.2206383189
C  C24  1  0.26125000  0.02075000  0.37895000  1.0 0.0794587571
C  C25  1  0.30491000  0.88289000  0.55481000  1.0 0.0235006063
C  C26  1  0.23896000  0.08404000  0.35636000  1.0 0.0617344482
C  C27  1  0.34051000  0.11709000  0.38821000  1.0 -0.1390242767
C  C28  1  0.72066000  0.45534000  0.39016000  1.0 0.0691288018
C  C29  1  0.08701000  0.74039000  0.45391000  1.0 -0.2785408225
C  C30  1  0.40602000  0.30618000  0.70492000  1.0 0.5809996119
C  C31  1  0.25726000  0.11634000  0.65086000  1.0 0.0691288018
C  C32  1  0.91291000  0.75869000  0.66771000  1.0 -0.1595796522
C  C33  1  0.22286000  0.11214000  0.35156000  1.0 0.0482622999
C  C34  1  0.98824000  0.81156000  0.57994000  1.0 -0.1390242767
C  C35  1  0.48989000  0.13411000  0.65509000  1.0 -0.2206383189
C  C36  1  0.40694000  0.06986000  0.74284000  1.0 -0.2377522278
C  C37  1  0.88187000  0.51333000  0.60277000  1.0 -0.2283195757
C  C38  1  0.41871000  0.08989000  0.53971000  1.0 -0.2785408225
C  C39  1  0.29623000  0.20417000  0.71493000  1.0 -0.069186595
C  C40  1  0.00851000  0.78189000  0.68911000  1.0 -0.0774303552
C  C41  1  0.57192000  0.32748000  0.30892000  1.0 -0.0594875801
C  C42  1  0.12059000  0.70141000  0.81839000  1.0 0.2785256852
C  C43  1  0.29574000  0.09126000  0.58764000  1.0 0.0794587571
C  C44  1  0.63356000  0.35984000  0.35996000  1.0 0.0482622999
C  C45  1  0.58194000  0.38146000  0.28984000  1.0 0.5809996119
C  C46  1  0.17114000  0.95686000  0.35544000  1.0 -0.1595796522
C  C47  1  0.80970000  0.54450000  0.35940000  1.0 -0.1390242767
C  C48  1  0.34705000  0.13975000  0.64505000  1.0 -0.1304040627
C  C49  1  0.22835000  0.11865000  0.68745000  1.0 0.0482622999
C  C50  1  0.89369000  0.63651000  0.45339000  1.0 0.0691288018
C  C51  1  0.89333000  0.78387000  0.55953000  1.0 0.0691288018
C  C52  1  0.89448000  0.63332000  0.39048000  1.0 -0.1595796522
C  C53  1  0.32833000  0.15167000  0.67643000  1.0 -0.1207347159
C  C54  1  0.26033000  0.19627000  0.75123000  1.0 -0.1012678515
C  C55  1  0.95063000  0.81077000  0.53883000  1.0 -0.1207347159
C  C56  1  0.29355000  0.20785000  0.32715000  1.0 -0.0534311037
C  C57  1  0.39475000  0.29285000  0.30395000  1.0 0.5856140975
C  C58  1  0.16060000  0.98860000  0.34530000  1.0 -0.147838676
C  C59  1  0.87673000  0.76027000  0.62493000  1.0 -0.1390242767
C  C60  1  0.49682000  0.24038000  0.28022000  1.0 -0.1304040627
C  C61  1  0.47764000  0.18296000  0.30054000  1.0 -0.1107598521
C  C62  1  0.26958000  0.98342000  0.39598000  1.0 -0.0774303552
C  C63  1  0.33033000  0.86247000  0.59063000  1.0 0.1298883633
C  C64  1  0.98573000  0.73007000  0.49043000  1.0 -0.069186595
C  C65  1  0.31058000  0.07242000  0.55538000  1.0 -0.0774303552
C  C66  1  0.48625000  0.12595000  0.72125000  1.0 0.0691288018
C  C67  1  0.22848000  0.05992000  0.56178000  1.0 -0.1390242767
C  C68  1  0.80350000  0.54750000  0.48300000  1.0 -0.1304040627
C  C69  1  0.71881000  0.45839000  0.45211000  1.0 -0.1207347159
C  C70  1  0.20936000  0.07144000  0.59106000  1.0 -0.1304040627
C  C71  1  0.15796000  0.10504000  0.76016000  1.0 -0.1012678515
C  C72  1  0.11707000  0.06713000  0.37027000  1.0 -0.1012678515
C  C73  1  0.13630000  0.04550000  0.37400000  1.0 -0.147838676
C  C74  1  0.27173000  0.22707000  0.32413000  1.0 -0.1107598521
C  C75  1  0.56701000  0.17379000  0.76771000  1.0 0.2655627765
C  C76  1  0.53335000  0.21125000  0.34975000  1.0 -0.1107598521
C  C77  1  0.85042000  0.41798000  0.57422000  1.0 0.2655627765
C  C78  1  0.61028000  0.29872000  0.37958000  1.0 -0.147838676
C  C79  1  0.12651000  0.02829000  0.69641000  1.0 -0.1595796522
C  C80  1  0.09344000  0.02356000  0.73344000  1.0 -0.0907062706
C  C81  1  0.18461000  0.15879000  0.34431000  1.0 -0.1012678515
C  C82  1  0.85634000  0.78806000  0.50964000  1.0 0.0617344482
C  C83  1  0.79296000  0.73124000  0.45536000  1.0 -0.0774303552
C  C84  1  0.77150000  0.74810000  0.41110000  1.0 -0.1012678515
C  C85  1  0.81342000  0.82178000  0.42122000  1.0 -0.1107598521
C  C86  1  0.87680000  0.87860000  0.47550000  1.0 -0.1012678515
C  C87  1  0.89826000  0.86174000  0.51976000  1.0 -0.1595796522
C  C88  1  0.73355000  0.64205000  0.44515000  1.0 0.5745405082
C  C89  1  0.66789000  0.28691000  0.75319000  1.0 -0.4611587103
C  C90  1  0.89778000  0.43522000  0.53758000  1.0 -0.500991172
C  C91  1  0.54971000  0.15769000  0.83701000  1.0 -0.4799715422
C  C92  1  0.86371000  0.41009000  0.64751000  1.0 -0.4799715422
C  C93  1  0.22338000  0.79122000  0.85348000  1.0 -0.4918643262
C  C94  1  0.04371000  0.62689000  0.87081000  1.0 -0.4918643262
C  C95  1  0.10214000  0.65286000  0.78334000  1.0 -0.500991172
C  C96  1  0.74088000  0.32252000  0.55998000  1.0 -0.4746605929
C  C97  1  0.56867000  0.13513000  0.75617000  1.0 -0.500991172
C  C98  1  0.40460000  0.91520000  0.55200000  1.0 -0.2116582736
C  C99  1  0.36450000  0.89010000  0.65980000  1.0 -0.1789522818
C  C100  1  0.23870000  0.75030000  0.59040000  1.0 -0.0907062706
C  C101  1  0.30870000  0.81530000  0.55030000  1.0 -0.0907062706
C  C102  1  0.44400000  0.96400000  0.60800000  1.0 -0.0207291867
C  C103  1  0.25320000  0.78080000  0.64020000  1.0 -0.2116582736
C  C104  1  0.22602000  0.93018000  0.19172000  1.0 0.099989997
C  C105  1  0.15259000  0.84181000  0.23019000  1.0 0.0482622999
C  C106  1  0.34394000  0.99126000  0.00264000  1.0 0.0482622999
C  C107  1  0.07989000  0.74131000  0.99029000  1.0 0.1105795552
C  C108  1  0.33655000  0.97645000  0.23045000  1.0 -0.2206383189
C  C109  1  0.40922000  0.07558000  0.09372000  1.0 0.0412760903
C  C110  1  0.33994000  0.01346000  0.04324000  1.0 0.1105795552
C  C111  1  0.31782000  0.99678000  0.18932000  1.0 0.0412760903
C  C112  1  0.21677000  0.03123000  0.14427000  1.0 0.0794587571
C  C113  1  0.17638000  0.82582000  0.27008000  1.0 -0.2206383189
C  C114  1  0.02656000  0.63044000  0.05846000  1.0 -0.2283195757
C  C115  1  0.00661000  0.65199000  0.02791000  1.0 0.0482622999
C  C116  1  0.17312000  0.81008000  0.98732000  1.0 0.0482622999
C  C117  1  0.26896000  0.89384000  0.27226000  1.0 0.0691288018
C  C118  1  0.97482000  0.66678000  0.20042000  1.0 0.0412760903
C  C119  1  0.95832000  0.65528000  0.13462000  1.0 0.099989997
C  C120  1  0.42344000  0.03736000  0.01244000  1.0 -0.2283195757
C  C121  1  0.39593000  0.08787000  0.14183000  1.0 -0.2895577948
C  C122  1  0.04544000  0.75956000  0.22594000  1.0 -0.2895577948
C  C123  1  0.90768000  0.57992000  0.11068000  1.0 0.0412760903
C  C124  1  0.49549000  0.10111000  0.06279000  1.0 0.0691288018
C  C125  1  0.84977000  0.66883000  0.87727000  1.0 -0.1390242767
C  C126  1  0.18814000  0.78326000  0.01964000  1.0 -0.2206383189
C  C127  1  0.97925000  0.73875000  0.87895000  1.0 0.0794587571
C  C128  1  0.11711000  0.69509000  0.05481000  1.0 0.0252385747
C  C129  1  0.91596000  0.76104000  0.85636000  1.0 0.0617344482
C  C130  1  0.88291000  0.65949000  0.88821000  1.0 -0.1390242767
C  C131  1  0.54466000  0.27934000  0.89016000  1.0 0.0691288018
C  C132  1  0.25961000  0.91299000  0.95391000  1.0 -0.2785408225
C  C133  1  0.69382000  0.59398000  0.20492000  1.0 0.5809996119
C  C134  1  0.88366000  0.74274000  0.15086000  1.0 0.0691288018
C  C135  1  0.24131000  0.08709000  0.16771000  1.0 -0.1595796522
C  C136  1  0.88786000  0.77714000  0.85156000  1.0 0.0482622999
C  C137  1  0.18844000  0.01176000  0.07994000  1.0 -0.1390242767
C  C138  1  0.86589000  0.51011000  0.15509000  1.0 -0.2206383189
C  C139  1  0.93014000  0.59306000  0.24284000  1.0 -0.2377522278
C  C140  1  0.48667000  0.11813000  0.10277000  1.0 -0.2283195757
C  C141  1  0.91011000  0.58129000  0.03971000  1.0 -0.2785408225
C  C142  1  0.79583000  0.70377000  0.21493000  1.0 -0.069186595
C  C143  1  0.21811000  0.99149000  0.18911000  1.0 -0.0774303552
C  C144  1  0.67252000  0.42808000  0.80892000  1.0 -0.0594875801
C  C145  1  0.29859000  0.87941000  0.31839000  1.0 0.2785256852
C  C146  1  0.90874000  0.70426000  0.08764000  1.0 0.0794587571
C  C147  1  0.64016000  0.36644000  0.85996000  1.0 0.0482622999
C  C148  1  0.61854000  0.41806000  0.78984000  1.0 0.5809996119
C  C149  1  0.04314000  0.82886000  0.85544000  1.0 -0.1595796522
C  C150  1  0.45550000  0.19030000  0.85940000  1.0 -0.1390242767
C  C151  1  0.86025000  0.65295000  0.14505000  1.0 -0.1304040627
C  C152  1  0.88135000  0.77165000  0.18745000  1.0 0.0482622999
C  C153  1  0.36349000  0.10631000  0.95339000  1.0 0.0691288018
C  C154  1  0.21613000  0.10667000  0.05953000  1.0 0.0691288018
C  C155  1  0.36668000  0.10552000  0.89048000  1.0 -0.1595796522
C  C156  1  0.84833000  0.67167000  0.17643000  1.0 -0.1207347159
C  C157  1  0.80373000  0.73967000  0.25123000  1.0 -0.1107598521
C  C158  1  0.18923000  0.04937000  0.03883000  1.0 -0.1207347159
C  C159  1  0.79215000  0.70645000  0.82715000  1.0 -0.0534311037
C  C160  1  0.70715000  0.60525000  0.80395000  1.0 0.5856140975
C  C161  1  0.01140000  0.83940000  0.84530000  1.0 -0.147838676
C  C162  1  0.23973000  0.12327000  0.12493000  1.0 -0.1304040627
C  C163  1  0.75962000  0.50318000  0.78022000  1.0 -0.1304040627
C  C164  1  0.81704000  0.52236000  0.80054000  1.0 -0.1107598521
C  C165  1  0.01658000  0.73042000  0.89598000  1.0 -0.0774303552
C  C166  1  0.13753000  0.66967000  0.09063000  1.0 0.1298883633
C  C167  1  0.26993000  0.01427000  0.99043000  1.0 -0.069186595
C  C168  1  0.92758000  0.68942000  0.05538000  1.0 -0.0774303552
C  C169  1  0.87405000  0.51375000  0.22125000  1.0 0.0691288018
C  C170  1  0.94008000  0.77152000  0.06178000  1.0 -0.1390242767
C  C171  1  0.45250000  0.19650000  0.98300000  1.0 -0.1304040627
C  C172  1  0.54161000  0.28119000  0.95211000  1.0 -0.1207347159
C  C173  1  0.92856000  0.79064000  0.09106000  1.0 -0.1304040627
C  C174  1  0.89496000  0.84204000  0.26016000  1.0 -0.1012678515
C  C175  1  0.93287000  0.88293000  0.87027000  1.0 -0.1012678515
C  C176  1  0.95450000  0.86370000  0.87400000  1.0 -0.147838676
C  C177  1  0.77293000  0.72827000  0.82413000  1.0 -0.1107598521
C  C178  1  0.82621000  0.43299000  0.26771000  1.0 0.2655627765
C  C179  1  0.78875000  0.46665000  0.84975000  1.0 -0.1107598521
C  C180  1  0.58202000  0.14958000  0.07422000  1.0 0.2655627765
C  C181  1  0.70128000  0.38972000  0.87958000  1.0 -0.147838676
C  C182  1  0.97171000  0.87349000  0.19641000  1.0 -0.1595796522
C  C183  1  0.97644000  0.90656000  0.23344000  1.0 -0.1012678515
C  C184  1  0.84121000  0.81539000  0.84431000  1.0 -0.1012678515
C  C185  1  0.21194000  0.14366000  0.00964000  1.0 0.0691288018
C  C186  1  0.26876000  0.20704000  0.95536000  1.0 -0.0774303552
C  C187  1  0.25190000  0.22850000  0.91110000  1.0 -0.1012678515
C  C188  1  0.17822000  0.18658000  0.92122000  1.0 -0.1107598521
C  C189  1  0.12140000  0.12320000  0.97550000  1.0 -0.1012678515
C  C190  1  0.13826000  0.10174000  0.01976000  1.0 -0.1595796522
C  C191  1  0.35795000  0.26645000  0.94515000  1.0 0.5745405082
C  C192  1  0.71309000  0.33211000  0.25319000  1.0 -0.4611587103
C  C193  1  0.56478000  0.10222000  0.03758000  1.0 -0.500991172
C  C194  1  0.84231000  0.45029000  0.33701000  1.0 -0.4799715422
C  C195  1  0.58991000  0.13629000  0.14751000  1.0 -0.4799715422
C  C196  1  0.20878000  0.77662000  0.35348000  1.0 -0.4918643262
C  C197  1  0.37311000  0.95629000  0.37081000  1.0 -0.4918643262
C  C198  1  0.34714000  0.89786000  0.28334000  1.0 -0.500991172
C  C199  1  0.67748000  0.25912000  0.05998000  1.0 -0.4746605929
C  C200  1  0.86487000  0.43133000  0.25617000  1.0 -0.500991172
C  C201  1  0.08480000  0.59540000  0.05200000  1.0 -0.2116582736
C  C202  1  0.10990000  0.63550000  0.15980000  1.0 -0.1789522818
C  C203  1  0.24970000  0.76130000  0.09040000  1.0 -0.0907062706
C  C204  1  0.18470000  0.69130000  0.05030000  1.0 -0.0907062706
C  C205  1  0.03600000  0.55600000  0.10800000  1.0 -0.0207291867
C  C206  1  0.21920000  0.74680000  0.14020000  1.0 -0.2116582736
C  C207  1  0.77398000  0.06982000  0.80828000  1.0 0.099989997
C  C208  1  0.84741000  0.15819000  0.76981000  1.0 0.0412760903
C  C209  1  0.65606000  0.00874000  0.99736000  1.0 0.0482622999
C  C210  1  0.92011000  0.25869000  0.00971000  1.0 0.1105795552
C  C211  1  0.66345000  0.02355000  0.76955000  1.0 -0.2206383189
C  C212  1  0.59078000  0.92442000  0.90628000  1.0 0.0412760903
C  C213  1  0.66006000  0.98654000  0.95676000  1.0 0.1105795552
C  C214  1  0.68218000  0.00322000  0.81068000  1.0 0.0412760903
C  C215  1  0.78323000  0.96877000  0.85573000  1.0 0.0794587571
C  C216  1  0.82362000  0.17418000  0.72992000  1.0 -0.2206383189
C  C217  1  0.97344000  0.36956000  0.94154000  1.0 -0.2206383189
C  C218  1  0.99339000  0.34801000  0.97209000  1.0 0.0482622999
C  C219  1  0.82688000  0.18992000  0.01268000  1.0 0.0482622999
C  C220  1  0.73104000  0.10616000  0.72774000  1.0 0.0617344482
C  C221  1  0.02518000  0.33322000  0.79958000  1.0 0.0412760903
C  C222  1  0.04168000  0.34472000  0.86538000  1.0 0.099989997
C  C223  1  0.57656000  0.96264000  0.98756000  1.0 -0.2283195757
C  C224  1  0.60407000  0.91213000  0.85817000  1.0 -0.2895577948
C  C225  1  0.95456000  0.24044000  0.77406000  1.0 -0.2895577948
C  C226  1  0.09232000  0.42008000  0.88932000  1.0 0.0412760903
C  C227  1  0.50451000  0.89889000  0.93721000  1.0 0.0691288018
C  C228  1  0.15023000  0.33117000  0.12273000  1.0 -0.1390242767
C  C229  1  0.81186000  0.21674000  0.98036000  1.0 -0.2206383189
C  C230  1  0.02075000  0.26125000  0.12105000  1.0 0.0794587571
C  C231  1  0.88289000  0.30491000  0.94519000  1.0 0.0235006063
C  C232  1  0.08404000  0.23896000  0.14364000  1.0 0.0617344482
C  C233  1  0.11709000  0.34051000  0.11179000  1.0 -0.147838676
C  C234  1  0.45534000  0.72066000  0.10984000  1.0 0.0691288018
C  C235  1  0.74039000  0.08701000  0.04609000  1.0 -0.2785408225
C  C236  1  0.30618000  0.40602000  0.79508000  1.0 0.5809996119
C  C237  1  0.11634000  0.25726000  0.84914000  1.0 0.0691288018
C  C238  1  0.75869000  0.91291000  0.83229000  1.0 -0.1595796522
C  C239  1  0.11214000  0.22286000  0.14844000  1.0 0.0482622999
C  C240  1  0.81156000  0.98824000  0.92006000  1.0 -0.1390242767
C  C241  1  0.13411000  0.48989000  0.84491000  1.0 -0.2206383189
C  C242  1  0.06986000  0.40694000  0.75716000  1.0 -0.2377522278
C  C243  1  0.51333000  0.88187000  0.89723000  1.0 -0.2283195757
C  C244  1  0.08989000  0.41871000  0.96029000  1.0 -0.2785408225
C  C245  1  0.20417000  0.29623000  0.78507000  1.0 -0.069186595
C  C246  1  0.78189000  0.00851000  0.81089000  1.0 -0.0774303552
C  C247  1  0.32748000  0.57192000  0.19108000  1.0 -0.0594875801
C  C248  1  0.70141000  0.12059000  0.68161000  1.0 0.2785256852
C  C249  1  0.09126000  0.29574000  0.91236000  1.0 0.0794587571
C  C250  1  0.35984000  0.63356000  0.14004000  1.0 0.0482622999
C  C251  1  0.38146000  0.58194000  0.21016000  1.0 0.5809996119
C  C252  1  0.95686000  0.17114000  0.14456000  1.0 -0.1595796522
C  C253  1  0.54450000  0.80970000  0.14060000  1.0 -0.1390242767
C  C254  1  0.13975000  0.34705000  0.85495000  1.0 -0.1304040627
C  C255  1  0.11865000  0.22835000  0.81255000  1.0 0.0482622999
C  C256  1  0.63651000  0.89369000  0.04661000  1.0 0.0691288018
C  C257  1  0.78387000  0.89333000  0.94047000  1.0 0.0691288018
C  C258  1  0.63332000  0.89448000  0.10952000  1.0 -0.1595796522
C  C259  1  0.15167000  0.32833000  0.82357000  1.0 -0.1207347159
C  C260  1  0.19627000  0.26033000  0.74877000  1.0 -0.1012678515
C  C261  1  0.81077000  0.95063000  0.96117000  1.0 -0.1207347159
C  C262  1  0.20785000  0.29355000  0.17285000  1.0 -0.0534311037
C  C263  1  0.29285000  0.39475000  0.19605000  1.0 0.5856140975
C  C264  1  0.98860000  0.16060000  0.15470000  1.0 -0.147838676
C  C265  1  0.76027000  0.87673000  0.87507000  1.0 -0.1390242767
C  C266  1  0.24038000  0.49682000  0.21978000  1.0 -0.1304040627
C  C267  1  0.18296000  0.47764000  0.19946000  1.0 -0.1107598521
C  C268  1  0.98342000  0.26958000  0.10402000  1.0 -0.0774303552
C  C269  1  0.86247000  0.33033000  0.90937000  1.0 0.1298883633
C  C270  1  0.73007000  0.98573000  0.00957000  1.0 -0.069186595
C  C271  1  0.07242000  0.31058000  0.94462000  1.0 -0.0774303552
C  C272  1  0.12595000  0.48625000  0.77875000  1.0 0.0691288018
C  C273  1  0.05992000  0.22848000  0.93822000  1.0 -0.1390242767
C  C274  1  0.54750000  0.80350000  0.01700000  1.0 -0.1304040627
C  C275  1  0.45839000  0.71881000  0.04789000  1.0 -0.1207347159
C  C276  1  0.07144000  0.20936000  0.90894000  1.0 -0.1304040627
C  C277  1  0.10504000  0.15796000  0.73984000  1.0 -0.1012678515
C  C278  1  0.06713000  0.11707000  0.12973000  1.0 -0.1012678515
C  C279  1  0.04550000  0.13630000  0.12600000  1.0 -0.147838676
C  C280  1  0.22707000  0.27173000  0.17587000  1.0 -0.1107598521
C  C281  1  0.17379000  0.56701000  0.73229000  1.0 0.2655627765
C  C282  1  0.21125000  0.53335000  0.15025000  1.0 -0.1107598521
C  C283  1  0.41798000  0.85042000  0.92578000  1.0 0.2645562414
C  C284  1  0.29872000  0.61028000  0.12042000  1.0 -0.147838676
C  C285  1  0.02829000  0.12651000  0.80359000  1.0 -0.1595796522
C  C286  1  0.02356000  0.09344000  0.76656000  1.0 -0.0907062706
C  C287  1  0.15879000  0.18461000  0.15569000  1.0 -0.1012678515
C  C288  1  0.78806000  0.85634000  0.99036000  1.0 0.0617344482
C  C289  1  0.73124000  0.79296000  0.04464000  1.0 -0.0774303552
C  C290  1  0.74810000  0.77150000  0.08890000  1.0 -0.1012678515
C  C291  1  0.82178000  0.81342000  0.07878000  1.0 -0.1107598521
C  C292  1  0.87860000  0.87680000  0.02450000  1.0 -0.1012678515
C  C293  1  0.86174000  0.89826000  0.98024000  1.0 -0.1595796522
C  C294  1  0.64205000  0.73355000  0.05485000  1.0 0.5745405082
C  C295  1  0.28691000  0.66789000  0.74681000  1.0 -0.4611587103
C  C296  1  0.43522000  0.89778000  0.96242000  1.0 -0.500991172
C  C297  1  0.15769000  0.54971000  0.66299000  1.0 -0.4799715422
C  C298  1  0.41009000  0.86371000  0.85249000  1.0 -0.4799715422
C  C299  1  0.79122000  0.22338000  0.64652000  1.0 -0.4918643262
C  C300  1  0.62689000  0.04371000  0.62919000  1.0 -0.4918643262
C  C301  1  0.65286000  0.10214000  0.71666000  1.0 -0.500991172
C  C302  1  0.32252000  0.74088000  0.94002000  1.0 -0.4799715422
C  C303  1  0.13513000  0.56867000  0.74383000  1.0 -0.500991172
C  C304  1  0.91520000  0.40460000  0.94800000  1.0 -0.2116582736
C  C305  1  0.89010000  0.36450000  0.84020000  1.0 -0.1789522818
C  C306  1  0.75030000  0.23870000  0.90960000  1.0 -0.0907062706
C  C307  1  0.81530000  0.30870000  0.94970000  1.0 -0.0907062706
C  C308  1  0.96400000  0.44400000  0.89200000  1.0 -0.0207291867
C  C309  1  0.78080000  0.25320000  0.85980000  1.0 -0.2116582736
C  C310  1  0.93018000  0.22602000  0.30828000  1.0 0.099989997
C  C311  1  0.84181000  0.15259000  0.26981000  1.0 0.0482622999
C  C312  1  0.99126000  0.34394000  0.49736000  1.0 0.0482622999
C  C313  1  0.74131000  0.07989000  0.50971000  1.0 0.1105795552
C  C314  1  0.97645000  0.33655000  0.26955000  1.0 -0.2206383189
C  C315  1  0.07558000  0.40922000  0.40628000  1.0 0.0412760903
C  C316  1  0.01346000  0.33994000  0.45676000  1.0 0.1105795552
C  C317  1  0.99678000  0.31782000  0.31068000  1.0 0.0412760903
C  C318  1  0.03123000  0.21677000  0.35573000  1.0 0.0794587571
C  C319  1  0.82582000  0.17638000  0.22992000  1.0 -0.2206383189
C  C320  1  0.63044000  0.02656000  0.44154000  1.0 -0.2283195757
C  C321  1  0.65199000  0.00661000  0.47209000  1.0 0.0482622999
C  C322  1  0.81008000  0.17312000  0.51268000  1.0 0.0482622999
C  C323  1  0.89384000  0.26896000  0.22774000  1.0 0.0691288018
C  C324  1  0.66678000  0.97482000  0.29958000  1.0 0.0412760903
C  C325  1  0.65528000  0.95832000  0.36538000  1.0 0.099989997
C  C326  1  0.03736000  0.42344000  0.48756000  1.0 -0.2283195757
C  C327  1  0.08787000  0.39593000  0.35817000  1.0 -0.2895577948
C  C328  1  0.75956000  0.04544000  0.27406000  1.0 -0.2895577948
C  C329  1  0.57992000  0.90768000  0.38932000  1.0 0.0412760903
C  C330  1  0.10111000  0.49549000  0.43721000  1.0 0.0691288018
C  C331  1  0.66883000  0.84977000  0.62273000  1.0 -0.1390242767
C  C332  1  0.78326000  0.18814000  0.48036000  1.0 -0.2206383189
C  C333  1  0.73875000  0.97925000  0.62105000  1.0 0.0794587571
C  C334  1  0.69509000  0.11711000  0.44519000  1.0 0.0235006063
C  C335  1  0.76104000  0.91596000  0.64364000  1.0 0.0617344482
C  C336  1  0.65949000  0.88291000  0.61179000  1.0 -0.147838676
C  C337  1  0.27934000  0.54466000  0.60984000  1.0 0.0691288018
C  C338  1  0.91299000  0.25961000  0.54609000  1.0 -0.2785408225
C  C339  1  0.59398000  0.69382000  0.29508000  1.0 0.5809996119
C  C340  1  0.74274000  0.88366000  0.34914000  1.0 0.0691288018
C  C341  1  0.08709000  0.24131000  0.33229000  1.0 -0.1595796522
C  C342  1  0.77714000  0.88786000  0.64844000  1.0 0.0482622999
C  C343  1  0.01176000  0.18844000  0.42006000  1.0 -0.1390242767
C  C344  1  0.51011000  0.86589000  0.34491000  1.0 -0.2206383189
C  C345  1  0.59306000  0.93014000  0.25716000  1.0 -0.2377522278
C  C346  1  0.11813000  0.48667000  0.39723000  1.0 -0.2283195757
C  C347  1  0.58129000  0.91011000  0.46029000  1.0 -0.2785408225
C  C348  1  0.70377000  0.79583000  0.28507000  1.0 -0.069186595
C  C349  1  0.99149000  0.21811000  0.31089000  1.0 -0.0774303552
C  C350  1  0.42808000  0.67252000  0.69108000  1.0 -0.0594875801
C  C351  1  0.87941000  0.29859000  0.18161000  1.0 0.2785256852
C  C352  1  0.70426000  0.90874000  0.41236000  1.0 0.0794587571
C  C353  1  0.36644000  0.64016000  0.64004000  1.0 0.0482622999
C  C354  1  0.41806000  0.61854000  0.71016000  1.0 0.5809996119
C  C355  1  0.82886000  0.04314000  0.64456000  1.0 -0.1595796522
C  C356  1  0.19030000  0.45550000  0.64060000  1.0 -0.1390242767
C  C357  1  0.65295000  0.86025000  0.35495000  1.0 -0.1304040627
C  C358  1  0.77165000  0.88135000  0.31255000  1.0 0.0482622999
C  C359  1  0.10631000  0.36349000  0.54661000  1.0 0.0691288018
C  C360  1  0.10667000  0.21613000  0.44047000  1.0 0.0691288018
C  C361  1  0.10552000  0.36668000  0.60952000  1.0 -0.1595796522
C  C362  1  0.67167000  0.84833000  0.32357000  1.0 -0.1207347159
C  C363  1  0.73967000  0.80373000  0.24877000  1.0 -0.1012678515
C  C364  1  0.04937000  0.18923000  0.46117000  1.0 -0.1207347159
C  C365  1  0.70645000  0.79215000  0.67285000  1.0 -0.0534311037
C  C366  1  0.60525000  0.70715000  0.69605000  1.0 0.5856140975
C  C367  1  0.83940000  0.01140000  0.65470000  1.0 -0.147838676
C  C368  1  0.12327000  0.23973000  0.37507000  1.0 -0.1304040627
C  C369  1  0.50318000  0.75962000  0.71978000  1.0 -0.1304040627
C  C370  1  0.52236000  0.81704000  0.69946000  1.0 -0.1107598521
C  C371  1  0.73042000  0.01658000  0.60402000  1.0 -0.0774303552
C  C372  1  0.66967000  0.13753000  0.40937000  1.0 0.1298883633
C  C373  1  0.01427000  0.26993000  0.50957000  1.0 -0.069186595
C  C374  1  0.68942000  0.92758000  0.44462000  1.0 -0.0774303552
C  C375  1  0.51375000  0.87405000  0.27875000  1.0 0.0691288018
C  C376  1  0.77152000  0.94008000  0.43822000  1.0 -0.1390242767
C  C377  1  0.19650000  0.45250000  0.51700000  1.0 -0.1304040627
C  C378  1  0.28119000  0.54161000  0.54789000  1.0 -0.1207347159
C  C379  1  0.79064000  0.92856000  0.40894000  1.0 -0.1304040627
C  C380  1  0.84204000  0.89496000  0.23984000  1.0 -0.1012678515
C  C381  1  0.88293000  0.93287000  0.62973000  1.0 -0.1012678515
C  C382  1  0.86370000  0.95450000  0.62600000  1.0 -0.147838676
C  C383  1  0.72827000  0.77293000  0.67587000  1.0 -0.1107598521
C  C384  1  0.43299000  0.82621000  0.23229000  1.0 0.2655627765
C  C385  1  0.46665000  0.78875000  0.65025000  1.0 -0.1107598521
C  C386  1  0.14958000  0.58202000  0.42578000  1.0 0.2655627765
C  C387  1  0.38972000  0.70128000  0.62042000  1.0 -0.147838676
C  C388  1  0.87349000  0.97171000  0.30359000  1.0 -0.1595796522
C  C389  1  0.90656000  0.97644000  0.26656000  1.0 -0.1012678515
C  C390  1  0.81539000  0.84121000  0.65569000  1.0 -0.1012678515
C  C391  1  0.14366000  0.21194000  0.49036000  1.0 0.0691288018
C  C392  1  0.20704000  0.26876000  0.54464000  1.0 -0.0774303552
C  C393  1  0.22850000  0.25190000  0.58890000  1.0 -0.1012678515
C  C394  1  0.18658000  0.17822000  0.57878000  1.0 -0.1107598521
C  C395  1  0.12320000  0.12140000  0.52450000  1.0 -0.1012678515
C  C396  1  0.10174000  0.13826000  0.48024000  1.0 -0.1595796522
C  C397  1  0.26645000  0.35795000  0.55485000  1.0 0.5809996119
C  C398  1  0.33211000  0.71309000  0.24681000  1.0 -0.4611587103
C  C399  1  0.10222000  0.56478000  0.46242000  1.0 -0.500991172
C  C400  1  0.45029000  0.84231000  0.16299000  1.0 -0.4799715422
C  C401  1  0.13629000  0.58991000  0.35249000  1.0 -0.4799715422
C  C402  1  0.77662000  0.20878000  0.14652000  1.0 -0.4918643262
C  C403  1  0.95629000  0.37311000  0.12919000  1.0 -0.4918643262
C  C404  1  0.89786000  0.34714000  0.21666000  1.0 -0.500991172
C  C405  1  0.25912000  0.67748000  0.44002000  1.0 -0.4746605929
C  C406  1  0.43133000  0.86487000  0.24383000  1.0 -0.500991172
C  C407  1  0.59540000  0.08480000  0.44800000  1.0 -0.2116582736
C  C408  1  0.63550000  0.10990000  0.34020000  1.0 -0.1789522818
C  C409  1  0.76130000  0.24970000  0.40960000  1.0 -0.0907062706
C  C410  1  0.69130000  0.18470000  0.44970000  1.0 -0.0907062706
C  C411  1  0.55600000  0.03600000  0.39200000  1.0 -0.0207291867
C  C412  1  0.74680000  0.21920000  0.35980000  1.0 -0.2116582736
O  O1  1  0.04769000  0.79211000  0.65405000  1.0 -0.1789522818
O  O2  1  0.23426000  0.93754000  0.46003000  1.0 -0.1947011527
O  O3  1  0.03128000  0.73872000  0.53486000  1.0 -0.1789522818
O  O4  1  0.27341000  0.99959000  0.59219000  1.0 -0.2008370286
O  O5  1  0.46585000  0.36655000  0.74936000  1.0 -0.5803299051
O  O6  1  0.43755000  0.33185000  0.65254000  1.0 -0.500991172
O  O7  1  0.60380000  0.41820000  0.33310000  1.0 -0.5484571707
O  O8  1  0.46875000  0.36745000  0.33795000  1.0 -0.5484571707
O  O9  1  0.56299000  0.38161000  0.23159000  1.0 -0.5484571707
O  O10  1  0.39737000  0.28423000  0.25297000  1.0 -0.5587976452
O  O11  1  0.69880000  0.61080000  0.38980000  1.0 -0.5803299051
O  O12  1  0.72035000  0.60125000  0.49365000  1.0 -0.5484571707
O  O13  1  0.20789000  0.95231000  0.15405000  1.0 -0.1789522818
O  O14  1  0.06246000  0.76574000  0.96003000  1.0 -0.2008370286
O  O15  1  0.26128000  0.96872000  0.03486000  1.0 -0.1789522818
O  O16  1  0.00041000  0.72659000  0.09219000  1.0 -0.2008370286
O  O17  1  0.63345000  0.53415000  0.24936000  1.0 -0.5803299051
O  O18  1  0.66815000  0.56245000  0.15254000  1.0 -0.500991172
O  O19  1  0.58180000  0.39620000  0.83310000  1.0 -0.5484571707
O  O20  1  0.63255000  0.53125000  0.83795000  1.0 -0.5484571707
O  O21  1  0.61839000  0.43701000  0.73159000  1.0 -0.5484571707
O  O22  1  0.71577000  0.60263000  0.75297000  1.0 -0.5587976452
O  O23  1  0.38920000  0.30120000  0.88980000  1.0 -0.5803299051
O  O24  1  0.39875000  0.27965000  0.99365000  1.0 -0.5484571707
O  O25  1  0.79211000  0.04769000  0.84595000  1.0 -0.1789522818
O  O26  1  0.93754000  0.23426000  0.03997000  1.0 -0.2008370286
O  O27  1  0.73872000  0.03128000  0.96514000  1.0 -0.1789522818
O  O28  1  0.99959000  0.27341000  0.90781000  1.0 -0.2008370286
O  O29  1  0.36655000  0.46585000  0.75064000  1.0 -0.5803299051
O  O30  1  0.33185000  0.43755000  0.84746000  1.0 -0.500991172
O  O31  1  0.41820000  0.60380000  0.16690000  1.0 -0.5484571707
O  O32  1  0.36745000  0.46875000  0.16205000  1.0 -0.5484571707
O  O33  1  0.38161000  0.56299000  0.26841000  1.0 -0.5484571707
O  O34  1  0.28423000  0.39737000  0.24703000  1.0 -0.5587976452
O  O35  1  0.61080000  0.69880000  0.11020000  1.0 -0.5803299051
O  O36  1  0.60125000  0.72035000  0.00635000  1.0 -0.5484571707
O  O37  1  0.95231000  0.20789000  0.34595000  1.0 -0.1789522818
O  O38  1  0.76574000  0.06246000  0.53997000  1.0 -0.1947011527
O  O39  1  0.96872000  0.26128000  0.46514000  1.0 -0.1789522818
O  O40  1  0.72659000  0.00041000  0.40781000  1.0 -0.2008370286
O  O41  1  0.53415000  0.63345000  0.25064000  1.0 -0.5803299051
O  O42  1  0.56245000  0.66815000  0.34746000  1.0 -0.500991172
O  O43  1  0.39620000  0.58180000  0.66690000  1.0 -0.5484571707
O  O44  1  0.53125000  0.63255000  0.66205000  1.0 -0.5484571707
O  O45  1  0.43701000  0.61839000  0.76841000  1.0 -0.5484571707
O  O46  1  0.60263000  0.71577000  0.74703000  1.0 -0.5587976452
O  O47  1  0.30120000  0.38920000  0.61020000  1.0 -0.5803299051
O  O48  1  0.27965000  0.39875000  0.50635000  1.0 -0.5484571707
