# DDEC6 charges by PACMAN v1.1 (https://github.com/mtap-research/PACMAN-charge/)
data_SAJJOF_FSR_pacman
_symmetry_space_group_name_H-M   'P 1'
_cell_length_a   11.42210000
_cell_length_b   21.27420000
_cell_length_c   19.06470000
_cell_angle_alpha   90.00000000
_cell_angle_beta   95.41920000
_cell_angle_gamma   90.00000000
_symmetry_Int_Tables_number   1
_chemical_formula_structural   ZnH32C41N3O8
_chemical_formula_sum   'Zn4 H128 C164 N12 O32'
_cell_volume   4611.94039667
_cell_formula_units_Z   4
loop_
 _symmetry_equiv_pos_site_id
 _symmetry_equiv_pos_as_xyz
  1  'x, y, z'
loop_
 _atom_site_type_symbol
 _atom_site_label
 _atom_site_symmetry_multiplicity
 _atom_site_fract_x
 _atom_site_fract_y
 _atom_site_fract_z
 _atom_site_occupancy
 _atom_site_charge
Zn  Zn1  1  0.38434000  0.01347000  0.91516000  1.0 0.8546557416
Zn  Zn2  1  0.61566000  0.51347000  0.58484000  1.0 0.8551789512
Zn  Zn3  1  0.61566000  0.98653000  0.08484000  1.0 0.8551789512
Zn  Zn4  1  0.38434000  0.48653000  0.41516000  1.0 0.8546557416
H  H1  1  0.79913000  0.13717000  0.52460000  1.0 0.283672898
H  H2  1  0.20087000  0.63717000  0.97540000  1.0 0.283672898
H  H3  1  0.20087000  0.86283000  0.47540000  1.0 0.283672898
H  H4  1  0.79913000  0.36283000  0.02460000  1.0 0.283672898
H  H5  1  0.02714000  0.11511000  0.78237000  1.0 0.1298994472
H  H6  1  0.97286000  0.61511000  0.71763000  1.0 0.1298994472
H  H7  1  0.97286000  0.88489000  0.21763000  1.0 0.1298994472
H  H8  1  0.02714000  0.38489000  0.28237000  1.0 0.1298994472
H  H9  1  0.72385000  0.10074000  0.87461000  1.0 0.1096717845
H  H10  1  0.27615000  0.60074000  0.62539000  1.0 0.1096717845
H  H11  1  0.27615000  0.89926000  0.12539000  1.0 0.1096717845
H  H12  1  0.72385000  0.39926000  0.37461000  1.0 0.1096717845
H  H13  1  0.82882000  0.06633000  0.97828000  1.0 0.1298994472
H  H14  1  0.17118000  0.56633000  0.52172000  1.0 0.1298994472
H  H15  1  0.17118000  0.93367000  0.02172000  1.0 0.1298994472
H  H16  1  0.82882000  0.43367000  0.47828000  1.0 0.1298994472
H  H17  1  0.03168000  0.05304000  0.98324000  1.0 0.1198236569
H  H18  1  0.96832000  0.55304000  0.51676000  1.0 0.1198236569
H  H19  1  0.96832000  0.94696000  0.01676000  1.0 0.1198236569
H  H20  1  0.03168000  0.44696000  0.48324000  1.0 0.1198236569
H  H21  1  0.59760000  0.24384000  0.70446000  1.0 0.1096717845
H  H22  1  0.40240000  0.74384000  0.79554000  1.0 0.1096717845
H  H23  1  0.40240000  0.75616000  0.29554000  1.0 0.1198236569
H  H24  1  0.59760000  0.25616000  0.20446000  1.0 0.1096717845
H  H25  1  0.69025000  0.19532000  0.80230000  1.0 0.1007144085
H  H26  1  0.30975000  0.69532000  0.69770000  1.0 0.1007144085
H  H27  1  0.30975000  0.80468000  0.19770000  1.0 0.1007144085
H  H28  1  0.69025000  0.30468000  0.30230000  1.0 0.1007144085
H  H29  1  0.57119000  0.15215000  0.51448000  1.0 0.1096717845
H  H30  1  0.42881000  0.65215000  0.98552000  1.0 0.1096717845
H  H31  1  0.42881000  0.84785000  0.48552000  1.0 0.1096717845
H  H32  1  0.57119000  0.34785000  0.01448000  1.0 0.1096717845
H  H33  1  0.47526000  0.20141000  0.41587000  1.0 0.1007144085
H  H34  1  0.52474000  0.70141000  0.08413000  1.0 0.1007144085
H  H35  1  0.52474000  0.79859000  0.58413000  1.0 0.1007144085
H  H36  1  0.47526000  0.29859000  0.91587000  1.0 0.1007144085
H  H37  1  0.45974000  0.31040000  0.41217000  1.0 0.1198236569
H  H38  1  0.54026000  0.81040000  0.08783000  1.0 0.1198236569
H  H39  1  0.54026000  0.68960000  0.58783000  1.0 0.1198236569
H  H40  1  0.45974000  0.18960000  0.91217000  1.0 0.1198236569
H  H41  1  0.65653000  0.32138000  0.59952000  1.0 0.1198236569
H  H42  1  0.34347000  0.82138000  0.90048000  1.0 0.1198236569
H  H43  1  0.34347000  0.67862000  0.40048000  1.0 0.1198236569
H  H44  1  0.65653000  0.17862000  0.09952000  1.0 0.1198236569
H  H45  1  0.94910000  0.96274000  0.60829000  1.0 0.1198236569
H  H46  1  0.05090000  0.46274000  0.89171000  1.0 0.1198236569
H  H47  1  0.05090000  0.03726000  0.39171000  1.0 0.1198236569
H  H48  1  0.94910000  0.53726000  0.10829000  1.0 0.1198236569
H  H49  1  0.97231000  0.10569000  0.46996000  1.0 0.1096717845
H  H50  1  0.02769000  0.60569000  0.03004000  1.0 0.1096717845
H  H51  1  0.02769000  0.89431000  0.53004000  1.0 0.1096717845
H  H52  1  0.97231000  0.39431000  0.96996000  1.0 0.1096717845
H  H53  1  0.68438000  0.87523000  0.65936000  1.0 0.1096717845
H  H54  1  0.31562000  0.37523000  0.84064000  1.0 0.1096717845
H  H55  1  0.31562000  0.12477000  0.34064000  1.0 0.1096717845
H  H56  1  0.68438000  0.62477000  0.15936000  1.0 0.1096717845
H  H57  1  0.57743000  0.04876000  0.59165000  1.0 0.1298994472
H  H58  1  0.42257000  0.54876000  0.90835000  1.0 0.1298994472
H  H59  1  0.42257000  0.95124000  0.40835000  1.0 0.1298994472
H  H60  1  0.57743000  0.45124000  0.09165000  1.0 0.1298994472
H  H61  1  0.73279000  0.93199000  0.46078000  1.0 0.1556126316
H  H62  1  0.26721000  0.43199000  0.03922000  1.0 0.1556126316
H  H63  1  0.26721000  0.06801000  0.53922000  1.0 0.1549669792
H  H64  1  0.73279000  0.56801000  0.96078000  1.0 0.1556126316
H  H65  1  0.77611000  0.02392000  0.41433000  1.0 0.1096717845
H  H66  1  0.22389000  0.52392000  0.08567000  1.0 0.1096717845
H  H67  1  0.22389000  0.97608000  0.58567000  1.0 0.1096717845
H  H68  1  0.77611000  0.47608000  0.91433000  1.0 0.1096717845
H  H69  1  0.64756000  0.01010000  0.37549000  1.0 0.1007144085
H  H70  1  0.35244000  0.51010000  0.12451000  1.0 0.1007144085
H  H71  1  0.35244000  0.98990000  0.62451000  1.0 0.1007144085
H  H72  1  0.64756000  0.48990000  0.87549000  1.0 0.1007144085
H  H73  1  0.61230000  0.12129000  0.37159000  1.0 0.1007144085
H  H74  1  0.38770000  0.62129000  0.12841000  1.0 0.1007144085
H  H75  1  0.38770000  0.87871000  0.62841000  1.0 0.1007144085
H  H76  1  0.61230000  0.37871000  0.87159000  1.0 0.1007144085
H  H77  1  0.71705000  0.10100000  0.32579000  1.0 0.1096717845
H  H78  1  0.28295000  0.60100000  0.17421000  1.0 0.1096717845
H  H79  1  0.28295000  0.89900000  0.67421000  1.0 0.1096717845
H  H80  1  0.71705000  0.39900000  0.82579000  1.0 0.1096717845
H  H81  1  0.79689000  0.19815000  0.33540000  1.0 0.1096717845
H  H82  1  0.20311000  0.69815000  0.16460000  1.0 0.1096717845
H  H83  1  0.20311000  0.80185000  0.66460000  1.0 0.1096717845
H  H84  1  0.79689000  0.30185000  0.83540000  1.0 0.1096717845
H  H85  1  0.71052000  0.22737000  0.38848000  1.0 0.1007144085
H  H86  1  0.28948000  0.72737000  0.11152000  1.0 0.1007144085
H  H87  1  0.28948000  0.77263000  0.61152000  1.0 0.1007144085
H  H88  1  0.71052000  0.27263000  0.88848000  1.0 0.1007144085
H  H89  1  0.87719000  0.23638000  0.47482000  1.0 0.1096717845
H  H90  1  0.12281000  0.73638000  0.02518000  1.0 0.1096717845
H  H91  1  0.12281000  0.76362000  0.52518000  1.0 0.1096717845
H  H92  1  0.87719000  0.26362000  0.97482000  1.0 0.1096717845
H  H93  1  0.88546000  0.28098000  0.40746000  1.0 0.1007144085
H  H94  1  0.11454000  0.78098000  0.09254000  1.0 0.0935888579
H  H95  1  0.11454000  0.71902000  0.59254000  1.0 0.1007144085
H  H96  1  0.88546000  0.21902000  0.90746000  1.0 0.1007144085
H  H97  1  0.08683000  0.28119000  0.39757000  1.0 0.1007144085
H  H98  1  0.91317000  0.78119000  0.10243000  1.0 0.1007144085
H  H99  1  0.91317000  0.71881000  0.60243000  1.0 0.1007144085
H  H100  1  0.08683000  0.21881000  0.89757000  1.0 0.1007144085
H  H101  1  0.10265000  0.25100000  0.47512000  1.0 0.1096717845
H  H102  1  0.89735000  0.75100000  0.02488000  1.0 0.1096717845
H  H103  1  0.89735000  0.74900000  0.52488000  1.0 0.1096717845
H  H104  1  0.10265000  0.24900000  0.97512000  1.0 0.1096717845
H  H105  1  0.82727000  0.81759000  0.64190000  1.0 0.1096717845
H  H106  1  0.17273000  0.31759000  0.85810000  1.0 0.1096717845
H  H107  1  0.17273000  0.18241000  0.35810000  1.0 0.1096717845
H  H108  1  0.82727000  0.68241000  0.14190000  1.0 0.1096717845
H  H109  1  0.73783000  0.76894000  0.60072000  1.0 0.1096717845
H  H110  1  0.26217000  0.26894000  0.89928000  1.0 0.1096717845
H  H111  1  0.26217000  0.23106000  0.39928000  1.0 0.1096717845
H  H112  1  0.73783000  0.73106000  0.10072000  1.0 0.1096717845
H  H113  1  0.55373000  0.88522000  0.73255000  1.0 0.1298994472
H  H114  1  0.44627000  0.38522000  0.76745000  1.0 0.1298994472
H  H115  1  0.44627000  0.11478000  0.26745000  1.0 0.1298994472
H  H116  1  0.55373000  0.61478000  0.23255000  1.0 0.1298994472
H  H117  1  0.45952000  0.90528000  0.83038000  1.0 0.1096717845
H  H118  1  0.54048000  0.40528000  0.66962000  1.0 0.1096717845
H  H119  1  0.54048000  0.09472000  0.16962000  1.0 0.1096717845
H  H120  1  0.45952000  0.59472000  0.33038000  1.0 0.1096717845
H  H121  1  0.48126000  0.08731000  0.80105000  1.0 0.1198236569
H  H122  1  0.51874000  0.58731000  0.69895000  1.0 0.1198236569
H  H123  1  0.51874000  0.91269000  0.19895000  1.0 0.1198236569
H  H124  1  0.48126000  0.41269000  0.30105000  1.0 0.1198236569
H  H125  1  0.57620000  0.07274000  0.70200000  1.0 0.1298994472
H  H126  1  0.42380000  0.57274000  0.79800000  1.0 0.1298994472
H  H127  1  0.42380000  0.92726000  0.29800000  1.0 0.1298994472
H  H128  1  0.57620000  0.42726000  0.20200000  1.0 0.1298994472
C  C1  1  0.18000000  0.07170000  0.88370000  1.0 0.5532880714
C  C2  1  0.82000000  0.57170000  0.61630000  1.0 0.5532880714
C  C3  1  0.82000000  0.92830000  0.11630000  1.0 0.5532880714
C  C4  1  0.18000000  0.42830000  0.38370000  1.0 0.5532880714
C  C5  1  0.04960000  0.08273000  0.88400000  1.0 -0.0212642039
C  C6  1  0.95040000  0.58273000  0.61600000  1.0 -0.0212642039
C  C7  1  0.95040000  0.91727000  0.11600000  1.0 -0.0212642039
C  C8  1  0.04960000  0.41727000  0.38400000  1.0 -0.0212642039
C  C9  1  0.98640000  0.10512000  0.82213000  1.0 -0.1598154739
C  C10  1  0.01360000  0.60512000  0.67787000  1.0 -0.1598154739
C  C11  1  0.01360000  0.89488000  0.17787000  1.0 -0.1598154739
C  C12  1  0.98640000  0.39488000  0.32213000  1.0 -0.1598154739
C  C13  1  0.86500000  0.11283000  0.81850000  1.0 0.0785565766
C  C14  1  0.13500000  0.61283000  0.68150000  1.0 0.0785565766
C  C15  1  0.13500000  0.88717000  0.18150000  1.0 0.0785565766
C  C16  1  0.86500000  0.38717000  0.31850000  1.0 0.0785565766
C  C17  1  0.80700000  0.09700000  0.87680000  1.0 -0.1598154739
C  C18  1  0.19300000  0.59700000  0.62320000  1.0 -0.1598154739
C  C19  1  0.19300000  0.90300000  0.12320000  1.0 -0.1598154739
C  C20  1  0.80700000  0.40300000  0.37680000  1.0 -0.1598154739
C  C21  1  0.86920000  0.07580000  0.93820000  1.0 -0.08796974
C  C22  1  0.13080000  0.57580000  0.56180000  1.0 -0.08796974
C  C23  1  0.13080000  0.92420000  0.06180000  1.0 -0.08796974
C  C24  1  0.86920000  0.42420000  0.43820000  1.0 -0.08796974
C  C25  1  0.98980000  0.06830000  0.94130000  1.0 -0.1131876596
C  C26  1  0.01020000  0.56830000  0.55870000  1.0 -0.1131876596
C  C27  1  0.01020000  0.93170000  0.05870000  1.0 -0.1131876596
C  C28  1  0.98980000  0.43170000  0.44130000  1.0 -0.1131876596
C  C29  1  0.80050000  0.13936000  0.75378000  1.0 0.0105150285
C  C30  1  0.19950000  0.63936000  0.74622000  1.0 0.0105150285
C  C31  1  0.19950000  0.86064000  0.24622000  1.0 0.0105150285
C  C32  1  0.80050000  0.36064000  0.25378000  1.0 0.0105150285
C  C33  1  0.82670000  0.12347000  0.68568000  1.0 0.0785565766
C  C34  1  0.17330000  0.62347000  0.81432000  1.0 0.0785565766
C  C35  1  0.17330000  0.87653000  0.31432000  1.0 0.0785565766
C  C36  1  0.82670000  0.37653000  0.18568000  1.0 0.0785565766
C  C37  1  0.76970000  0.15346000  0.62633000  1.0 0.0785565766
C  C38  1  0.23030000  0.65346000  0.87367000  1.0 0.0785565766
C  C39  1  0.23030000  0.84654000  0.37367000  1.0 0.0785565766
C  C40  1  0.76970000  0.34654000  0.12633000  1.0 0.0785565766
C  C41  1  0.68390000  0.19998000  0.63085000  1.0 -0.0122466964
C  C42  1  0.31610000  0.69998000  0.86915000  1.0 -0.0122466964
C  C43  1  0.31610000  0.80002000  0.36915000  1.0 -0.0122466964
C  C44  1  0.68390000  0.30002000  0.13085000  1.0 -0.0122466964
C  C45  1  0.65670000  0.21348000  0.69820000  1.0 -0.1814439336
C  C46  1  0.34330000  0.71348000  0.80180000  1.0 -0.1814439336
C  C47  1  0.34330000  0.78652000  0.30180000  1.0 -0.1814439336
C  C48  1  0.65670000  0.28652000  0.19820000  1.0 -0.1814439336
C  C49  1  0.71290000  0.18414000  0.75730000  1.0 -0.2003023721
C  C50  1  0.28710000  0.68414000  0.74270000  1.0 -0.2003023721
C  C51  1  0.28710000  0.81586000  0.24270000  1.0 -0.2003023721
C  C52  1  0.71290000  0.31586000  0.25730000  1.0 -0.2003023721
C  C53  1  0.62350000  0.23127000  0.56723000  1.0 0.0785565766
C  C54  1  0.37650000  0.73127000  0.93277000  1.0 0.0785565766
C  C55  1  0.37650000  0.76873000  0.43277000  1.0 0.0785565766
C  C56  1  0.62350000  0.26873000  0.06723000  1.0 0.0785565766
C  C57  1  0.56880000  0.19675000  0.51230000  1.0 -0.1388949712
C  C58  1  0.43120000  0.69675000  0.98770000  1.0 -0.1487696082
C  C59  1  0.43120000  0.80325000  0.48770000  1.0 -0.1487696082
C  C60  1  0.56880000  0.30325000  0.01230000  1.0 -0.1388949712
C  C61  1  0.51020000  0.22601000  0.45380000  1.0 -0.1131876596
C  C62  1  0.48980000  0.72601000  0.04620000  1.0 -0.1131876596
C  C63  1  0.48980000  0.77399000  0.54620000  1.0 -0.1131876596
C  C64  1  0.51020000  0.27399000  0.95380000  1.0 -0.1131876596
C  C65  1  0.50290000  0.29041000  0.45100000  1.0 -0.1388949712
C  C66  1  0.49710000  0.79041000  0.04900000  1.0 -0.1388949712
C  C67  1  0.49710000  0.70959000  0.54900000  1.0 -0.1388949712
C  C68  1  0.50290000  0.20959000  0.95100000  1.0 -0.1388949712
C  C69  1  0.55870000  0.32611000  0.50507000  1.0 -0.0212642039
C  C70  1  0.44130000  0.82611000  0.99493000  1.0 -0.0212642039
C  C71  1  0.44130000  0.67389000  0.49493000  1.0 -0.0212642039
C  C72  1  0.55870000  0.17389000  0.00507000  1.0 -0.0212642039
C  C73  1  0.61840000  0.29665000  0.56264000  1.0 -0.1722841273
C  C74  1  0.38160000  0.79665000  0.93736000  1.0 -0.1722841273
C  C75  1  0.38160000  0.70335000  0.43736000  1.0 -0.1722841273
C  C76  1  0.61840000  0.20335000  0.06264000  1.0 -0.1722841273
C  C77  1  0.54840000  0.39643000  0.50220000  1.0 0.5893852701
C  C78  1  0.45160000  0.89643000  0.99780000  1.0 0.5893852701
C  C79  1  0.45160000  0.60357000  0.49780000  1.0 0.5893852701
C  C80  1  0.54840000  0.10357000  0.00220000  1.0 0.5893852701
C  C81  1  0.89390000  0.08233000  0.59457000  1.0 0.3012783592
C  C82  1  0.10610000  0.58233000  0.90543000  1.0 0.3012783592
C  C83  1  0.10610000  0.91767000  0.40543000  1.0 0.3012783592
C  C84  1  0.89390000  0.41767000  0.09457000  1.0 0.3012783592
C  C85  1  0.95220000  0.04083000  0.54706000  1.0 0.0219560605
C  C86  1  0.04780000  0.54083000  0.95294000  1.0 0.0219560605
C  C87  1  0.04780000  0.95917000  0.45294000  1.0 0.0219560605
C  C88  1  0.95220000  0.45917000  0.04706000  1.0 0.0219560605
C  C89  1  0.96960000  0.97797000  0.56420000  1.0 -0.1313154335
C  C90  1  0.03040000  0.47797000  0.93580000  1.0 -0.1313154335
C  C91  1  0.03040000  0.02203000  0.43580000  1.0 -0.1313154335
C  C92  1  0.96960000  0.52203000  0.06420000  1.0 -0.1313154335
C  C93  1  0.98340000  0.06267000  0.48220000  1.0 -0.1487696082
C  C94  1  0.01660000  0.56267000  0.01780000  1.0 -0.1487696082
C  C95  1  0.01660000  0.93733000  0.51780000  1.0 -0.1487696082
C  C96  1  0.98340000  0.43733000  0.98220000  1.0 -0.1487696082
C  C97  1  0.71940000  0.89550000  0.55940000  1.0 0.2873568525
C  C98  1  0.28060000  0.39550000  0.94060000  1.0 0.2873568525
C  C99  1  0.28060000  0.10450000  0.44060000  1.0 0.2873568525
C  C100  1  0.71940000  0.60450000  0.05940000  1.0 0.2873568525
C  C101  1  0.67730000  0.90640000  0.62350000  1.0 -0.3393123682
C  C102  1  0.32270000  0.40640000  0.87650000  1.0 -0.3393123682
C  C103  1  0.32270000  0.09360000  0.37650000  1.0 -0.3393123682
C  C104  1  0.67730000  0.59360000  0.12350000  1.0 -0.3393123682
C  C105  1  0.62310000  0.96480000  0.63530000  1.0 0.1096717845
C  C106  1  0.37690000  0.46480000  0.86470000  1.0 0.1096717845
C  C107  1  0.37690000  0.03520000  0.36470000  1.0 0.1096717845
C  C108  1  0.62310000  0.53520000  0.13530000  1.0 0.1096717845
C  C109  1  0.61350000  0.00960000  0.58340000  1.0 -0.2819697867
C  C110  1  0.38650000  0.50960000  0.91660000  1.0 -0.2819697867
C  C111  1  0.38650000  0.99040000  0.41660000  1.0 -0.2819697867
C  C112  1  0.61350000  0.49040000  0.08340000  1.0 -0.2819697867
C  C113  1  0.65640000  0.99790000  0.51860000  1.0 0.2873568525
C  C114  1  0.34360000  0.49790000  0.98140000  1.0 0.2873568525
C  C115  1  0.34360000  0.00210000  0.48140000  1.0 0.2873568525
C  C116  1  0.65640000  0.50210000  0.01860000  1.0 0.2873568525
C  C117  1  0.70680000  0.94070000  0.50570000  1.0 -0.359328867
C  C118  1  0.29320000  0.44070000  0.99430000  1.0 -0.359328867
C  C119  1  0.29320000  0.05930000  0.49430000  1.0 -0.359328867
C  C120  1  0.70680000  0.55930000  0.00570000  1.0 -0.359328867
C  C121  1  0.69450000  0.03980000  0.40660000  1.0 -0.0614702938
C  C122  1  0.30550000  0.53980000  0.09340000  1.0 -0.0614702938
C  C123  1  0.30550000  0.96020000  0.59340000  1.0 -0.0614702938
C  C124  1  0.69450000  0.46020000  0.90660000  1.0 -0.0614702938
C  C125  1  0.69280000  0.10360000  0.37420000  1.0 -0.0715921258
C  C126  1  0.30720000  0.60360000  0.12580000  1.0 -0.0715921258
C  C127  1  0.30720000  0.89640000  0.62580000  1.0 -0.0715921258
C  C128  1  0.69280000  0.39640000  0.87420000  1.0 -0.0715921258
C  C129  1  0.78370000  0.20290000  0.38570000  1.0 -0.0715921258
C  C130  1  0.21630000  0.70290000  0.11430000  1.0 -0.0715921258
C  C131  1  0.21630000  0.79710000  0.61430000  1.0 -0.0715921258
C  C132  1  0.78370000  0.29710000  0.88570000  1.0 -0.0715921258
C  C133  1  0.88420000  0.23670000  0.42350000  1.0 -0.0715921258
C  C134  1  0.11580000  0.73670000  0.07650000  1.0 -0.0715921258
C  C135  1  0.11580000  0.76330000  0.57650000  1.0 -0.0715921258
C  C136  1  0.88420000  0.26330000  0.92350000  1.0 -0.0715921258
C  C137  1  0.09230000  0.24120000  0.42420000  1.0 -0.0614702938
C  C138  1  0.90770000  0.74120000  0.07580000  1.0 -0.0614702938
C  C139  1  0.90770000  0.75880000  0.57580000  1.0 -0.0614702938
C  C140  1  0.09230000  0.25880000  0.92420000  1.0 -0.0614702938
C  C141  1  0.80640000  0.79660000  0.59610000  1.0 -0.0614702938
C  C142  1  0.19360000  0.29660000  0.90390000  1.0 -0.0614702938
C  C143  1  0.19360000  0.20340000  0.40390000  1.0 -0.0614702938
C  C144  1  0.80640000  0.70340000  0.09610000  1.0 -0.0614702938
C  C145  1  0.57250000  0.97612000  0.70260000  1.0 0.1198236569
C  C146  1  0.42750000  0.47612000  0.79740000  1.0 0.1198236569
C  C147  1  0.42750000  0.02388000  0.29740000  1.0 0.1198236569
C  C148  1  0.57250000  0.52388000  0.20260000  1.0 0.1198236569
C  C149  1  0.53840000  0.92750000  0.74480000  1.0 -0.2003023721
C  C150  1  0.46160000  0.42750000  0.75520000  1.0 -0.2003023721
C  C151  1  0.46160000  0.07250000  0.25520000  1.0 -0.2003023721
C  C152  1  0.53840000  0.57250000  0.24480000  1.0 -0.2003023721
C  C153  1  0.48330000  0.93980000  0.80350000  1.0 0.0580391166
C  C154  1  0.51670000  0.43980000  0.69650000  1.0 0.0580391166
C  C155  1  0.51670000  0.06020000  0.19650000  1.0 0.0580391166
C  C156  1  0.48330000  0.56020000  0.30350000  1.0 0.0580391166
C  C157  1  0.49580000  0.04550000  0.78650000  1.0 0.0935888579
C  C158  1  0.50420000  0.54550000  0.71350000  1.0 0.0935888579
C  C159  1  0.50420000  0.95450000  0.21350000  1.0 0.0935888579
C  C160  1  0.49580000  0.45450000  0.28650000  1.0 0.0935888579
C  C161  1  0.55150000  0.03730000  0.72700000  1.0 -0.2003023721
C  C162  1  0.44850000  0.53730000  0.77300000  1.0 -0.2003023721
C  C163  1  0.44850000  0.96270000  0.27300000  1.0 -0.2003023721
C  C164  1  0.55150000  0.46270000  0.22700000  1.0 -0.2003023721
N  N1  1  0.90480000  0.07803000  0.66391000  1.0 -0.4205186452
N  N2  1  0.09520000  0.57803000  0.83609000  1.0 -0.4205186452
N  N3  1  0.09520000  0.92197000  0.33609000  1.0 -0.4205186452
N  N4  1  0.90480000  0.42197000  0.16391000  1.0 -0.4205186452
N  N5  1  0.81630000  0.12702000  0.56913000  1.0 -0.3080434809
N  N6  1  0.18370000  0.62702000  0.93087000  1.0 -0.3080434809
N  N7  1  0.18370000  0.87298000  0.43087000  1.0 -0.3080434809
N  N8  1  0.81630000  0.37298000  0.06913000  1.0 -0.3080434809
N  N9  1  0.46060000  0.99851000  0.82548000  1.0 -0.2344763289
N  N10  1  0.53940000  0.49851000  0.67452000  1.0 -0.2344763289
N  N11  1  0.53940000  0.00149000  0.17452000  1.0 -0.2344763289
N  N12  1  0.46060000  0.50149000  0.32548000  1.0 -0.2350918661
O  O1  1  0.22560000  0.03535000  0.93186000  1.0 -0.5393353413
O  O2  1  0.77440000  0.53535000  0.56814000  1.0 -0.5393353413
O  O3  1  0.77440000  0.96465000  0.06814000  1.0 -0.5393353413
O  O4  1  0.22560000  0.46465000  0.43186000  1.0 -0.5393353413
O  O5  1  0.23660000  0.09456000  0.83826000  1.0 -0.5544192205
O  O6  1  0.76340000  0.59456000  0.66174000  1.0 -0.5544192205
O  O7  1  0.76340000  0.90544000  0.16174000  1.0 -0.5544192205
O  O8  1  0.23660000  0.40544000  0.33826000  1.0 -0.5544192205
O  O9  1  0.60280000  0.42698000  0.54957000  1.0 -0.52630967
O  O10  1  0.39720000  0.92698000  0.95043000  1.0 -0.52630967
O  O11  1  0.39720000  0.57302000  0.45043000  1.0 -0.52630967
O  O12  1  0.60280000  0.07302000  0.04957000  1.0 -0.5244401703
O  O13  1  0.48930000  0.41988000  0.45149000  1.0 -0.52630967
O  O14  1  0.51070000  0.91988000  0.04851000  1.0 -0.52630967
O  O15  1  0.51070000  0.58012000  0.54851000  1.0 -0.52630967
O  O16  1  0.48930000  0.08012000  0.95149000  1.0 -0.52630967
O  O17  1  0.64520000  0.04601000  0.47185000  1.0 -0.1892224154
O  O18  1  0.35480000  0.54601000  0.02815000  1.0 -0.1892224154
O  O19  1  0.35480000  0.95399000  0.52815000  1.0 -0.1892224154
O  O20  1  0.64520000  0.45399000  0.97185000  1.0 -0.1892224154
O  O21  1  0.77170000  0.14293000  0.41634000  1.0 -0.1892224154
O  O22  1  0.22830000  0.64293000  0.08366000  1.0 -0.1892224154
O  O23  1  0.22830000  0.85707000  0.58366000  1.0 -0.1892224154
O  O24  1  0.77170000  0.35707000  0.91634000  1.0 -0.1892224154
O  O25  1  0.98950000  0.20547000  0.40840000  1.0 -0.1892224154
O  O26  1  0.01050000  0.70547000  0.09160000  1.0 -0.1892224154
O  O27  1  0.01050000  0.79453000  0.59160000  1.0 -0.1892224154
O  O28  1  0.98950000  0.29453000  0.90840000  1.0 -0.1814439336
O  O29  1  0.77830000  0.84237000  0.54245000  1.0 -0.1598154739
O  O30  1  0.22170000  0.34237000  0.95755000  1.0 -0.1598154739
O  O31  1  0.22170000  0.15763000  0.45755000  1.0 -0.1598154739
O  O32  1  0.77830000  0.65763000  0.04245000  1.0 -0.1598154739
