# DDEC6 charges by PACMAN v1.1 (https://github.com/mtap-research/PACMAN-charge/)
data_SAJSAA_ion_pacman
_symmetry_space_group_name_H-M   'P 1'
_cell_length_a   13.54300000
_cell_length_b   19.34010000
_cell_length_c   23.22300000
_cell_angle_alpha   90.00000000
_cell_angle_beta   123.45200000
_cell_angle_gamma   90.00000000
_symmetry_Int_Tables_number   1
_chemical_formula_structural   Na3Fe2H46C44N4O19
_chemical_formula_sum   'Na12 Fe8 H184 C176 N16 O76'
_cell_volume   5075.03571690
_cell_formula_units_Z   4
loop_
 _symmetry_equiv_pos_site_id
 _symmetry_equiv_pos_as_xyz
  1  'x, y, z'
loop_
 _atom_site_type_symbol
 _atom_site_label
 _atom_site_symmetry_multiplicity
 _atom_site_fract_x
 _atom_site_fract_y
 _atom_site_fract_z
 _atom_site_occupancy
 _atom_site_charge
Na  Na1  1  0.12810000  0.78619000  0.71802000  1.0 0.8404455466
Na  Na2  1  0.87190000  0.28619000  0.78198000  1.0 0.8404455466
Na  Na3  1  0.87190000  0.21381000  0.28198000  1.0 0.8404455466
Na  Na4  1  0.12810000  0.71381000  0.21802000  1.0 0.8404455466
Na  Na5  1  0.64650000  0.74400000  0.73986000  1.0 0.8404455466
Na  Na6  1  0.35350000  0.24400000  0.76014000  1.0 0.8404455466
Na  Na7  1  0.35350000  0.25600000  0.26014000  1.0 0.8404455466
Na  Na8  1  0.64650000  0.75600000  0.23986000  1.0 0.8404455466
Na  Na9  1  0.15130000  0.34001000  0.94278000  1.0 0.8311514838
Na  Na10  1  0.84870000  0.84001000  0.55722000  1.0 0.8311514838
Na  Na11  1  0.84870000  0.65999000  0.05722000  1.0 0.8311514838
Na  Na12  1  0.15130000  0.15999000  0.44278000  1.0 0.8311514838
Fe  Fe1  1  0.39016000  0.76933000  0.73458000  1.0 0.9059756456
Fe  Fe2  1  0.60984000  0.26933000  0.76542000  1.0 0.9059756456
Fe  Fe3  1  0.60984000  0.23067000  0.26542000  1.0 0.9059756456
Fe  Fe4  1  0.39016000  0.73067000  0.23458000  1.0 0.9059756456
Fe  Fe5  1  0.87103000  0.76296000  0.71052000  1.0 0.9059756456
Fe  Fe6  1  0.12897000  0.26296000  0.78948000  1.0 0.9059756456
Fe  Fe7  1  0.12897000  0.23704000  0.28948000  1.0 0.9059756456
Fe  Fe8  1  0.87103000  0.73704000  0.21052000  1.0 0.9059756456
H  H1  1  0.11590000  0.76660000  0.87930000  1.0 0.1207882519
H  H2  1  0.88410000  0.26660000  0.62070000  1.0 0.1207882519
H  H3  1  0.88410000  0.23340000  0.12070000  1.0 0.1207882519
H  H4  1  0.11590000  0.73340000  0.37930000  1.0 0.1207882519
H  H5  1  0.92690000  0.52690000  0.75690000  1.0 0.1207882519
H  H6  1  0.07310000  0.02690000  0.74310000  1.0 0.1207882519
H  H7  1  0.07310000  0.47310000  0.24310000  1.0 0.1207882519
H  H8  1  0.92690000  0.97310000  0.25690000  1.0 0.1207882519
H  H9  1  0.30320000  0.72620000  0.07910000  1.0 0.1207882519
H  H10  1  0.69680000  0.22620000  0.42090000  1.0 0.1207882519
H  H11  1  0.69680000  0.27380000  0.92090000  1.0 0.1207882519
H  H12  1  0.30320000  0.77380000  0.57910000  1.0 0.1207882519
H  H13  1  0.16970000  0.61950000  0.74120000  1.0 0.1207882519
H  H14  1  0.83030000  0.11950000  0.75880000  1.0 0.1207882519
H  H15  1  0.83030000  0.38050000  0.25880000  1.0 0.1207882519
H  H16  1  0.16970000  0.88050000  0.24120000  1.0 0.1207882519
H  H17  1  0.95200000  0.74980000  0.97520000  1.0 0.112999445
H  H18  1  0.04800000  0.24980000  0.52480000  1.0 0.112999445
H  H19  1  0.04800000  0.25020000  0.02480000  1.0 0.112999445
H  H20  1  0.95200000  0.75020000  0.47520000  1.0 0.112999445
H  H21  1  0.60550000  0.74270000  0.97420000  1.0 0.1207882519
H  H22  1  0.39450000  0.24270000  0.52580000  1.0 0.1207882519
H  H23  1  0.39450000  0.25730000  0.02580000  1.0 0.1207882519
H  H24  1  0.60550000  0.75730000  0.47420000  1.0 0.1207882519
H  H25  1  0.32650000  0.41230000  0.76310000  1.0 0.129532748
H  H26  1  0.67350000  0.91230000  0.73690000  1.0 0.129532748
H  H27  1  0.67350000  0.58770000  0.23690000  1.0 0.129532748
H  H28  1  0.32650000  0.08770000  0.26310000  1.0 0.129532748
H  H29  1  0.30800000  0.61380000  0.73430000  1.0 0.1207882519
H  H30  1  0.69200000  0.11380000  0.76570000  1.0 0.1207882519
H  H31  1  0.69200000  0.38620000  0.26570000  1.0 0.1207882519
H  H32  1  0.30800000  0.88620000  0.23430000  1.0 0.1207882519
H  H33  1  0.18610000  0.41750000  0.77060000  1.0 0.129532748
H  H34  1  0.81390000  0.91750000  0.72940000  1.0 0.129532748
H  H35  1  0.81390000  0.58250000  0.22940000  1.0 0.129532748
H  H36  1  0.18610000  0.08250000  0.27060000  1.0 0.129532748
H  H37  1  0.25760000  0.73930000  0.87690000  1.0 0.1207882519
H  H38  1  0.74240000  0.23930000  0.62310000  1.0 0.1207882519
H  H39  1  0.74240000  0.26070000  0.12310000  1.0 0.1207882519
H  H40  1  0.25760000  0.76070000  0.37690000  1.0 0.1207882519
H  H41  1  0.55800000  0.50420000  0.73370000  1.0 0.1207882519
H  H42  1  0.44200000  0.00420000  0.76630000  1.0 0.1207882519
H  H43  1  0.44200000  0.49580000  0.26630000  1.0 0.1207882519
H  H44  1  0.55800000  0.99580000  0.23370000  1.0 0.1207882519
H  H45  1  0.45730000  0.74610000  0.08140000  1.0 0.1207882519
H  H46  1  0.54270000  0.24610000  0.41860000  1.0 0.1207882519
H  H47  1  0.54270000  0.25390000  0.91860000  1.0 0.1207882519
H  H48  1  0.45730000  0.75390000  0.58140000  1.0 0.1207882519
H  H49  1  0.77830000  0.45260000  0.88080000  1.0 0.129532748
H  H50  1  0.22170000  0.95260000  0.61920000  1.0 0.129532748
H  H51  1  0.22170000  0.54740000  0.11920000  1.0 0.129532748
H  H52  1  0.77830000  0.04740000  0.38080000  1.0 0.129532748
H  H53  1  0.76780000  0.45920000  0.81040000  1.0 0.129532748
H  H54  1  0.23220000  0.95920000  0.68960000  1.0 0.129532748
H  H55  1  0.23220000  0.54080000  0.18960000  1.0 0.129532748
H  H56  1  0.76780000  0.04080000  0.31040000  1.0 0.129532748
H  H57  1  0.86460000  0.41110000  0.86860000  1.0 0.129532748
H  H58  1  0.13540000  0.91110000  0.63140000  1.0 0.129532748
H  H59  1  0.13540000  0.58890000  0.13140000  1.0 0.129532748
H  H60  1  0.86460000  0.08890000  0.36860000  1.0 0.129532748
H  H61  1  0.91070000  0.61410000  0.86970000  1.0 0.1207882519
H  H62  1  0.08930000  0.11410000  0.63030000  1.0 0.1207882519
H  H63  1  0.08930000  0.38590000  0.13030000  1.0 0.1207882519
H  H64  1  0.91070000  0.88590000  0.36970000  1.0 0.1207882519
H  H65  1  0.78300000  0.58240000  0.82900000  1.0 0.129532748
H  H66  1  0.21700000  0.08240000  0.67100000  1.0 0.129532748
H  H67  1  0.21700000  0.41760000  0.17100000  1.0 0.129532748
H  H68  1  0.78300000  0.91760000  0.32900000  1.0 0.129532748
H  H69  1  0.84760000  0.59800000  0.90800000  1.0 0.129532748
H  H70  1  0.15240000  0.09800000  0.59200000  1.0 0.129532748
H  H71  1  0.15240000  0.40200000  0.09200000  1.0 0.129532748
H  H72  1  0.84760000  0.90200000  0.40800000  1.0 0.129532748
H  H73  1  0.39130000  0.47620000  0.10990000  1.0 0.129532748
H  H74  1  0.60870000  0.97620000  0.39010000  1.0 0.129532748
H  H75  1  0.60870000  0.52380000  0.89010000  1.0 0.129532748
H  H76  1  0.39130000  0.02380000  0.60990000  1.0 0.129532748
H  H77  1  0.37490000  0.39770000  0.09010000  1.0 0.1561793668
H  H78  1  0.62510000  0.89770000  0.40990000  1.0 0.1561793668
H  H79  1  0.62510000  0.60230000  0.90990000  1.0 0.1561793668
H  H80  1  0.37490000  0.10230000  0.59010000  1.0 0.1561793668
H  H81  1  0.49590000  0.43430000  0.11630000  1.0 0.129532748
H  H82  1  0.50410000  0.93430000  0.38370000  1.0 0.129532748
H  H83  1  0.50410000  0.56570000  0.88370000  1.0 0.129532748
H  H84  1  0.49590000  0.06570000  0.61630000  1.0 0.129532748
H  H85  1  0.05880000  0.60260000  0.96120000  1.0 0.1411561003
H  H86  1  0.94120000  0.10260000  0.53880000  1.0 0.1411561003
H  H87  1  0.94120000  0.39740000  0.03880000  1.0 0.1411561003
H  H88  1  0.05880000  0.89740000  0.46120000  1.0 0.1411561003
H  H89  1  0.16480000  0.55150000  0.00420000  1.0 0.1463395489
H  H90  1  0.83520000  0.05150000  0.49580000  1.0 0.1463395489
H  H91  1  0.83520000  0.44850000  0.99580000  1.0 0.1463395489
H  H92  1  0.16480000  0.94850000  0.50420000  1.0 0.1463395489
H  H93  1  0.12990000  0.57530000  0.93070000  1.0 0.1411561003
H  H94  1  0.87010000  0.07530000  0.56930000  1.0 0.1411561003
H  H95  1  0.87010000  0.42470000  0.06930000  1.0 0.1411561003
H  H96  1  0.12990000  0.92470000  0.43070000  1.0 0.1411561003
H  H97  1  0.34580000  0.49900000  0.90600000  1.0 0.129532748
H  H98  1  0.65420000  0.99900000  0.59400000  1.0 0.129532748
H  H99  1  0.65420000  0.50100000  0.09400000  1.0 0.129532748
H  H100  1  0.34580000  0.00100000  0.40600000  1.0 0.129532748
H  H101  1  0.25600000  0.55110000  0.90480000  1.0 0.1207882519
H  H102  1  0.74400000  0.05110000  0.59520000  1.0 0.1207882519
H  H103  1  0.74400000  0.44890000  0.09520000  1.0 0.1207882519
H  H104  1  0.25600000  0.94890000  0.40480000  1.0 0.1207882519
H  H105  1  0.38400000  0.57570000  0.92970000  1.0 0.1207882519
H  H106  1  0.61600000  0.07570000  0.57030000  1.0 0.1207882519
H  H107  1  0.61600000  0.42430000  0.07030000  1.0 0.1207882519
H  H108  1  0.38400000  0.92430000  0.42970000  1.0 0.1207882519
H  H109  1  0.48630000  0.59630000  0.04280000  1.0 0.129532748
H  H110  1  0.51370000  0.09630000  0.45720000  1.0 0.129532748
H  H111  1  0.51370000  0.40370000  0.95720000  1.0 0.129532748
H  H112  1  0.48630000  0.90370000  0.54280000  1.0 0.129532748
H  H113  1  0.37530000  0.60150000  0.04740000  1.0 0.1207882519
H  H114  1  0.62470000  0.10150000  0.45260000  1.0 0.1207882519
H  H115  1  0.62470000  0.39850000  0.95260000  1.0 0.1207882519
H  H116  1  0.37530000  0.89850000  0.54740000  1.0 0.1207882519
H  H117  1  0.48150000  0.55350000  0.09850000  1.0 0.1207882519
H  H118  1  0.51850000  0.05350000  0.40150000  1.0 0.1207882519
H  H119  1  0.51850000  0.44650000  0.90150000  1.0 0.1207882519
H  H120  1  0.48150000  0.94650000  0.59850000  1.0 0.1207882519
H  H121  1  0.61960000  0.07190000  0.17130000  1.0 0.1411561003
H  H122  1  0.55710000  0.07370000  0.09100000  1.0 0.1207882519
H  H123  1  0.67530000  0.11450000  0.13860000  1.0 0.129532748
H  H124  1  0.57130000  0.94600000  0.11440000  1.0 0.129532748
H  H125  1  0.68070000  0.93910000  0.19060000  1.0 0.1411561003
H  H126  1  0.68820000  0.91160000  0.12960000  1.0 0.129532748
H  H127  1  0.77310000  0.01880000  0.17510000  1.0 0.243573474
H  H128  1  0.70130000  0.01330000  0.10060000  1.0 0.2323383871
H  H129  1  0.38040000  0.57190000  0.32870000  1.0 0.1411561003
H  H130  1  0.44290000  0.57370000  0.40900000  1.0 0.1207882519
H  H131  1  0.32470000  0.61450000  0.36140000  1.0 0.129532748
H  H132  1  0.42870000  0.44600000  0.38560000  1.0 0.129532748
H  H133  1  0.31930000  0.43910000  0.30940000  1.0 0.1411561003
H  H134  1  0.31180000  0.41160000  0.37040000  1.0 0.1207882519
H  H135  1  0.22690000  0.51880000  0.32490000  1.0 0.243573474
H  H136  1  0.29870000  0.51330000  0.39940000  1.0 0.2323383871
H  H137  1  0.38040000  0.92810000  0.82870000  1.0 0.1411561003
H  H138  1  0.44290000  0.92630000  0.90900000  1.0 0.1207882519
H  H139  1  0.32470000  0.88550000  0.86140000  1.0 0.129532748
H  H140  1  0.42870000  0.05400000  0.88560000  1.0 0.129532748
H  H141  1  0.31930000  0.06090000  0.80940000  1.0 0.1411561003
H  H142  1  0.31180000  0.08840000  0.87040000  1.0 0.1207882519
H  H143  1  0.22690000  0.98120000  0.82490000  1.0 0.243573474
H  H144  1  0.29870000  0.98670000  0.89940000  1.0 0.2323383871
H  H145  1  0.61960000  0.42810000  0.67130000  1.0 0.1411561003
H  H146  1  0.55710000  0.42630000  0.59100000  1.0 0.1207882519
H  H147  1  0.67530000  0.38550000  0.63860000  1.0 0.129532748
H  H148  1  0.57130000  0.55400000  0.61440000  1.0 0.129532748
H  H149  1  0.68070000  0.56090000  0.69060000  1.0 0.1411561003
H  H150  1  0.68820000  0.58840000  0.62960000  1.0 0.1207882519
H  H151  1  0.77310000  0.48120000  0.67510000  1.0 0.243573474
H  H152  1  0.70130000  0.48670000  0.60060000  1.0 0.2323383871
H  H153  1  0.79640000  0.61340000  0.55390000  1.0 0.1207882519
H  H154  1  0.87240000  0.67790000  0.56080000  1.0 0.129532748
H  H155  1  0.93380000  0.60620000  0.59060000  1.0 0.1207882519
H  H156  1  0.71750000  0.57570000  0.39910000  1.0 0.1207882519
H  H157  1  0.71470000  0.65630000  0.40500000  1.0 0.1411561003
H  H158  1  0.67360000  0.60880000  0.44270000  1.0 0.1207882519
H  H159  1  0.87740000  0.56950000  0.49290000  1.0 0.2323383871
H  H160  1  0.89130000  0.64180000  0.48240000  1.0 0.2323383871
H  H161  1  0.20360000  0.11340000  0.94610000  1.0 0.1207882519
H  H162  1  0.12760000  0.17790000  0.93920000  1.0 0.129532748
H  H163  1  0.06620000  0.10620000  0.90940000  1.0 0.1207882519
H  H164  1  0.28250000  0.07570000  0.10090000  1.0 0.1207882519
H  H165  1  0.28530000  0.15630000  0.09500000  1.0 0.1411561003
H  H166  1  0.32640000  0.10880000  0.05730000  1.0 0.1207882519
H  H167  1  0.12260000  0.06950000  0.00710000  1.0 0.2323383871
H  H168  1  0.10870000  0.14180000  0.01760000  1.0 0.2323383871
H  H169  1  0.20360000  0.38660000  0.44610000  1.0 0.1207882519
H  H170  1  0.12760000  0.32210000  0.43920000  1.0 0.129532748
H  H171  1  0.06620000  0.39380000  0.40940000  1.0 0.1207882519
H  H172  1  0.28250000  0.42430000  0.60090000  1.0 0.1207882519
H  H173  1  0.28530000  0.34370000  0.59500000  1.0 0.1411561003
H  H174  1  0.32640000  0.39120000  0.55730000  1.0 0.1207882519
H  H175  1  0.12260000  0.43050000  0.50710000  1.0 0.2323383871
H  H176  1  0.10870000  0.35820000  0.51760000  1.0 0.2323383871
H  H177  1  0.79640000  0.88660000  0.05390000  1.0 0.1207882519
H  H178  1  0.87240000  0.82210000  0.06080000  1.0 0.129532748
H  H179  1  0.93380000  0.89380000  0.09060000  1.0 0.1207882519
H  H180  1  0.71750000  0.92430000  0.89910000  1.0 0.1207882519
H  H181  1  0.71470000  0.84370000  0.90500000  1.0 0.1411561003
H  H182  1  0.67360000  0.89120000  0.94270000  1.0 0.1207882519
H  H183  1  0.87740000  0.93050000  0.99290000  1.0 0.2323383871
H  H184  1  0.89130000  0.85820000  0.98240000  1.0 0.2323383871
C  C1  1  0.99800000  0.39800000  0.77290000  1.0 0.5666454306
C  C2  1  0.00200000  0.89800000  0.72710000  1.0 0.5666454306
C  C3  1  0.00200000  0.60200000  0.22710000  1.0 0.5666454306
C  C4  1  0.99800000  0.10200000  0.27290000  1.0 0.5666454306
C  C5  1  0.90500000  0.77050000  0.85120000  1.0 0.5666454306
C  C6  1  0.09500000  0.27050000  0.64880000  1.0 0.5666454306
C  C7  1  0.09500000  0.22950000  0.14880000  1.0 0.5666454306
C  C8  1  0.90500000  0.72950000  0.35120000  1.0 0.5666454306
C  C9  1  0.12810000  0.73670000  0.03660000  1.0 -0.0370686704
C  C10  1  0.87190000  0.23670000  0.46340000  1.0 -0.0370686704
C  C11  1  0.87190000  0.26330000  0.96340000  1.0 -0.0370686704
C  C12  1  0.12810000  0.76330000  0.53660000  1.0 -0.0370686704
C  C13  1  0.11940000  0.75800000  0.91980000  1.0 -0.1291409273
C  C14  1  0.88060000  0.25800000  0.58020000  1.0 -0.1291409273
C  C15  1  0.88060000  0.24200000  0.08020000  1.0 -0.1291409273
C  C16  1  0.11940000  0.74200000  0.41980000  1.0 -0.1291409273
C  C17  1  0.44050000  0.56960000  0.73230000  1.0 -0.0031396873
C  C18  1  0.55950000  0.06960000  0.76770000  1.0 -0.0031396873
C  C19  1  0.55950000  0.43040000  0.26770000  1.0 -0.0031396873
C  C20  1  0.44050000  0.93040000  0.23230000  1.0 -0.0031396873
C  C21  1  0.99530000  0.52460000  0.75670000  1.0 -0.1291409273
C  C22  1  0.00470000  0.02460000  0.74330000  1.0 -0.1291409273
C  C23  1  0.00470000  0.47540000  0.24330000  1.0 -0.1291409273
C  C24  1  0.99530000  0.97540000  0.25670000  1.0 -0.1291409273
C  C25  1  0.23120000  0.73470000  0.03790000  1.0 -0.1421922536
C  C26  1  0.76880000  0.23470000  0.46210000  1.0 -0.1421922536
C  C27  1  0.76880000  0.26530000  0.96210000  1.0 -0.1421922536
C  C28  1  0.23120000  0.76530000  0.53790000  1.0 -0.1421922536
C  C29  1  0.01920000  0.75880000  0.91710000  1.0 -0.0370686704
C  C30  1  0.98080000  0.25880000  0.58290000  1.0 -0.0370686704
C  C31  1  0.98080000  0.24120000  0.08290000  1.0 -0.0370686704
C  C32  1  0.01920000  0.74120000  0.41710000  1.0 -0.0370686704
C  C33  1  0.41950000  0.74400000  0.84840000  1.0 0.5418034775
C  C34  1  0.58050000  0.24400000  0.65160000  1.0 0.5418034775
C  C35  1  0.58050000  0.25600000  0.15160000  1.0 0.5418034775
C  C36  1  0.41950000  0.75600000  0.34840000  1.0 0.5418034775
C  C37  1  0.66840000  0.74220000  0.10200000  1.0 0.5666454306
C  C38  1  0.33160000  0.24220000  0.39800000  1.0 0.5666454306
C  C39  1  0.33160000  0.25780000  0.89800000  1.0 0.5666454306
C  C40  1  0.66840000  0.75780000  0.60200000  1.0 0.5666454306
C  C41  1  0.19580000  0.51750000  0.75430000  1.0 0.0802425427
C  C42  1  0.80420000  0.01750000  0.74570000  1.0 0.0802425427
C  C43  1  0.80420000  0.48250000  0.24570000  1.0 0.0802425427
C  C44  1  0.19580000  0.98250000  0.25430000  1.0 0.0802425427
C  C45  1  0.13910000  0.57910000  0.74720000  1.0 -0.1589337287
C  C46  1  0.86090000  0.07910000  0.75280000  1.0 -0.1589337287
C  C47  1  0.86090000  0.42090000  0.25280000  1.0 -0.1589337287
C  C48  1  0.13910000  0.92090000  0.24720000  1.0 -0.1589337287
C  C49  1  0.04140000  0.58350000  0.74860000  1.0 -0.0312767464
C  C50  1  0.95860000  0.08350000  0.75140000  1.0 -0.0312767464
C  C51  1  0.95860000  0.41650000  0.25140000  1.0 -0.0312767464
C  C52  1  0.04140000  0.91650000  0.24860000  1.0 -0.0312767464
C  C53  1  0.04780000  0.46250000  0.76440000  1.0 -0.021311056
C  C54  1  0.95220000  0.96250000  0.73560000  1.0 -0.021311056
C  C55  1  0.95220000  0.53750000  0.23560000  1.0 -0.021311056
C  C56  1  0.04780000  0.03750000  0.26440000  1.0 -0.021311056
C  C57  1  0.29900000  0.51340000  0.74870000  1.0 0.0701460636
C  C58  1  0.70100000  0.01340000  0.75130000  1.0 0.0701460636
C  C59  1  0.70100000  0.48660000  0.25130000  1.0 0.0701460636
C  C60  1  0.29900000  0.98660000  0.24870000  1.0 0.0701460636
C  C61  1  0.02150000  0.74860000  0.97610000  1.0 -0.1291409273
C  C62  1  0.97850000  0.24860000  0.52390000  1.0 -0.1291409273
C  C63  1  0.97850000  0.25140000  0.02390000  1.0 -0.1291409273
C  C64  1  0.02150000  0.75140000  0.47610000  1.0 -0.1291409273
C  C65  1  0.53800000  0.74180000  0.97550000  1.0 -0.105924757
C  C66  1  0.46200000  0.24180000  0.52450000  1.0 -0.105924757
C  C67  1  0.46200000  0.25820000  0.02450000  1.0 -0.105924757
C  C68  1  0.53800000  0.75820000  0.47550000  1.0 -0.105924757
C  C69  1  0.43050000  0.74030000  0.91570000  1.0 -0.021311056
C  C70  1  0.56950000  0.24030000  0.58430000  1.0 -0.021311056
C  C71  1  0.56950000  0.25970000  0.08430000  1.0 -0.021311056
C  C72  1  0.43050000  0.75970000  0.41570000  1.0 -0.021311056
C  C73  1  0.35430000  0.45250000  0.75470000  1.0 -0.1589337287
C  C74  1  0.64570000  0.95250000  0.74530000  1.0 -0.1589337287
C  C75  1  0.64570000  0.54750000  0.24530000  1.0 -0.1589337287
C  C76  1  0.35430000  0.04750000  0.25470000  1.0 -0.1589337287
C  C77  1  0.55000000  0.74220000  0.03780000  1.0 -0.0312767464
C  C78  1  0.45000000  0.24220000  0.46220000  1.0 -0.0312767464
C  C79  1  0.45000000  0.25780000  0.96220000  1.0 -0.0312767464
C  C80  1  0.55000000  0.75780000  0.53780000  1.0 -0.0312767464
C  C81  1  0.34360000  0.57140000  0.73800000  1.0 -0.1524971516
C  C82  1  0.65640000  0.07140000  0.76200000  1.0 -0.1524971516
C  C83  1  0.65640000  0.42860000  0.26200000  1.0 -0.1524971516
C  C84  1  0.34360000  0.92860000  0.23800000  1.0 -0.1524971516
C  C85  1  0.97970000  0.64870000  0.73780000  1.0 0.5505916535
C  C86  1  0.02030000  0.14870000  0.76220000  1.0 0.5505916535
C  C87  1  0.02030000  0.35130000  0.26220000  1.0 0.5505916535
C  C88  1  0.97970000  0.85130000  0.23780000  1.0 0.5505916535
C  C89  1  0.14870000  0.45980000  0.76400000  1.0 -0.1421922536
C  C90  1  0.85130000  0.95980000  0.73600000  1.0 -0.1421922536
C  C91  1  0.85130000  0.54020000  0.23600000  1.0 -0.1421922536
C  C92  1  0.14870000  0.04020000  0.26400000  1.0 -0.1421922536
C  C93  1  0.50710000  0.38080000  0.75330000  1.0 0.5505916535
C  C94  1  0.49290000  0.88080000  0.74670000  1.0 0.5505916535
C  C95  1  0.49290000  0.61920000  0.24670000  1.0 0.5505916535
C  C96  1  0.50710000  0.11920000  0.25330000  1.0 0.5505916535
C  C97  1  0.44910000  0.44830000  0.74880000  1.0 -0.021311056
C  C98  1  0.55090000  0.94830000  0.75120000  1.0 -0.021311056
C  C99  1  0.55090000  0.55170000  0.25120000  1.0 -0.021311056
C  C100  1  0.44910000  0.05170000  0.24880000  1.0 -0.021311056
C  C101  1  0.33160000  0.74060000  0.91820000  1.0 -0.1658420542
C  C102  1  0.66840000  0.24060000  0.58180000  1.0 -0.1658420542
C  C103  1  0.66840000  0.25940000  0.08180000  1.0 -0.1658420542
C  C104  1  0.33160000  0.75940000  0.41820000  1.0 -0.1658420542
C  C105  1  0.49340000  0.50680000  0.73760000  1.0 -0.1291409273
C  C106  1  0.50660000  0.00680000  0.76240000  1.0 -0.1291409273
C  C107  1  0.50660000  0.49320000  0.26240000  1.0 -0.1291409273
C  C108  1  0.49340000  0.99320000  0.23760000  1.0 -0.1291409273
C  C109  1  0.49010000  0.63440000  0.72180000  1.0 0.5563549979
C  C110  1  0.50990000  0.13440000  0.77820000  1.0 0.5563549979
C  C111  1  0.50990000  0.36560000  0.27820000  1.0 0.5563549979
C  C112  1  0.49010000  0.86560000  0.22180000  1.0 0.5563549979
C  C113  1  0.22750000  0.74530000  0.97850000  1.0 0.0628279729
C  C114  1  0.77250000  0.24530000  0.52150000  1.0 0.0628279729
C  C115  1  0.77250000  0.25470000  0.02150000  1.0 0.0628279729
C  C116  1  0.22750000  0.75470000  0.47850000  1.0 0.0628279729
C  C117  1  0.13030000  0.72560000  0.10020000  1.0 0.5666454306
C  C118  1  0.86970000  0.22560000  0.39980000  1.0 0.5666454306
C  C119  1  0.86970000  0.27440000  0.89980000  1.0 0.5666454306
C  C120  1  0.13030000  0.77440000  0.60020000  1.0 0.5666454306
C  C121  1  0.33710000  0.74270000  0.97820000  1.0 0.0701460636
C  C122  1  0.66290000  0.24270000  0.52180000  1.0 0.0701460636
C  C123  1  0.66290000  0.25730000  0.02180000  1.0 0.0701460636
C  C124  1  0.33710000  0.75730000  0.47820000  1.0 0.0701460636
C  C125  1  0.44990000  0.74390000  0.03920000  1.0 -0.1658420542
C  C126  1  0.55010000  0.24390000  0.46080000  1.0 -0.1658420542
C  C127  1  0.55010000  0.25610000  0.96080000  1.0 -0.1658420542
C  C128  1  0.44990000  0.75610000  0.53920000  1.0 -0.1658420542
C  C129  1  0.82180000  0.45360000  0.85930000  1.0 -0.3664880411
C  C130  1  0.17820000  0.95360000  0.64070000  1.0 -0.3664880411
C  C131  1  0.17820000  0.54640000  0.14070000  1.0 -0.3664880411
C  C132  1  0.82180000  0.04640000  0.35930000  1.0 -0.3664880411
C  C133  1  0.85820000  0.58290000  0.87240000  1.0 -0.3516727703
C  C134  1  0.14180000  0.08290000  0.62760000  1.0 -0.3516727703
C  C135  1  0.14180000  0.41710000  0.12760000  1.0 -0.3516727703
C  C136  1  0.85820000  0.91710000  0.37240000  1.0 -0.3516727703
C  C137  1  0.41160000  0.44010000  0.08990000  1.0 -0.6014114635
C  C138  1  0.58840000  0.94010000  0.41010000  1.0 -0.6014114635
C  C139  1  0.58840000  0.55990000  0.91010000  1.0 -0.6014114635
C  C140  1  0.41160000  0.05990000  0.58990000  1.0 -0.6014114635
C  C141  1  0.10010000  0.56360000  0.95860000  1.0 -0.5703493746
C  C142  1  0.89990000  0.06360000  0.54140000  1.0 -0.5703493746
C  C143  1  0.89990000  0.43640000  0.04140000  1.0 -0.5703493746
C  C144  1  0.10010000  0.93640000  0.45860000  1.0 -0.5703493746
C  C145  1  0.33770000  0.53770000  0.92900000  1.0 -0.3937796371
C  C146  1  0.66230000  0.03770000  0.57100000  1.0 -0.3937796371
C  C147  1  0.66230000  0.46230000  0.07100000  1.0 -0.3937796371
C  C148  1  0.33770000  0.96230000  0.42900000  1.0 -0.3937796371
C  C149  1  0.01200000  0.50030000  0.92530000  1.0 0.4643581493
C  C150  1  0.98800000  0.00030000  0.57470000  1.0 0.4643581493
C  C151  1  0.98800000  0.49970000  0.07470000  1.0 0.4643581493
C  C152  1  0.01200000  0.99970000  0.42530000  1.0 0.4643581493
C  C153  1  0.36760000  0.45930000  0.01530000  1.0 0.4480421228
C  C154  1  0.63240000  0.95930000  0.48470000  1.0 0.4480421228
C  C155  1  0.63240000  0.54070000  0.98470000  1.0 0.4480421228
C  C156  1  0.36760000  0.04070000  0.51530000  1.0 0.4480421228
C  C157  1  0.43560000  0.57120000  0.05220000  1.0 -0.3363473134
C  C158  1  0.56440000  0.07120000  0.44780000  1.0 -0.3363473134
C  C159  1  0.56440000  0.42880000  0.94780000  1.0 -0.3363473134
C  C160  1  0.43560000  0.92880000  0.55220000  1.0 -0.3363473134
C  C161  1  0.63200000  0.07340000  0.13450000  1.0 -0.3077055176
C  C162  1  0.65600000  0.94700000  0.14400000  1.0 -0.3077055176
C  C163  1  0.36800000  0.57340000  0.36550000  1.0 -0.3077055176
C  C164  1  0.34400000  0.44700000  0.35600000  1.0 -0.3077055176
C  C165  1  0.36800000  0.92660000  0.86550000  1.0 -0.3077055176
C  C166  1  0.34400000  0.05300000  0.85600000  1.0 -0.3077055176
C  C167  1  0.63200000  0.42660000  0.63450000  1.0 -0.3077055176
C  C168  1  0.65600000  0.55300000  0.64400000  1.0 -0.3077055176
C  C169  1  0.86400000  0.62880000  0.55400000  1.0 -0.3077055176
C  C170  1  0.72800000  0.61330000  0.42900000  1.0 -0.3077055176
C  C171  1  0.13600000  0.12880000  0.94600000  1.0 -0.3077055176
C  C172  1  0.27200000  0.11330000  0.07100000  1.0 -0.3077055176
C  C173  1  0.13600000  0.37120000  0.44600000  1.0 -0.3077055176
C  C174  1  0.27200000  0.38670000  0.57100000  1.0 -0.3077055176
C  C175  1  0.86400000  0.87120000  0.05400000  1.0 -0.3077055176
C  C176  1  0.72800000  0.88670000  0.92900000  1.0 -0.3077055176
N  N1  1  0.90840000  0.51390000  0.88810000  1.0 0.0143144896
N  N2  1  0.09160000  0.01390000  0.61190000  1.0 0.0170544804
N  N3  1  0.09160000  0.48610000  0.11190000  1.0 0.0170544804
N  N4  1  0.90840000  0.98610000  0.38810000  1.0 0.0143144896
N  N5  1  0.38300000  0.51660000  0.00590000  1.0 0.0170544804
N  N6  1  0.61700000  0.01660000  0.49410000  1.0 0.0170544804
N  N7  1  0.61700000  0.48340000  0.99410000  1.0 0.0170544804
N  N8  1  0.38300000  0.98340000  0.50590000  1.0 0.0170544804
N  N9  1  0.69800000  0.01370000  0.13800000  1.0 -0.0934473591
N  N10  1  0.30200000  0.51370000  0.36200000  1.0 -0.0934473591
N  N11  1  0.30200000  0.98630000  0.86200000  1.0 -0.0934473591
N  N12  1  0.69800000  0.48630000  0.63800000  1.0 -0.0934473591
N  N13  1  0.84800000  0.61210000  0.48940000  1.0 -0.0834182145
N  N14  1  0.15200000  0.11210000  0.01060000  1.0 -0.0834182145
N  N15  1  0.15200000  0.38790000  0.51060000  1.0 -0.0834182145
N  N16  1  0.84800000  0.88790000  0.98940000  1.0 -0.0834182145
O  O1  1  0.06800000  0.34910000  0.80780000  1.0 -0.6066418604
O  O2  1  0.93200000  0.84910000  0.69220000  1.0 -0.6066418604
O  O3  1  0.93200000  0.65090000  0.19220000  1.0 -0.6066418604
O  O4  1  0.06800000  0.15090000  0.30780000  1.0 -0.6066418604
O  O5  1  0.89240000  0.39380000  0.74640000  1.0 -0.5607457774
O  O6  1  0.10760000  0.89380000  0.75360000  1.0 -0.5607457774
O  O7  1  0.10760000  0.60620000  0.25360000  1.0 -0.5607457774
O  O8  1  0.89240000  0.10620000  0.24640000  1.0 -0.5607457774
O  O9  1  0.75750000  0.74900000  0.09850000  1.0 -0.5607457774
O  O10  1  0.24250000  0.24900000  0.40150000  1.0 -0.5607457774
O  O11  1  0.24250000  0.25100000  0.90150000  1.0 -0.5607457774
O  O12  1  0.75750000  0.75100000  0.59850000  1.0 -0.5607457774
O  O13  1  0.50860000  0.74510000  0.84670000  1.0 -0.4654778035
O  O14  1  0.49140000  0.24510000  0.65330000  1.0 -0.4654778035
O  O15  1  0.49140000  0.25490000  0.15330000  1.0 -0.4654778035
O  O16  1  0.50860000  0.75490000  0.34670000  1.0 -0.4654778035
O  O17  1  0.68220000  0.73330000  0.15820000  1.0 -0.5703493746
O  O18  1  0.31780000  0.23330000  0.34180000  1.0 -0.5703493746
O  O19  1  0.31780000  0.26670000  0.84180000  1.0 -0.5703493746
O  O20  1  0.68220000  0.76670000  0.65820000  1.0 -0.5703493746
O  O21  1  0.02430000  0.70490000  0.73380000  1.0 -0.6014114635
O  O22  1  0.97570000  0.20490000  0.76620000  1.0 -0.6014114635
O  O23  1  0.97570000  0.29510000  0.26620000  1.0 -0.6014114635
O  O24  1  0.02430000  0.79510000  0.23380000  1.0 -0.6014114635
O  O25  1  0.31970000  0.74960000  0.79490000  1.0 -0.5805878507
O  O26  1  0.68030000  0.24960000  0.70510000  1.0 -0.5805878507
O  O27  1  0.68030000  0.25040000  0.20510000  1.0 -0.5805878507
O  O28  1  0.31970000  0.75040000  0.29490000  1.0 -0.5805878507
O  O29  1  0.88490000  0.65160000  0.73230000  1.0 -0.4899075085
O  O30  1  0.11510000  0.15160000  0.76770000  1.0 -0.4899075085
O  O31  1  0.11510000  0.34840000  0.26770000  1.0 -0.4899075085
O  O32  1  0.88490000  0.84840000  0.23230000  1.0 -0.4899075085
O  O33  1  0.48100000  0.32810000  0.77300000  1.0 -0.5805878507
O  O34  1  0.51900000  0.82810000  0.72700000  1.0 -0.5805878507
O  O35  1  0.51900000  0.67190000  0.22700000  1.0 -0.5805878507
O  O36  1  0.48100000  0.17190000  0.27300000  1.0 -0.5805878507
O  O37  1  0.42610000  0.68630000  0.70190000  1.0 -0.5486269013
O  O38  1  0.57390000  0.18630000  0.79810000  1.0 -0.5486269013
O  O39  1  0.57390000  0.31370000  0.29810000  1.0 -0.5486269013
O  O40  1  0.42610000  0.81370000  0.20190000  1.0 -0.5486269013
O  O41  1  0.03700000  0.72490000  0.09750000  1.0 -0.6066418604
O  O42  1  0.96300000  0.22490000  0.40250000  1.0 -0.6066418604
O  O43  1  0.96300000  0.27510000  0.90250000  1.0 -0.6066418604
O  O44  1  0.03700000  0.77510000  0.59750000  1.0 -0.6066418604
O  O45  1  0.58300000  0.37830000  0.73990000  1.0 -0.4899075085
O  O46  1  0.41700000  0.87830000  0.76010000  1.0 -0.4899075085
O  O47  1  0.41700000  0.62170000  0.26010000  1.0 -0.4899075085
O  O48  1  0.58300000  0.12170000  0.23990000  1.0 -0.4899075085
O  O49  1  0.22630000  0.71550000  0.15510000  1.0 -0.5607457774
O  O50  1  0.77370000  0.21550000  0.34490000  1.0 -0.5607457774
O  O51  1  0.77370000  0.28450000  0.84490000  1.0 -0.5607457774
O  O52  1  0.22630000  0.78450000  0.65510000  1.0 -0.5607457774
O  O53  1  0.81220000  0.75650000  0.84680000  1.0 -0.5486269013
O  O54  1  0.18780000  0.25650000  0.65320000  1.0 -0.5486269013
O  O55  1  0.18780000  0.24350000  0.15320000  1.0 -0.5486269013
O  O56  1  0.81220000  0.74350000  0.34680000  1.0 -0.5486269013
O  O57  1  0.90730000  0.79320000  0.80170000  1.0 -0.5607457774
O  O58  1  0.09270000  0.29320000  0.69830000  1.0 -0.5607457774
O  O59  1  0.09270000  0.20680000  0.19830000  1.0 -0.5607457774
O  O60  1  0.90730000  0.70680000  0.30170000  1.0 -0.5607457774
O  O61  1  0.58720000  0.63180000  0.73130000  1.0 -0.5607457774
O  O62  1  0.41280000  0.13180000  0.76870000  1.0 -0.5607457774
O  O63  1  0.41280000  0.36820000  0.26870000  1.0 -0.5607457774
O  O64  1  0.58720000  0.86820000  0.23130000  1.0 -0.5607457774
O  O65  1  0.25390000  0.28640000  0.06530000  1.0 -0.3343428688
O  O66  1  0.74610000  0.78640000  0.43470000  1.0 -0.3343428688
O  O67  1  0.74610000  0.71360000  0.93470000  1.0 -0.3343428688
O  O68  1  0.25390000  0.21360000  0.56530000  1.0 -0.3343428688
O  O69  1  0.31660000  0.41280000  0.96820000  1.0 -0.6169782298
O  O70  1  0.68340000  0.91280000  0.53180000  1.0 -0.6169782298
O  O71  1  0.68340000  0.58720000  0.03180000  1.0 -0.6169782298
O  O72  1  0.31660000  0.08720000  0.46820000  1.0 -0.6169782298
O  O73  1  0.05000000  0.44240000  0.93950000  1.0 -0.5274778919
O  O74  1  0.95000000  0.94240000  0.56050000  1.0 -0.5274778919
O  O75  1  0.95000000  0.55760000  0.06050000  1.0 -0.5274778919
O  O76  1  0.05000000  0.05760000  0.43950000  1.0 -0.5274778919
