# DDEC6 charges by PACMAN v1.1 (https://github.com/mtap-research/PACMAN-charge/)
data_SAKNOJ_ASR_pacman
_symmetry_space_group_name_H-M   'P 1'
_cell_length_a   32.03190000
_cell_length_b   32.03190000
_cell_length_c   32.03190000
_cell_angle_alpha   60.00000000
_cell_angle_beta   60.00000000
_cell_angle_gamma   60.00000000
_symmetry_Int_Tables_number   1
_chemical_formula_structural   NaCd4H40C68(NO)20
_chemical_formula_sum   'Na6 Cd24 H240 C408 N120 O120'
_cell_volume   23239.83830835
_cell_formula_units_Z   6
loop_
 _symmetry_equiv_pos_site_id
 _symmetry_equiv_pos_as_xyz
  1  'x, y, z'
loop_
 _atom_site_type_symbol
 _atom_site_label
 _atom_site_symmetry_multiplicity
 _atom_site_fract_x
 _atom_site_fract_y
 _atom_site_fract_z
 _atom_site_occupancy
 _atom_site_charge
Na  Na1  1  0.25000000  0.75000000  0.25000000  1.0 0.8957204448
Na  Na2  1  0.75000000  0.25000000  0.25000000  1.0 0.8957204448
Na  Na3  1  0.75000000  0.25000000  0.75000000  1.0 0.8957204448
Na  Na4  1  0.25000000  0.75000000  0.75000000  1.0 0.8957204448
Na  Na5  1  0.75000000  0.75000000  0.25000000  1.0 0.8957204448
Na  Na6  1  0.25000000  0.25000000  0.75000000  1.0 0.8957204448
Cd  Cd1  1  0.25000000  0.25000000  0.87636000  1.0 0.873154084
Cd  Cd2  1  0.87636000  0.62364000  0.25000000  1.0 0.873154084
Cd  Cd3  1  0.25000000  0.25000000  0.62364000  1.0 0.873154084
Cd  Cd4  1  0.62364000  0.87636000  0.25000000  1.0 0.873154084
Cd  Cd5  1  0.25000000  0.87636000  0.25000000  1.0 0.873154084
Cd  Cd6  1  0.62364000  0.25000000  0.87636000  1.0 0.873154084
Cd  Cd7  1  0.25000000  0.62364000  0.87636000  1.0 0.873154084
Cd  Cd8  1  0.87636000  0.25000000  0.25000000  1.0 0.873154084
Cd  Cd9  1  0.87636000  0.25000000  0.62364000  1.0 0.873154084
Cd  Cd10  1  0.62364000  0.25000000  0.25000000  1.0 0.873154084
Cd  Cd11  1  0.25000000  0.62364000  0.25000000  1.0 0.873154084
Cd  Cd12  1  0.25000000  0.87636000  0.62364000  1.0 0.873154084
Cd  Cd13  1  0.75000000  0.75000000  0.12364000  1.0 0.873154084
Cd  Cd14  1  0.12364000  0.37636000  0.75000000  1.0 0.873154084
Cd  Cd15  1  0.75000000  0.75000000  0.37636000  1.0 0.873154084
Cd  Cd16  1  0.37636000  0.12364000  0.75000000  1.0 0.873154084
Cd  Cd17  1  0.75000000  0.12364000  0.75000000  1.0 0.873154084
Cd  Cd18  1  0.37636000  0.75000000  0.12364000  1.0 0.873154084
Cd  Cd19  1  0.75000000  0.37636000  0.12364000  1.0 0.873154084
Cd  Cd20  1  0.12364000  0.75000000  0.75000000  1.0 0.873154084
Cd  Cd21  1  0.12364000  0.75000000  0.37636000  1.0 0.873154084
Cd  Cd22  1  0.37636000  0.75000000  0.75000000  1.0 0.873154084
Cd  Cd23  1  0.75000000  0.37636000  0.75000000  1.0 0.873154084
Cd  Cd24  1  0.75000000  0.12364000  0.37636000  1.0 0.873154084
H  H1  1  0.23740000  0.97300000  0.15920000  1.0 0.2902702008
H  H2  1  0.86960000  0.34080000  0.26260000  1.0 0.2902702008
H  H3  1  0.97300000  0.23740000  0.63040000  1.0 0.2902702008
H  H4  1  0.34080000  0.86960000  0.52700000  1.0 0.2902702008
H  H5  1  0.52700000  0.86960000  0.26260000  1.0 0.2902702008
H  H6  1  0.63040000  0.15920000  0.97300000  1.0 0.2902702008
H  H7  1  0.34080000  0.26260000  0.86960000  1.0 0.2902702008
H  H8  1  0.52700000  0.34080000  0.86960000  1.0 0.2902702008
H  H9  1  0.15920000  0.63040000  0.23740000  1.0 0.2902702008
H  H10  1  0.86960000  0.26260000  0.52700000  1.0 0.2902702008
H  H11  1  0.15920000  0.23740000  0.97300000  1.0 0.2902702008
H  H12  1  0.97300000  0.15920000  0.23740000  1.0 0.2902702008
H  H13  1  0.15920000  0.97300000  0.63040000  1.0 0.2902702008
H  H14  1  0.63040000  0.97300000  0.23740000  1.0 0.2902702008
H  H15  1  0.23740000  0.63040000  0.97300000  1.0 0.2902702008
H  H16  1  0.23740000  0.15920000  0.63040000  1.0 0.2902702008
H  H17  1  0.97300000  0.63040000  0.15920000  1.0 0.2902702008
H  H18  1  0.63040000  0.23740000  0.15920000  1.0 0.2902702008
H  H19  1  0.26260000  0.52700000  0.86960000  1.0 0.2902702008
H  H20  1  0.52700000  0.26260000  0.34080000  1.0 0.2902702008
H  H21  1  0.86960000  0.52700000  0.34080000  1.0 0.2902702008
H  H22  1  0.26260000  0.34080000  0.52700000  1.0 0.2902702008
H  H23  1  0.26260000  0.86960000  0.34080000  1.0 0.2902702008
H  H24  1  0.34080000  0.52700000  0.26260000  1.0 0.2902702008
H  H25  1  0.76260000  0.02700000  0.84080000  1.0 0.2902702008
H  H26  1  0.13040000  0.65920000  0.73740000  1.0 0.2902702008
H  H27  1  0.02700000  0.76260000  0.36960000  1.0 0.2902702008
H  H28  1  0.65920000  0.13040000  0.47300000  1.0 0.2902702008
H  H29  1  0.47300000  0.13040000  0.73740000  1.0 0.2902702008
H  H30  1  0.36960000  0.84080000  0.02700000  1.0 0.2902702008
H  H31  1  0.65920000  0.73740000  0.13040000  1.0 0.2902702008
H  H32  1  0.47300000  0.65920000  0.13040000  1.0 0.2902702008
H  H33  1  0.84080000  0.36960000  0.76260000  1.0 0.2902702008
H  H34  1  0.13040000  0.73740000  0.47300000  1.0 0.2902702008
H  H35  1  0.84080000  0.76260000  0.02700000  1.0 0.2902702008
H  H36  1  0.02700000  0.84080000  0.76260000  1.0 0.2902702008
H  H37  1  0.84080000  0.02700000  0.36960000  1.0 0.2902702008
H  H38  1  0.36960000  0.02700000  0.76260000  1.0 0.2902702008
H  H39  1  0.76260000  0.36960000  0.02700000  1.0 0.2902702008
H  H40  1  0.76260000  0.84080000  0.36960000  1.0 0.2902702008
H  H41  1  0.02700000  0.36960000  0.84080000  1.0 0.2902702008
H  H42  1  0.36960000  0.76260000  0.84080000  1.0 0.2902702008
H  H43  1  0.73740000  0.47300000  0.13040000  1.0 0.2902702008
H  H44  1  0.47300000  0.73740000  0.65920000  1.0 0.2902702008
H  H45  1  0.13040000  0.47300000  0.65920000  1.0 0.2902702008
H  H46  1  0.73740000  0.65920000  0.47300000  1.0 0.2902702008
H  H47  1  0.73740000  0.13040000  0.65920000  1.0 0.2902702008
H  H48  1  0.65920000  0.47300000  0.73740000  1.0 0.2902702008
H  H49  1  0.22170000  0.13970000  0.06490000  1.0 0.1232703236
H  H50  1  0.92630000  0.43510000  0.27830000  1.0 0.1232703236
H  H51  1  0.13970000  0.22170000  0.57370000  1.0 0.1232703236
H  H52  1  0.43510000  0.92630000  0.36030000  1.0 0.1232703236
H  H53  1  0.36030000  0.92630000  0.27830000  1.0 0.1232703236
H  H54  1  0.57370000  0.06490000  0.13970000  1.0 0.1232703236
H  H55  1  0.43510000  0.27830000  0.92630000  1.0 0.1232703236
H  H56  1  0.36030000  0.43510000  0.92630000  1.0 0.1232703236
H  H57  1  0.06490000  0.57370000  0.22170000  1.0 0.1232703236
H  H58  1  0.92630000  0.27830000  0.36030000  1.0 0.1232703236
H  H59  1  0.06490000  0.22170000  0.13970000  1.0 0.1232703236
H  H60  1  0.13970000  0.06490000  0.22170000  1.0 0.1232703236
H  H61  1  0.06490000  0.13970000  0.57370000  1.0 0.1232703236
H  H62  1  0.57370000  0.13970000  0.22170000  1.0 0.1232703236
H  H63  1  0.22170000  0.57370000  0.13970000  1.0 0.1232703236
H  H64  1  0.22170000  0.06490000  0.57370000  1.0 0.1232703236
H  H65  1  0.13970000  0.57370000  0.06490000  1.0 0.1232703236
H  H66  1  0.57370000  0.22170000  0.06490000  1.0 0.1232703236
H  H67  1  0.27830000  0.36030000  0.92630000  1.0 0.1232703236
H  H68  1  0.36030000  0.27830000  0.43510000  1.0 0.1232703236
H  H69  1  0.92630000  0.36030000  0.43510000  1.0 0.1232703236
H  H70  1  0.27830000  0.43510000  0.36030000  1.0 0.1232703236
H  H71  1  0.27830000  0.92630000  0.43510000  1.0 0.1232703236
H  H72  1  0.43510000  0.36030000  0.27830000  1.0 0.1232703236
H  H73  1  0.77830000  0.86030000  0.93510000  1.0 0.1232703236
H  H74  1  0.07370000  0.56490000  0.72170000  1.0 0.1232703236
H  H75  1  0.86030000  0.77830000  0.42630000  1.0 0.1232703236
H  H76  1  0.56490000  0.07370000  0.63970000  1.0 0.1232703236
H  H77  1  0.63970000  0.07370000  0.72170000  1.0 0.1232703236
H  H78  1  0.42630000  0.93510000  0.86030000  1.0 0.1232703236
H  H79  1  0.56490000  0.72170000  0.07370000  1.0 0.1232703236
H  H80  1  0.63970000  0.56490000  0.07370000  1.0 0.1232703236
H  H81  1  0.93510000  0.42630000  0.77830000  1.0 0.1232703236
H  H82  1  0.07370000  0.72170000  0.63970000  1.0 0.1232703236
H  H83  1  0.93510000  0.77830000  0.86030000  1.0 0.1232703236
H  H84  1  0.86030000  0.93510000  0.77830000  1.0 0.1232703236
H  H85  1  0.93510000  0.86030000  0.42630000  1.0 0.1232703236
H  H86  1  0.42630000  0.86030000  0.77830000  1.0 0.1232703236
H  H87  1  0.77830000  0.42630000  0.86030000  1.0 0.1232703236
H  H88  1  0.77830000  0.93510000  0.42630000  1.0 0.1232703236
H  H89  1  0.86030000  0.42630000  0.93510000  1.0 0.1232703236
H  H90  1  0.42630000  0.77830000  0.93510000  1.0 0.1232703236
H  H91  1  0.72170000  0.63970000  0.07370000  1.0 0.1232703236
H  H92  1  0.63970000  0.72170000  0.56490000  1.0 0.1232703236
H  H93  1  0.07370000  0.63970000  0.56490000  1.0 0.1232703236
H  H94  1  0.72170000  0.56490000  0.63970000  1.0 0.1232703236
H  H95  1  0.72170000  0.07370000  0.56490000  1.0 0.1232703236
H  H96  1  0.56490000  0.63970000  0.72170000  1.0 0.1232703236
H  H97  1  0.22640000  0.06020000  0.12960000  1.0 0.1303495552
H  H98  1  0.91620000  0.37040000  0.27360000  1.0 0.1303495552
H  H99  1  0.06020000  0.22640000  0.58380000  1.0 0.1303495552
H  H100  1  0.37040000  0.91620000  0.43980000  1.0 0.1303495552
H  H101  1  0.43980000  0.91620000  0.27360000  1.0 0.1303495552
H  H102  1  0.58380000  0.12960000  0.06020000  1.0 0.1303495552
H  H103  1  0.37040000  0.27360000  0.91620000  1.0 0.1303495552
H  H104  1  0.43980000  0.37040000  0.91620000  1.0 0.1303495552
H  H105  1  0.12960000  0.58380000  0.22640000  1.0 0.1303495552
H  H106  1  0.91620000  0.27360000  0.43980000  1.0 0.1303495552
H  H107  1  0.12960000  0.22640000  0.06020000  1.0 0.1303495552
H  H108  1  0.06020000  0.12960000  0.22640000  1.0 0.1303495552
H  H109  1  0.12960000  0.06020000  0.58380000  1.0 0.1303495552
H  H110  1  0.58380000  0.06020000  0.22640000  1.0 0.1303495552
H  H111  1  0.22640000  0.58380000  0.06020000  1.0 0.1303495552
H  H112  1  0.22640000  0.12960000  0.58380000  1.0 0.1303495552
H  H113  1  0.06020000  0.58380000  0.12960000  1.0 0.1303495552
H  H114  1  0.58380000  0.22640000  0.12960000  1.0 0.1303495552
H  H115  1  0.27360000  0.43980000  0.91620000  1.0 0.1303495552
H  H116  1  0.43980000  0.27360000  0.37040000  1.0 0.1303495552
H  H117  1  0.91620000  0.43980000  0.37040000  1.0 0.1303495552
H  H118  1  0.27360000  0.37040000  0.43980000  1.0 0.1303495552
H  H119  1  0.27360000  0.91620000  0.37040000  1.0 0.1303495552
H  H120  1  0.37040000  0.43980000  0.27360000  1.0 0.1303495552
H  H121  1  0.77360000  0.93980000  0.87040000  1.0 0.1303495552
H  H122  1  0.08380000  0.62960000  0.72640000  1.0 0.1303495552
H  H123  1  0.93980000  0.77360000  0.41620000  1.0 0.1303495552
H  H124  1  0.62960000  0.08380000  0.56020000  1.0 0.1303495552
H  H125  1  0.56020000  0.08380000  0.72640000  1.0 0.1303495552
H  H126  1  0.41620000  0.87040000  0.93980000  1.0 0.1303495552
H  H127  1  0.62960000  0.72640000  0.08380000  1.0 0.1303495552
H  H128  1  0.56020000  0.62960000  0.08380000  1.0 0.1303495552
H  H129  1  0.87040000  0.41620000  0.77360000  1.0 0.1303495552
H  H130  1  0.08380000  0.72640000  0.56020000  1.0 0.1303495552
H  H131  1  0.87040000  0.77360000  0.93980000  1.0 0.1303495552
H  H132  1  0.93980000  0.87040000  0.77360000  1.0 0.1303495552
H  H133  1  0.87040000  0.93980000  0.41620000  1.0 0.1303495552
H  H134  1  0.41620000  0.93980000  0.77360000  1.0 0.1303495552
H  H135  1  0.77360000  0.41620000  0.93980000  1.0 0.1303495552
H  H136  1  0.77360000  0.87040000  0.41620000  1.0 0.1303495552
H  H137  1  0.93980000  0.41620000  0.87040000  1.0 0.1303495552
H  H138  1  0.41620000  0.77360000  0.87040000  1.0 0.1303495552
H  H139  1  0.72640000  0.56020000  0.08380000  1.0 0.1303495552
H  H140  1  0.56020000  0.72640000  0.62960000  1.0 0.1303495552
H  H141  1  0.08380000  0.56020000  0.62960000  1.0 0.1303495552
H  H142  1  0.72640000  0.62960000  0.56020000  1.0 0.1303495552
H  H143  1  0.72640000  0.08380000  0.62960000  1.0 0.1303495552
H  H144  1  0.62960000  0.56020000  0.72640000  1.0 0.1303495552
H  H145  1  0.26730000  0.99590000  0.02810000  1.0 0.0730400236
H  H146  1  0.79130000  0.47190000  0.23270000  1.0 0.0730400236
H  H147  1  0.99590000  0.26730000  0.70870000  1.0 0.0730400236
H  H148  1  0.47190000  0.79130000  0.50410000  1.0 0.0730400236
H  H149  1  0.50410000  0.79130000  0.23270000  1.0 0.0730400236
H  H150  1  0.70870000  0.02810000  0.99590000  1.0 0.0730400236
H  H151  1  0.47190000  0.23270000  0.79130000  1.0 0.0730400236
H  H152  1  0.50410000  0.47190000  0.79130000  1.0 0.0730400236
H  H153  1  0.02810000  0.70870000  0.26730000  1.0 0.0730400236
H  H154  1  0.79130000  0.23270000  0.50410000  1.0 0.0730400236
H  H155  1  0.02810000  0.26730000  0.99590000  1.0 0.0730400236
H  H156  1  0.99590000  0.02810000  0.26730000  1.0 0.0730400236
H  H157  1  0.02810000  0.99590000  0.70870000  1.0 0.0730400236
H  H158  1  0.70870000  0.99590000  0.26730000  1.0 0.0730400236
H  H159  1  0.26730000  0.70870000  0.99590000  1.0 0.0730400236
H  H160  1  0.26730000  0.02810000  0.70870000  1.0 0.0730400236
H  H161  1  0.99590000  0.70870000  0.02810000  1.0 0.0730400236
H  H162  1  0.70870000  0.26730000  0.02810000  1.0 0.0730400236
H  H163  1  0.23270000  0.50410000  0.79130000  1.0 0.0730400236
H  H164  1  0.50410000  0.23270000  0.47190000  1.0 0.0730400236
H  H165  1  0.79130000  0.50410000  0.47190000  1.0 0.0730400236
H  H166  1  0.23270000  0.47190000  0.50410000  1.0 0.0730400236
H  H167  1  0.23270000  0.79130000  0.47190000  1.0 0.0730400236
H  H168  1  0.47190000  0.50410000  0.23270000  1.0 0.0730400236
H  H169  1  0.73270000  0.00410000  0.97190000  1.0 0.0730400236
H  H170  1  0.20870000  0.52810000  0.76730000  1.0 0.0730400236
H  H171  1  0.00410000  0.73270000  0.29130000  1.0 0.0730400236
H  H172  1  0.52810000  0.20870000  0.49590000  1.0 0.0730400236
H  H173  1  0.49590000  0.20870000  0.76730000  1.0 0.0730400236
H  H174  1  0.29130000  0.97190000  0.00410000  1.0 0.0730400236
H  H175  1  0.52810000  0.76730000  0.20870000  1.0 0.0730400236
H  H176  1  0.49590000  0.52810000  0.20870000  1.0 0.0730400236
H  H177  1  0.97190000  0.29130000  0.73270000  1.0 0.0730400236
H  H178  1  0.20870000  0.76730000  0.49590000  1.0 0.0730400236
H  H179  1  0.97190000  0.73270000  0.00410000  1.0 0.0730400236
H  H180  1  0.00410000  0.97190000  0.73270000  1.0 0.0730400236
H  H181  1  0.97190000  0.00410000  0.29130000  1.0 0.0730400236
H  H182  1  0.29130000  0.00410000  0.73270000  1.0 0.0730400236
H  H183  1  0.73270000  0.29130000  0.00410000  1.0 0.0730400236
H  H184  1  0.73270000  0.97190000  0.29130000  1.0 0.0730400236
H  H185  1  0.00410000  0.29130000  0.97190000  1.0 0.0730400236
H  H186  1  0.29130000  0.73270000  0.97190000  1.0 0.0730400236
H  H187  1  0.76730000  0.49590000  0.20870000  1.0 0.0730400236
H  H188  1  0.49590000  0.76730000  0.52810000  1.0 0.0730400236
H  H189  1  0.20870000  0.49590000  0.52810000  1.0 0.0730400236
H  H190  1  0.76730000  0.52810000  0.49590000  1.0 0.0730400236
H  H191  1  0.76730000  0.20870000  0.52810000  1.0 0.0730400236
H  H192  1  0.52810000  0.49590000  0.76730000  1.0 0.0730400236
H  H193  1  0.26280000  0.07520000  0.96340000  1.0 0.1303495552
H  H194  1  0.80140000  0.53660000  0.23720000  1.0 0.1303495552
H  H195  1  0.07520000  0.26280000  0.69860000  1.0 0.1303495552
H  H196  1  0.53660000  0.80140000  0.42480000  1.0 0.1303495552
H  H197  1  0.42480000  0.80140000  0.23720000  1.0 0.1303495552
H  H198  1  0.69860000  0.96340000  0.07520000  1.0 0.1303495552
H  H199  1  0.53660000  0.23720000  0.80140000  1.0 0.1303495552
H  H200  1  0.42480000  0.53660000  0.80140000  1.0 0.1303495552
H  H201  1  0.96340000  0.69860000  0.26280000  1.0 0.1303495552
H  H202  1  0.80140000  0.23720000  0.42480000  1.0 0.1303495552
H  H203  1  0.96340000  0.26280000  0.07520000  1.0 0.1303495552
H  H204  1  0.07520000  0.96340000  0.26280000  1.0 0.1303495552
H  H205  1  0.96340000  0.07520000  0.69860000  1.0 0.1303495552
H  H206  1  0.69860000  0.07520000  0.26280000  1.0 0.1303495552
H  H207  1  0.26280000  0.69860000  0.07520000  1.0 0.1303495552
H  H208  1  0.26280000  0.96340000  0.69860000  1.0 0.1303495552
H  H209  1  0.07520000  0.69860000  0.96340000  1.0 0.1303495552
H  H210  1  0.69860000  0.26280000  0.96340000  1.0 0.1303495552
H  H211  1  0.23720000  0.42480000  0.80140000  1.0 0.1303495552
H  H212  1  0.42480000  0.23720000  0.53660000  1.0 0.1303495552
H  H213  1  0.80140000  0.42480000  0.53660000  1.0 0.1303495552
H  H214  1  0.23720000  0.53660000  0.42480000  1.0 0.1303495552
H  H215  1  0.23720000  0.80140000  0.53660000  1.0 0.1303495552
H  H216  1  0.53660000  0.42480000  0.23720000  1.0 0.1303495552
H  H217  1  0.73720000  0.92480000  0.03660000  1.0 0.1303495552
H  H218  1  0.19860000  0.46340000  0.76280000  1.0 0.1303495552
H  H219  1  0.92480000  0.73720000  0.30140000  1.0 0.1303495552
H  H220  1  0.46340000  0.19860000  0.57520000  1.0 0.1303495552
H  H221  1  0.57520000  0.19860000  0.76280000  1.0 0.1303495552
H  H222  1  0.30140000  0.03660000  0.92480000  1.0 0.1303495552
H  H223  1  0.46340000  0.76280000  0.19860000  1.0 0.1303495552
H  H224  1  0.57520000  0.46340000  0.19860000  1.0 0.1303495552
H  H225  1  0.03660000  0.30140000  0.73720000  1.0 0.1303495552
H  H226  1  0.19860000  0.76280000  0.57520000  1.0 0.1303495552
H  H227  1  0.03660000  0.73720000  0.92480000  1.0 0.1303495552
H  H228  1  0.92480000  0.03660000  0.73720000  1.0 0.1303495552
H  H229  1  0.03660000  0.92480000  0.30140000  1.0 0.1303495552
H  H230  1  0.30140000  0.92480000  0.73720000  1.0 0.1303495552
H  H231  1  0.73720000  0.30140000  0.92480000  1.0 0.1303495552
H  H232  1  0.73720000  0.03660000  0.30140000  1.0 0.1303495552
H  H233  1  0.92480000  0.30140000  0.03660000  1.0 0.1303495552
H  H234  1  0.30140000  0.73720000  0.03660000  1.0 0.1303495552
H  H235  1  0.76280000  0.57520000  0.19860000  1.0 0.1303495552
H  H236  1  0.57520000  0.76280000  0.46340000  1.0 0.1303495552
H  H237  1  0.19860000  0.57520000  0.46340000  1.0 0.1303495552
H  H238  1  0.76280000  0.46340000  0.57520000  1.0 0.1303495552
H  H239  1  0.76280000  0.19860000  0.46340000  1.0 0.1303495552
H  H240  1  0.46340000  0.57520000  0.76280000  1.0 0.1303495552
C  C1  1  0.24270000  0.16510000  0.96370000  1.0 0.5032835703
C  C2  1  0.87150000  0.53630000  0.25730000  1.0 0.5032835703
C  C3  1  0.16510000  0.24270000  0.62850000  1.0 0.5032835703
C  C4  1  0.53630000  0.87150000  0.33490000  1.0 0.5032835703
C  C5  1  0.33490000  0.87150000  0.25730000  1.0 0.5032835703
C  C6  1  0.62850000  0.96370000  0.16510000  1.0 0.5032835703
C  C7  1  0.53630000  0.25730000  0.87150000  1.0 0.5032835703
C  C8  1  0.33490000  0.53630000  0.87150000  1.0 0.5032835703
C  C9  1  0.96370000  0.62850000  0.24270000  1.0 0.5032835703
C  C10  1  0.87150000  0.25730000  0.33490000  1.0 0.5032835703
C  C11  1  0.96370000  0.24270000  0.16510000  1.0 0.5032835703
C  C12  1  0.16510000  0.96370000  0.24270000  1.0 0.5032835703
C  C13  1  0.96370000  0.16510000  0.62850000  1.0 0.5032835703
C  C14  1  0.62850000  0.16510000  0.24270000  1.0 0.5032835703
C  C15  1  0.24270000  0.62850000  0.16510000  1.0 0.5032835703
C  C16  1  0.24270000  0.96370000  0.62850000  1.0 0.5032835703
C  C17  1  0.16510000  0.62850000  0.96370000  1.0 0.5032835703
C  C18  1  0.62850000  0.24270000  0.96370000  1.0 0.5032835703
C  C19  1  0.25730000  0.33490000  0.87150000  1.0 0.5032835703
C  C20  1  0.33490000  0.25730000  0.53630000  1.0 0.5032835703
C  C21  1  0.87150000  0.33490000  0.53630000  1.0 0.5032835703
C  C22  1  0.25730000  0.53630000  0.33490000  1.0 0.5032835703
C  C23  1  0.25730000  0.87150000  0.53630000  1.0 0.5032835703
C  C24  1  0.53630000  0.33490000  0.25730000  1.0 0.5032835703
C  C25  1  0.75730000  0.83490000  0.03630000  1.0 0.5032835703
C  C26  1  0.12850000  0.46370000  0.74270000  1.0 0.5032835703
C  C27  1  0.83490000  0.75730000  0.37150000  1.0 0.5032835703
C  C28  1  0.46370000  0.12850000  0.66510000  1.0 0.5032835703
C  C29  1  0.66510000  0.12850000  0.74270000  1.0 0.5032835703
C  C30  1  0.37150000  0.03630000  0.83490000  1.0 0.5032835703
C  C31  1  0.46370000  0.74270000  0.12850000  1.0 0.5032835703
C  C32  1  0.66510000  0.46370000  0.12850000  1.0 0.5032835703
C  C33  1  0.03630000  0.37150000  0.75730000  1.0 0.5032835703
C  C34  1  0.12850000  0.74270000  0.66510000  1.0 0.5032835703
C  C35  1  0.03630000  0.75730000  0.83490000  1.0 0.5032835703
C  C36  1  0.83490000  0.03630000  0.75730000  1.0 0.5032835703
C  C37  1  0.03630000  0.83490000  0.37150000  1.0 0.5032835703
C  C38  1  0.37150000  0.83490000  0.75730000  1.0 0.5032835703
C  C39  1  0.75730000  0.37150000  0.83490000  1.0 0.5032835703
C  C40  1  0.75730000  0.03630000  0.37150000  1.0 0.5032835703
C  C41  1  0.83490000  0.37150000  0.03630000  1.0 0.5032835703
C  C42  1  0.37150000  0.75730000  0.03630000  1.0 0.5032835703
C  C43  1  0.74270000  0.66510000  0.12850000  1.0 0.5032835703
C  C44  1  0.66510000  0.74270000  0.46370000  1.0 0.5032835703
C  C45  1  0.12850000  0.66510000  0.46370000  1.0 0.5032835703
C  C46  1  0.74270000  0.46370000  0.66510000  1.0 0.5032835703
C  C47  1  0.74270000  0.12850000  0.46370000  1.0 0.5032835703
C  C48  1  0.46370000  0.66510000  0.74270000  1.0 0.5032835703
C  C49  1  0.24178000  0.11506000  0.00796000  1.0 -0.008966629
C  C50  1  0.86480000  0.49204000  0.25822000  1.0 -0.008966629
C  C51  1  0.11506000  0.24178000  0.63520000  1.0 -0.008966629
C  C52  1  0.49204000  0.86480000  0.38494000  1.0 -0.008966629
C  C53  1  0.38494000  0.86480000  0.25822000  1.0 -0.008966629
C  C54  1  0.63520000  0.00796000  0.11506000  1.0 -0.008966629
C  C55  1  0.49204000  0.25822000  0.86480000  1.0 -0.008966629
C  C56  1  0.38494000  0.49204000  0.86480000  1.0 -0.008966629
C  C57  1  0.00796000  0.63520000  0.24178000  1.0 -0.008966629
C  C58  1  0.86480000  0.25822000  0.38494000  1.0 -0.008966629
C  C59  1  0.00796000  0.24178000  0.11506000  1.0 -0.008966629
C  C60  1  0.11506000  0.00796000  0.24178000  1.0 -0.008966629
C  C61  1  0.00796000  0.11506000  0.63520000  1.0 -0.008966629
C  C62  1  0.63520000  0.11506000  0.24178000  1.0 -0.008966629
C  C63  1  0.24178000  0.63520000  0.11506000  1.0 -0.008966629
C  C64  1  0.24178000  0.00796000  0.63520000  1.0 -0.008966629
C  C65  1  0.11506000  0.63520000  0.00796000  1.0 -0.008966629
C  C66  1  0.63520000  0.24178000  0.00796000  1.0 -0.008966629
C  C67  1  0.25822000  0.38494000  0.86480000  1.0 -0.008966629
C  C68  1  0.38494000  0.25822000  0.49204000  1.0 -0.008966629
C  C69  1  0.86480000  0.38494000  0.49204000  1.0 -0.008966629
C  C70  1  0.25822000  0.49204000  0.38494000  1.0 -0.008966629
C  C71  1  0.25822000  0.86480000  0.49204000  1.0 -0.008966629
C  C72  1  0.49204000  0.38494000  0.25822000  1.0 -0.008966629
C  C73  1  0.75822000  0.88494000  0.99204000  1.0 -0.008966629
C  C74  1  0.13520000  0.50796000  0.74178000  1.0 -0.008966629
C  C75  1  0.88494000  0.75822000  0.36480000  1.0 -0.008966629
C  C76  1  0.50796000  0.13520000  0.61506000  1.0 -0.008966629
C  C77  1  0.61506000  0.13520000  0.74178000  1.0 -0.008966629
C  C78  1  0.36480000  0.99204000  0.88494000  1.0 -0.008966629
C  C79  1  0.50796000  0.74178000  0.13520000  1.0 -0.008966629
C  C80  1  0.61506000  0.50796000  0.13520000  1.0 -0.008966629
C  C81  1  0.99204000  0.36480000  0.75822000  1.0 -0.008966629
C  C82  1  0.13520000  0.74178000  0.61506000  1.0 -0.008966629
C  C83  1  0.99204000  0.75822000  0.88494000  1.0 -0.008966629
C  C84  1  0.88494000  0.99204000  0.75822000  1.0 -0.008966629
C  C85  1  0.99204000  0.88494000  0.36480000  1.0 -0.008966629
C  C86  1  0.36480000  0.88494000  0.75822000  1.0 -0.008966629
C  C87  1  0.75822000  0.36480000  0.88494000  1.0 -0.008966629
C  C88  1  0.75822000  0.99204000  0.36480000  1.0 -0.008966629
C  C89  1  0.88494000  0.36480000  0.99204000  1.0 -0.008966629
C  C90  1  0.36480000  0.75822000  0.99204000  1.0 -0.008966629
C  C91  1  0.74178000  0.61506000  0.13520000  1.0 -0.008966629
C  C92  1  0.61506000  0.74178000  0.50796000  1.0 -0.008966629
C  C93  1  0.13520000  0.61506000  0.50796000  1.0 -0.008966629
C  C94  1  0.74178000  0.50796000  0.61506000  1.0 -0.008966629
C  C95  1  0.74178000  0.13520000  0.50796000  1.0 -0.008966629
C  C96  1  0.50796000  0.61506000  0.74178000  1.0 -0.008966629
C  C97  1  0.23094000  0.11062000  0.05750000  1.0 -0.0940367287
C  C98  1  0.89906000  0.44250000  0.26906000  1.0 -0.0940367287
C  C99  1  0.11062000  0.23094000  0.60094000  1.0 -0.0940367287
C  C100  1  0.44250000  0.89906000  0.38938000  1.0 -0.0940367287
C  C101  1  0.38938000  0.89906000  0.26906000  1.0 -0.0940367287
C  C102  1  0.60094000  0.05750000  0.11062000  1.0 -0.0940367287
C  C103  1  0.44250000  0.26906000  0.89906000  1.0 -0.0940367287
C  C104  1  0.38938000  0.44250000  0.89906000  1.0 -0.0940367287
C  C105  1  0.05750000  0.60094000  0.23094000  1.0 -0.0940367287
C  C106  1  0.89906000  0.26906000  0.38938000  1.0 -0.0940367287
C  C107  1  0.05750000  0.23094000  0.11062000  1.0 -0.0940367287
C  C108  1  0.11062000  0.05750000  0.23094000  1.0 -0.0940367287
C  C109  1  0.05750000  0.11062000  0.60094000  1.0 -0.0940367287
C  C110  1  0.60094000  0.11062000  0.23094000  1.0 -0.0940367287
C  C111  1  0.23094000  0.60094000  0.11062000  1.0 -0.0940367287
C  C112  1  0.23094000  0.05750000  0.60094000  1.0 -0.0940367287
C  C113  1  0.11062000  0.60094000  0.05750000  1.0 -0.0940367287
C  C114  1  0.60094000  0.23094000  0.05750000  1.0 -0.0940367287
C  C115  1  0.26906000  0.38938000  0.89906000  1.0 -0.0940367287
C  C116  1  0.38938000  0.26906000  0.44250000  1.0 -0.0940367287
C  C117  1  0.89906000  0.38938000  0.44250000  1.0 -0.0940367287
C  C118  1  0.26906000  0.44250000  0.38938000  1.0 -0.0940367287
C  C119  1  0.26906000  0.89906000  0.44250000  1.0 -0.0940367287
C  C120  1  0.44250000  0.38938000  0.26906000  1.0 -0.0940367287
C  C121  1  0.76906000  0.88938000  0.94250000  1.0 -0.0940367287
C  C122  1  0.10094000  0.55750000  0.73094000  1.0 -0.0940367287
C  C123  1  0.88938000  0.76906000  0.39906000  1.0 -0.0940367287
C  C124  1  0.55750000  0.10094000  0.61062000  1.0 -0.0940367287
C  C125  1  0.61062000  0.10094000  0.73094000  1.0 -0.0940367287
C  C126  1  0.39906000  0.94250000  0.88938000  1.0 -0.0940367287
C  C127  1  0.55750000  0.73094000  0.10094000  1.0 -0.0940367287
C  C128  1  0.61062000  0.55750000  0.10094000  1.0 -0.0940367287
C  C129  1  0.94250000  0.39906000  0.76906000  1.0 -0.0940367287
C  C130  1  0.10094000  0.73094000  0.61062000  1.0 -0.0940367287
C  C131  1  0.94250000  0.76906000  0.88938000  1.0 -0.0940367287
C  C132  1  0.88938000  0.94250000  0.76906000  1.0 -0.0940367287
C  C133  1  0.94250000  0.88938000  0.39906000  1.0 -0.0940367287
C  C134  1  0.39906000  0.88938000  0.76906000  1.0 -0.0940367287
C  C135  1  0.76906000  0.39906000  0.88938000  1.0 -0.0940367287
C  C136  1  0.76906000  0.94250000  0.39906000  1.0 -0.0940367287
C  C137  1  0.88938000  0.39906000  0.94250000  1.0 -0.0940367287
C  C138  1  0.39906000  0.76906000  0.94250000  1.0 -0.0940367287
C  C139  1  0.73094000  0.61062000  0.10094000  1.0 -0.0940367287
C  C140  1  0.61062000  0.73094000  0.55750000  1.0 -0.0940367287
C  C141  1  0.10094000  0.61062000  0.55750000  1.0 -0.0940367287
C  C142  1  0.73094000  0.55750000  0.61062000  1.0 -0.0940367287
C  C143  1  0.73094000  0.10094000  0.55750000  1.0 -0.0940367287
C  C144  1  0.55750000  0.61062000  0.73094000  1.0 -0.0940367287
C  C145  1  0.23372000  0.06330000  0.09604000  1.0 -0.1925597165
C  C146  1  0.89306000  0.40396000  0.26628000  1.0 -0.1925597165
C  C147  1  0.06330000  0.23372000  0.60694000  1.0 -0.1925597165
C  C148  1  0.40396000  0.89306000  0.43670000  1.0 -0.1925597165
C  C149  1  0.43670000  0.89306000  0.26628000  1.0 -0.1925597165
C  C150  1  0.60694000  0.09604000  0.06330000  1.0 -0.1925597165
C  C151  1  0.40396000  0.26628000  0.89306000  1.0 -0.1925597165
C  C152  1  0.43670000  0.40396000  0.89306000  1.0 -0.1925597165
C  C153  1  0.09604000  0.60694000  0.23372000  1.0 -0.1925597165
C  C154  1  0.89306000  0.26628000  0.43670000  1.0 -0.1925597165
C  C155  1  0.09604000  0.23372000  0.06330000  1.0 -0.1925597165
C  C156  1  0.06330000  0.09604000  0.23372000  1.0 -0.1925597165
C  C157  1  0.09604000  0.06330000  0.60694000  1.0 -0.1925597165
C  C158  1  0.60694000  0.06330000  0.23372000  1.0 -0.1925597165
C  C159  1  0.23372000  0.60694000  0.06330000  1.0 -0.1925597165
C  C160  1  0.23372000  0.09604000  0.60694000  1.0 -0.1925597165
C  C161  1  0.06330000  0.60694000  0.09604000  1.0 -0.1925597165
C  C162  1  0.60694000  0.23372000  0.09604000  1.0 -0.1925597165
C  C163  1  0.26628000  0.43670000  0.89306000  1.0 -0.1925597165
C  C164  1  0.43670000  0.26628000  0.40396000  1.0 -0.1925597165
C  C165  1  0.89306000  0.43670000  0.40396000  1.0 -0.1925597165
C  C166  1  0.26628000  0.40396000  0.43670000  1.0 -0.1925597165
C  C167  1  0.26628000  0.89306000  0.40396000  1.0 -0.1925597165
C  C168  1  0.40396000  0.43670000  0.26628000  1.0 -0.1925597165
C  C169  1  0.76628000  0.93670000  0.90396000  1.0 -0.1925597165
C  C170  1  0.10694000  0.59604000  0.73372000  1.0 -0.1925597165
C  C171  1  0.93670000  0.76628000  0.39306000  1.0 -0.1925597165
C  C172  1  0.59604000  0.10694000  0.56330000  1.0 -0.1925597165
C  C173  1  0.56330000  0.10694000  0.73372000  1.0 -0.1925597165
C  C174  1  0.39306000  0.90396000  0.93670000  1.0 -0.1925597165
C  C175  1  0.59604000  0.73372000  0.10694000  1.0 -0.1925597165
C  C176  1  0.56330000  0.59604000  0.10694000  1.0 -0.1925597165
C  C177  1  0.90396000  0.39306000  0.76628000  1.0 -0.1925597165
C  C178  1  0.10694000  0.73372000  0.56330000  1.0 -0.1925597165
C  C179  1  0.90396000  0.76628000  0.93670000  1.0 -0.1925597165
C  C180  1  0.93670000  0.90396000  0.76628000  1.0 -0.1925597165
C  C181  1  0.90396000  0.93670000  0.39306000  1.0 -0.1925597165
C  C182  1  0.39306000  0.93670000  0.76628000  1.0 -0.1925597165
C  C183  1  0.76628000  0.39306000  0.93670000  1.0 -0.1925597165
C  C184  1  0.76628000  0.90396000  0.39306000  1.0 -0.1925597165
C  C185  1  0.93670000  0.39306000  0.90396000  1.0 -0.1925597165
C  C186  1  0.39306000  0.76628000  0.90396000  1.0 -0.1925597165
C  C187  1  0.73372000  0.56330000  0.10694000  1.0 -0.1925597165
C  C188  1  0.56330000  0.73372000  0.59604000  1.0 -0.1925597165
C  C189  1  0.10694000  0.56330000  0.59604000  1.0 -0.1925597165
C  C190  1  0.73372000  0.59604000  0.56330000  1.0 -0.1925597165
C  C191  1  0.73372000  0.10694000  0.59604000  1.0 -0.1925597165
C  C192  1  0.59604000  0.56330000  0.73372000  1.0 -0.1925597165
C  C193  1  0.24732000  0.02044000  0.08502000  1.0 0.2203549713
C  C194  1  0.85278000  0.41498000  0.25268000  1.0 0.2203549713
C  C195  1  0.02044000  0.24732000  0.64722000  1.0 0.2203549713
C  C196  1  0.41498000  0.85278000  0.47956000  1.0 0.2203549713
C  C197  1  0.47956000  0.85278000  0.25268000  1.0 0.2203549713
C  C198  1  0.64722000  0.08502000  0.02044000  1.0 0.2203549713
C  C199  1  0.41498000  0.25268000  0.85278000  1.0 0.2203549713
C  C200  1  0.47956000  0.41498000  0.85278000  1.0 0.2203549713
C  C201  1  0.08502000  0.64722000  0.24732000  1.0 0.2203549713
C  C202  1  0.85278000  0.25268000  0.47956000  1.0 0.2203549713
C  C203  1  0.08502000  0.24732000  0.02044000  1.0 0.2203549713
C  C204  1  0.02044000  0.08502000  0.24732000  1.0 0.2203549713
C  C205  1  0.08502000  0.02044000  0.64722000  1.0 0.2203549713
C  C206  1  0.64722000  0.02044000  0.24732000  1.0 0.2203549713
C  C207  1  0.24732000  0.64722000  0.02044000  1.0 0.2203549713
C  C208  1  0.24732000  0.08502000  0.64722000  1.0 0.2203549713
C  C209  1  0.02044000  0.64722000  0.08502000  1.0 0.2203549713
C  C210  1  0.64722000  0.24732000  0.08502000  1.0 0.2203549713
C  C211  1  0.25268000  0.47956000  0.85278000  1.0 0.2203549713
C  C212  1  0.47956000  0.25268000  0.41498000  1.0 0.2203549713
C  C213  1  0.85278000  0.47956000  0.41498000  1.0 0.2203549713
C  C214  1  0.25268000  0.41498000  0.47956000  1.0 0.2203549713
C  C215  1  0.25268000  0.85278000  0.41498000  1.0 0.2203549713
C  C216  1  0.41498000  0.47956000  0.25268000  1.0 0.2203549713
C  C217  1  0.75268000  0.97956000  0.91498000  1.0 0.2203549713
C  C218  1  0.14722000  0.58502000  0.74732000  1.0 0.2203549713
C  C219  1  0.97956000  0.75268000  0.35278000  1.0 0.2203549713
C  C220  1  0.58502000  0.14722000  0.52044000  1.0 0.2203549713
C  C221  1  0.52044000  0.14722000  0.74732000  1.0 0.2203549713
C  C222  1  0.35278000  0.91498000  0.97956000  1.0 0.2203549713
C  C223  1  0.58502000  0.74732000  0.14722000  1.0 0.2203549713
C  C224  1  0.52044000  0.58502000  0.14722000  1.0 0.2203549713
C  C225  1  0.91498000  0.35278000  0.75268000  1.0 0.2203549713
C  C226  1  0.14722000  0.74732000  0.52044000  1.0 0.2203549713
C  C227  1  0.91498000  0.75268000  0.97956000  1.0 0.2203549713
C  C228  1  0.97956000  0.91498000  0.75268000  1.0 0.2203549713
C  C229  1  0.91498000  0.97956000  0.35278000  1.0 0.2203549713
C  C230  1  0.35278000  0.97956000  0.75268000  1.0 0.2203549713
C  C231  1  0.75268000  0.35278000  0.97956000  1.0 0.2203549713
C  C232  1  0.75268000  0.91498000  0.35278000  1.0 0.2203549713
C  C233  1  0.97956000  0.35278000  0.91498000  1.0 0.2203549713
C  C234  1  0.35278000  0.75268000  0.91498000  1.0 0.2203549713
C  C235  1  0.74732000  0.52044000  0.14722000  1.0 0.2203549713
C  C236  1  0.52044000  0.74732000  0.58502000  1.0 0.2203549713
C  C237  1  0.14722000  0.52044000  0.58502000  1.0 0.2203549713
C  C238  1  0.74732000  0.58502000  0.52044000  1.0 0.2203549713
C  C239  1  0.74732000  0.14722000  0.58502000  1.0 0.2203549713
C  C240  1  0.58502000  0.52044000  0.74732000  1.0 0.2203549713
C  C241  1  0.25816000  0.02488000  0.03548000  1.0 -0.1233768512
C  C242  1  0.81852000  0.46452000  0.24184000  1.0 -0.1233768512
C  C243  1  0.02488000  0.25816000  0.68148000  1.0 -0.1233768512
C  C244  1  0.46452000  0.81852000  0.47512000  1.0 -0.1233768512
C  C245  1  0.47512000  0.81852000  0.24184000  1.0 -0.1233768512
C  C246  1  0.68148000  0.03548000  0.02488000  1.0 -0.1233768512
C  C247  1  0.46452000  0.24184000  0.81852000  1.0 -0.1233768512
C  C248  1  0.47512000  0.46452000  0.81852000  1.0 -0.1233768512
C  C249  1  0.03548000  0.68148000  0.25816000  1.0 -0.1233768512
C  C250  1  0.81852000  0.24184000  0.47512000  1.0 -0.1233768512
C  C251  1  0.03548000  0.25816000  0.02488000  1.0 -0.1233768512
C  C252  1  0.02488000  0.03548000  0.25816000  1.0 -0.1233768512
C  C253  1  0.03548000  0.02488000  0.68148000  1.0 -0.1233768512
C  C254  1  0.68148000  0.02488000  0.25816000  1.0 -0.1233768512
C  C255  1  0.25816000  0.68148000  0.02488000  1.0 -0.1233768512
C  C256  1  0.25816000  0.03548000  0.68148000  1.0 -0.1233768512
C  C257  1  0.02488000  0.68148000  0.03548000  1.0 -0.1233768512
C  C258  1  0.68148000  0.25816000  0.03548000  1.0 -0.1233768512
C  C259  1  0.24184000  0.47512000  0.81852000  1.0 -0.1233768512
C  C260  1  0.47512000  0.24184000  0.46452000  1.0 -0.1233768512
C  C261  1  0.81852000  0.47512000  0.46452000  1.0 -0.1233768512
C  C262  1  0.24184000  0.46452000  0.47512000  1.0 -0.1233768512
C  C263  1  0.24184000  0.81852000  0.46452000  1.0 -0.1233768512
C  C264  1  0.46452000  0.47512000  0.24184000  1.0 -0.1233768512
C  C265  1  0.74184000  0.97512000  0.96452000  1.0 -0.1233768512
C  C266  1  0.18148000  0.53548000  0.75816000  1.0 -0.1233768512
C  C267  1  0.97512000  0.74184000  0.31852000  1.0 -0.1233768512
C  C268  1  0.53548000  0.18148000  0.52488000  1.0 -0.1233768512
C  C269  1  0.52488000  0.18148000  0.75816000  1.0 -0.1233768512
C  C270  1  0.31852000  0.96452000  0.97512000  1.0 -0.1233768512
C  C271  1  0.53548000  0.75816000  0.18148000  1.0 -0.1233768512
C  C272  1  0.52488000  0.53548000  0.18148000  1.0 -0.1233768512
C  C273  1  0.96452000  0.31852000  0.74184000  1.0 -0.1233768512
C  C274  1  0.18148000  0.75816000  0.52488000  1.0 -0.1233768512
C  C275  1  0.96452000  0.74184000  0.97512000  1.0 -0.1233768512
C  C276  1  0.97512000  0.96452000  0.74184000  1.0 -0.1233768512
C  C277  1  0.96452000  0.97512000  0.31852000  1.0 -0.1233768512
C  C278  1  0.31852000  0.97512000  0.74184000  1.0 -0.1233768512
C  C279  1  0.74184000  0.31852000  0.97512000  1.0 -0.1233768512
C  C280  1  0.74184000  0.96452000  0.31852000  1.0 -0.1233768512
C  C281  1  0.97512000  0.31852000  0.96452000  1.0 -0.1233768512
C  C282  1  0.31852000  0.74184000  0.96452000  1.0 -0.1233768512
C  C283  1  0.75816000  0.52488000  0.18148000  1.0 -0.1233768512
C  C284  1  0.52488000  0.75816000  0.53548000  1.0 -0.1233768512
C  C285  1  0.18148000  0.52488000  0.53548000  1.0 -0.1233768512
C  C286  1  0.75816000  0.53548000  0.52488000  1.0 -0.1233768512
C  C287  1  0.75816000  0.18148000  0.53548000  1.0 -0.1233768512
C  C288  1  0.53548000  0.52488000  0.75816000  1.0 -0.1233768512
C  C289  1  0.25543000  0.07217000  0.99697000  1.0 -0.1145920343
C  C290  1  0.82457000  0.50303000  0.24457000  1.0 -0.1145920343
C  C291  1  0.07217000  0.25543000  0.67543000  1.0 -0.1145920343
C  C292  1  0.50303000  0.82457000  0.42783000  1.0 -0.1145920343
C  C293  1  0.42783000  0.82457000  0.24457000  1.0 -0.1145920343
C  C294  1  0.67543000  0.99697000  0.07217000  1.0 -0.1145920343
C  C295  1  0.50303000  0.24457000  0.82457000  1.0 -0.1145920343
C  C296  1  0.42783000  0.50303000  0.82457000  1.0 -0.1145920343
C  C297  1  0.99697000  0.67543000  0.25543000  1.0 -0.1145920343
C  C298  1  0.82457000  0.24457000  0.42783000  1.0 -0.1145920343
C  C299  1  0.99697000  0.25543000  0.07217000  1.0 -0.1145920343
C  C300  1  0.07217000  0.99697000  0.25543000  1.0 -0.1145920343
C  C301  1  0.99697000  0.07217000  0.67543000  1.0 -0.1145920343
C  C302  1  0.67543000  0.07217000  0.25543000  1.0 -0.1145920343
C  C303  1  0.25543000  0.67543000  0.07217000  1.0 -0.1233768512
C  C304  1  0.25543000  0.99697000  0.67543000  1.0 -0.1145920343
C  C305  1  0.07217000  0.67543000  0.99697000  1.0 -0.1145920343
C  C306  1  0.67543000  0.25543000  0.99697000  1.0 -0.1145920343
C  C307  1  0.24457000  0.42783000  0.82457000  1.0 -0.1145920343
C  C308  1  0.42783000  0.24457000  0.50303000  1.0 -0.1145920343
C  C309  1  0.82457000  0.42783000  0.50303000  1.0 -0.1145920343
C  C310  1  0.24457000  0.50303000  0.42783000  1.0 -0.1145920343
C  C311  1  0.24457000  0.82457000  0.50303000  1.0 -0.1145920343
C  C312  1  0.50303000  0.42783000  0.24457000  1.0 -0.1145920343
C  C313  1  0.74457000  0.92783000  0.00303000  1.0 -0.1145920343
C  C314  1  0.17543000  0.49697000  0.75543000  1.0 -0.1145920343
C  C315  1  0.92783000  0.74457000  0.32457000  1.0 -0.1145920343
C  C316  1  0.49697000  0.17543000  0.57217000  1.0 -0.1145920343
C  C317  1  0.57217000  0.17543000  0.75543000  1.0 -0.1145920343
C  C318  1  0.32457000  0.00303000  0.92783000  1.0 -0.1145920343
C  C319  1  0.49697000  0.75543000  0.17543000  1.0 -0.1145920343
C  C320  1  0.57217000  0.49697000  0.17543000  1.0 -0.1145920343
C  C321  1  0.00303000  0.32457000  0.74457000  1.0 -0.1145920343
C  C322  1  0.17543000  0.75543000  0.57217000  1.0 -0.1233768512
C  C323  1  0.00303000  0.74457000  0.92783000  1.0 -0.1145920343
C  C324  1  0.92783000  0.00303000  0.74457000  1.0 -0.1145920343
C  C325  1  0.00303000  0.92783000  0.32457000  1.0 -0.1233768512
C  C326  1  0.32457000  0.92783000  0.74457000  1.0 -0.1145920343
C  C327  1  0.74457000  0.32457000  0.92783000  1.0 -0.1145920343
C  C328  1  0.74457000  0.00303000  0.32457000  1.0 -0.1145920343
C  C329  1  0.92783000  0.32457000  0.00303000  1.0 -0.1145920343
C  C330  1  0.32457000  0.74457000  0.00303000  1.0 -0.1145920343
C  C331  1  0.75543000  0.57217000  0.17543000  1.0 -0.1145920343
C  C332  1  0.57217000  0.75543000  0.49697000  1.0 -0.1145920343
C  C333  1  0.17543000  0.57217000  0.49697000  1.0 -0.1233768512
C  C334  1  0.75543000  0.49697000  0.57217000  1.0 -0.1145920343
C  C335  1  0.75543000  0.17543000  0.49697000  1.0 -0.1145920343
C  C336  1  0.49697000  0.57217000  0.75543000  1.0 -0.1145920343
C  C337  1  0.27810000  0.92670000  0.12304000  1.0 0.5408957503
C  C338  1  0.82784000  0.37696000  0.22190000  1.0 0.5408957503
C  C339  1  0.92670000  0.27810000  0.67216000  1.0 0.5408957503
C  C340  1  0.37696000  0.82784000  0.57330000  1.0 0.5408957503
C  C341  1  0.57330000  0.82784000  0.22190000  1.0 0.5408957503
C  C342  1  0.67216000  0.12304000  0.92670000  1.0 0.5408957503
C  C343  1  0.37696000  0.22190000  0.82784000  1.0 0.5408957503
C  C344  1  0.57330000  0.37696000  0.82784000  1.0 0.5408957503
C  C345  1  0.12304000  0.67216000  0.27810000  1.0 0.5408957503
C  C346  1  0.82784000  0.22190000  0.57330000  1.0 0.5408957503
C  C347  1  0.12304000  0.27810000  0.92670000  1.0 0.5408957503
C  C348  1  0.92670000  0.12304000  0.27810000  1.0 0.5408957503
C  C349  1  0.12304000  0.92670000  0.67216000  1.0 0.5408957503
C  C350  1  0.67216000  0.92670000  0.27810000  1.0 0.5408957503
C  C351  1  0.27810000  0.67216000  0.92670000  1.0 0.5408957503
C  C352  1  0.27810000  0.12304000  0.67216000  1.0 0.5408957503
C  C353  1  0.92670000  0.67216000  0.12304000  1.0 0.5408957503
C  C354  1  0.67216000  0.27810000  0.12304000  1.0 0.5408957503
C  C355  1  0.22190000  0.57330000  0.82784000  1.0 0.5408957503
C  C356  1  0.57330000  0.22190000  0.37696000  1.0 0.5408957503
C  C357  1  0.82784000  0.57330000  0.37696000  1.0 0.5408957503
C  C358  1  0.22190000  0.37696000  0.57330000  1.0 0.5408957503
C  C359  1  0.22190000  0.82784000  0.37696000  1.0 0.5408957503
C  C360  1  0.37696000  0.57330000  0.22190000  1.0 0.5408957503
C  C361  1  0.72190000  0.07330000  0.87696000  1.0 0.5408957503
C  C362  1  0.17216000  0.62304000  0.77810000  1.0 0.5408957503
C  C363  1  0.07330000  0.72190000  0.32784000  1.0 0.5408957503
C  C364  1  0.62304000  0.17216000  0.42670000  1.0 0.5408957503
C  C365  1  0.42670000  0.17216000  0.77810000  1.0 0.5408957503
C  C366  1  0.32784000  0.87696000  0.07330000  1.0 0.5408957503
C  C367  1  0.62304000  0.77810000  0.17216000  1.0 0.5408957503
C  C368  1  0.42670000  0.62304000  0.17216000  1.0 0.5408957503
C  C369  1  0.87696000  0.32784000  0.72190000  1.0 0.5408957503
C  C370  1  0.17216000  0.77810000  0.42670000  1.0 0.5408957503
C  C371  1  0.87696000  0.72190000  0.07330000  1.0 0.5408957503
C  C372  1  0.07330000  0.87696000  0.72190000  1.0 0.5408957503
C  C373  1  0.87696000  0.07330000  0.32784000  1.0 0.5408957503
C  C374  1  0.32784000  0.07330000  0.72190000  1.0 0.5408957503
C  C375  1  0.72190000  0.32784000  0.07330000  1.0 0.5408957503
C  C376  1  0.72190000  0.87696000  0.32784000  1.0 0.5408957503
C  C377  1  0.07330000  0.32784000  0.87696000  1.0 0.5408957503
C  C378  1  0.32784000  0.72190000  0.87696000  1.0 0.5408957503
C  C379  1  0.77810000  0.42670000  0.17216000  1.0 0.5408957503
C  C380  1  0.42670000  0.77810000  0.62304000  1.0 0.5408957503
C  C381  1  0.17216000  0.42670000  0.62304000  1.0 0.5408957503
C  C382  1  0.77810000  0.62304000  0.42670000  1.0 0.5408957503
C  C383  1  0.77810000  0.17216000  0.62304000  1.0 0.5408957503
C  C384  1  0.62304000  0.42670000  0.77810000  1.0 0.5408957503
C  C385  1  0.30377000  0.83857000  0.16143000  1.0 0.6430122357
C  C386  1  0.80377000  0.33857000  0.19623000  1.0 0.6430122357
C  C387  1  0.83857000  0.30377000  0.69623000  1.0 0.6430122357
C  C388  1  0.33857000  0.80377000  0.66143000  1.0 0.6430122357
C  C389  1  0.66143000  0.80377000  0.19623000  1.0 0.6430122357
C  C390  1  0.69623000  0.16143000  0.83857000  1.0 0.6430122357
C  C391  1  0.33857000  0.19623000  0.80377000  1.0 0.6430122357
C  C392  1  0.66143000  0.33857000  0.80377000  1.0 0.6430122357
C  C393  1  0.16143000  0.69623000  0.30377000  1.0 0.6430122357
C  C394  1  0.80377000  0.19623000  0.66143000  1.0 0.6430122357
C  C395  1  0.16143000  0.30377000  0.83857000  1.0 0.6430122357
C  C396  1  0.83857000  0.16143000  0.30377000  1.0 0.6430122357
C  C397  1  0.16143000  0.83857000  0.69623000  1.0 0.6430122357
C  C398  1  0.69623000  0.83857000  0.30377000  1.0 0.6430122357
C  C399  1  0.30377000  0.69623000  0.83857000  1.0 0.6430122357
C  C400  1  0.30377000  0.16143000  0.69623000  1.0 0.6430122357
C  C401  1  0.83857000  0.69623000  0.16143000  1.0 0.6430122357
C  C402  1  0.69623000  0.30377000  0.16143000  1.0 0.6430122357
C  C403  1  0.19623000  0.66143000  0.80377000  1.0 0.6430122357
C  C404  1  0.66143000  0.19623000  0.33857000  1.0 0.6430122357
C  C405  1  0.80377000  0.66143000  0.33857000  1.0 0.6430122357
C  C406  1  0.19623000  0.33857000  0.66143000  1.0 0.6430122357
C  C407  1  0.19623000  0.80377000  0.33857000  1.0 0.6430122357
C  C408  1  0.33857000  0.66143000  0.19623000  1.0 0.6430122357
N  N1  1  0.25247000  0.97155000  0.12833000  1.0 -0.3541175563
N  N2  1  0.85235000  0.37167000  0.24753000  1.0 -0.3541175563
N  N3  1  0.97155000  0.25247000  0.64765000  1.0 -0.3551122326
N  N4  1  0.37167000  0.85235000  0.52845000  1.0 -0.3551122326
N  N5  1  0.52845000  0.85235000  0.24753000  1.0 -0.3541175563
N  N6  1  0.64765000  0.12833000  0.97155000  1.0 -0.3551122326
N  N7  1  0.37167000  0.24753000  0.85235000  1.0 -0.3551122326
N  N8  1  0.52845000  0.37167000  0.85235000  1.0 -0.3551122326
N  N9  1  0.12833000  0.64765000  0.25247000  1.0 -0.3541175563
N  N10  1  0.85235000  0.24753000  0.52845000  1.0 -0.3551122326
N  N11  1  0.12833000  0.25247000  0.97155000  1.0 -0.3551122326
N  N12  1  0.97155000  0.12833000  0.25247000  1.0 -0.3541175563
N  N13  1  0.12833000  0.97155000  0.64765000  1.0 -0.3541175563
N  N14  1  0.64765000  0.97155000  0.25247000  1.0 -0.3541175563
N  N15  1  0.25247000  0.64765000  0.97155000  1.0 -0.3551122326
N  N16  1  0.25247000  0.12833000  0.64765000  1.0 -0.3551122326
N  N17  1  0.97155000  0.64765000  0.12833000  1.0 -0.3541175563
N  N18  1  0.64765000  0.25247000  0.12833000  1.0 -0.3541175563
N  N19  1  0.24753000  0.52845000  0.85235000  1.0 -0.3551122326
N  N20  1  0.52845000  0.24753000  0.37167000  1.0 -0.3541175563
N  N21  1  0.85235000  0.52845000  0.37167000  1.0 -0.3541175563
N  N22  1  0.24753000  0.37167000  0.52845000  1.0 -0.3551122326
N  N23  1  0.24753000  0.85235000  0.37167000  1.0 -0.3541175563
N  N24  1  0.37167000  0.52845000  0.24753000  1.0 -0.3541175563
N  N25  1  0.74753000  0.02845000  0.87167000  1.0 -0.3541175563
N  N26  1  0.14765000  0.62833000  0.75247000  1.0 -0.3551122326
N  N27  1  0.02845000  0.74753000  0.35235000  1.0 -0.3551122326
N  N28  1  0.62833000  0.14765000  0.47155000  1.0 -0.3541175563
N  N29  1  0.47155000  0.14765000  0.75247000  1.0 -0.3551122326
N  N30  1  0.35235000  0.87167000  0.02845000  1.0 -0.3541175563
N  N31  1  0.62833000  0.75247000  0.14765000  1.0 -0.3541175563
N  N32  1  0.47155000  0.62833000  0.14765000  1.0 -0.3541175563
N  N33  1  0.87167000  0.35235000  0.74753000  1.0 -0.3551122326
N  N34  1  0.14765000  0.75247000  0.47155000  1.0 -0.3541175563
N  N35  1  0.87167000  0.74753000  0.02845000  1.0 -0.3541175563
N  N36  1  0.02845000  0.87167000  0.74753000  1.0 -0.3541175563
N  N37  1  0.87167000  0.02845000  0.35235000  1.0 -0.3541175563
N  N38  1  0.35235000  0.02845000  0.74753000  1.0 -0.3551122326
N  N39  1  0.74753000  0.35235000  0.02845000  1.0 -0.3541175563
N  N40  1  0.74753000  0.87167000  0.35235000  1.0 -0.3541175563
N  N41  1  0.02845000  0.35235000  0.87167000  1.0 -0.3551122326
N  N42  1  0.35235000  0.74753000  0.87167000  1.0 -0.3541175563
N  N43  1  0.75247000  0.47155000  0.14765000  1.0 -0.3551122326
N  N44  1  0.47155000  0.75247000  0.62833000  1.0 -0.3551122326
N  N45  1  0.14765000  0.47155000  0.62833000  1.0 -0.3551122326
N  N46  1  0.75247000  0.62833000  0.47155000  1.0 -0.3541175563
N  N47  1  0.75247000  0.14765000  0.62833000  1.0 -0.3551122326
N  N48  1  0.62833000  0.47155000  0.75247000  1.0 -0.3551122326
N  N49  1  0.30216000  0.92404000  0.07596000  1.0 -0.5008847762
N  N50  1  0.80216000  0.42404000  0.19784000  1.0 -0.5008847762
N  N51  1  0.92404000  0.30216000  0.69784000  1.0 -0.5008847762
N  N52  1  0.42404000  0.80216000  0.57596000  1.0 -0.5008847762
N  N53  1  0.57596000  0.80216000  0.19784000  1.0 -0.5008847762
N  N54  1  0.69784000  0.07596000  0.92404000  1.0 -0.5008847762
N  N55  1  0.42404000  0.19784000  0.80216000  1.0 -0.5008847762
N  N56  1  0.57596000  0.42404000  0.80216000  1.0 -0.5008847762
N  N57  1  0.07596000  0.69784000  0.30216000  1.0 -0.5008847762
N  N58  1  0.80216000  0.19784000  0.57596000  1.0 -0.5008847762
N  N59  1  0.07596000  0.30216000  0.92404000  1.0 -0.5008847762
N  N60  1  0.92404000  0.07596000  0.30216000  1.0 -0.5008847762
N  N61  1  0.07596000  0.92404000  0.69784000  1.0 -0.5008847762
N  N62  1  0.69784000  0.92404000  0.30216000  1.0 -0.5008847762
N  N63  1  0.30216000  0.69784000  0.92404000  1.0 -0.5008847762
N  N64  1  0.30216000  0.07596000  0.69784000  1.0 -0.5008847762
N  N65  1  0.92404000  0.69784000  0.07596000  1.0 -0.5008847762
N  N66  1  0.69784000  0.30216000  0.07596000  1.0 -0.5008847762
N  N67  1  0.19784000  0.57596000  0.80216000  1.0 -0.5008847762
N  N68  1  0.57596000  0.19784000  0.42404000  1.0 -0.5008847762
N  N69  1  0.80216000  0.57596000  0.42404000  1.0 -0.5008847762
N  N70  1  0.19784000  0.42404000  0.57596000  1.0 -0.5008847762
N  N71  1  0.19784000  0.80216000  0.42404000  1.0 -0.5008847762
N  N72  1  0.42404000  0.57596000  0.19784000  1.0 -0.5008847762
N  N73  1  0.27734000  0.88590000  0.16604000  1.0 -0.5643456453
N  N74  1  0.82928000  0.33396000  0.22266000  1.0 -0.565390493
N  N75  1  0.88590000  0.27734000  0.67072000  1.0 -0.565390493
N  N76  1  0.33396000  0.82928000  0.61410000  1.0 -0.565390493
N  N77  1  0.61410000  0.82928000  0.22266000  1.0 -0.565390493
N  N78  1  0.67072000  0.16604000  0.88590000  1.0 -0.565390493
N  N79  1  0.33396000  0.22266000  0.82928000  1.0 -0.565390493
N  N80  1  0.61410000  0.33396000  0.82928000  1.0 -0.565390493
N  N81  1  0.16604000  0.67072000  0.27734000  1.0 -0.565390493
N  N82  1  0.82928000  0.22266000  0.61410000  1.0 -0.565390493
N  N83  1  0.16604000  0.27734000  0.88590000  1.0 -0.565390493
N  N84  1  0.88590000  0.16604000  0.27734000  1.0 -0.565390493
N  N85  1  0.16604000  0.88590000  0.67072000  1.0 -0.565390493
N  N86  1  0.67072000  0.88590000  0.27734000  1.0 -0.565390493
N  N87  1  0.27734000  0.67072000  0.88590000  1.0 -0.565390493
N  N88  1  0.27734000  0.16604000  0.67072000  1.0 -0.565390493
N  N89  1  0.88590000  0.67072000  0.16604000  1.0 -0.565390493
N  N90  1  0.67072000  0.27734000  0.16604000  1.0 -0.565390493
N  N91  1  0.22266000  0.61410000  0.82928000  1.0 -0.565390493
N  N92  1  0.61410000  0.22266000  0.33396000  1.0 -0.565390493
N  N93  1  0.82928000  0.61410000  0.33396000  1.0 -0.565390493
N  N94  1  0.22266000  0.33396000  0.61410000  1.0 -0.565390493
N  N95  1  0.22266000  0.82928000  0.33396000  1.0 -0.565390493
N  N96  1  0.33396000  0.61410000  0.22266000  1.0 -0.565390493
N  N97  1  0.72266000  0.11410000  0.83396000  1.0 -0.565390493
N  N98  1  0.17072000  0.66604000  0.77734000  1.0 -0.565390493
N  N99  1  0.11410000  0.72266000  0.32928000  1.0 -0.5643456453
N  N100  1  0.66604000  0.17072000  0.38590000  1.0 -0.565390493
N  N101  1  0.38590000  0.17072000  0.77734000  1.0 -0.565390493
N  N102  1  0.32928000  0.83396000  0.11410000  1.0 -0.565390493
N  N103  1  0.66604000  0.77734000  0.17072000  1.0 -0.565390493
N  N104  1  0.38590000  0.66604000  0.17072000  1.0 -0.565390493
N  N105  1  0.83396000  0.32928000  0.72266000  1.0 -0.565390493
N  N106  1  0.17072000  0.77734000  0.38590000  1.0 -0.565390493
N  N107  1  0.83396000  0.72266000  0.11410000  1.0 -0.565390493
N  N108  1  0.11410000  0.83396000  0.72266000  1.0 -0.5643456453
N  N109  1  0.83396000  0.11410000  0.32928000  1.0 -0.565390493
N  N110  1  0.32928000  0.11410000  0.72266000  1.0 -0.565390493
N  N111  1  0.72266000  0.32928000  0.11410000  1.0 -0.565390493
N  N112  1  0.72266000  0.83396000  0.32928000  1.0 -0.5643456453
N  N113  1  0.11410000  0.32928000  0.83396000  1.0 -0.565390493
N  N114  1  0.32928000  0.72266000  0.83396000  1.0 -0.565390493
N  N115  1  0.77734000  0.38590000  0.17072000  1.0 -0.565390493
N  N116  1  0.38590000  0.77734000  0.66604000  1.0 -0.565390493
N  N117  1  0.17072000  0.38590000  0.66604000  1.0 -0.565390493
N  N118  1  0.77734000  0.66604000  0.38590000  1.0 -0.565390493
N  N119  1  0.77734000  0.17072000  0.66604000  1.0 -0.565390493
N  N120  1  0.66604000  0.38590000  0.77734000  1.0 -0.565390493
O  O1  1  0.25198000  0.16574000  0.92262000  1.0 -0.4242264976
O  O2  1  0.84034000  0.57738000  0.24802000  1.0 -0.4250740254
O  O3  1  0.16574000  0.25198000  0.65966000  1.0 -0.4250740254
O  O4  1  0.57738000  0.84034000  0.33426000  1.0 -0.4242264976
O  O5  1  0.33426000  0.84034000  0.24802000  1.0 -0.4250740254
O  O6  1  0.65966000  0.92262000  0.16574000  1.0 -0.4250740254
O  O7  1  0.57738000  0.24802000  0.84034000  1.0 -0.4250740254
O  O8  1  0.33426000  0.57738000  0.84034000  1.0 -0.4250740254
O  O9  1  0.92262000  0.65966000  0.25198000  1.0 -0.4242264976
O  O10  1  0.84034000  0.24802000  0.33426000  1.0 -0.4242264976
O  O11  1  0.92262000  0.25198000  0.16574000  1.0 -0.4250740254
O  O12  1  0.16574000  0.92262000  0.25198000  1.0 -0.4242264976
O  O13  1  0.92262000  0.16574000  0.65966000  1.0 -0.4250740254
O  O14  1  0.65966000  0.16574000  0.25198000  1.0 -0.4242264976
O  O15  1  0.25198000  0.65966000  0.16574000  1.0 -0.4250740254
O  O16  1  0.25198000  0.92262000  0.65966000  1.0 -0.4250740254
O  O17  1  0.16574000  0.65966000  0.92262000  1.0 -0.4250740254
O  O18  1  0.65966000  0.25198000  0.92262000  1.0 -0.4250740254
O  O19  1  0.24802000  0.33426000  0.84034000  1.0 -0.4250740254
O  O20  1  0.33426000  0.24802000  0.57738000  1.0 -0.4250740254
O  O21  1  0.84034000  0.33426000  0.57738000  1.0 -0.4250740254
O  O22  1  0.24802000  0.57738000  0.33426000  1.0 -0.4242264976
O  O23  1  0.24802000  0.84034000  0.57738000  1.0 -0.4242264976
O  O24  1  0.57738000  0.33426000  0.24802000  1.0 -0.4242264976
O  O25  1  0.74802000  0.83426000  0.07738000  1.0 -0.4242264976
O  O26  1  0.15966000  0.42262000  0.75198000  1.0 -0.4250740254
O  O27  1  0.83426000  0.74802000  0.34034000  1.0 -0.4250740254
O  O28  1  0.42262000  0.15966000  0.66574000  1.0 -0.4250740254
O  O29  1  0.66574000  0.15966000  0.75198000  1.0 -0.4242264976
O  O30  1  0.34034000  0.07738000  0.83426000  1.0 -0.4242264976
O  O31  1  0.42262000  0.75198000  0.15966000  1.0 -0.4250740254
O  O32  1  0.66574000  0.42262000  0.15966000  1.0 -0.4242264976
O  O33  1  0.07738000  0.34034000  0.74802000  1.0 -0.4250740254
O  O34  1  0.15966000  0.75198000  0.66574000  1.0 -0.4250740254
O  O35  1  0.07738000  0.74802000  0.83426000  1.0 -0.4250740254
O  O36  1  0.83426000  0.07738000  0.74802000  1.0 -0.4250740254
O  O37  1  0.07738000  0.83426000  0.34034000  1.0 -0.4250740254
O  O38  1  0.34034000  0.83426000  0.74802000  1.0 -0.4242264976
O  O39  1  0.74802000  0.34034000  0.83426000  1.0 -0.4250740254
O  O40  1  0.74802000  0.07738000  0.34034000  1.0 -0.4250740254
O  O41  1  0.83426000  0.34034000  0.07738000  1.0 -0.4242264976
O  O42  1  0.34034000  0.74802000  0.07738000  1.0 -0.4242264976
O  O43  1  0.75198000  0.66574000  0.15966000  1.0 -0.4250740254
O  O44  1  0.66574000  0.75198000  0.42262000  1.0 -0.4250740254
O  O45  1  0.15966000  0.66574000  0.42262000  1.0 -0.4250740254
O  O46  1  0.75198000  0.42262000  0.66574000  1.0 -0.4242264976
O  O47  1  0.75198000  0.15966000  0.42262000  1.0 -0.4250740254
O  O48  1  0.42262000  0.66574000  0.75198000  1.0 -0.4250740254
O  O49  1  0.22949000  0.20191000  0.97309000  1.0 -0.4623763578
O  O50  1  0.90449000  0.52691000  0.27051000  1.0 -0.4623763578
O  O51  1  0.20191000  0.22949000  0.59551000  1.0 -0.4623763578
O  O52  1  0.52691000  0.90449000  0.29809000  1.0 -0.4623763578
O  O53  1  0.29809000  0.90449000  0.27051000  1.0 -0.4623763578
O  O54  1  0.59551000  0.97309000  0.20191000  1.0 -0.4623763578
O  O55  1  0.52691000  0.27051000  0.90449000  1.0 -0.4623763578
O  O56  1  0.29809000  0.52691000  0.90449000  1.0 -0.4623763578
O  O57  1  0.97309000  0.59551000  0.22949000  1.0 -0.4623763578
O  O58  1  0.90449000  0.27051000  0.29809000  1.0 -0.4623763578
O  O59  1  0.97309000  0.22949000  0.20191000  1.0 -0.4623763578
O  O60  1  0.20191000  0.97309000  0.22949000  1.0 -0.4623763578
O  O61  1  0.97309000  0.20191000  0.59551000  1.0 -0.4623763578
O  O62  1  0.59551000  0.20191000  0.22949000  1.0 -0.4623763578
O  O63  1  0.22949000  0.59551000  0.20191000  1.0 -0.4623763578
O  O64  1  0.22949000  0.97309000  0.59551000  1.0 -0.4623763578
O  O65  1  0.20191000  0.59551000  0.97309000  1.0 -0.4623763578
O  O66  1  0.59551000  0.22949000  0.97309000  1.0 -0.4623763578
O  O67  1  0.27051000  0.29809000  0.90449000  1.0 -0.4623763578
O  O68  1  0.29809000  0.27051000  0.52691000  1.0 -0.4623763578
O  O69  1  0.90449000  0.29809000  0.52691000  1.0 -0.4623763578
O  O70  1  0.27051000  0.52691000  0.29809000  1.0 -0.4623763578
O  O71  1  0.27051000  0.90449000  0.52691000  1.0 -0.4623763578
O  O72  1  0.52691000  0.29809000  0.27051000  1.0 -0.4623763578
O  O73  1  0.77051000  0.79809000  0.02691000  1.0 -0.4623763578
O  O74  1  0.09551000  0.47309000  0.72949000  1.0 -0.4623763578
O  O75  1  0.79809000  0.77051000  0.40449000  1.0 -0.4623763578
O  O76  1  0.47309000  0.09551000  0.70191000  1.0 -0.4623763578
O  O77  1  0.70191000  0.09551000  0.72949000  1.0 -0.4623763578
O  O78  1  0.40449000  0.02691000  0.79809000  1.0 -0.4623763578
O  O79  1  0.47309000  0.72949000  0.09551000  1.0 -0.4623763578
O  O80  1  0.70191000  0.47309000  0.09551000  1.0 -0.4623763578
O  O81  1  0.02691000  0.40449000  0.77051000  1.0 -0.4623763578
O  O82  1  0.09551000  0.72949000  0.70191000  1.0 -0.4623763578
O  O83  1  0.02691000  0.77051000  0.79809000  1.0 -0.4623763578
O  O84  1  0.79809000  0.02691000  0.77051000  1.0 -0.4623763578
O  O85  1  0.02691000  0.79809000  0.40449000  1.0 -0.4623763578
O  O86  1  0.40449000  0.79809000  0.77051000  1.0 -0.4623763578
O  O87  1  0.77051000  0.40449000  0.79809000  1.0 -0.4623763578
O  O88  1  0.77051000  0.02691000  0.40449000  1.0 -0.4623763578
O  O89  1  0.79809000  0.40449000  0.02691000  1.0 -0.4623763578
O  O90  1  0.40449000  0.77051000  0.02691000  1.0 -0.4623763578
O  O91  1  0.72949000  0.70191000  0.09551000  1.0 -0.4623763578
O  O92  1  0.70191000  0.72949000  0.47309000  1.0 -0.4623763578
O  O93  1  0.09551000  0.70191000  0.47309000  1.0 -0.4623763578
O  O94  1  0.72949000  0.47309000  0.70191000  1.0 -0.4623763578
O  O95  1  0.72949000  0.09551000  0.47309000  1.0 -0.4623763578
O  O96  1  0.47309000  0.70191000  0.72949000  1.0 -0.4623763578
O  O97  1  0.30358000  0.80002000  0.19998000  1.0 -0.5802573213
O  O98  1  0.80358000  0.30002000  0.19642000  1.0 -0.5802573213
O  O99  1  0.80002000  0.30358000  0.69642000  1.0 -0.5802573213
O  O100  1  0.30002000  0.80358000  0.69998000  1.0 -0.5802573213
O  O101  1  0.69998000  0.80358000  0.19642000  1.0 -0.5802573213
O  O102  1  0.69642000  0.19998000  0.80002000  1.0 -0.5802573213
O  O103  1  0.30002000  0.19642000  0.80358000  1.0 -0.5802573213
O  O104  1  0.69998000  0.30002000  0.80358000  1.0 -0.5802573213
O  O105  1  0.19998000  0.69642000  0.30358000  1.0 -0.5802573213
O  O106  1  0.80358000  0.19642000  0.69998000  1.0 -0.5802573213
O  O107  1  0.19998000  0.30358000  0.80002000  1.0 -0.5802573213
O  O108  1  0.80002000  0.19998000  0.30358000  1.0 -0.5802573213
O  O109  1  0.19998000  0.80002000  0.69642000  1.0 -0.5802573213
O  O110  1  0.69642000  0.80002000  0.30358000  1.0 -0.5802573213
O  O111  1  0.30358000  0.69642000  0.80002000  1.0 -0.5802573213
O  O112  1  0.30358000  0.19998000  0.69642000  1.0 -0.5802573213
O  O113  1  0.80002000  0.69642000  0.19998000  1.0 -0.5802573213
O  O114  1  0.69642000  0.30358000  0.19998000  1.0 -0.5802573213
O  O115  1  0.19642000  0.69998000  0.80358000  1.0 -0.5802573213
O  O116  1  0.69998000  0.19642000  0.30002000  1.0 -0.5802573213
O  O117  1  0.80358000  0.69998000  0.30002000  1.0 -0.5802573213
O  O118  1  0.19642000  0.30002000  0.69998000  1.0 -0.5802573213
O  O119  1  0.19642000  0.80358000  0.30002000  1.0 -0.5802573213
O  O120  1  0.30002000  0.69998000  0.19642000  1.0 -0.5802573213
