# DDEC6 charges by PACMAN v1.1 (https://github.com/mtap-research/PACMAN-charge/)
data_SALXIP_FSR_pacman
_symmetry_space_group_name_H-M   'P 1'
_cell_length_a   25.86270000
_cell_length_b   25.86270000
_cell_length_c   25.45910000
_cell_angle_alpha   90.00000000
_cell_angle_beta   90.00000000
_cell_angle_gamma   120.00000000
_symmetry_Int_Tables_number   1
_chemical_formula_structural   Ce(C2O3)2
_chemical_formula_sum   'Ce36 C144 O216'
_cell_volume   14747.60180715
_cell_formula_units_Z   36
loop_
 _symmetry_equiv_pos_site_id
 _symmetry_equiv_pos_as_xyz
  1  'x, y, z'
loop_
 _atom_site_type_symbol
 _atom_site_label
 _atom_site_symmetry_multiplicity
 _atom_site_fract_x
 _atom_site_fract_y
 _atom_site_fract_z
 _atom_site_occupancy
 _atom_site_charge
Ce  Ce1  1  0.38348000  0.46705000  0.47570000  1.0 2.3161176545
Ce  Ce2  1  0.61652000  0.08357000  0.52430000  1.0 2.3290597004
Ce  Ce3  1  0.61652000  0.53295000  0.97570000  1.0 2.3290597004
Ce  Ce4  1  0.08357000  0.61652000  0.47570000  1.0 2.3290597004
Ce  Ce5  1  0.08357000  0.46705000  0.02430000  1.0 2.3161176545
Ce  Ce6  1  0.53295000  0.61652000  0.02430000  1.0 2.3290597004
Ce  Ce7  1  0.53295000  0.91643000  0.47570000  1.0 2.3161176545
Ce  Ce8  1  0.46705000  0.08357000  0.97570000  1.0 2.3290597004
Ce  Ce9  1  0.46705000  0.38348000  0.52430000  1.0 2.3290597004
Ce  Ce10  1  0.91643000  0.53295000  0.52430000  1.0 2.3290597004
Ce  Ce11  1  0.91643000  0.38348000  0.97570000  1.0 2.3290597004
Ce  Ce12  1  0.38348000  0.91643000  0.02430000  1.0 2.3161176545
Ce  Ce13  1  0.61652000  0.53295000  0.52430000  1.0 2.3290597004
Ce  Ce14  1  0.38348000  0.91643000  0.47570000  1.0 2.3161176545
Ce  Ce15  1  0.38348000  0.46705000  0.02430000  1.0 2.3161176545
Ce  Ce16  1  0.91643000  0.38348000  0.52430000  1.0 2.3290597004
Ce  Ce17  1  0.91643000  0.53295000  0.97570000  1.0 2.3290597004
Ce  Ce18  1  0.46705000  0.38348000  0.97570000  1.0 2.3290597004
Ce  Ce19  1  0.46705000  0.08357000  0.52430000  1.0 2.3290597004
Ce  Ce20  1  0.53295000  0.91643000  0.02430000  1.0 2.3161176545
Ce  Ce21  1  0.53295000  0.61652000  0.47570000  1.0 2.3290597004
Ce  Ce22  1  0.08357000  0.46705000  0.47570000  1.0 2.3161176545
Ce  Ce23  1  0.08357000  0.61652000  0.02430000  1.0 2.3290597004
Ce  Ce24  1  0.61652000  0.08357000  0.97570000  1.0 2.3290597004
Ce  Ce25  1  0.48003000  0.51997000  0.59957000  1.0 2.3026380343
Ce  Ce26  1  0.51997000  0.03994000  0.40043000  1.0 2.3056119782
Ce  Ce27  1  0.51997000  0.48003000  0.09957000  1.0 2.3026380343
Ce  Ce28  1  0.03994000  0.51997000  0.59957000  1.0 2.3026380343
Ce  Ce29  1  0.03994000  0.51997000  0.90043000  1.0 2.3026380343
Ce  Ce30  1  0.48003000  0.51997000  0.90043000  1.0 2.3026380343
Ce  Ce31  1  0.48003000  0.96006000  0.59957000  1.0 2.3026380343
Ce  Ce32  1  0.51997000  0.03994000  0.09957000  1.0 2.3056119782
Ce  Ce33  1  0.51997000  0.48003000  0.40043000  1.0 2.3026380343
Ce  Ce34  1  0.96006000  0.48003000  0.40043000  1.0 2.3056119782
Ce  Ce35  1  0.96006000  0.48003000  0.09957000  1.0 2.3056119782
Ce  Ce36  1  0.48003000  0.96006000  0.90043000  1.0 2.3026380343
C  C1  1  0.33140000  0.48890000  0.58485000  1.0 0.7031619067
C  C2  1  0.66860000  0.15750000  0.41515000  1.0 0.7031619067
C  C3  1  0.66860000  0.51110000  0.08485000  1.0 0.7031619067
C  C4  1  0.15750000  0.66860000  0.58485000  1.0 0.7031619067
C  C5  1  0.15750000  0.48890000  0.91515000  1.0 0.7031619067
C  C6  1  0.51110000  0.66860000  0.91515000  1.0 0.7031619067
C  C7  1  0.51110000  0.84250000  0.58485000  1.0 0.7031619067
C  C8  1  0.48890000  0.15750000  0.08485000  1.0 0.7031619067
C  C9  1  0.48890000  0.33140000  0.41515000  1.0 0.7031619067
C  C10  1  0.84250000  0.51110000  0.41515000  1.0 0.7031619067
C  C11  1  0.84250000  0.33140000  0.08485000  1.0 0.7031619067
C  C12  1  0.33140000  0.84250000  0.91515000  1.0 0.7031619067
C  C13  1  0.66860000  0.51110000  0.41515000  1.0 0.7031619067
C  C14  1  0.33140000  0.84250000  0.58485000  1.0 0.7031619067
C  C15  1  0.33140000  0.48890000  0.91515000  1.0 0.7031619067
C  C16  1  0.84250000  0.33140000  0.41515000  1.0 0.7031619067
C  C17  1  0.84250000  0.51110000  0.08485000  1.0 0.7031619067
C  C18  1  0.48890000  0.33140000  0.08485000  1.0 0.7031619067
C  C19  1  0.48890000  0.15750000  0.41515000  1.0 0.7031619067
C  C20  1  0.51110000  0.84250000  0.91515000  1.0 0.7031619067
C  C21  1  0.51110000  0.66860000  0.58485000  1.0 0.7031619067
C  C22  1  0.15750000  0.48890000  0.58485000  1.0 0.7031619067
C  C23  1  0.15750000  0.66860000  0.91515000  1.0 0.7031619067
C  C24  1  0.66860000  0.15750000  0.08485000  1.0 0.7031619067
C  C25  1  0.29690000  0.50040000  0.62635000  1.0 0.2007548821
C  C26  1  0.70310000  0.20350000  0.37365000  1.0 0.2007548821
C  C27  1  0.70310000  0.49960000  0.12635000  1.0 0.2007548821
C  C28  1  0.20350000  0.70310000  0.62635000  1.0 0.2007548821
C  C29  1  0.20350000  0.50040000  0.87365000  1.0 0.2007548821
C  C30  1  0.49960000  0.70310000  0.87365000  1.0 0.2007548821
C  C31  1  0.49960000  0.79650000  0.62635000  1.0 0.2007548821
C  C32  1  0.50040000  0.20350000  0.12635000  1.0 0.2007548821
C  C33  1  0.50040000  0.29690000  0.37365000  1.0 0.2007548821
C  C34  1  0.79650000  0.49960000  0.37365000  1.0 0.2007548821
C  C35  1  0.79650000  0.29690000  0.12635000  1.0 0.2007548821
C  C36  1  0.29690000  0.79650000  0.87365000  1.0 0.2007548821
C  C37  1  0.70310000  0.49960000  0.37365000  1.0 0.2007548821
C  C38  1  0.29690000  0.79650000  0.62635000  1.0 0.2007548821
C  C39  1  0.29690000  0.50040000  0.87365000  1.0 0.2007548821
C  C40  1  0.79650000  0.29690000  0.37365000  1.0 0.2007548821
C  C41  1  0.79650000  0.49960000  0.12635000  1.0 0.2007548821
C  C42  1  0.50040000  0.29690000  0.12635000  1.0 0.2007548821
C  C43  1  0.50040000  0.20350000  0.37365000  1.0 0.2007548821
C  C44  1  0.49960000  0.79650000  0.87365000  1.0 0.2007548821
C  C45  1  0.49960000  0.70310000  0.62635000  1.0 0.2007548821
C  C46  1  0.20350000  0.50040000  0.62635000  1.0 0.2007548821
C  C47  1  0.20350000  0.70310000  0.87365000  1.0 0.2007548821
C  C48  1  0.70310000  0.20350000  0.12635000  1.0 0.2007548821
C  C49  1  0.27790000  0.50340000  0.67740000  1.0 0.0258031614
C  C50  1  0.72210000  0.22550000  0.32260000  1.0 0.0239882404
C  C51  1  0.72210000  0.49660000  0.17740000  1.0 0.0239882404
C  C52  1  0.22550000  0.72210000  0.67740000  1.0 0.0258031614
C  C53  1  0.22550000  0.50340000  0.82260000  1.0 0.0239882404
C  C54  1  0.49660000  0.72210000  0.82260000  1.0 0.0239882404
C  C55  1  0.49660000  0.77450000  0.67740000  1.0 0.0239882404
C  C56  1  0.50340000  0.22550000  0.17740000  1.0 0.0239882404
C  C57  1  0.50340000  0.27790000  0.32260000  1.0 0.0239882404
C  C58  1  0.77450000  0.49660000  0.32260000  1.0 0.0239882404
C  C59  1  0.77450000  0.27790000  0.17740000  1.0 0.0239882404
C  C60  1  0.27790000  0.77450000  0.82260000  1.0 0.0239882404
C  C61  1  0.72210000  0.49660000  0.32260000  1.0 0.0239882404
C  C62  1  0.27790000  0.77450000  0.67740000  1.0 0.0239882404
C  C63  1  0.27790000  0.50340000  0.82260000  1.0 0.0258031614
C  C64  1  0.77450000  0.27790000  0.32260000  1.0 0.0239882404
C  C65  1  0.77450000  0.49660000  0.17740000  1.0 0.0239882404
C  C66  1  0.50340000  0.27790000  0.17740000  1.0 0.0239882404
C  C67  1  0.50340000  0.22550000  0.32260000  1.0 0.0239882404
C  C68  1  0.49660000  0.77450000  0.82260000  1.0 0.0239882404
C  C69  1  0.49660000  0.72210000  0.67740000  1.0 0.0239882404
C  C70  1  0.22550000  0.50340000  0.67740000  1.0 0.0239882404
C  C71  1  0.22550000  0.72210000  0.82260000  1.0 0.0239882404
C  C72  1  0.72210000  0.22550000  0.17740000  1.0 0.0239882404
C  C73  1  0.39210000  0.44150000  0.34500000  1.0 0.7031619067
C  C74  1  0.60790000  0.04940000  0.65500000  1.0 0.7031619067
C  C75  1  0.60790000  0.55850000  0.84500000  1.0 0.7031619067
C  C76  1  0.04940000  0.60790000  0.34500000  1.0 0.7031619067
C  C77  1  0.04940000  0.44150000  0.15500000  1.0 0.7031619067
C  C78  1  0.55850000  0.60790000  0.15500000  1.0 0.7031619067
C  C79  1  0.55850000  0.95060000  0.34500000  1.0 0.7031619067
C  C80  1  0.44150000  0.04940000  0.84500000  1.0 0.7031619067
C  C81  1  0.44150000  0.39210000  0.65500000  1.0 0.7031619067
C  C82  1  0.95060000  0.55850000  0.65500000  1.0 0.7031619067
C  C83  1  0.95060000  0.39210000  0.84500000  1.0 0.7031619067
C  C84  1  0.39210000  0.95060000  0.15500000  1.0 0.7031619067
C  C85  1  0.60790000  0.55850000  0.65500000  1.0 0.7031619067
C  C86  1  0.39210000  0.95060000  0.34500000  1.0 0.7031619067
C  C87  1  0.39210000  0.44150000  0.15500000  1.0 0.7031619067
C  C88  1  0.95060000  0.39210000  0.65500000  1.0 0.7031619067
C  C89  1  0.95060000  0.55850000  0.84500000  1.0 0.7031619067
C  C90  1  0.44150000  0.39210000  0.84500000  1.0 0.7031619067
C  C91  1  0.44150000  0.04940000  0.65500000  1.0 0.7031619067
C  C92  1  0.55850000  0.95060000  0.15500000  1.0 0.7031619067
C  C93  1  0.55850000  0.60790000  0.34500000  1.0 0.7031619067
C  C94  1  0.04940000  0.44150000  0.34500000  1.0 0.7031619067
C  C95  1  0.04940000  0.60790000  0.15500000  1.0 0.7031619067
C  C96  1  0.60790000  0.04940000  0.84500000  1.0 0.7031619067
C  C97  1  0.35510000  0.43220000  0.29570000  1.0 0.1861203787
C  C98  1  0.64490000  0.07710000  0.70430000  1.0 0.1861203787
C  C99  1  0.64490000  0.56780000  0.79570000  1.0 0.1861203787
C  C100  1  0.07710000  0.64490000  0.29570000  1.0 0.1861203787
C  C101  1  0.07710000  0.43220000  0.20430000  1.0 0.1861203787
C  C102  1  0.56780000  0.64490000  0.20430000  1.0 0.1861203787
C  C103  1  0.56780000  0.92290000  0.29570000  1.0 0.1861203787
C  C104  1  0.43220000  0.07710000  0.79570000  1.0 0.1861203787
C  C105  1  0.43220000  0.35510000  0.70430000  1.0 0.1861203787
C  C106  1  0.92290000  0.56780000  0.70430000  1.0 0.1861203787
C  C107  1  0.92290000  0.35510000  0.79570000  1.0 0.1861203787
C  C108  1  0.35510000  0.92290000  0.20430000  1.0 0.1861203787
C  C109  1  0.64490000  0.56780000  0.70430000  1.0 0.1861203787
C  C110  1  0.35510000  0.92290000  0.29570000  1.0 0.1861203787
C  C111  1  0.35510000  0.43220000  0.20430000  1.0 0.1861203787
C  C112  1  0.92290000  0.35510000  0.70430000  1.0 0.1861203787
C  C113  1  0.92290000  0.56780000  0.79570000  1.0 0.1861203787
C  C114  1  0.43220000  0.35510000  0.79570000  1.0 0.1861203787
C  C115  1  0.43220000  0.07710000  0.70430000  1.0 0.1861203787
C  C116  1  0.56780000  0.92290000  0.20430000  1.0 0.1861203787
C  C117  1  0.56780000  0.64490000  0.29570000  1.0 0.1861203787
C  C118  1  0.07710000  0.43220000  0.29570000  1.0 0.1861203787
C  C119  1  0.07710000  0.64490000  0.20430000  1.0 0.1861203787
C  C120  1  0.64490000  0.07710000  0.79570000  1.0 0.1861203787
C  C121  1  0.30360000  0.42840000  0.27740000  1.0 0.0258031614
C  C122  1  0.69640000  0.12480000  0.72260000  1.0 0.0239882404
C  C123  1  0.69640000  0.57160000  0.77740000  1.0 0.0239882404
C  C124  1  0.12480000  0.69640000  0.27740000  1.0 0.0258031614
C  C125  1  0.12480000  0.42840000  0.22260000  1.0 0.0258031614
C  C126  1  0.57160000  0.69640000  0.22260000  1.0 0.0239882404
C  C127  1  0.57160000  0.87520000  0.27740000  1.0 0.0258031614
C  C128  1  0.42840000  0.12480000  0.77740000  1.0 0.0239882404
C  C129  1  0.42840000  0.30360000  0.72260000  1.0 0.0239882404
C  C130  1  0.87520000  0.57160000  0.72260000  1.0 0.0258031614
C  C131  1  0.87520000  0.30360000  0.77740000  1.0 0.0239882404
C  C132  1  0.30360000  0.87520000  0.22260000  1.0 0.0258031614
C  C133  1  0.69640000  0.57160000  0.72260000  1.0 0.0239882404
C  C134  1  0.30360000  0.87520000  0.27740000  1.0 0.0258031614
C  C135  1  0.30360000  0.42840000  0.22260000  1.0 0.0258031614
C  C136  1  0.87520000  0.30360000  0.72260000  1.0 0.0239882404
C  C137  1  0.87520000  0.57160000  0.77740000  1.0 0.0258031614
C  C138  1  0.42840000  0.30360000  0.77740000  1.0 0.0239882404
C  C139  1  0.42840000  0.12480000  0.72260000  1.0 0.0239882404
C  C140  1  0.57160000  0.87520000  0.22260000  1.0 0.0258031614
C  C141  1  0.57160000  0.69640000  0.27740000  1.0 0.0239882404
C  C142  1  0.12480000  0.42840000  0.27740000  1.0 0.0258031614
C  C143  1  0.12480000  0.69640000  0.22260000  1.0 0.0258031614
C  C144  1  0.69640000  0.12480000  0.77740000  1.0 0.0239882404
O  O1  1  0.41820000  0.43650000  0.54740000  1.0 -1.0618951815
O  O2  1  0.58180000  0.01830000  0.45260000  1.0 -1.0618951815
O  O3  1  0.58180000  0.56350000  0.04740000  1.0 -1.053040385
O  O4  1  0.01830000  0.58180000  0.54740000  1.0 -1.053040385
O  O5  1  0.01830000  0.43650000  0.95260000  1.0 -1.053040385
O  O6  1  0.56350000  0.58180000  0.95260000  1.0 -1.053040385
O  O7  1  0.56350000  0.98170000  0.54740000  1.0 -1.053040385
O  O8  1  0.43650000  0.01830000  0.04740000  1.0 -1.0618951815
O  O9  1  0.43650000  0.41820000  0.45260000  1.0 -1.0618951815
O  O10  1  0.98170000  0.56350000  0.45260000  1.0 -1.0618951815
O  O11  1  0.98170000  0.41820000  0.04740000  1.0 -1.0618951815
O  O12  1  0.41820000  0.98170000  0.95260000  1.0 -1.053040385
O  O13  1  0.58180000  0.56350000  0.45260000  1.0 -1.053040385
O  O14  1  0.41820000  0.98170000  0.54740000  1.0 -1.053040385
O  O15  1  0.41820000  0.43650000  0.95260000  1.0 -1.0618951815
O  O16  1  0.98170000  0.41820000  0.45260000  1.0 -1.0618951815
O  O17  1  0.98170000  0.56350000  0.04740000  1.0 -1.0618951815
O  O18  1  0.43650000  0.41820000  0.04740000  1.0 -1.0618951815
O  O19  1  0.43650000  0.01830000  0.45260000  1.0 -1.0618951815
O  O20  1  0.56350000  0.98170000  0.95260000  1.0 -1.053040385
O  O21  1  0.56350000  0.58180000  0.54740000  1.0 -1.053040385
O  O22  1  0.01830000  0.43650000  0.54740000  1.0 -1.053040385
O  O23  1  0.01830000  0.58180000  0.95260000  1.0 -1.053040385
O  O24  1  0.58180000  0.01830000  0.04740000  1.0 -1.0618951815
O  O25  1  0.46750000  0.53250000  0.42440000  1.0 -1.0178015726
O  O26  1  0.53250000  0.06500000  0.57560000  1.0 -1.0178015726
O  O27  1  0.53250000  0.46750000  0.92440000  1.0 -1.0178015726
O  O28  1  0.06500000  0.53250000  0.42440000  1.0 -1.0178015726
O  O29  1  0.06500000  0.53250000  0.07560000  1.0 -1.0178015726
O  O30  1  0.46750000  0.53250000  0.07560000  1.0 -1.0178015726
O  O31  1  0.46750000  0.93500000  0.42440000  1.0 -1.0135527151
O  O32  1  0.53250000  0.06500000  0.92440000  1.0 -1.0178015726
O  O33  1  0.53250000  0.46750000  0.57560000  1.0 -1.0178015726
O  O34  1  0.93500000  0.46750000  0.57560000  1.0 -1.0178015726
O  O35  1  0.93500000  0.46750000  0.92440000  1.0 -1.0178015726
O  O36  1  0.46750000  0.93500000  0.07560000  1.0 -1.0135527151
O  O37  1  0.44970000  0.55030000  0.52550000  1.0 -1.0741894292
O  O38  1  0.55030000  0.10060000  0.47450000  1.0 -1.0786986249
O  O39  1  0.55030000  0.44970000  0.02550000  1.0 -1.0741894292
O  O40  1  0.10060000  0.55030000  0.52550000  1.0 -1.0786986249
O  O41  1  0.10060000  0.55030000  0.97450000  1.0 -1.0786986249
O  O42  1  0.44970000  0.55030000  0.97450000  1.0 -1.0741894292
O  O43  1  0.44970000  0.89940000  0.52550000  1.0 -1.0741894292
O  O44  1  0.55030000  0.10060000  0.02550000  1.0 -1.0786986249
O  O45  1  0.55030000  0.44970000  0.47450000  1.0 -1.0741894292
O  O46  1  0.89940000  0.44970000  0.47450000  1.0 -1.0741894292
O  O47  1  0.89940000  0.44970000  0.02550000  1.0 -1.0741894292
O  O48  1  0.44970000  0.89940000  0.97450000  1.0 -1.0741894292
O  O49  1  0.36690000  0.54290000  0.44110000  1.0 -0.3982182779
O  O50  1  0.63310000  0.17600000  0.55890000  1.0 -0.3982182779
O  O51  1  0.63310000  0.45710000  0.94110000  1.0 -0.3939846183
O  O52  1  0.17600000  0.63310000  0.44110000  1.0 -0.3982182779
O  O53  1  0.17600000  0.54290000  0.05890000  1.0 -0.3939846183
O  O54  1  0.45710000  0.63310000  0.05890000  1.0 -0.3982182779
O  O55  1  0.45710000  0.82400000  0.44110000  1.0 -0.3982182779
O  O56  1  0.54290000  0.17600000  0.94110000  1.0 -0.3982182779
O  O57  1  0.54290000  0.36690000  0.55890000  1.0 -0.3982182779
O  O58  1  0.82400000  0.45710000  0.55890000  1.0 -0.3939846183
O  O59  1  0.82400000  0.36690000  0.94110000  1.0 -0.3982182779
O  O60  1  0.36690000  0.82400000  0.05890000  1.0 -0.3982182779
O  O61  1  0.63310000  0.45710000  0.55890000  1.0 -0.3939846183
O  O62  1  0.36690000  0.82400000  0.44110000  1.0 -0.3982182779
O  O63  1  0.36690000  0.54290000  0.05890000  1.0 -0.3939846183
O  O64  1  0.82400000  0.36690000  0.55890000  1.0 -0.3982182779
O  O65  1  0.82400000  0.45710000  0.94110000  1.0 -0.3939846183
O  O66  1  0.54290000  0.36690000  0.94110000  1.0 -0.3982182779
O  O67  1  0.54290000  0.17600000  0.55890000  1.0 -0.3982182779
O  O68  1  0.45710000  0.82400000  0.05890000  1.0 -0.3982182779
O  O69  1  0.45710000  0.63310000  0.44110000  1.0 -0.3982182779
O  O70  1  0.17600000  0.54290000  0.44110000  1.0 -0.3939846183
O  O71  1  0.17600000  0.63310000  0.05890000  1.0 -0.3982182779
O  O72  1  0.63310000  0.17600000  0.94110000  1.0 -0.3982182779
O  O73  1  0.30390000  0.37000000  0.49150000  1.0 -0.6713530245
O  O74  1  0.69610000  0.06610000  0.50850000  1.0 -0.6782104122
O  O75  1  0.69610000  0.63000000  0.99150000  1.0 -0.6713530245
O  O76  1  0.06610000  0.69610000  0.49150000  1.0 -0.6713530245
O  O77  1  0.06610000  0.37000000  0.00850000  1.0 -0.6713530245
O  O78  1  0.63000000  0.69610000  0.00850000  1.0 -0.6782104122
O  O79  1  0.63000000  0.93390000  0.49150000  1.0 -0.6713530245
O  O80  1  0.37000000  0.06610000  0.99150000  1.0 -0.6782104122
O  O81  1  0.37000000  0.30390000  0.50850000  1.0 -0.6713530245
O  O82  1  0.93390000  0.63000000  0.50850000  1.0 -0.6782104122
O  O83  1  0.93390000  0.30390000  0.99150000  1.0 -0.6713530245
O  O84  1  0.30390000  0.93390000  0.00850000  1.0 -0.6713530245
O  O85  1  0.69610000  0.63000000  0.50850000  1.0 -0.6713530245
O  O86  1  0.30390000  0.93390000  0.49150000  1.0 -0.6713530245
O  O87  1  0.30390000  0.37000000  0.00850000  1.0 -0.6713530245
O  O88  1  0.93390000  0.30390000  0.50850000  1.0 -0.6713530245
O  O89  1  0.93390000  0.63000000  0.99150000  1.0 -0.6782104122
O  O90  1  0.37000000  0.30390000  0.99150000  1.0 -0.6713530245
O  O91  1  0.37000000  0.06610000  0.50850000  1.0 -0.6782104122
O  O92  1  0.63000000  0.93390000  0.00850000  1.0 -0.6713530245
O  O93  1  0.63000000  0.69610000  0.49150000  1.0 -0.6782104122
O  O94  1  0.06610000  0.37000000  0.49150000  1.0 -0.6713530245
O  O95  1  0.06610000  0.69610000  0.00850000  1.0 -0.6713530245
O  O96  1  0.69610000  0.06610000  0.99150000  1.0 -0.6782104122
O  O97  1  0.32410000  0.47480000  0.53667000  1.0 -0.5732782697
O  O98  1  0.67590000  0.15070000  0.46333000  1.0 -0.5786755041
O  O99  1  0.67590000  0.52520000  0.03667000  1.0 -0.5786755041
O  O100  1  0.15070000  0.67590000  0.53667000  1.0 -0.5786755041
O  O101  1  0.15070000  0.47480000  0.96333000  1.0 -0.5732782697
O  O102  1  0.52520000  0.67590000  0.96333000  1.0 -0.5786755041
O  O103  1  0.52520000  0.84930000  0.53667000  1.0 -0.5732782697
O  O104  1  0.47480000  0.15070000  0.03667000  1.0 -0.5732782697
O  O105  1  0.47480000  0.32410000  0.46333000  1.0 -0.5786755041
O  O106  1  0.84930000  0.52520000  0.46333000  1.0 -0.5786755041
O  O107  1  0.84930000  0.32410000  0.03667000  1.0 -0.5786755041
O  O108  1  0.32410000  0.84930000  0.96333000  1.0 -0.5732782697
O  O109  1  0.67590000  0.52520000  0.46333000  1.0 -0.5786755041
O  O110  1  0.32410000  0.84930000  0.53667000  1.0 -0.5732782697
O  O111  1  0.32410000  0.47480000  0.96333000  1.0 -0.5732782697
O  O112  1  0.84930000  0.32410000  0.46333000  1.0 -0.5786755041
O  O113  1  0.84930000  0.52520000  0.03667000  1.0 -0.5786755041
O  O114  1  0.47480000  0.32410000  0.03667000  1.0 -0.5786755041
O  O115  1  0.47480000  0.15070000  0.46333000  1.0 -0.5786755041
O  O116  1  0.52520000  0.84930000  0.96333000  1.0 -0.5732782697
O  O117  1  0.52520000  0.67590000  0.53667000  1.0 -0.5786755041
O  O118  1  0.15070000  0.47480000  0.53667000  1.0 -0.5732782697
O  O119  1  0.15070000  0.67590000  0.96333000  1.0 -0.5786755041
O  O120  1  0.67590000  0.15070000  0.03667000  1.0 -0.5786755041
O  O121  1  0.37897000  0.49680000  0.60917000  1.0 -0.5002001695
O  O122  1  0.62103000  0.11783000  0.39083000  1.0 -0.5002001695
O  O123  1  0.62103000  0.50320000  0.10917000  1.0 -0.5002001695
O  O124  1  0.11783000  0.62103000  0.60917000  1.0 -0.5002001695
O  O125  1  0.11783000  0.49680000  0.89083000  1.0 -0.5002001695
O  O126  1  0.50320000  0.62103000  0.89083000  1.0 -0.5002001695
O  O127  1  0.50320000  0.88217000  0.60917000  1.0 -0.5002001695
O  O128  1  0.49680000  0.11783000  0.10917000  1.0 -0.5002001695
O  O129  1  0.49680000  0.37897000  0.39083000  1.0 -0.5002001695
O  O130  1  0.88217000  0.50320000  0.39083000  1.0 -0.5002001695
O  O131  1  0.88217000  0.37897000  0.10917000  1.0 -0.5002001695
O  O132  1  0.37897000  0.88217000  0.89083000  1.0 -0.5002001695
O  O133  1  0.62103000  0.50320000  0.39083000  1.0 -0.5002001695
O  O134  1  0.37897000  0.88217000  0.60917000  1.0 -0.5002001695
O  O135  1  0.37897000  0.49680000  0.89083000  1.0 -0.5002001695
O  O136  1  0.88217000  0.37897000  0.39083000  1.0 -0.5002001695
O  O137  1  0.88217000  0.50320000  0.10917000  1.0 -0.5002001695
O  O138  1  0.49680000  0.37897000  0.10917000  1.0 -0.5002001695
O  O139  1  0.49680000  0.11783000  0.39083000  1.0 -0.5002001695
O  O140  1  0.50320000  0.88217000  0.89083000  1.0 -0.5002001695
O  O141  1  0.50320000  0.62103000  0.60917000  1.0 -0.5002001695
O  O142  1  0.11783000  0.49680000  0.60917000  1.0 -0.5002001695
O  O143  1  0.11783000  0.62103000  0.89083000  1.0 -0.5002001695
O  O144  1  0.62103000  0.11783000  0.10917000  1.0 -0.5002001695
O  O145  1  0.24620000  0.49240000  0.59810000  1.0 0.0569668291
O  O146  1  0.75380000  0.24620000  0.40190000  1.0 0.0569668291
O  O147  1  0.75380000  0.50760000  0.09810000  1.0 0.0546277267
O  O148  1  0.24620000  0.75380000  0.59810000  1.0 0.0569668291
O  O149  1  0.24620000  0.49240000  0.90190000  1.0 0.0569668291
O  O150  1  0.50760000  0.75380000  0.90190000  1.0 0.0569668291
O  O151  1  0.50760000  0.75380000  0.59810000  1.0 0.0569668291
O  O152  1  0.49240000  0.24620000  0.09810000  1.0 0.0569668291
O  O153  1  0.49240000  0.24620000  0.40190000  1.0 0.0569668291
O  O154  1  0.75380000  0.50760000  0.40190000  1.0 0.0546277267
O  O155  1  0.75380000  0.24620000  0.09810000  1.0 0.0569668291
O  O156  1  0.24620000  0.75380000  0.90190000  1.0 0.0569668291
O  O157  1  0.37120000  0.45270000  0.38734000  1.0 -0.5786755041
O  O158  1  0.62880000  0.08150000  0.61266000  1.0 -0.5786755041
O  O159  1  0.62880000  0.54730000  0.88734000  1.0 -0.5786755041
O  O160  1  0.08150000  0.62880000  0.38734000  1.0 -0.5786755041
O  O161  1  0.08150000  0.45270000  0.11266000  1.0 -0.5786755041
O  O162  1  0.54730000  0.62880000  0.11266000  1.0 -0.5786755041
O  O163  1  0.54730000  0.91850000  0.38734000  1.0 -0.5732782697
O  O164  1  0.45270000  0.08150000  0.88734000  1.0 -0.5732782697
O  O165  1  0.45270000  0.37120000  0.61266000  1.0 -0.5732782697
O  O166  1  0.91850000  0.54730000  0.61266000  1.0 -0.5786755041
O  O167  1  0.91850000  0.37120000  0.88734000  1.0 -0.5786755041
O  O168  1  0.37120000  0.91850000  0.11266000  1.0 -0.5732782697
O  O169  1  0.62880000  0.54730000  0.61266000  1.0 -0.5786755041
O  O170  1  0.37120000  0.91850000  0.38734000  1.0 -0.5732782697
O  O171  1  0.37120000  0.45270000  0.11266000  1.0 -0.5786755041
O  O172  1  0.91850000  0.37120000  0.61266000  1.0 -0.5786755041
O  O173  1  0.91850000  0.54730000  0.88734000  1.0 -0.5786755041
O  O174  1  0.45270000  0.37120000  0.88734000  1.0 -0.5732782697
O  O175  1  0.45270000  0.08150000  0.61266000  1.0 -0.5732782697
O  O176  1  0.54730000  0.91850000  0.11266000  1.0 -0.5732782697
O  O177  1  0.54730000  0.62880000  0.38734000  1.0 -0.5786755041
O  O178  1  0.08150000  0.45270000  0.38734000  1.0 -0.5786755041
O  O179  1  0.08150000  0.62880000  0.11266000  1.0 -0.5786755041
O  O180  1  0.62880000  0.08150000  0.88734000  1.0 -0.5786755041
O  O181  1  0.44130000  0.44060000  0.34578000  1.0 -0.5126258877
O  O182  1  0.55870000  0.99930000  0.65422000  1.0 -0.5126258877
O  O183  1  0.55870000  0.55940000  0.84578000  1.0 -0.5126258877
O  O184  1  0.99930000  0.55870000  0.34578000  1.0 -0.5126258877
O  O185  1  0.99930000  0.44060000  0.15422000  1.0 -0.5126258877
O  O186  1  0.55940000  0.55870000  0.15422000  1.0 -0.5126258877
O  O187  1  0.55940000  0.00070000  0.34578000  1.0 -0.5126258877
O  O188  1  0.44060000  0.99930000  0.84578000  1.0 -0.5126258877
O  O189  1  0.44060000  0.44130000  0.65422000  1.0 -0.5126258877
O  O190  1  0.00070000  0.55940000  0.65422000  1.0 -0.5126258877
O  O191  1  0.00070000  0.44130000  0.84578000  1.0 -0.5126258877
O  O192  1  0.44130000  0.00070000  0.15422000  1.0 -0.5126258877
O  O193  1  0.55870000  0.55940000  0.65422000  1.0 -0.5126258877
O  O194  1  0.44130000  0.00070000  0.34578000  1.0 -0.5126258877
O  O195  1  0.44130000  0.44060000  0.15422000  1.0 -0.5126258877
O  O196  1  0.00070000  0.44130000  0.65422000  1.0 -0.5126258877
O  O197  1  0.00070000  0.55940000  0.84578000  1.0 -0.5126258877
O  O198  1  0.44060000  0.44130000  0.84578000  1.0 -0.5126258877
O  O199  1  0.44060000  0.99930000  0.65422000  1.0 -0.5126258877
O  O200  1  0.55940000  0.00070000  0.15422000  1.0 -0.5126258877
O  O201  1  0.55940000  0.55870000  0.34578000  1.0 -0.5126258877
O  O202  1  0.99930000  0.44060000  0.34578000  1.0 -0.5126258877
O  O203  1  0.99930000  0.55870000  0.15422000  1.0 -0.5126258877
O  O204  1  0.55870000  0.99930000  0.84578000  1.0 -0.5126258877
O  O205  1  0.38580000  0.43320000  0.25000000  1.0 -0.0154755014
O  O206  1  0.61420000  0.04740000  0.75000000  1.0 -0.0116993103
O  O207  1  0.61420000  0.56680000  0.75000000  1.0 -0.0154755014
O  O208  1  0.04740000  0.61420000  0.25000000  1.0 -0.0116993103
O  O209  1  0.04740000  0.43320000  0.25000000  1.0 -0.0116993103
O  O210  1  0.56680000  0.61420000  0.25000000  1.0 -0.0116993103
O  O211  1  0.56680000  0.95260000  0.25000000  1.0 -0.0116993103
O  O212  1  0.43320000  0.04740000  0.75000000  1.0 -0.0116993103
O  O213  1  0.43320000  0.38580000  0.75000000  1.0 -0.0116993103
O  O214  1  0.95260000  0.56680000  0.75000000  1.0 -0.0116993103
O  O215  1  0.95260000  0.38580000  0.75000000  1.0 -0.0154755014
O  O216  1  0.38580000  0.95260000  0.25000000  1.0 -0.0116993103
