# DDEC6 charges by PACMAN v1.1 (https://github.com/mtap-research/PACMAN-charge/)
data_SALZAH_ASR_pacman
_symmetry_space_group_name_H-M   'P 1'
_cell_length_a   12.95900000
_cell_length_b   12.95900000
_cell_length_c   14.73500000
_cell_angle_alpha   85.70660000
_cell_angle_beta   94.29340000
_cell_angle_gamma   121.59700000
_symmetry_Int_Tables_number   1
_chemical_formula_structural   Cd3H28C20(NO)8
_chemical_formula_sum   'Cd6 H56 C40 N16 O16'
_cell_volume   2099.92789361
_cell_formula_units_Z   2
loop_
 _symmetry_equiv_pos_site_id
 _symmetry_equiv_pos_as_xyz
  1  'x, y, z'
loop_
 _atom_site_type_symbol
 _atom_site_label
 _atom_site_symmetry_multiplicity
 _atom_site_fract_x
 _atom_site_fract_y
 _atom_site_fract_z
 _atom_site_occupancy
 _atom_site_charge
Cd  Cd1  1  0.83005000  0.33883000  0.24659000  1.0 0.7837631769
Cd  Cd2  1  0.33883000  0.83005000  0.25341000  1.0 0.7866875596
Cd  Cd3  1  0.16995000  0.66117000  0.75341000  1.0 0.7866875596
Cd  Cd4  1  0.66117000  0.16995000  0.74659000  1.0 0.7866875596
Cd  Cd5  1  0.83209000  0.83209000  0.25000000  1.0 0.3972604341
Cd  Cd6  1  0.16791000  0.16791000  0.75000000  1.0 0.3936226732
H  H1  1  0.80610000  0.06690000  0.29700000  1.0 0.1084014773
H  H2  1  0.06690000  0.80610000  0.20300000  1.0 0.1084014773
H  H3  1  0.19390000  0.93310000  0.70300000  1.0 0.1084014773
H  H4  1  0.93310000  0.19390000  0.79700000  1.0 0.1084014773
H  H5  1  0.88390000  0.11390000  0.21010000  1.0 0.0932288665
H  H6  1  0.11390000  0.88390000  0.28990000  1.0 0.0932288665
H  H7  1  0.11610000  0.88610000  0.78990000  1.0 0.0932288665
H  H8  1  0.88610000  0.11610000  0.71010000  1.0 0.0932288665
H  H9  1  0.56960000  0.10420000  0.20760000  1.0 0.1084014773
H  H10  1  0.10420000  0.56960000  0.29240000  1.0 0.1084014773
H  H11  1  0.43040000  0.89580000  0.79240000  1.0 0.1084014773
H  H12  1  0.89580000  0.43040000  0.70760000  1.0 0.1084014773
H  H13  1  0.61400000  0.05900000  0.29470000  1.0 0.1084014773
H  H14  1  0.05900000  0.61400000  0.20530000  1.0 0.1084014773
H  H15  1  0.38600000  0.94100000  0.70530000  1.0 0.1084014773
H  H16  1  0.94100000  0.38600000  0.79470000  1.0 0.1084014773
H  H17  1  0.81420000  0.18380000  0.07240000  1.0 0.1084014773
H  H18  1  0.18380000  0.81420000  0.42760000  1.0 0.1084014773
H  H19  1  0.18580000  0.81620000  0.92760000  1.0 0.1084014773
H  H20  1  0.81620000  0.18580000  0.57240000  1.0 0.1084014773
H  H21  1  0.69020000  0.17820000  0.07170000  1.0 0.1084014773
H  H22  1  0.17820000  0.69020000  0.42830000  1.0 0.1084014773
H  H23  1  0.30980000  0.82180000  0.92830000  1.0 0.1084014773
H  H24  1  0.82180000  0.30980000  0.57170000  1.0 0.1084014773
H  H25  1  0.69150000  0.87510000  0.07470000  1.0 0.1084014773
H  H26  1  0.87510000  0.69150000  0.42530000  1.0 0.1084014773
H  H27  1  0.30850000  0.12490000  0.92530000  1.0 0.1084014773
H  H28  1  0.12490000  0.30850000  0.57470000  1.0 0.1084014773
H  H29  1  0.81290000  0.00130000  0.07550000  1.0 0.0932288665
H  H30  1  0.00130000  0.81290000  0.42450000  1.0 0.0932288665
H  H31  1  0.18710000  0.99870000  0.92450000  1.0 0.0932288665
H  H32  1  0.99870000  0.18710000  0.57550000  1.0 0.0932288665
H  H33  1  0.61260000  0.87360000  0.29630000  1.0 0.1084014773
H  H34  1  0.87360000  0.61260000  0.20370000  1.0 0.1084014773
H  H35  1  0.38740000  0.12640000  0.70370000  1.0 0.1084014773
H  H36  1  0.12640000  0.38740000  0.79630000  1.0 0.1084014773
H  H37  1  0.56860000  0.79800000  0.20810000  1.0 0.1084014773
H  H38  1  0.79800000  0.56860000  0.29190000  1.0 0.1084014773
H  H39  1  0.43140000  0.20200000  0.79190000  1.0 0.1084014773
H  H40  1  0.20200000  0.43140000  0.70810000  1.0 0.1084014773
H  H41  1  0.50610000  0.99330000  0.07360000  1.0 0.0956175468
H  H42  1  0.99330000  0.50610000  0.42640000  1.0 0.0956175468
H  H43  1  0.49390000  0.00670000  0.92640000  1.0 0.0956175468
H  H44  1  0.00670000  0.49390000  0.57360000  1.0 0.0956175468
H  H45  1  0.49870000  0.86950000  0.07200000  1.0 0.1084014773
H  H46  1  0.86950000  0.49870000  0.42800000  1.0 0.1084014773
H  H47  1  0.50130000  0.13050000  0.92800000  1.0 0.1084014773
H  H48  1  0.13050000  0.50130000  0.57200000  1.0 0.1084014773
H  H49  1  0.45360000  0.28840000  0.51160000  1.0 0.1188339806
H  H50  1  0.28840000  0.45360000  0.98840000  1.0 0.1188339806
H  H51  1  0.54640000  0.71160000  0.48840000  1.0 0.1188339806
H  H52  1  0.71160000  0.54640000  0.01160000  1.0 0.1188339806
H  H53  1  0.47280000  0.28580000  0.36510000  1.0 0.134074661
H  H54  1  0.28580000  0.47280000  0.13490000  1.0 0.134074661
H  H55  1  0.52720000  0.71420000  0.63490000  1.0 0.134074661
H  H56  1  0.71420000  0.52720000  0.86510000  1.0 0.134074661
C  C1  1  0.80160000  0.07040000  0.23090000  1.0 -0.0497771553
C  C2  1  0.07040000  0.80160000  0.26910000  1.0 -0.0497771553
C  C3  1  0.19840000  0.92960000  0.76910000  1.0 -0.0497771553
C  C4  1  0.92960000  0.19840000  0.73090000  1.0 -0.0497771553
C  C5  1  0.61230000  0.06330000  0.22870000  1.0 -0.0497771553
C  C6  1  0.06330000  0.61230000  0.27130000  1.0 -0.0497771553
C  C7  1  0.38770000  0.93670000  0.77130000  1.0 -0.0497771553
C  C8  1  0.93670000  0.38770000  0.72870000  1.0 -0.0497771553
C  C9  1  0.73300000  0.13820000  0.09520000  1.0 -0.0497771553
C  C10  1  0.13820000  0.73300000  0.40480000  1.0 -0.0497771553
C  C11  1  0.26700000  0.86180000  0.90480000  1.0 -0.0497771553
C  C12  1  0.86180000  0.26700000  0.59520000  1.0 -0.0497771553
C  C13  1  0.73120000  0.95620000  0.09740000  1.0 -0.0341872581
C  C14  1  0.95620000  0.73120000  0.40260000  1.0 -0.0341872581
C  C15  1  0.26880000  0.04380000  0.90260000  1.0 -0.0341872581
C  C16  1  0.04380000  0.26880000  0.59740000  1.0 -0.0341872581
C  C17  1  0.61100000  0.87960000  0.23020000  1.0 -0.0407379913
C  C18  1  0.87960000  0.61100000  0.26980000  1.0 -0.0407379913
C  C19  1  0.38900000  0.12040000  0.76980000  1.0 -0.0407379913
C  C20  1  0.12040000  0.38900000  0.73020000  1.0 -0.0407379913
C  C21  1  0.54540000  0.95040000  0.09530000  1.0 -0.0407379913
C  C22  1  0.95040000  0.54540000  0.40470000  1.0 -0.0407379913
C  C23  1  0.45460000  0.04960000  0.90470000  1.0 -0.0407379913
C  C24  1  0.04960000  0.45460000  0.59530000  1.0 -0.0407379913
C  C25  1  0.61010000  0.29190000  0.56670000  1.0 0.6038352913
C  C26  1  0.29190000  0.61010000  0.93330000  1.0 0.6038352913
C  C27  1  0.38990000  0.70810000  0.43330000  1.0 0.6038352913
C  C28  1  0.70810000  0.38990000  0.06670000  1.0 0.6038352913
C  C29  1  0.52090000  0.28870000  0.49350000  1.0 -0.198327639
C  C30  1  0.28870000  0.52090000  0.00650000  1.0 -0.198327639
C  C31  1  0.47910000  0.71130000  0.50650000  1.0 -0.198327639
C  C32  1  0.71130000  0.47910000  0.99350000  1.0 -0.198327639
C  C33  1  0.53170000  0.28630000  0.40550000  1.0 -0.2087859109
C  C34  1  0.28630000  0.53170000  0.09450000  1.0 -0.2087859109
C  C35  1  0.46830000  0.71370000  0.59450000  1.0 -0.2087859109
C  C36  1  0.71370000  0.46830000  0.90550000  1.0 -0.2087859109
C  C37  1  0.63640000  0.28440000  0.36730000  1.0 0.5613887972
C  C38  1  0.28440000  0.63640000  0.13270000  1.0 0.5613887972
C  C39  1  0.36360000  0.71560000  0.63270000  1.0 0.5613887972
C  C40  1  0.71560000  0.36360000  0.86730000  1.0 0.5613887972
N  N1  1  0.73820000  0.94760000  0.19870000  1.0 -0.1679889978
N  N2  1  0.94760000  0.73820000  0.30130000  1.0 -0.1679889978
N  N3  1  0.26180000  0.05240000  0.80130000  1.0 -0.1679889978
N  N4  1  0.05240000  0.26180000  0.69870000  1.0 -0.1679889978
N  N5  1  0.74075000  0.13825000  0.19810000  1.0 -0.179320448
N  N6  1  0.13825000  0.74075000  0.30190000  1.0 -0.179320448
N  N7  1  0.25925000  0.86175000  0.80190000  1.0 -0.179320448
N  N8  1  0.86175000  0.25925000  0.69810000  1.0 -0.179320448
N  N9  1  0.66870000  0.01230000  0.06150000  1.0 -0.1445920252
N  N10  1  0.01230000  0.66870000  0.43850000  1.0 -0.1462585512
N  N11  1  0.33130000  0.98770000  0.93850000  1.0 -0.1462585512
N  N12  1  0.98770000  0.33130000  0.56150000  1.0 -0.1462585512
N  N13  1  0.54554000  0.94166000  0.19670000  1.0 -0.179320448
N  N14  1  0.94166000  0.54554000  0.30330000  1.0 -0.179320448
N  N15  1  0.45446000  0.05834000  0.80330000  1.0 -0.179320448
N  N16  1  0.05834000  0.45446000  0.69670000  1.0 -0.179320448
O  O1  1  0.66679000  0.33681000  0.28760000  1.0 -0.5750416451
O  O2  1  0.33681000  0.66679000  0.21240000  1.0 -0.5750416451
O  O3  1  0.33321000  0.66319000  0.71240000  1.0 -0.5750416451
O  O4  1  0.66319000  0.33321000  0.78760000  1.0 -0.5750416451
O  O5  1  0.68738000  0.23882000  0.40830000  1.0 -0.535302692
O  O6  1  0.23882000  0.68738000  0.09170000  1.0 -0.535302692
O  O7  1  0.31262000  0.76118000  0.59170000  1.0 -0.535302692
O  O8  1  0.76118000  0.31262000  0.90830000  1.0 -0.5345619255
O  O9  1  0.70597000  0.38923000  0.58210000  1.0 -0.5937045001
O  O10  1  0.38923000  0.70597000  0.91790000  1.0 -0.5937045001
O  O11  1  0.29403000  0.61077000  0.41790000  1.0 -0.5937045001
O  O12  1  0.61077000  0.29403000  0.08210000  1.0 -0.5937045001
O  O13  1  0.57507000  0.18973000  0.61070000  1.0 -0.6110548311
O  O14  1  0.18973000  0.57507000  0.88930000  1.0 -0.6110548311
O  O15  1  0.42493000  0.81027000  0.38930000  1.0 -0.6110548311
O  O16  1  0.81027000  0.42493000  0.11070000  1.0 -0.6110548311
