# DDEC6 charges by PACMAN v1.1 (https://github.com/mtap-research/PACMAN-charge/)
data_SAMXUC_ASR_pacman
_symmetry_space_group_name_H-M   'P 1'
_cell_length_a   18.30940000
_cell_length_b   18.30940000
_cell_length_c   19.89460000
_cell_angle_alpha   90.00000000
_cell_angle_beta   90.00000000
_cell_angle_gamma   120.00000000
_symmetry_Int_Tables_number   1
_chemical_formula_structural   Sm4H72(C19O8)3
_chemical_formula_sum   'Sm16 H288 C228 O96'
_cell_volume   5775.82556550
_cell_formula_units_Z   4
loop_
 _symmetry_equiv_pos_site_id
 _symmetry_equiv_pos_as_xyz
  1  'x, y, z'
loop_
 _atom_site_type_symbol
 _atom_site_label
 _atom_site_symmetry_multiplicity
 _atom_site_fract_x
 _atom_site_fract_y
 _atom_site_fract_z
 _atom_site_occupancy
 _atom_site_charge
Sm  Sm1  1  0.41655000  0.50730000  0.55584000  1.0 2.0261267322
Sm  Sm2  1  0.49270000  0.90925000  0.55584000  1.0 2.0261267322
Sm  Sm3  1  0.09075000  0.58345000  0.55584000  1.0 2.0261267322
Sm  Sm4  1  0.90925000  0.49270000  0.94416000  1.0 2.0261267322
Sm  Sm5  1  0.58345000  0.09075000  0.94416000  1.0 2.0261267322
Sm  Sm6  1  0.50730000  0.41655000  0.94416000  1.0 2.0261267322
Sm  Sm7  1  0.58345000  0.49270000  0.44416000  1.0 2.0261267322
Sm  Sm8  1  0.50730000  0.09075000  0.44416000  1.0 2.0261267322
Sm  Sm9  1  0.90925000  0.41655000  0.44416000  1.0 2.0261267322
Sm  Sm10  1  0.09075000  0.50730000  0.05584000  1.0 2.0261267322
Sm  Sm11  1  0.41655000  0.90925000  0.05584000  1.0 2.0261267322
Sm  Sm12  1  0.49270000  0.58345000  0.05584000  1.0 2.0261267322
Sm  Sm13  1  0.33333333  0.66666667  0.61872000  1.0 2.018700669
Sm  Sm14  1  0.66666667  0.33333333  0.88128000  1.0 2.018700669
Sm  Sm15  1  0.66666667  0.33333333  0.38128000  1.0 2.018700669
Sm  Sm16  1  0.33333333  0.66666667  0.11872000  1.0 2.018700669
H  H1  1  0.37380000  0.44910000  0.78370000  1.0 0.1369194784
H  H2  1  0.55090000  0.92470000  0.78370000  1.0 0.1369194784
H  H3  1  0.07530000  0.62620000  0.78370000  1.0 0.1369194784
H  H4  1  0.92470000  0.55090000  0.71630000  1.0 0.1369194784
H  H5  1  0.62620000  0.07530000  0.71630000  1.0 0.1369194784
H  H6  1  0.44910000  0.37380000  0.71630000  1.0 0.1369194784
H  H7  1  0.62620000  0.55090000  0.21630000  1.0 0.1369194784
H  H8  1  0.44910000  0.07530000  0.21630000  1.0 0.1369194784
H  H9  1  0.92470000  0.37380000  0.21630000  1.0 0.1369194784
H  H10  1  0.07530000  0.44910000  0.28370000  1.0 0.1369194784
H  H11  1  0.37380000  0.92470000  0.28370000  1.0 0.1369194784
H  H12  1  0.55090000  0.62620000  0.28370000  1.0 0.1369194784
H  H13  1  0.35490000  0.58410000  0.84060000  1.0 0.1302531514
H  H14  1  0.41590000  0.77080000  0.84060000  1.0 0.1302531514
H  H15  1  0.22920000  0.64510000  0.84060000  1.0 0.1302531514
H  H16  1  0.77080000  0.41590000  0.65940000  1.0 0.1302531514
H  H17  1  0.64510000  0.22920000  0.65940000  1.0 0.1302531514
H  H18  1  0.58410000  0.35490000  0.65940000  1.0 0.1302531514
H  H19  1  0.64510000  0.41590000  0.15940000  1.0 0.1302531514
H  H20  1  0.58410000  0.22920000  0.15940000  1.0 0.1302531514
H  H21  1  0.77080000  0.35490000  0.15940000  1.0 0.1302531514
H  H22  1  0.22920000  0.58410000  0.34060000  1.0 0.1302531514
H  H23  1  0.35490000  0.77080000  0.34060000  1.0 0.1302531514
H  H24  1  0.41590000  0.64510000  0.34060000  1.0 0.1302531514
H  H25  1  0.28340000  0.22190000  0.47010000  1.0 0.1194749599
H  H26  1  0.77810000  0.06150000  0.47010000  1.0 0.1194749599
H  H27  1  0.93850000  0.71660000  0.47010000  1.0 0.1194749599
H  H28  1  0.06150000  0.77810000  0.02990000  1.0 0.1194749599
H  H29  1  0.71660000  0.93850000  0.02990000  1.0 0.1194749599
H  H30  1  0.22190000  0.28340000  0.02990000  1.0 0.1194749599
H  H31  1  0.71660000  0.77810000  0.52990000  1.0 0.1194749599
H  H32  1  0.22190000  0.93850000  0.52990000  1.0 0.1194749599
H  H33  1  0.06150000  0.28340000  0.52990000  1.0 0.1194749599
H  H34  1  0.93850000  0.22190000  0.97010000  1.0 0.1194749599
H  H35  1  0.28340000  0.06150000  0.97010000  1.0 0.1194749599
H  H36  1  0.77810000  0.71660000  0.97010000  1.0 0.1194749599
H  H37  1  0.22050000  0.51990000  0.78870000  1.0 0.1302531514
H  H38  1  0.48010000  0.70060000  0.78870000  1.0 0.1302531514
H  H39  1  0.29940000  0.77950000  0.78870000  1.0 0.1302531514
H  H40  1  0.70060000  0.48010000  0.71130000  1.0 0.1302531514
H  H41  1  0.77950000  0.29940000  0.71130000  1.0 0.1302531514
H  H42  1  0.51990000  0.22050000  0.71130000  1.0 0.1302531514
H  H43  1  0.77950000  0.48010000  0.21130000  1.0 0.1302531514
H  H44  1  0.51990000  0.29940000  0.21130000  1.0 0.1302531514
H  H45  1  0.70060000  0.22050000  0.21130000  1.0 0.1302531514
H  H46  1  0.29940000  0.51990000  0.28870000  1.0 0.1302531514
H  H47  1  0.22050000  0.70060000  0.28870000  1.0 0.1302531514
H  H48  1  0.48010000  0.77950000  0.28870000  1.0 0.1302531514
H  H49  1  0.17150000  0.46800000  0.85240000  1.0 0.1302531514
H  H50  1  0.53200000  0.70350000  0.85240000  1.0 0.1302531514
H  H51  1  0.29650000  0.82850000  0.85240000  1.0 0.1302531514
H  H52  1  0.70350000  0.53200000  0.64760000  1.0 0.1302531514
H  H53  1  0.82850000  0.29650000  0.64760000  1.0 0.1302531514
H  H54  1  0.46800000  0.17150000  0.64760000  1.0 0.1302531514
H  H55  1  0.82850000  0.53200000  0.14760000  1.0 0.1302531514
H  H56  1  0.46800000  0.29650000  0.14760000  1.0 0.1302531514
H  H57  1  0.70350000  0.17150000  0.14760000  1.0 0.1302531514
H  H58  1  0.29650000  0.46800000  0.35240000  1.0 0.1302531514
H  H59  1  0.17150000  0.70350000  0.35240000  1.0 0.1302531514
H  H60  1  0.53200000  0.82850000  0.35240000  1.0 0.1302531514
H  H61  1  0.15970000  0.42220000  0.78330000  1.0 0.1194749599
H  H62  1  0.57780000  0.73750000  0.78330000  1.0 0.1194749599
H  H63  1  0.26250000  0.84030000  0.78330000  1.0 0.1194749599
H  H64  1  0.73750000  0.57780000  0.71670000  1.0 0.1194749599
H  H65  1  0.84030000  0.26250000  0.71670000  1.0 0.1194749599
H  H66  1  0.42220000  0.15970000  0.71670000  1.0 0.1194749599
H  H67  1  0.84030000  0.57780000  0.21670000  1.0 0.1194749599
H  H68  1  0.42220000  0.26250000  0.21670000  1.0 0.1194749599
H  H69  1  0.73750000  0.15970000  0.21670000  1.0 0.1194749599
H  H70  1  0.26250000  0.42220000  0.28330000  1.0 0.1194749599
H  H71  1  0.15970000  0.73750000  0.28330000  1.0 0.1194749599
H  H72  1  0.57780000  0.84030000  0.28330000  1.0 0.1194749599
H  H73  1  0.20320000  0.32350000  0.83870000  1.0 0.1302531514
H  H74  1  0.67650000  0.87970000  0.83870000  1.0 0.1302531514
H  H75  1  0.12030000  0.79680000  0.83870000  1.0 0.1302531514
H  H76  1  0.87970000  0.67650000  0.66130000  1.0 0.1302531514
H  H77  1  0.79680000  0.12030000  0.66130000  1.0 0.1302531514
H  H78  1  0.32350000  0.20320000  0.66130000  1.0 0.1302531514
H  H79  1  0.79680000  0.67650000  0.16130000  1.0 0.1302531514
H  H80  1  0.32350000  0.12030000  0.16130000  1.0 0.1302531514
H  H81  1  0.87970000  0.20320000  0.16130000  1.0 0.1302531514
H  H82  1  0.12030000  0.32350000  0.33870000  1.0 0.1302531514
H  H83  1  0.20320000  0.87970000  0.33870000  1.0 0.1302531514
H  H84  1  0.67650000  0.79680000  0.33870000  1.0 0.1302531514
H  H85  1  0.21930000  0.37010000  0.90780000  1.0 0.1302531514
H  H86  1  0.62990000  0.84920000  0.90780000  1.0 0.1302531514
H  H87  1  0.15080000  0.78070000  0.90780000  1.0 0.1302531514
H  H88  1  0.84920000  0.62990000  0.59220000  1.0 0.1302531514
H  H89  1  0.78070000  0.15080000  0.59220000  1.0 0.1302531514
H  H90  1  0.37010000  0.21930000  0.59220000  1.0 0.1302531514
H  H91  1  0.78070000  0.62990000  0.09220000  1.0 0.1302531514
H  H92  1  0.37010000  0.15080000  0.09220000  1.0 0.1302531514
H  H93  1  0.84920000  0.21930000  0.09220000  1.0 0.1302531514
H  H94  1  0.15080000  0.37010000  0.40780000  1.0 0.1302531514
H  H95  1  0.21930000  0.84920000  0.40780000  1.0 0.1302531514
H  H96  1  0.62990000  0.78070000  0.40780000  1.0 0.1302531514
H  H97  1  0.29220000  0.36310000  0.87270000  1.0 0.1302531514
H  H98  1  0.63690000  0.92910000  0.87270000  1.0 0.1302531514
H  H99  1  0.07090000  0.70780000  0.87270000  1.0 0.1302531514
H  H100  1  0.92910000  0.63690000  0.62730000  1.0 0.1302531514
H  H101  1  0.70780000  0.07090000  0.62730000  1.0 0.1302531514
H  H102  1  0.36310000  0.29220000  0.62730000  1.0 0.1302531514
H  H103  1  0.70780000  0.63690000  0.12730000  1.0 0.1302531514
H  H104  1  0.36310000  0.07090000  0.12730000  1.0 0.1302531514
H  H105  1  0.92910000  0.29220000  0.12730000  1.0 0.1302531514
H  H106  1  0.07090000  0.36310000  0.37270000  1.0 0.1302531514
H  H107  1  0.29220000  0.92910000  0.37270000  1.0 0.1302531514
H  H108  1  0.63690000  0.70780000  0.37270000  1.0 0.1302531514
H  H109  1  0.36470000  0.16870000  0.42750000  1.0 0.0919022599
H  H110  1  0.83130000  0.19600000  0.42750000  1.0 0.0919022599
H  H111  1  0.80400000  0.63530000  0.42750000  1.0 0.0919022599
H  H112  1  0.19600000  0.83130000  0.07250000  1.0 0.0919022599
H  H113  1  0.63530000  0.80400000  0.07250000  1.0 0.0919022599
H  H114  1  0.16870000  0.36470000  0.07250000  1.0 0.0919022599
H  H115  1  0.63530000  0.83130000  0.57250000  1.0 0.0919022599
H  H116  1  0.16870000  0.80400000  0.57250000  1.0 0.0919022599
H  H117  1  0.19600000  0.36470000  0.57250000  1.0 0.0919022599
H  H118  1  0.80400000  0.16870000  0.92750000  1.0 0.0919022599
H  H119  1  0.36470000  0.19600000  0.92750000  1.0 0.0919022599
H  H120  1  0.83130000  0.63530000  0.92750000  1.0 0.0919022599
H  H121  1  0.25290000  0.14200000  0.35890000  1.0 0.0343141169
H  H122  1  0.85800000  0.11090000  0.35890000  1.0 0.0343141169
H  H123  1  0.88910000  0.74710000  0.35890000  1.0 0.0343141169
H  H124  1  0.11090000  0.85800000  0.14110000  1.0 0.0343141169
H  H125  1  0.74710000  0.88910000  0.14110000  1.0 0.0343141169
H  H126  1  0.14200000  0.25290000  0.14110000  1.0 0.0343141169
H  H127  1  0.74710000  0.85800000  0.64110000  1.0 0.0343141169
H  H128  1  0.14200000  0.88910000  0.64110000  1.0 0.0343141169
H  H129  1  0.11090000  0.25290000  0.64110000  1.0 0.0343141169
H  H130  1  0.88910000  0.14200000  0.85890000  1.0 0.0343141169
H  H131  1  0.25290000  0.11090000  0.85890000  1.0 0.0343141169
H  H132  1  0.85800000  0.74710000  0.85890000  1.0 0.0343141169
H  H133  1  0.29410000  0.19220000  0.29260000  1.0 0.0688212704
H  H134  1  0.80780000  0.10190000  0.29260000  1.0 0.0688212704
H  H135  1  0.89810000  0.70590000  0.29260000  1.0 0.0688212704
H  H136  1  0.10190000  0.80780000  0.20740000  1.0 0.0688212704
H  H137  1  0.70590000  0.89810000  0.20740000  1.0 0.0688212704
H  H138  1  0.19220000  0.29410000  0.20740000  1.0 0.0688212704
H  H139  1  0.70590000  0.80780000  0.70740000  1.0 0.0688212704
H  H140  1  0.19220000  0.89810000  0.70740000  1.0 0.0688212704
H  H141  1  0.10190000  0.29410000  0.70740000  1.0 0.0688212704
H  H142  1  0.89810000  0.19220000  0.79260000  1.0 0.0688212704
H  H143  1  0.29410000  0.10190000  0.79260000  1.0 0.0688212704
H  H144  1  0.80780000  0.70590000  0.79260000  1.0 0.0688212704
H  H145  1  0.23130000  0.21000000  0.33320000  1.0 0.0784095528
H  H146  1  0.79000000  0.02130000  0.33320000  1.0 0.0784095528
H  H147  1  0.97870000  0.76870000  0.33320000  1.0 0.0784095528
H  H148  1  0.02130000  0.79000000  0.16680000  1.0 0.0784095528
H  H149  1  0.76870000  0.97870000  0.16680000  1.0 0.0784095528
H  H150  1  0.21000000  0.23130000  0.16680000  1.0 0.0784095528
H  H151  1  0.76870000  0.79000000  0.66680000  1.0 0.0784095528
H  H152  1  0.21000000  0.97870000  0.66680000  1.0 0.0784095528
H  H153  1  0.02130000  0.23130000  0.66680000  1.0 0.0784095528
H  H154  1  0.97870000  0.21000000  0.83320000  1.0 0.0784095528
H  H155  1  0.23130000  0.02130000  0.83320000  1.0 0.0784095528
H  H156  1  0.79000000  0.76870000  0.83320000  1.0 0.0784095528
H  H157  1  0.35040000  0.35250000  0.31400000  1.0 0.0784095528
H  H158  1  0.64750000  0.99790000  0.31400000  1.0 0.0784095528
H  H159  1  0.00210000  0.64960000  0.31400000  1.0 0.0784095528
H  H160  1  0.99790000  0.64750000  0.18600000  1.0 0.0784095528
H  H161  1  0.64960000  0.00210000  0.18600000  1.0 0.0784095528
H  H162  1  0.35250000  0.35040000  0.18600000  1.0 0.0784095528
H  H163  1  0.64960000  0.64750000  0.68600000  1.0 0.0784095528
H  H164  1  0.35250000  0.00210000  0.68600000  1.0 0.0784095528
H  H165  1  0.99790000  0.35040000  0.68600000  1.0 0.0784095528
H  H166  1  0.00210000  0.35250000  0.81400000  1.0 0.0784095528
H  H167  1  0.35040000  0.99790000  0.81400000  1.0 0.0784095528
H  H168  1  0.64750000  0.64960000  0.81400000  1.0 0.0784095528
H  H169  1  0.41950000  0.32890000  0.29620000  1.0 0.0784095528
H  H170  1  0.67110000  0.09060000  0.29620000  1.0 0.0784095528
H  H171  1  0.90940000  0.58050000  0.29620000  1.0 0.0784095528
H  H172  1  0.09060000  0.67110000  0.20380000  1.0 0.0784095528
H  H173  1  0.58050000  0.90940000  0.20380000  1.0 0.0784095528
H  H174  1  0.32890000  0.41950000  0.20380000  1.0 0.0784095528
H  H175  1  0.58050000  0.67110000  0.70380000  1.0 0.0784095528
H  H176  1  0.32890000  0.90940000  0.70380000  1.0 0.0784095528
H  H177  1  0.09060000  0.41950000  0.70380000  1.0 0.0784095528
H  H178  1  0.90940000  0.32890000  0.79620000  1.0 0.0784095528
H  H179  1  0.41950000  0.09060000  0.79620000  1.0 0.0784095528
H  H180  1  0.67110000  0.58050000  0.79620000  1.0 0.0784095528
H  H181  1  0.43140000  0.38590000  0.35880000  1.0 0.1006488903
H  H182  1  0.61410000  0.04550000  0.35880000  1.0 0.1006488903
H  H183  1  0.95450000  0.56860000  0.35880000  1.0 0.1006488903
H  H184  1  0.04550000  0.61410000  0.14120000  1.0 0.1006488903
H  H185  1  0.56860000  0.95450000  0.14120000  1.0 0.1006488903
H  H186  1  0.38590000  0.43140000  0.14120000  1.0 0.1006488903
H  H187  1  0.56860000  0.61410000  0.64120000  1.0 0.1006488903
H  H188  1  0.38590000  0.95450000  0.64120000  1.0 0.1006488903
H  H189  1  0.04550000  0.43140000  0.64120000  1.0 0.1006488903
H  H190  1  0.95450000  0.38590000  0.85880000  1.0 0.1006488903
H  H191  1  0.43140000  0.04550000  0.85880000  1.0 0.1006488903
H  H192  1  0.61410000  0.56860000  0.85880000  1.0 0.1006488903
H  H193  1  0.33190000  0.33390000  0.34090000  1.0 0.0784095528
H  H194  1  0.66610000  0.99800000  0.34090000  1.0 0.0784095528
H  H195  1  0.00200000  0.66810000  0.34090000  1.0 0.0784095528
H  H196  1  0.99800000  0.66610000  0.15910000  1.0 0.0784095528
H  H197  1  0.66810000  0.00200000  0.15910000  1.0 0.0784095528
H  H198  1  0.33390000  0.33190000  0.15910000  1.0 0.0784095528
H  H199  1  0.66810000  0.66610000  0.65910000  1.0 0.0784095528
H  H200  1  0.33390000  0.00200000  0.65910000  1.0 0.0784095528
H  H201  1  0.99800000  0.33190000  0.65910000  1.0 0.0784095528
H  H202  1  0.00200000  0.33390000  0.84090000  1.0 0.0784095528
H  H203  1  0.33190000  0.99800000  0.84090000  1.0 0.0784095528
H  H204  1  0.66610000  0.66810000  0.84090000  1.0 0.0784095528
H  H205  1  0.34890000  0.27570000  0.29330000  1.0 0.0688212704
H  H206  1  0.72430000  0.07320000  0.29330000  1.0 0.0688212704
H  H207  1  0.92680000  0.65110000  0.29330000  1.0 0.0688212704
H  H208  1  0.07320000  0.72430000  0.20670000  1.0 0.0688212704
H  H209  1  0.65110000  0.92680000  0.20670000  1.0 0.0688212704
H  H210  1  0.27570000  0.34890000  0.20670000  1.0 0.0688212704
H  H211  1  0.65110000  0.72430000  0.70670000  1.0 0.0688212704
H  H212  1  0.27570000  0.92680000  0.70670000  1.0 0.0688212704
H  H213  1  0.07320000  0.34890000  0.70670000  1.0 0.0688212704
H  H214  1  0.92680000  0.27570000  0.79330000  1.0 0.0688212704
H  H215  1  0.34890000  0.07320000  0.79330000  1.0 0.0688212704
H  H216  1  0.72430000  0.65110000  0.79330000  1.0 0.0688212704
H  H217  1  0.42060000  0.34050000  0.34050000  1.0 0.0688212704
H  H218  1  0.65950000  0.08010000  0.34050000  1.0 0.0688212704
H  H219  1  0.91990000  0.57940000  0.34050000  1.0 0.0688212704
H  H220  1  0.08010000  0.65950000  0.15950000  1.0 0.0688212704
H  H221  1  0.57940000  0.91990000  0.15950000  1.0 0.0688212704
H  H222  1  0.34050000  0.42060000  0.15950000  1.0 0.0688212704
H  H223  1  0.57940000  0.65950000  0.65950000  1.0 0.0688212704
H  H224  1  0.34050000  0.91990000  0.65950000  1.0 0.0688212704
H  H225  1  0.08010000  0.42060000  0.65950000  1.0 0.0688212704
H  H226  1  0.91990000  0.34050000  0.84050000  1.0 0.0688212704
H  H227  1  0.42060000  0.08010000  0.84050000  1.0 0.0688212704
H  H228  1  0.65950000  0.57940000  0.84050000  1.0 0.0688212704
H  H229  1  0.29480000  0.22800000  0.48800000  1.0 0.1194749599
H  H230  1  0.77200000  0.06680000  0.48800000  1.0 0.1194749599
H  H231  1  0.93320000  0.70520000  0.48800000  1.0 0.1194749599
H  H232  1  0.06680000  0.77200000  0.01200000  1.0 0.1194749599
H  H233  1  0.70520000  0.93320000  0.01200000  1.0 0.1194749599
H  H234  1  0.22800000  0.29480000  0.01200000  1.0 0.1194749599
H  H235  1  0.70520000  0.77200000  0.51200000  1.0 0.1194749599
H  H236  1  0.22800000  0.93320000  0.51200000  1.0 0.1194749599
H  H237  1  0.06680000  0.29480000  0.51200000  1.0 0.1194749599
H  H238  1  0.93320000  0.22800000  0.98800000  1.0 0.1194749599
H  H239  1  0.29480000  0.06680000  0.98800000  1.0 0.1194749599
H  H240  1  0.77200000  0.70520000  0.98800000  1.0 0.1194749599
H  H241  1  0.37420000  0.17890000  0.45140000  1.0 0.1006488903
H  H242  1  0.82110000  0.19530000  0.45140000  1.0 0.1006488903
H  H243  1  0.80470000  0.62580000  0.45140000  1.0 0.1006488903
H  H244  1  0.19530000  0.82110000  0.04860000  1.0 0.1006488903
H  H245  1  0.62580000  0.80470000  0.04860000  1.0 0.1006488903
H  H246  1  0.17890000  0.37420000  0.04860000  1.0 0.1006488903
H  H247  1  0.62580000  0.82110000  0.54860000  1.0 0.1006488903
H  H248  1  0.17890000  0.80470000  0.54860000  1.0 0.1006488903
H  H249  1  0.19530000  0.37420000  0.54860000  1.0 0.1006488903
H  H250  1  0.80470000  0.17890000  0.95140000  1.0 0.1006488903
H  H251  1  0.37420000  0.19530000  0.95140000  1.0 0.1006488903
H  H252  1  0.82110000  0.62580000  0.95140000  1.0 0.1006488903
H  H253  1  0.21380000  0.17120000  0.35430000  1.0 0.0688212704
H  H254  1  0.82880000  0.04260000  0.35430000  1.0 0.0688212704
H  H255  1  0.95740000  0.78620000  0.35430000  1.0 0.0688212704
H  H256  1  0.04260000  0.82880000  0.14570000  1.0 0.0688212704
H  H257  1  0.78620000  0.95740000  0.14570000  1.0 0.0688212704
H  H258  1  0.17120000  0.21380000  0.14570000  1.0 0.0688212704
H  H259  1  0.78620000  0.82880000  0.64570000  1.0 0.0688212704
H  H260  1  0.17120000  0.95740000  0.64570000  1.0 0.0688212704
H  H261  1  0.04260000  0.21380000  0.64570000  1.0 0.0688212704
H  H262  1  0.95740000  0.17120000  0.85430000  1.0 0.0688212704
H  H263  1  0.21380000  0.04260000  0.85430000  1.0 0.0688212704
H  H264  1  0.82880000  0.78620000  0.85430000  1.0 0.0688212704
H  H265  1  0.23830000  0.11650000  0.39930000  1.0 0.0919022599
H  H266  1  0.88350000  0.12180000  0.39930000  1.0 0.0919022599
H  H267  1  0.87820000  0.76170000  0.39930000  1.0 0.0919022599
H  H268  1  0.12180000  0.88350000  0.10070000  1.0 0.0919022599
H  H269  1  0.76170000  0.87820000  0.10070000  1.0 0.0919022599
H  H270  1  0.11650000  0.23830000  0.10070000  1.0 0.0919022599
H  H271  1  0.76170000  0.88350000  0.60070000  1.0 0.0919022599
H  H272  1  0.11650000  0.87820000  0.60070000  1.0 0.0919022599
H  H273  1  0.12180000  0.23830000  0.60070000  1.0 0.0919022599
H  H274  1  0.87820000  0.11650000  0.89930000  1.0 0.0919022599
H  H275  1  0.23830000  0.12180000  0.89930000  1.0 0.0919022599
H  H276  1  0.88350000  0.76170000  0.89930000  1.0 0.0919022599
H  H277  1  0.27340000  0.14000000  0.32590000  1.0 0.0784095528
H  H278  1  0.86000000  0.13340000  0.32590000  1.0 0.0784095528
H  H279  1  0.86660000  0.72660000  0.32590000  1.0 0.0784095528
H  H280  1  0.13340000  0.86000000  0.17410000  1.0 0.0784095528
H  H281  1  0.72660000  0.86660000  0.17410000  1.0 0.0784095528
H  H282  1  0.14000000  0.27340000  0.17410000  1.0 0.0784095528
H  H283  1  0.72660000  0.86000000  0.67410000  1.0 0.0784095528
H  H284  1  0.14000000  0.86660000  0.67410000  1.0 0.0784095528
H  H285  1  0.13340000  0.27340000  0.67410000  1.0 0.0784095528
H  H286  1  0.86660000  0.14000000  0.82590000  1.0 0.0784095528
H  H287  1  0.27340000  0.13340000  0.82590000  1.0 0.0784095528
H  H288  1  0.86000000  0.72660000  0.82590000  1.0 0.0784095528
C  C1  1  0.35050000  0.51870000  0.71350000  1.0 0.6391329664
C  C2  1  0.48130000  0.83180000  0.71350000  1.0 0.6391329664
C  C3  1  0.16820000  0.64950000  0.71350000  1.0 0.6391329664
C  C4  1  0.83180000  0.48130000  0.78650000  1.0 0.6391329664
C  C5  1  0.64950000  0.16820000  0.78650000  1.0 0.6391329664
C  C6  1  0.51870000  0.35050000  0.78650000  1.0 0.6391329664
C  C7  1  0.64950000  0.48130000  0.28650000  1.0 0.6391329664
C  C8  1  0.51870000  0.16820000  0.28650000  1.0 0.6391329664
C  C9  1  0.83180000  0.35050000  0.28650000  1.0 0.6391329664
C  C10  1  0.16820000  0.51870000  0.21350000  1.0 0.6391329664
C  C11  1  0.35050000  0.83180000  0.21350000  1.0 0.6391329664
C  C12  1  0.48130000  0.64950000  0.21350000  1.0 0.6391329664
C  C13  1  0.40900000  0.52970000  0.90080000  1.0 0.6748168566
C  C14  1  0.47030000  0.87930000  0.90080000  1.0 0.6748168566
C  C15  1  0.12070000  0.59100000  0.90080000  1.0 0.6748168566
C  C16  1  0.87930000  0.47030000  0.59920000  1.0 0.6748168566
C  C17  1  0.59100000  0.12070000  0.59920000  1.0 0.6748168566
C  C18  1  0.52970000  0.40900000  0.59920000  1.0 0.6748168566
C  C19  1  0.59100000  0.47030000  0.09920000  1.0 0.6748168566
C  C20  1  0.52970000  0.12070000  0.09920000  1.0 0.6748168566
C  C21  1  0.87930000  0.40900000  0.09920000  1.0 0.6748168566
C  C22  1  0.12070000  0.52970000  0.40080000  1.0 0.6748168566
C  C23  1  0.40900000  0.87930000  0.40080000  1.0 0.6748168566
C  C24  1  0.47030000  0.59100000  0.40080000  1.0 0.6748168566
C  C25  1  0.34640000  0.48330000  0.78130000  1.0 -0.2051078133
C  C26  1  0.51670000  0.86310000  0.78130000  1.0 -0.2051078133
C  C27  1  0.13690000  0.65360000  0.78130000  1.0 -0.2051078133
C  C28  1  0.86310000  0.51670000  0.71870000  1.0 -0.2045692108
C  C29  1  0.65360000  0.13690000  0.71870000  1.0 -0.2045692108
C  C30  1  0.48330000  0.34640000  0.71870000  1.0 -0.2045692108
C  C31  1  0.65360000  0.51670000  0.21870000  1.0 -0.2045692108
C  C32  1  0.48330000  0.13690000  0.21870000  1.0 -0.2045692108
C  C33  1  0.86310000  0.34640000  0.21870000  1.0 -0.2045692108
C  C34  1  0.13690000  0.48330000  0.28130000  1.0 -0.2051078133
C  C35  1  0.34640000  0.86310000  0.28130000  1.0 -0.2051078133
C  C36  1  0.51670000  0.65360000  0.28130000  1.0 -0.2051078133
C  C37  1  0.35410000  0.53060000  0.84630000  1.0 -0.2211652499
C  C38  1  0.46940000  0.82350000  0.84630000  1.0 -0.2211652499
C  C39  1  0.17650000  0.64590000  0.84630000  1.0 -0.2211652499
C  C40  1  0.82350000  0.46940000  0.65370000  1.0 -0.2211652499
C  C41  1  0.64590000  0.17650000  0.65370000  1.0 -0.2211652499
C  C42  1  0.53060000  0.35410000  0.65370000  1.0 -0.2211652499
C  C43  1  0.64590000  0.46940000  0.15370000  1.0 -0.2211652499
C  C44  1  0.53060000  0.17650000  0.15370000  1.0 -0.2211652499
C  C45  1  0.82350000  0.35410000  0.15370000  1.0 -0.2211652499
C  C46  1  0.17650000  0.53060000  0.34630000  1.0 -0.2211652499
C  C47  1  0.35410000  0.82350000  0.34630000  1.0 -0.2211652499
C  C48  1  0.46940000  0.64590000  0.34630000  1.0 -0.2211652499
C  C49  1  0.36590000  0.35370000  0.48260000  1.0 0.4744221441
C  C50  1  0.64630000  0.01220000  0.48260000  1.0 0.4744221441
C  C51  1  0.98780000  0.63410000  0.48260000  1.0 0.4744221441
C  C52  1  0.01220000  0.64630000  0.01740000  1.0 0.4744221441
C  C53  1  0.63410000  0.98780000  0.01740000  1.0 0.4744221441
C  C54  1  0.35370000  0.36590000  0.01740000  1.0 0.4744221441
C  C55  1  0.63410000  0.64630000  0.51740000  1.0 0.4744221441
C  C56  1  0.35370000  0.98780000  0.51740000  1.0 0.4744221441
C  C57  1  0.01220000  0.36590000  0.51740000  1.0 0.4744221441
C  C58  1  0.98780000  0.35370000  0.98260000  1.0 0.4744221441
C  C59  1  0.36590000  0.01220000  0.98260000  1.0 0.4744221441
C  C60  1  0.64630000  0.63410000  0.98260000  1.0 0.4744221441
C  C61  1  0.33810000  0.26580000  0.45280000  1.0 -0.1325256827
C  C62  1  0.73420000  0.07230000  0.45280000  1.0 -0.1325256827
C  C63  1  0.92770000  0.66190000  0.45280000  1.0 -0.1325256827
C  C64  1  0.07230000  0.73420000  0.04720000  1.0 -0.1325256827
C  C65  1  0.66190000  0.92770000  0.04720000  1.0 -0.1325256827
C  C66  1  0.26580000  0.33810000  0.04720000  1.0 -0.1325256827
C  C67  1  0.66190000  0.73420000  0.54720000  1.0 -0.1325256827
C  C68  1  0.26580000  0.92770000  0.54720000  1.0 -0.1325256827
C  C69  1  0.07230000  0.33810000  0.54720000  1.0 -0.1325256827
C  C70  1  0.92770000  0.26580000  0.95280000  1.0 -0.1325256827
C  C71  1  0.33810000  0.07230000  0.95280000  1.0 -0.1325256827
C  C72  1  0.73420000  0.66190000  0.95280000  1.0 -0.1325256827
C  C73  1  0.27120000  0.45260000  0.82850000  1.0 0.2744715659
C  C74  1  0.54740000  0.81860000  0.82850000  1.0 0.2744715659
C  C75  1  0.18140000  0.72880000  0.82850000  1.0 0.2744715659
C  C76  1  0.81860000  0.54740000  0.67150000  1.0 0.2744715659
C  C77  1  0.72880000  0.18140000  0.67150000  1.0 0.2744715659
C  C78  1  0.45260000  0.27120000  0.67150000  1.0 0.2744715659
C  C79  1  0.72880000  0.54740000  0.17150000  1.0 0.2744715659
C  C80  1  0.45260000  0.18140000  0.17150000  1.0 0.2744715659
C  C81  1  0.81860000  0.27120000  0.17150000  1.0 0.2744715659
C  C82  1  0.18140000  0.45260000  0.32850000  1.0 0.2744715659
C  C83  1  0.27120000  0.81860000  0.32850000  1.0 0.2744715659
C  C84  1  0.54740000  0.72880000  0.32850000  1.0 0.2744715659
C  C85  1  0.19920000  0.46700000  0.81170000  1.0 -0.5285745663
C  C86  1  0.53300000  0.73220000  0.81170000  1.0 -0.5285745663
C  C87  1  0.26780000  0.80080000  0.81170000  1.0 -0.5285745663
C  C88  1  0.73220000  0.53300000  0.68830000  1.0 -0.5285745663
C  C89  1  0.80080000  0.26780000  0.68830000  1.0 -0.5285745663
C  C90  1  0.46700000  0.19920000  0.68830000  1.0 -0.5285745663
C  C91  1  0.80080000  0.53300000  0.18830000  1.0 -0.5285745663
C  C92  1  0.46700000  0.26780000  0.18830000  1.0 -0.5285745663
C  C93  1  0.73220000  0.19920000  0.18830000  1.0 -0.5285745663
C  C94  1  0.26780000  0.46700000  0.31170000  1.0 -0.5285745663
C  C95  1  0.19920000  0.73220000  0.31170000  1.0 -0.5285745663
C  C96  1  0.53300000  0.80080000  0.31170000  1.0 -0.5285745663
C  C97  1  0.24390000  0.36960000  0.86540000  1.0 -0.5187854372
C  C98  1  0.63040000  0.87430000  0.86540000  1.0 -0.5187854372
C  C99  1  0.12570000  0.75610000  0.86540000  1.0 -0.5187854372
C  C100  1  0.87430000  0.63040000  0.63460000  1.0 -0.5187854372
C  C101  1  0.75610000  0.12570000  0.63460000  1.0 -0.5187854372
C  C102  1  0.36960000  0.24390000  0.63460000  1.0 -0.5187854372
C  C103  1  0.75610000  0.63040000  0.13460000  1.0 -0.5187854372
C  C104  1  0.36960000  0.12570000  0.13460000  1.0 -0.5187854372
C  C105  1  0.87430000  0.24390000  0.13460000  1.0 -0.5187854372
C  C106  1  0.12570000  0.36960000  0.36540000  1.0 -0.5187854372
C  C107  1  0.24390000  0.87430000  0.36540000  1.0 -0.5187854372
C  C108  1  0.63040000  0.75610000  0.36540000  1.0 -0.5187854372
C  C109  1  0.39190000  0.23020000  0.42440000  1.0 -0.1325256827
C  C110  1  0.76980000  0.16170000  0.42440000  1.0 -0.1325256827
C  C111  1  0.83830000  0.60810000  0.42440000  1.0 -0.1325256827
C  C112  1  0.16170000  0.76980000  0.07560000  1.0 -0.1325256827
C  C113  1  0.60810000  0.83830000  0.07560000  1.0 -0.1325256827
C  C114  1  0.23020000  0.39190000  0.07560000  1.0 -0.1325256827
C  C115  1  0.60810000  0.76980000  0.57560000  1.0 -0.1325256827
C  C116  1  0.23020000  0.83830000  0.57560000  1.0 -0.1325256827
C  C117  1  0.16170000  0.39190000  0.57560000  1.0 -0.1325256827
C  C118  1  0.83830000  0.23020000  0.92440000  1.0 -0.1325256827
C  C119  1  0.39190000  0.16170000  0.92440000  1.0 -0.1325256827
C  C120  1  0.76980000  0.60810000  0.92440000  1.0 -0.1325256827
C  C121  1  0.48680000  0.27420000  0.42640000  1.0 0.5140695371
C  C122  1  0.72580000  0.21260000  0.42640000  1.0 0.5140695371
C  C123  1  0.78740000  0.51320000  0.42640000  1.0 0.5140695371
C  C124  1  0.21260000  0.72580000  0.07360000  1.0 0.5140695371
C  C125  1  0.51320000  0.78740000  0.07360000  1.0 0.5140695371
C  C126  1  0.27420000  0.48680000  0.07360000  1.0 0.5140695371
C  C127  1  0.51320000  0.72580000  0.57360000  1.0 0.5140695371
C  C128  1  0.27420000  0.78740000  0.57360000  1.0 0.5140695371
C  C129  1  0.21260000  0.48680000  0.57360000  1.0 0.5140695371
C  C130  1  0.78740000  0.27420000  0.92640000  1.0 0.5140695371
C  C131  1  0.48680000  0.21260000  0.92640000  1.0 0.5140695371
C  C132  1  0.72580000  0.51320000  0.92640000  1.0 0.5140695371
C  C133  1  0.27480000  0.19550000  0.33670000  1.0 -0.193772449
C  C134  1  0.80450000  0.07930000  0.33670000  1.0 -0.193772449
C  C135  1  0.92070000  0.72520000  0.33670000  1.0 -0.193772449
C  C136  1  0.07930000  0.80450000  0.16330000  1.0 -0.193772449
C  C137  1  0.72520000  0.92070000  0.16330000  1.0 -0.193772449
C  C138  1  0.19550000  0.27480000  0.16330000  1.0 -0.193772449
C  C139  1  0.72520000  0.80450000  0.66330000  1.0 -0.193772449
C  C140  1  0.19550000  0.92070000  0.66330000  1.0 -0.193772449
C  C141  1  0.07930000  0.27480000  0.66330000  1.0 -0.193772449
C  C142  1  0.92070000  0.19550000  0.83670000  1.0 -0.193772449
C  C143  1  0.27480000  0.07930000  0.83670000  1.0 -0.193772449
C  C144  1  0.80450000  0.72520000  0.83670000  1.0 -0.193772449
C  C145  1  0.34620000  0.26110000  0.37620000  1.0 0.1302531514
C  C146  1  0.73890000  0.08510000  0.37620000  1.0 0.1302531514
C  C147  1  0.91490000  0.65380000  0.37620000  1.0 0.1302531514
C  C148  1  0.08510000  0.73890000  0.12380000  1.0 0.1302531514
C  C149  1  0.65380000  0.91490000  0.12380000  1.0 0.1302531514
C  C150  1  0.26110000  0.34620000  0.12380000  1.0 0.1302531514
C  C151  1  0.65380000  0.73890000  0.62380000  1.0 0.1302531514
C  C152  1  0.26110000  0.91490000  0.62380000  1.0 0.1302531514
C  C153  1  0.08510000  0.34620000  0.62380000  1.0 0.1302531514
C  C154  1  0.91490000  0.26110000  0.87620000  1.0 0.1302531514
C  C155  1  0.34620000  0.08510000  0.87620000  1.0 0.1302531514
C  C156  1  0.73890000  0.65380000  0.87620000  1.0 0.1302531514
C  C157  1  0.39100000  0.33930000  0.33230000  1.0 -0.2211652499
C  C158  1  0.66070000  0.05170000  0.33230000  1.0 -0.2211652499
C  C159  1  0.94830000  0.60900000  0.33230000  1.0 -0.2211652499
C  C160  1  0.05170000  0.66070000  0.16770000  1.0 -0.2211652499
C  C161  1  0.60900000  0.94830000  0.16770000  1.0 -0.2211652499
C  C162  1  0.33930000  0.39100000  0.16770000  1.0 -0.2211652499
C  C163  1  0.60900000  0.66070000  0.66770000  1.0 -0.2211652499
C  C164  1  0.33930000  0.94830000  0.66770000  1.0 -0.2211652499
C  C165  1  0.05170000  0.39100000  0.66770000  1.0 -0.2211652499
C  C166  1  0.94830000  0.33930000  0.83230000  1.0 -0.2211652499
C  C167  1  0.39100000  0.05170000  0.83230000  1.0 -0.2211652499
C  C168  1  0.66070000  0.60900000  0.83230000  1.0 -0.2211652499
C  C169  1  0.33240000  0.23720000  0.39070000  1.0 0.0919022599
C  C170  1  0.76280000  0.09520000  0.39070000  1.0 0.0919022599
C  C171  1  0.90480000  0.66760000  0.39070000  1.0 0.0919022599
C  C172  1  0.09520000  0.76280000  0.10930000  1.0 0.0919022599
C  C173  1  0.66760000  0.90480000  0.10930000  1.0 0.0919022599
C  C174  1  0.23720000  0.33240000  0.10930000  1.0 0.0919022599
C  C175  1  0.66760000  0.76280000  0.60930000  1.0 0.0919022599
C  C176  1  0.23720000  0.90480000  0.60930000  1.0 0.0919022599
C  C177  1  0.09520000  0.33240000  0.60930000  1.0 0.0919022599
C  C178  1  0.90480000  0.23720000  0.89070000  1.0 0.0919022599
C  C179  1  0.33240000  0.09520000  0.89070000  1.0 0.0919022599
C  C180  1  0.76280000  0.66760000  0.89070000  1.0 0.0919022599
C  C181  1  0.36100000  0.30270000  0.33650000  1.0 -0.1073209695
C  C182  1  0.69730000  0.05830000  0.33650000  1.0 -0.1073209695
C  C183  1  0.94170000  0.63900000  0.33650000  1.0 -0.1073209695
C  C184  1  0.05830000  0.69730000  0.16350000  1.0 -0.1073209695
C  C185  1  0.63900000  0.94170000  0.16350000  1.0 -0.1073209695
C  C186  1  0.30270000  0.36100000  0.16350000  1.0 -0.1073209695
C  C187  1  0.63900000  0.69730000  0.66350000  1.0 -0.1073209695
C  C188  1  0.30270000  0.94170000  0.66350000  1.0 -0.1073209695
C  C189  1  0.05830000  0.36100000  0.66350000  1.0 -0.1073209695
C  C190  1  0.94170000  0.30270000  0.83650000  1.0 -0.1073209695
C  C191  1  0.36100000  0.05830000  0.83650000  1.0 -0.1073209695
C  C192  1  0.69730000  0.63900000  0.83650000  1.0 -0.1073209695
C  C193  1  0.33980000  0.26990000  0.45940000  1.0 -0.1360811494
C  C194  1  0.73010000  0.06990000  0.45940000  1.0 -0.1360811494
C  C195  1  0.93010000  0.66020000  0.45940000  1.0 -0.1360811494
C  C196  1  0.06990000  0.73010000  0.04060000  1.0 -0.1360811494
C  C197  1  0.66020000  0.93010000  0.04060000  1.0 -0.1360811494
C  C198  1  0.26990000  0.33980000  0.04060000  1.0 -0.1360811494
C  C199  1  0.66020000  0.73010000  0.54060000  1.0 -0.1360811494
C  C200  1  0.26990000  0.93010000  0.54060000  1.0 -0.1360811494
C  C201  1  0.06990000  0.33980000  0.54060000  1.0 -0.1360811494
C  C202  1  0.93010000  0.26990000  0.95940000  1.0 -0.1360811494
C  C203  1  0.33980000  0.06990000  0.95940000  1.0 -0.1360811494
C  C204  1  0.73010000  0.66020000  0.95940000  1.0 -0.1360811494
C  C205  1  0.39640000  0.23630000  0.43410000  1.0 -0.1325256827
C  C206  1  0.76370000  0.16010000  0.43410000  1.0 -0.1325256827
C  C207  1  0.83990000  0.60360000  0.43410000  1.0 -0.1325256827
C  C208  1  0.16010000  0.76370000  0.06590000  1.0 -0.1325256827
C  C209  1  0.60360000  0.83990000  0.06590000  1.0 -0.1325256827
C  C210  1  0.23630000  0.39640000  0.06590000  1.0 -0.1325256827
C  C211  1  0.60360000  0.76370000  0.56590000  1.0 -0.1325256827
C  C212  1  0.23630000  0.83990000  0.56590000  1.0 -0.1325256827
C  C213  1  0.16010000  0.39640000  0.56590000  1.0 -0.1325256827
C  C214  1  0.83990000  0.23630000  0.93410000  1.0 -0.1325256827
C  C215  1  0.39640000  0.16010000  0.93410000  1.0 -0.1325256827
C  C216  1  0.76370000  0.60360000  0.93410000  1.0 -0.1325256827
C  C217  1  0.25790000  0.15930000  0.36530000  1.0 -0.156136801
C  C218  1  0.84070000  0.09860000  0.36530000  1.0 -0.156136801
C  C219  1  0.90140000  0.74210000  0.36530000  1.0 -0.156136801
C  C220  1  0.09860000  0.84070000  0.13470000  1.0 -0.156136801
C  C221  1  0.74210000  0.90140000  0.13470000  1.0 -0.156136801
C  C222  1  0.15930000  0.25790000  0.13470000  1.0 -0.156136801
C  C223  1  0.74210000  0.84070000  0.63470000  1.0 -0.156136801
C  C224  1  0.15930000  0.90140000  0.63470000  1.0 -0.156136801
C  C225  1  0.09860000  0.25790000  0.63470000  1.0 -0.156136801
C  C226  1  0.90140000  0.15930000  0.86530000  1.0 -0.156136801
C  C227  1  0.25790000  0.09860000  0.86530000  1.0 -0.156136801
C  C228  1  0.84070000  0.74210000  0.86530000  1.0 -0.156136801
O  O1  1  0.31520000  0.36290000  0.51810000  1.0 -0.5285745663
O  O2  1  0.63710000  0.95230000  0.51810000  1.0 -0.5285745663
O  O3  1  0.04770000  0.68480000  0.51810000  1.0 -0.5285745663
O  O4  1  0.95230000  0.63710000  0.98190000  1.0 -0.5285745663
O  O5  1  0.68480000  0.04770000  0.98190000  1.0 -0.5285745663
O  O6  1  0.36290000  0.31520000  0.98190000  1.0 -0.5285745663
O  O7  1  0.68480000  0.63710000  0.48190000  1.0 -0.5285745663
O  O8  1  0.36290000  0.04770000  0.48190000  1.0 -0.5285745663
O  O9  1  0.95230000  0.31520000  0.48190000  1.0 -0.5285745663
O  O10  1  0.04770000  0.36290000  0.01810000  1.0 -0.5285745663
O  O11  1  0.31520000  0.95230000  0.01810000  1.0 -0.5285745663
O  O12  1  0.63710000  0.68480000  0.01810000  1.0 -0.5285745663
O  O13  1  0.33040000  0.57370000  0.70380000  1.0 -0.6154603265
O  O14  1  0.42630000  0.75670000  0.70380000  1.0 -0.6154603265
O  O15  1  0.24330000  0.66960000  0.70380000  1.0 -0.6154603265
O  O16  1  0.75670000  0.42630000  0.79620000  1.0 -0.6154603265
O  O17  1  0.66960000  0.24330000  0.79620000  1.0 -0.6154603265
O  O18  1  0.57370000  0.33040000  0.79620000  1.0 -0.6154603265
O  O19  1  0.66960000  0.42630000  0.29620000  1.0 -0.6154603265
O  O20  1  0.57370000  0.24330000  0.29620000  1.0 -0.6154603265
O  O21  1  0.75670000  0.33040000  0.29620000  1.0 -0.6154603265
O  O22  1  0.24330000  0.57370000  0.20380000  1.0 -0.6154603265
O  O23  1  0.33040000  0.75670000  0.20380000  1.0 -0.6154603265
O  O24  1  0.42630000  0.66960000  0.20380000  1.0 -0.6154603265
O  O25  1  0.37730000  0.49010000  0.66780000  1.0 -0.6886991551
O  O26  1  0.50990000  0.88720000  0.66780000  1.0 -0.6886991551
O  O27  1  0.11280000  0.62270000  0.66780000  1.0 -0.6886991551
O  O28  1  0.88720000  0.50990000  0.83220000  1.0 -0.6886991551
O  O29  1  0.62270000  0.11280000  0.83220000  1.0 -0.6886991551
O  O30  1  0.49010000  0.37730000  0.83220000  1.0 -0.6886991551
O  O31  1  0.62270000  0.50990000  0.33220000  1.0 -0.6886991551
O  O32  1  0.49010000  0.11280000  0.33220000  1.0 -0.6886991551
O  O33  1  0.88720000  0.37730000  0.33220000  1.0 -0.6886991551
O  O34  1  0.11280000  0.49010000  0.16780000  1.0 -0.6886991551
O  O35  1  0.37730000  0.88720000  0.16780000  1.0 -0.6886991551
O  O36  1  0.50990000  0.62270000  0.16780000  1.0 -0.6886991551
O  O37  1  0.53690000  0.35010000  0.40850000  1.0 -0.6628586403
O  O38  1  0.64990000  0.18680000  0.40850000  1.0 -0.6628586403
O  O39  1  0.81320000  0.46310000  0.40850000  1.0 -0.6628586403
O  O40  1  0.18680000  0.64990000  0.09150000  1.0 -0.6628586403
O  O41  1  0.46310000  0.81320000  0.09150000  1.0 -0.6628586403
O  O42  1  0.35010000  0.53690000  0.09150000  1.0 -0.6628586403
O  O43  1  0.46310000  0.64990000  0.59150000  1.0 -0.6628586403
O  O44  1  0.35010000  0.81320000  0.59150000  1.0 -0.6628586403
O  O45  1  0.18680000  0.53690000  0.59150000  1.0 -0.6628586403
O  O46  1  0.81320000  0.35010000  0.90850000  1.0 -0.6628586403
O  O47  1  0.53690000  0.18680000  0.90850000  1.0 -0.6628586403
O  O48  1  0.64990000  0.46310000  0.90850000  1.0 -0.6628586403
O  O49  1  0.51750000  0.22740000  0.43820000  1.0 -0.6502132915
O  O50  1  0.77260000  0.29010000  0.43820000  1.0 -0.6502132915
O  O51  1  0.70990000  0.48250000  0.43820000  1.0 -0.6502132915
O  O52  1  0.29010000  0.77260000  0.06180000  1.0 -0.6502132915
O  O53  1  0.48250000  0.70990000  0.06180000  1.0 -0.6502132915
O  O54  1  0.22740000  0.51750000  0.06180000  1.0 -0.6502132915
O  O55  1  0.48250000  0.77260000  0.56180000  1.0 -0.6502132915
O  O56  1  0.22740000  0.70990000  0.56180000  1.0 -0.6502132915
O  O57  1  0.29010000  0.51750000  0.56180000  1.0 -0.6502132915
O  O58  1  0.70990000  0.22740000  0.93820000  1.0 -0.6502132915
O  O59  1  0.51750000  0.29010000  0.93820000  1.0 -0.6502132915
O  O60  1  0.77260000  0.48250000  0.93820000  1.0 -0.6502132915
O  O61  1  0.43810000  0.41570000  0.46810000  1.0 -0.6689860624
O  O62  1  0.58430000  0.02240000  0.46810000  1.0 -0.6689860624
O  O63  1  0.97760000  0.56190000  0.46810000  1.0 -0.6689860624
O  O64  1  0.02240000  0.58430000  0.03190000  1.0 -0.6689860624
O  O65  1  0.56190000  0.97760000  0.03190000  1.0 -0.6689860624
O  O66  1  0.41570000  0.43810000  0.03190000  1.0 -0.6689860624
O  O67  1  0.56190000  0.58430000  0.53190000  1.0 -0.6689860624
O  O68  1  0.41570000  0.97760000  0.53190000  1.0 -0.6689860624
O  O69  1  0.02240000  0.43810000  0.53190000  1.0 -0.6689860624
O  O70  1  0.97760000  0.41570000  0.96810000  1.0 -0.6689860624
O  O71  1  0.43810000  0.02240000  0.96810000  1.0 -0.6689860624
O  O72  1  0.58430000  0.56190000  0.96810000  1.0 -0.6689860624
O  O73  1  0.42590000  0.57970000  0.95010000  1.0 -0.6689860624
O  O74  1  0.42030000  0.84620000  0.95010000  1.0 -0.6689860624
O  O75  1  0.15380000  0.57410000  0.95010000  1.0 -0.6689860624
O  O76  1  0.84620000  0.42030000  0.54990000  1.0 -0.6689860624
O  O77  1  0.57410000  0.15380000  0.54990000  1.0 -0.6689860624
O  O78  1  0.57970000  0.42590000  0.54990000  1.0 -0.6689860624
O  O79  1  0.57410000  0.42030000  0.04990000  1.0 -0.6689860624
O  O80  1  0.57970000  0.15380000  0.04990000  1.0 -0.6689860624
O  O81  1  0.84620000  0.42590000  0.04990000  1.0 -0.6689860624
O  O82  1  0.15380000  0.57970000  0.45010000  1.0 -0.6689860624
O  O83  1  0.42590000  0.84620000  0.45010000  1.0 -0.6689860624
O  O84  1  0.42030000  0.57410000  0.45010000  1.0 -0.6689860624
O  O85  1  0.43470000  0.47750000  0.89490000  1.0 -0.6952361963
O  O86  1  0.52250000  0.95720000  0.89490000  1.0 -0.6952361963
O  O87  1  0.04280000  0.56530000  0.89490000  1.0 -0.6952361963
O  O88  1  0.95720000  0.52250000  0.60510000  1.0 -0.6886991551
O  O89  1  0.56530000  0.04280000  0.60510000  1.0 -0.6886991551
O  O90  1  0.47750000  0.43470000  0.60510000  1.0 -0.6952361963
O  O91  1  0.56530000  0.52250000  0.10510000  1.0 -0.6886991551
O  O92  1  0.47750000  0.04280000  0.10510000  1.0 -0.6886991551
O  O93  1  0.95720000  0.43470000  0.10510000  1.0 -0.6886991551
O  O94  1  0.04280000  0.47750000  0.39490000  1.0 -0.6952361963
O  O95  1  0.43470000  0.95720000  0.39490000  1.0 -0.6952361963
O  O96  1  0.52250000  0.56530000  0.39490000  1.0 -0.6952361963
