# DDEC6 charges by PACMAN v1.1 (https://github.com/mtap-research/PACMAN-charge/)
data_SAMYEN_ASR_pacman
_symmetry_space_group_name_H-M   'P 1'
_cell_length_a   18.24510000
_cell_length_b   18.24510000
_cell_length_c   19.80560000
_cell_angle_alpha   90.00000000
_cell_angle_beta   90.00000000
_cell_angle_gamma   120.00000000
_symmetry_Int_Tables_number   1
_chemical_formula_structural   Gd4H72(C19O8)3
_chemical_formula_sum   'Gd16 H288 C228 O96'
_cell_volume   5709.67162034
_cell_formula_units_Z   4
loop_
 _symmetry_equiv_pos_site_id
 _symmetry_equiv_pos_as_xyz
  1  'x, y, z'
loop_
 _atom_site_type_symbol
 _atom_site_label
 _atom_site_symmetry_multiplicity
 _atom_site_fract_x
 _atom_site_fract_y
 _atom_site_fract_z
 _atom_site_occupancy
 _atom_site_charge
Gd  Gd1  1  0.66666667  0.33333333  0.61818000  1.0 1.9527965856
Gd  Gd2  1  0.33333333  0.66666667  0.88182000  1.0 1.9527965856
Gd  Gd3  1  0.33333333  0.66666667  0.38182000  1.0 1.9527965856
Gd  Gd4  1  0.66666667  0.33333333  0.11818000  1.0 1.9527965856
Gd  Gd5  1  0.58289000  0.49211000  0.55585000  1.0 1.9593871208
Gd  Gd6  1  0.50789000  0.09078000  0.55585000  1.0 1.9593871208
Gd  Gd7  1  0.49211000  0.58289000  0.94415000  1.0 1.9593871208
Gd  Gd8  1  0.90922000  0.41711000  0.55585000  1.0 1.9593871208
Gd  Gd9  1  0.09078000  0.50789000  0.94415000  1.0 1.9593871208
Gd  Gd10  1  0.41711000  0.90922000  0.94415000  1.0 1.9593871208
Gd  Gd11  1  0.41711000  0.50789000  0.44415000  1.0 1.9593871208
Gd  Gd12  1  0.49211000  0.90922000  0.44415000  1.0 1.9593871208
Gd  Gd13  1  0.50789000  0.41711000  0.05585000  1.0 1.9593871208
Gd  Gd14  1  0.09078000  0.58289000  0.44415000  1.0 1.9593871208
Gd  Gd15  1  0.90922000  0.49211000  0.05585000  1.0 1.9593871208
Gd  Gd16  1  0.58289000  0.09078000  0.05585000  1.0 1.9593871208
H  H1  1  0.64530000  0.41530000  0.84070000  1.0 0.1303411736
H  H2  1  0.58470000  0.23000000  0.84070000  1.0 0.1303411736
H  H3  1  0.41530000  0.64530000  0.65930000  1.0 0.1303411736
H  H4  1  0.77000000  0.35470000  0.84070000  1.0 0.1303411736
H  H5  1  0.23000000  0.58470000  0.65930000  1.0 0.1303411736
H  H6  1  0.35470000  0.77000000  0.65930000  1.0 0.1303411736
H  H7  1  0.35470000  0.58470000  0.15930000  1.0 0.1303411736
H  H8  1  0.41530000  0.77000000  0.15930000  1.0 0.1303411736
H  H9  1  0.58470000  0.35470000  0.34070000  1.0 0.1303411736
H  H10  1  0.23000000  0.64530000  0.15930000  1.0 0.1303411736
H  H11  1  0.77000000  0.41530000  0.34070000  1.0 0.1303411736
H  H12  1  0.64530000  0.23000000  0.34070000  1.0 0.1303411736
H  H13  1  0.62510000  0.55030000  0.78340000  1.0 0.1357438822
H  H14  1  0.44970000  0.07480000  0.78340000  1.0 0.1357438822
H  H15  1  0.55030000  0.62510000  0.71660000  1.0 0.1357438822
H  H16  1  0.92520000  0.37490000  0.78340000  1.0 0.1357438822
H  H17  1  0.07480000  0.44970000  0.71660000  1.0 0.1357438822
H  H18  1  0.37490000  0.92520000  0.71660000  1.0 0.1357438822
H  H19  1  0.37490000  0.44970000  0.21660000  1.0 0.1357438822
H  H20  1  0.55030000  0.92520000  0.21660000  1.0 0.1357438822
H  H21  1  0.44970000  0.37490000  0.28340000  1.0 0.1357438822
H  H22  1  0.07480000  0.62510000  0.21660000  1.0 0.1357438822
H  H23  1  0.92520000  0.55030000  0.28340000  1.0 0.1357438822
H  H24  1  0.62510000  0.07480000  0.28340000  1.0 0.1357438822
H  H25  1  0.71780000  0.77580000  0.46930000  1.0 0.1096987847
H  H26  1  0.22420000  0.94200000  0.46930000  1.0 0.1096987847
H  H27  1  0.77580000  0.71780000  0.03070000  1.0 0.1096987847
H  H28  1  0.05800000  0.28220000  0.46930000  1.0 0.1096987847
H  H29  1  0.94200000  0.22420000  0.03070000  1.0 0.1096987847
H  H30  1  0.28220000  0.05800000  0.03070000  1.0 0.1096987847
H  H31  1  0.28220000  0.22420000  0.53070000  1.0 0.1096987847
H  H32  1  0.77580000  0.05800000  0.53070000  1.0 0.1096987847
H  H33  1  0.22420000  0.28220000  0.96930000  1.0 0.1096987847
H  H34  1  0.94200000  0.71780000  0.53070000  1.0 0.1096987847
H  H35  1  0.05800000  0.77580000  0.96930000  1.0 0.1096987847
H  H36  1  0.71780000  0.94200000  0.96930000  1.0 0.1096987847
H  H37  1  0.63620000  0.82920000  0.42770000  1.0 0.0886794558
H  H38  1  0.17080000  0.80700000  0.42770000  1.0 0.0886794558
H  H39  1  0.82920000  0.63620000  0.07230000  1.0 0.0886794558
H  H40  1  0.19300000  0.36380000  0.42770000  1.0 0.0886794558
H  H41  1  0.80700000  0.17080000  0.07230000  1.0 0.0886794558
H  H42  1  0.36380000  0.19300000  0.07230000  1.0 0.0886794558
H  H43  1  0.36380000  0.17080000  0.57230000  1.0 0.0886794558
H  H44  1  0.82920000  0.19300000  0.57230000  1.0 0.0886794558
H  H45  1  0.17080000  0.36380000  0.92770000  1.0 0.0886794558
H  H46  1  0.80700000  0.63620000  0.57230000  1.0 0.0886794558
H  H47  1  0.19300000  0.82920000  0.92770000  1.0 0.0886794558
H  H48  1  0.63620000  0.80700000  0.92770000  1.0 0.0886794558
H  H49  1  0.82720000  0.53050000  0.85270000  1.0 0.1303411736
H  H50  1  0.46950000  0.29670000  0.85270000  1.0 0.1303411736
H  H51  1  0.53050000  0.82720000  0.64730000  1.0 0.1303411736
H  H52  1  0.70330000  0.17280000  0.85270000  1.0 0.1303411736
H  H53  1  0.29670000  0.46950000  0.64730000  1.0 0.1303411736
H  H54  1  0.17280000  0.70330000  0.64730000  1.0 0.1303411736
H  H55  1  0.17280000  0.46950000  0.14730000  1.0 0.1303411736
H  H56  1  0.53050000  0.70330000  0.14730000  1.0 0.1303411736
H  H57  1  0.46950000  0.17280000  0.35270000  1.0 0.1303411736
H  H58  1  0.29670000  0.82720000  0.14730000  1.0 0.1303411736
H  H59  1  0.70330000  0.53050000  0.35270000  1.0 0.1303411736
H  H60  1  0.82720000  0.29670000  0.35270000  1.0 0.1303411736
H  H61  1  0.84180000  0.57980000  0.78460000  1.0 0.1231811565
H  H62  1  0.42020000  0.26200000  0.78460000  1.0 0.1231811565
H  H63  1  0.57980000  0.84180000  0.71540000  1.0 0.1231811565
H  H64  1  0.73800000  0.15820000  0.78460000  1.0 0.1231811565
H  H65  1  0.26200000  0.42020000  0.71540000  1.0 0.1231811565
H  H66  1  0.15820000  0.73800000  0.71540000  1.0 0.1231811565
H  H67  1  0.15820000  0.42020000  0.21540000  1.0 0.1231811565
H  H68  1  0.57980000  0.73800000  0.21540000  1.0 0.1231811565
H  H69  1  0.42020000  0.15820000  0.28460000  1.0 0.1231811565
H  H70  1  0.26200000  0.84180000  0.21540000  1.0 0.1231811565
H  H71  1  0.73800000  0.57980000  0.28460000  1.0 0.1231811565
H  H72  1  0.84180000  0.26200000  0.28460000  1.0 0.1231811565
H  H73  1  0.78030000  0.48170000  0.78690000  1.0 0.1303411736
H  H74  1  0.51830000  0.29860000  0.78690000  1.0 0.1303411736
H  H75  1  0.48170000  0.78030000  0.71310000  1.0 0.1303411736
H  H76  1  0.70140000  0.21970000  0.78690000  1.0 0.1303411736
H  H77  1  0.29860000  0.51830000  0.71310000  1.0 0.1303411736
H  H78  1  0.21970000  0.70140000  0.71310000  1.0 0.1303411736
H  H79  1  0.21970000  0.51830000  0.21310000  1.0 0.1303411736
H  H80  1  0.48170000  0.70140000  0.21310000  1.0 0.1303411736
H  H81  1  0.51830000  0.21970000  0.28690000  1.0 0.1303411736
H  H82  1  0.29860000  0.78030000  0.21310000  1.0 0.1303411736
H  H83  1  0.70140000  0.48170000  0.28690000  1.0 0.1303411736
H  H84  1  0.78030000  0.29860000  0.28690000  1.0 0.1303411736
H  H85  1  0.70760000  0.63640000  0.87310000  1.0 0.1303411736
H  H86  1  0.36360000  0.07120000  0.87310000  1.0 0.1303411736
H  H87  1  0.63640000  0.70760000  0.62690000  1.0 0.1303411736
H  H88  1  0.92880000  0.29240000  0.87310000  1.0 0.1303411736
H  H89  1  0.07120000  0.36360000  0.62690000  1.0 0.1303411736
H  H90  1  0.29240000  0.92880000  0.62690000  1.0 0.1303411736
H  H91  1  0.29240000  0.36360000  0.12690000  1.0 0.1303411736
H  H92  1  0.63640000  0.92880000  0.12690000  1.0 0.1303411736
H  H93  1  0.36360000  0.29240000  0.37310000  1.0 0.1303411736
H  H94  1  0.07120000  0.70760000  0.12690000  1.0 0.1303411736
H  H95  1  0.92880000  0.63640000  0.37310000  1.0 0.1303411736
H  H96  1  0.70760000  0.07120000  0.37310000  1.0 0.1303411736
H  H97  1  0.79510000  0.67660000  0.83600000  1.0 0.1303411736
H  H98  1  0.32340000  0.11850000  0.83600000  1.0 0.1303411736
H  H99  1  0.67660000  0.79510000  0.66400000  1.0 0.1303411736
H  H100  1  0.88150000  0.20490000  0.83600000  1.0 0.1303411736
H  H101  1  0.11850000  0.32340000  0.66400000  1.0 0.1303411736
H  H102  1  0.20490000  0.88150000  0.66400000  1.0 0.1303411736
H  H103  1  0.20490000  0.32340000  0.16400000  1.0 0.1303411736
H  H104  1  0.67660000  0.88150000  0.16400000  1.0 0.1303411736
H  H105  1  0.32340000  0.20490000  0.33600000  1.0 0.1303411736
H  H106  1  0.11850000  0.79510000  0.16400000  1.0 0.1303411736
H  H107  1  0.88150000  0.67660000  0.33600000  1.0 0.1303411736
H  H108  1  0.79510000  0.11850000  0.33600000  1.0 0.1303411736
H  H109  1  0.78320000  0.63140000  0.90580000  1.0 0.1303411736
H  H110  1  0.36860000  0.15180000  0.90580000  1.0 0.1303411736
H  H111  1  0.63140000  0.78320000  0.59420000  1.0 0.1303411736
H  H112  1  0.84820000  0.21680000  0.90580000  1.0 0.1303411736
H  H113  1  0.15180000  0.36860000  0.59420000  1.0 0.1303411736
H  H114  1  0.21680000  0.84820000  0.59420000  1.0 0.1303411736
H  H115  1  0.21680000  0.36860000  0.09420000  1.0 0.1303411736
H  H116  1  0.63140000  0.84820000  0.09420000  1.0 0.1303411736
H  H117  1  0.36860000  0.21680000  0.40580000  1.0 0.1303411736
H  H118  1  0.15180000  0.78320000  0.09420000  1.0 0.1303411736
H  H119  1  0.84820000  0.63140000  0.40580000  1.0 0.1303411736
H  H120  1  0.78320000  0.15180000  0.40580000  1.0 0.1303411736
H  H121  1  0.57980000  0.66810000  0.29520000  1.0 0.0800906641
H  H122  1  0.33190000  0.91170000  0.29520000  1.0 0.0800906641
H  H123  1  0.66810000  0.57980000  0.20480000  1.0 0.0800906641
H  H124  1  0.08830000  0.42020000  0.29520000  1.0 0.0800906641
H  H125  1  0.91170000  0.33190000  0.20480000  1.0 0.0800906641
H  H126  1  0.42020000  0.08830000  0.20480000  1.0 0.0800906641
H  H127  1  0.42020000  0.33190000  0.70480000  1.0 0.0800906641
H  H128  1  0.66810000  0.08830000  0.70480000  1.0 0.0800906641
H  H129  1  0.33190000  0.42020000  0.79520000  1.0 0.0800906641
H  H130  1  0.91170000  0.57980000  0.70480000  1.0 0.0800906641
H  H131  1  0.08830000  0.66810000  0.79520000  1.0 0.0800906641
H  H132  1  0.57980000  0.91170000  0.79520000  1.0 0.0800906641
H  H133  1  0.56520000  0.61230000  0.35950000  1.0 0.0886794558
H  H134  1  0.38770000  0.95290000  0.35950000  1.0 0.0886794558
H  H135  1  0.61230000  0.56520000  0.14050000  1.0 0.0886794558
H  H136  1  0.04710000  0.43480000  0.35950000  1.0 0.0886794558
H  H137  1  0.95290000  0.38770000  0.14050000  1.0 0.0886794558
H  H138  1  0.43480000  0.04710000  0.14050000  1.0 0.0886794558
H  H139  1  0.43480000  0.38770000  0.64050000  1.0 0.0886794558
H  H140  1  0.61230000  0.04710000  0.64050000  1.0 0.0886794558
H  H141  1  0.38770000  0.43480000  0.85950000  1.0 0.0886794558
H  H142  1  0.95290000  0.56520000  0.64050000  1.0 0.0886794558
H  H143  1  0.04710000  0.61230000  0.85950000  1.0 0.0886794558
H  H144  1  0.56520000  0.95290000  0.85950000  1.0 0.0886794558
H  H145  1  0.64690000  0.64240000  0.31570000  1.0 0.0800906641
H  H146  1  0.35760000  0.00450000  0.31570000  1.0 0.0800906641
H  H147  1  0.64240000  0.64690000  0.18430000  1.0 0.0800906641
H  H148  1  0.99550000  0.35310000  0.31570000  1.0 0.0800906641
H  H149  1  0.00450000  0.35760000  0.18430000  1.0 0.0800906641
H  H150  1  0.35310000  0.99550000  0.18430000  1.0 0.0800906641
H  H151  1  0.35310000  0.35760000  0.68430000  1.0 0.0800906641
H  H152  1  0.64240000  0.99550000  0.68430000  1.0 0.0800906641
H  H153  1  0.35760000  0.35310000  0.81570000  1.0 0.0800906641
H  H154  1  0.00450000  0.64690000  0.68430000  1.0 0.0800906641
H  H155  1  0.99550000  0.64240000  0.81570000  1.0 0.0800906641
H  H156  1  0.64690000  0.00450000  0.81570000  1.0 0.0800906641
H  H157  1  0.75930000  0.78720000  0.31620000  1.0 0.0711918294
H  H158  1  0.21280000  0.97210000  0.31620000  1.0 0.0711918294
H  H159  1  0.78720000  0.75930000  0.18380000  1.0 0.0711918294
H  H160  1  0.02790000  0.24070000  0.31620000  1.0 0.0711918294
H  H161  1  0.97210000  0.21280000  0.18380000  1.0 0.0711918294
H  H162  1  0.24070000  0.02790000  0.18380000  1.0 0.0711918294
H  H163  1  0.24070000  0.21280000  0.68380000  1.0 0.0711918294
H  H164  1  0.78720000  0.02790000  0.68380000  1.0 0.0711918294
H  H165  1  0.21280000  0.24070000  0.81620000  1.0 0.0711918294
H  H166  1  0.97210000  0.75930000  0.68380000  1.0 0.0711918294
H  H167  1  0.02790000  0.78720000  0.81620000  1.0 0.0711918294
H  H168  1  0.75930000  0.97210000  0.81620000  1.0 0.0711918294
H  H169  1  0.76580000  0.84920000  0.37380000  1.0 0.0453768109
H  H170  1  0.15080000  0.91660000  0.37380000  1.0 0.0453768109
H  H171  1  0.84920000  0.76580000  0.12620000  1.0 0.0453768109
H  H172  1  0.08340000  0.23420000  0.37380000  1.0 0.0453768109
H  H173  1  0.91660000  0.15080000  0.12620000  1.0 0.0453768109
H  H174  1  0.23420000  0.08340000  0.12620000  1.0 0.0453768109
H  H175  1  0.23420000  0.15080000  0.62620000  1.0 0.0453768109
H  H176  1  0.84920000  0.08340000  0.62620000  1.0 0.0453768109
H  H177  1  0.15080000  0.23420000  0.87380000  1.0 0.0453768109
H  H178  1  0.91660000  0.76580000  0.62620000  1.0 0.0453768109
H  H179  1  0.08340000  0.84920000  0.87380000  1.0 0.0453768109
H  H180  1  0.76580000  0.91660000  0.87380000  1.0 0.0453768109
H  H181  1  0.71040000  0.83720000  0.30980000  1.0 0.0711918294
H  H182  1  0.16280000  0.87320000  0.30980000  1.0 0.0711918294
H  H183  1  0.83720000  0.71040000  0.19020000  1.0 0.0711918294
H  H184  1  0.12680000  0.28960000  0.30980000  1.0 0.0711918294
H  H185  1  0.87320000  0.16280000  0.19020000  1.0 0.0711918294
H  H186  1  0.28960000  0.12680000  0.19020000  1.0 0.0711918294
H  H187  1  0.28960000  0.16280000  0.69020000  1.0 0.0711918294
H  H188  1  0.83720000  0.12680000  0.69020000  1.0 0.0711918294
H  H189  1  0.16280000  0.28960000  0.80980000  1.0 0.0711918294
H  H190  1  0.87320000  0.71040000  0.69020000  1.0 0.0711918294
H  H191  1  0.12680000  0.83720000  0.80980000  1.0 0.0711918294
H  H192  1  0.71040000  0.87320000  0.80980000  1.0 0.0711918294
H  H193  1  0.70790000  0.77340000  0.48900000  1.0 0.1096987847
H  H194  1  0.22660000  0.93450000  0.48900000  1.0 0.1096987847
H  H195  1  0.77340000  0.70790000  0.01100000  1.0 0.100714395
H  H196  1  0.06550000  0.29210000  0.48900000  1.0 0.1096987847
H  H197  1  0.93450000  0.22660000  0.01100000  1.0 0.100714395
H  H198  1  0.29210000  0.06550000  0.01100000  1.0 0.1096987847
H  H199  1  0.29210000  0.22660000  0.51100000  1.0 0.1096987847
H  H200  1  0.77340000  0.06550000  0.51100000  1.0 0.1096987847
H  H201  1  0.22660000  0.29210000  0.98900000  1.0 0.1096987847
H  H202  1  0.93450000  0.70790000  0.51100000  1.0 0.1096987847
H  H203  1  0.06550000  0.77340000  0.98900000  1.0 0.1096987847
H  H204  1  0.70790000  0.93450000  0.98900000  1.0 0.1096987847
H  H205  1  0.62700000  0.82540000  0.45150000  1.0 0.100714395
H  H206  1  0.17460000  0.80160000  0.45150000  1.0 0.100714395
H  H207  1  0.82540000  0.62700000  0.04850000  1.0 0.100714395
H  H208  1  0.19840000  0.37300000  0.45150000  1.0 0.100714395
H  H209  1  0.80160000  0.17460000  0.04850000  1.0 0.100714395
H  H210  1  0.37300000  0.19840000  0.04850000  1.0 0.100714395
H  H211  1  0.37300000  0.17460000  0.54850000  1.0 0.100714395
H  H212  1  0.82540000  0.19840000  0.54850000  1.0 0.100714395
H  H213  1  0.17460000  0.37300000  0.95150000  1.0 0.100714395
H  H214  1  0.80160000  0.62700000  0.54850000  1.0 0.100714395
H  H215  1  0.19840000  0.82540000  0.95150000  1.0 0.100714395
H  H216  1  0.62700000  0.80160000  0.95150000  1.0 0.100714395
H  H217  1  0.65240000  0.65220000  0.34790000  1.0 0.0800906641
H  H218  1  0.34780000  0.00020000  0.34790000  1.0 0.0800906641
H  H219  1  0.65220000  0.65240000  0.15210000  1.0 0.0800906641
H  H220  1  0.99980000  0.34760000  0.34790000  1.0 0.0800906641
H  H221  1  0.00020000  0.34780000  0.15210000  1.0 0.0800906641
H  H222  1  0.34760000  0.99980000  0.15210000  1.0 0.0800906641
H  H223  1  0.34760000  0.34780000  0.65210000  1.0 0.0800906641
H  H224  1  0.65220000  0.99980000  0.65210000  1.0 0.0800906641
H  H225  1  0.34780000  0.34760000  0.84790000  1.0 0.0800906641
H  H226  1  0.00020000  0.65240000  0.65210000  1.0 0.0800906641
H  H227  1  0.99980000  0.65220000  0.84790000  1.0 0.0800906641
H  H228  1  0.65240000  0.00020000  0.84790000  1.0 0.0800906641
H  H229  1  0.65870000  0.71730000  0.29330000  1.0 0.0711918294
H  H230  1  0.28270000  0.94140000  0.29330000  1.0 0.0711918294
H  H231  1  0.71730000  0.65870000  0.20670000  1.0 0.0711918294
H  H232  1  0.05860000  0.34130000  0.29330000  1.0 0.0711918294
H  H233  1  0.94140000  0.28270000  0.20670000  1.0 0.0711918294
H  H234  1  0.34130000  0.05860000  0.20670000  1.0 0.0711918294
H  H235  1  0.34130000  0.28270000  0.70670000  1.0 0.0711918294
H  H236  1  0.71730000  0.05860000  0.70670000  1.0 0.0711918294
H  H237  1  0.28270000  0.34130000  0.79330000  1.0 0.0711918294
H  H238  1  0.94140000  0.65870000  0.70670000  1.0 0.0711918294
H  H239  1  0.05860000  0.71730000  0.79330000  1.0 0.0711918294
H  H240  1  0.65870000  0.94140000  0.79330000  1.0 0.0711918294
H  H241  1  0.57470000  0.66470000  0.33430000  1.0 0.0711918294
H  H242  1  0.33530000  0.91000000  0.33430000  1.0 0.0711918294
H  H243  1  0.66470000  0.57470000  0.16570000  1.0 0.0711918294
H  H244  1  0.09000000  0.42530000  0.33430000  1.0 0.0711918294
H  H245  1  0.91000000  0.33530000  0.16570000  1.0 0.0711918294
H  H246  1  0.42530000  0.09000000  0.16570000  1.0 0.0711918294
H  H247  1  0.42530000  0.33530000  0.66570000  1.0 0.0711918294
H  H248  1  0.66470000  0.09000000  0.66570000  1.0 0.0711918294
H  H249  1  0.33530000  0.42530000  0.83430000  1.0 0.0711918294
H  H250  1  0.91000000  0.57470000  0.66570000  1.0 0.0711918294
H  H251  1  0.09000000  0.66470000  0.83430000  1.0 0.0711918294
H  H252  1  0.57470000  0.91000000  0.83430000  1.0 0.0711918294
H  H253  1  0.75900000  0.88290000  0.40460000  1.0 0.0886794558
H  H254  1  0.11710000  0.87610000  0.40460000  1.0 0.0886794558
H  H255  1  0.88290000  0.75900000  0.09540000  1.0 0.0886794558
H  H256  1  0.12390000  0.24100000  0.40460000  1.0 0.0886794558
H  H257  1  0.87610000  0.11710000  0.09540000  1.0 0.0886794558
H  H258  1  0.24100000  0.12390000  0.09540000  1.0 0.0886794558
H  H259  1  0.24100000  0.11710000  0.59540000  1.0 0.0886794558
H  H260  1  0.88290000  0.12390000  0.59540000  1.0 0.0886794558
H  H261  1  0.11710000  0.24100000  0.90460000  1.0 0.0886794558
H  H262  1  0.87610000  0.75900000  0.59540000  1.0 0.0886794558
H  H263  1  0.12390000  0.88290000  0.90460000  1.0 0.0886794558
H  H264  1  0.75900000  0.87610000  0.90460000  1.0 0.0886794558
H  H265  1  0.72940000  0.86450000  0.32920000  1.0 0.0711918294
H  H266  1  0.13550000  0.86490000  0.32920000  1.0 0.0711918294
H  H267  1  0.86450000  0.72940000  0.17080000  1.0 0.0711918294
H  H268  1  0.13510000  0.27060000  0.32920000  1.0 0.0711918294
H  H269  1  0.86490000  0.13550000  0.17080000  1.0 0.0711918294
H  H270  1  0.27060000  0.13510000  0.17080000  1.0 0.0711918294
H  H271  1  0.27060000  0.13550000  0.67080000  1.0 0.0711918294
H  H272  1  0.86450000  0.13510000  0.67080000  1.0 0.0711918294
H  H273  1  0.13550000  0.27060000  0.82920000  1.0 0.0711918294
H  H274  1  0.86490000  0.72940000  0.67080000  1.0 0.0711918294
H  H275  1  0.13510000  0.86450000  0.82920000  1.0 0.0711918294
H  H276  1  0.72940000  0.86490000  0.82920000  1.0 0.0711918294
H  H277  1  0.78900000  0.83330000  0.35820000  1.0 0.0711918294
H  H278  1  0.16670000  0.95570000  0.35820000  1.0 0.0711918294
H  H279  1  0.83330000  0.78900000  0.14180000  1.0 0.0711918294
H  H280  1  0.04430000  0.21100000  0.35820000  1.0 0.0711918294
H  H281  1  0.95570000  0.16670000  0.14180000  1.0 0.0711918294
H  H282  1  0.21100000  0.04430000  0.14180000  1.0 0.0711918294
H  H283  1  0.21100000  0.16670000  0.64180000  1.0 0.0711918294
H  H284  1  0.83330000  0.04430000  0.64180000  1.0 0.0711918294
H  H285  1  0.16670000  0.21100000  0.85820000  1.0 0.0711918294
H  H286  1  0.95570000  0.78900000  0.64180000  1.0 0.0711918294
H  H287  1  0.04430000  0.83330000  0.85820000  1.0 0.0711918294
H  H288  1  0.78900000  0.95570000  0.85820000  1.0 0.0711918294
C  C1  1  0.64590000  0.46900000  0.84612000  1.0 -0.217099606
C  C2  1  0.53100000  0.17690000  0.84612000  1.0 -0.217099606
C  C3  1  0.46900000  0.64590000  0.65388000  1.0 -0.217099606
C  C4  1  0.82310000  0.35410000  0.84612000  1.0 -0.217099606
C  C5  1  0.17690000  0.53100000  0.65388000  1.0 -0.217099606
C  C6  1  0.35410000  0.82310000  0.65388000  1.0 -0.217099606
C  C7  1  0.35410000  0.53100000  0.15388000  1.0 -0.217099606
C  C8  1  0.46900000  0.82310000  0.15388000  1.0 -0.217099606
C  C9  1  0.53100000  0.35410000  0.34612000  1.0 -0.217099606
C  C10  1  0.17690000  0.64590000  0.15388000  1.0 -0.217099606
C  C11  1  0.82310000  0.46900000  0.34612000  1.0 -0.217099606
C  C12  1  0.64590000  0.17690000  0.34612000  1.0 -0.217099606
C  C13  1  0.65310000  0.51640000  0.78105000  1.0 -0.1996456362
C  C14  1  0.48360000  0.13670000  0.78105000  1.0 -0.1996456362
C  C15  1  0.51640000  0.65310000  0.71895000  1.0 -0.1996456362
C  C16  1  0.86330000  0.34690000  0.78105000  1.0 -0.1996456362
C  C17  1  0.13670000  0.48360000  0.71895000  1.0 -0.1996456362
C  C18  1  0.34690000  0.86330000  0.71895000  1.0 -0.1996456362
C  C19  1  0.34690000  0.48360000  0.21895000  1.0 -0.1996456362
C  C20  1  0.51640000  0.86330000  0.21895000  1.0 -0.1996456362
C  C21  1  0.48360000  0.34690000  0.28105000  1.0 -0.1996456362
C  C22  1  0.13670000  0.65310000  0.21895000  1.0 -0.1996456362
C  C23  1  0.86330000  0.51640000  0.28105000  1.0 -0.1996456362
C  C24  1  0.65310000  0.13670000  0.28105000  1.0 -0.1996456362
C  C25  1  0.72840000  0.54760000  0.82804000  1.0 0.2724182976
C  C26  1  0.45240000  0.18080000  0.82804000  1.0 0.2724182976
C  C27  1  0.54760000  0.72840000  0.67196000  1.0 0.2724182976
C  C28  1  0.81920000  0.27160000  0.82804000  1.0 0.2724182976
C  C29  1  0.18080000  0.45240000  0.67196000  1.0 0.2724182976
C  C30  1  0.27160000  0.81920000  0.67196000  1.0 0.2724182976
C  C31  1  0.27160000  0.45240000  0.17196000  1.0 0.2724182976
C  C32  1  0.54760000  0.81920000  0.17196000  1.0 0.2724182976
C  C33  1  0.45240000  0.27160000  0.32804000  1.0 0.2724182976
C  C34  1  0.18080000  0.72840000  0.17196000  1.0 0.2724182976
C  C35  1  0.81920000  0.54760000  0.32804000  1.0 0.2724182976
C  C36  1  0.72840000  0.18080000  0.32804000  1.0 0.2724182976
C  C37  1  0.64860000  0.48000000  0.71263000  1.0 0.6402809692
C  C38  1  0.52000000  0.16860000  0.71263000  1.0 0.6402809692
C  C39  1  0.48000000  0.64860000  0.78737000  1.0 0.6402809692
C  C40  1  0.83140000  0.35140000  0.71263000  1.0 0.6402809692
C  C41  1  0.16860000  0.52000000  0.78737000  1.0 0.6402809692
C  C42  1  0.35140000  0.83140000  0.78737000  1.0 0.6402809692
C  C43  1  0.35140000  0.52000000  0.28737000  1.0 0.6402809692
C  C44  1  0.48000000  0.83140000  0.28737000  1.0 0.6402809692
C  C45  1  0.52000000  0.35140000  0.21263000  1.0 0.6402809692
C  C46  1  0.16860000  0.64860000  0.28737000  1.0 0.6402809692
C  C47  1  0.83140000  0.48000000  0.21263000  1.0 0.6402809692
C  C48  1  0.64860000  0.16860000  0.21263000  1.0 0.6402809692
C  C49  1  0.63360000  0.64580000  0.48267000  1.0 0.4717752211
C  C50  1  0.35420000  0.98780000  0.48267000  1.0 0.4717752211
C  C51  1  0.64580000  0.63360000  0.01733000  1.0 0.4717752211
C  C52  1  0.01220000  0.36640000  0.48267000  1.0 0.4717752211
C  C53  1  0.98780000  0.35420000  0.01733000  1.0 0.4717752211
C  C54  1  0.36640000  0.01220000  0.01733000  1.0 0.4717752211
C  C55  1  0.36640000  0.35420000  0.51733000  1.0 0.4717752211
C  C56  1  0.64580000  0.01220000  0.51733000  1.0 0.4717752211
C  C57  1  0.35420000  0.36640000  0.98267000  1.0 0.4717752211
C  C58  1  0.98780000  0.63360000  0.51733000  1.0 0.4717752211
C  C59  1  0.01220000  0.64580000  0.98267000  1.0 0.4717752211
C  C60  1  0.63360000  0.98780000  0.98267000  1.0 0.4717752211
C  C61  1  0.59040000  0.47060000  0.90064000  1.0 0.6676907611
C  C62  1  0.52940000  0.11980000  0.90064000  1.0 0.6676907611
C  C63  1  0.47060000  0.59040000  0.59936000  1.0 0.6676907611
C  C64  1  0.88020000  0.40960000  0.90064000  1.0 0.6676907611
C  C65  1  0.11980000  0.52940000  0.59936000  1.0 0.6676907611
C  C66  1  0.40960000  0.88020000  0.59936000  1.0 0.6676907611
C  C67  1  0.40960000  0.52940000  0.09936000  1.0 0.6676907611
C  C68  1  0.47060000  0.88020000  0.09936000  1.0 0.6676907611
C  C69  1  0.52940000  0.40960000  0.40064000  1.0 0.6676907611
C  C70  1  0.11980000  0.59040000  0.09936000  1.0 0.6676907611
C  C71  1  0.88020000  0.47060000  0.40064000  1.0 0.6676907611
C  C72  1  0.59040000  0.11980000  0.40064000  1.0 0.6676907611
C  C73  1  0.66290000  0.73190000  0.45210000  1.0 -0.1281130985
C  C74  1  0.26810000  0.93100000  0.45210000  1.0 -0.1281130985
C  C75  1  0.73190000  0.66290000  0.04790000  1.0 -0.1281130985
C  C76  1  0.06900000  0.33710000  0.45210000  1.0 -0.1281130985
C  C77  1  0.93100000  0.26810000  0.04790000  1.0 -0.1281130985
C  C78  1  0.33710000  0.06900000  0.04790000  1.0 -0.1281130985
C  C79  1  0.33710000  0.26810000  0.54790000  1.0 -0.1281130985
C  C80  1  0.73190000  0.06900000  0.54790000  1.0 -0.1281130985
C  C81  1  0.26810000  0.33710000  0.95210000  1.0 -0.1281130985
C  C82  1  0.93100000  0.66290000  0.54790000  1.0 -0.1281130985
C  C83  1  0.06900000  0.73190000  0.95210000  1.0 -0.1281130985
C  C84  1  0.66290000  0.93100000  0.95210000  1.0 -0.1281130985
C  C85  1  0.60800000  0.76740000  0.42450000  1.0 -0.1281130985
C  C86  1  0.23260000  0.84060000  0.42450000  1.0 -0.1281130985
C  C87  1  0.76740000  0.60800000  0.07550000  1.0 -0.1281130985
C  C88  1  0.15940000  0.39200000  0.42450000  1.0 -0.1281130985
C  C89  1  0.84060000  0.23260000  0.07550000  1.0 -0.1281130985
C  C90  1  0.39200000  0.15940000  0.07550000  1.0 -0.1281130985
C  C91  1  0.39200000  0.23260000  0.57550000  1.0 -0.1281130985
C  C92  1  0.76740000  0.15940000  0.57550000  1.0 -0.1281130985
C  C93  1  0.23260000  0.39200000  0.92450000  1.0 -0.1281130985
C  C94  1  0.84060000  0.60800000  0.57550000  1.0 -0.1281130985
C  C95  1  0.15940000  0.76740000  0.92450000  1.0 -0.1281130985
C  C96  1  0.60800000  0.84060000  0.92450000  1.0 -0.1281130985
C  C97  1  0.80100000  0.53360000  0.81160000  1.0 -0.5196405577
C  C98  1  0.46640000  0.26740000  0.81160000  1.0 -0.5196405577
C  C99  1  0.53360000  0.80100000  0.68840000  1.0 -0.5196405577
C  C100  1  0.73260000  0.19900000  0.81160000  1.0 -0.5196405577
C  C101  1  0.26740000  0.46640000  0.68840000  1.0 -0.5196405577
C  C102  1  0.19900000  0.73260000  0.68840000  1.0 -0.5196405577
C  C103  1  0.19900000  0.46640000  0.18840000  1.0 -0.5196405577
C  C104  1  0.53360000  0.73260000  0.18840000  1.0 -0.5196405577
C  C105  1  0.46640000  0.19900000  0.31160000  1.0 -0.5196405577
C  C106  1  0.26740000  0.80100000  0.18840000  1.0 -0.5196405577
C  C107  1  0.73260000  0.53360000  0.31160000  1.0 -0.5196405577
C  C108  1  0.80100000  0.26740000  0.31160000  1.0 -0.5196405577
C  C109  1  0.65310000  0.73740000  0.37540000  1.0 0.1231811565
C  C110  1  0.26260000  0.91570000  0.37540000  1.0 0.1231811565
C  C111  1  0.73740000  0.65310000  0.12460000  1.0 0.1231811565
C  C112  1  0.08430000  0.34690000  0.37540000  1.0 0.1231811565
C  C113  1  0.91570000  0.26260000  0.12460000  1.0 0.1231811565
C  C114  1  0.34690000  0.08430000  0.12460000  1.0 0.1231811565
C  C115  1  0.34690000  0.26260000  0.62460000  1.0 0.1231811565
C  C116  1  0.73740000  0.08430000  0.62460000  1.0 0.1231811565
C  C117  1  0.26260000  0.34690000  0.87540000  1.0 0.1231811565
C  C118  1  0.91570000  0.65310000  0.62460000  1.0 0.1231811565
C  C119  1  0.08430000  0.73740000  0.87540000  1.0 0.1231811565
C  C120  1  0.65310000  0.91570000  0.87540000  1.0 0.1231811565
C  C121  1  0.75610000  0.63060000  0.86400000  1.0 -0.5084496168
C  C122  1  0.36940000  0.12550000  0.86400000  1.0 -0.5084496168
C  C123  1  0.63060000  0.75610000  0.63600000  1.0 -0.5084496168
C  C124  1  0.87450000  0.24390000  0.86400000  1.0 -0.5084496168
C  C125  1  0.12550000  0.36940000  0.63600000  1.0 -0.5084496168
C  C126  1  0.24390000  0.87450000  0.63600000  1.0 -0.5084496168
C  C127  1  0.24390000  0.36940000  0.13600000  1.0 -0.5084496168
C  C128  1  0.63060000  0.87450000  0.13600000  1.0 -0.5084496168
C  C129  1  0.36940000  0.24390000  0.36400000  1.0 -0.5084496168
C  C130  1  0.12550000  0.75610000  0.13600000  1.0 -0.5084496168
C  C131  1  0.87450000  0.63060000  0.36400000  1.0 -0.5084496168
C  C132  1  0.75610000  0.12550000  0.36400000  1.0 -0.5084496168
C  C133  1  0.60700000  0.65770000  0.33250000  1.0 -0.217099606
C  C134  1  0.34230000  0.94930000  0.33250000  1.0 -0.217099606
C  C135  1  0.65770000  0.60700000  0.16750000  1.0 -0.217099606
C  C136  1  0.05070000  0.39300000  0.33250000  1.0 -0.217099606
C  C137  1  0.94930000  0.34230000  0.16750000  1.0 -0.217099606
C  C138  1  0.39300000  0.05070000  0.16750000  1.0 -0.217099606
C  C139  1  0.39300000  0.34230000  0.66750000  1.0 -0.217099606
C  C140  1  0.65770000  0.05070000  0.66750000  1.0 -0.217099606
C  C141  1  0.34230000  0.39300000  0.83250000  1.0 -0.217099606
C  C142  1  0.94930000  0.60700000  0.66750000  1.0 -0.217099606
C  C143  1  0.05070000  0.65770000  0.83250000  1.0 -0.217099606
C  C144  1  0.60700000  0.94930000  0.83250000  1.0 -0.217099606
C  C145  1  0.72910000  0.80940000  0.34060000  1.0 -0.2065429095
C  C146  1  0.19060000  0.91970000  0.34060000  1.0 -0.2065429095
C  C147  1  0.80940000  0.72910000  0.15940000  1.0 -0.2065429095
C  C148  1  0.08030000  0.27090000  0.34060000  1.0 -0.2065429095
C  C149  1  0.91970000  0.19060000  0.15940000  1.0 -0.2065429095
C  C150  1  0.27090000  0.08030000  0.15940000  1.0 -0.2065429095
C  C151  1  0.27090000  0.19060000  0.65940000  1.0 -0.2065429095
C  C152  1  0.80940000  0.08030000  0.65940000  1.0 -0.2065429095
C  C153  1  0.19060000  0.27090000  0.84060000  1.0 -0.2065429095
C  C154  1  0.91970000  0.72910000  0.65940000  1.0 -0.2065429095
C  C155  1  0.08030000  0.80940000  0.84060000  1.0 -0.2065429095
C  C156  1  0.72910000  0.91970000  0.84060000  1.0 -0.2065429095
C  C157  1  0.51260000  0.72610000  0.42688000  1.0 0.5219953728
C  C158  1  0.27390000  0.78650000  0.42688000  1.0 0.5219953728
C  C159  1  0.72610000  0.51260000  0.07312000  1.0 0.5219953728
C  C160  1  0.21350000  0.48740000  0.42688000  1.0 0.5219953728
C  C161  1  0.78650000  0.27390000  0.07312000  1.0 0.5219953728
C  C162  1  0.48740000  0.21350000  0.07312000  1.0 0.5219953728
C  C163  1  0.48740000  0.27390000  0.57312000  1.0 0.5219953728
C  C164  1  0.72610000  0.21350000  0.57312000  1.0 0.5219953728
C  C165  1  0.27390000  0.48740000  0.92688000  1.0 0.5219953728
C  C166  1  0.78650000  0.51260000  0.57312000  1.0 0.5219953728
C  C167  1  0.21350000  0.72610000  0.92688000  1.0 0.5219953728
C  C168  1  0.51260000  0.78650000  0.92688000  1.0 0.5219953728
C  C169  1  0.66060000  0.73180000  0.46160000  1.0 -0.1281130985
C  C170  1  0.26820000  0.92880000  0.46160000  1.0 -0.1281130985
C  C171  1  0.73180000  0.66060000  0.03840000  1.0 -0.1281130985
C  C172  1  0.07120000  0.33940000  0.46160000  1.0 -0.1281130985
C  C173  1  0.92880000  0.26820000  0.03840000  1.0 -0.1281130985
C  C174  1  0.33940000  0.07120000  0.03840000  1.0 -0.1281130985
C  C175  1  0.33940000  0.26820000  0.53840000  1.0 -0.1281130985
C  C176  1  0.73180000  0.07120000  0.53840000  1.0 -0.1281130985
C  C177  1  0.26820000  0.33940000  0.96160000  1.0 -0.1281130985
C  C178  1  0.92880000  0.66060000  0.53840000  1.0 -0.1281130985
C  C179  1  0.07120000  0.73180000  0.96160000  1.0 -0.1281130985
C  C180  1  0.66060000  0.92880000  0.96160000  1.0 -0.1281130985
C  C181  1  0.60430000  0.76690000  0.43620000  1.0 -0.1281130985
C  C182  1  0.23310000  0.83740000  0.43620000  1.0 -0.1281130985
C  C183  1  0.76690000  0.60430000  0.06380000  1.0 -0.1281130985
C  C184  1  0.16260000  0.39570000  0.43620000  1.0 -0.1281130985
C  C185  1  0.83740000  0.23310000  0.06380000  1.0 -0.1281130985
C  C186  1  0.39570000  0.16260000  0.06380000  1.0 -0.1281130985
C  C187  1  0.39570000  0.23310000  0.56380000  1.0 -0.1281130985
C  C188  1  0.76690000  0.16260000  0.56380000  1.0 -0.1281130985
C  C189  1  0.23310000  0.39570000  0.93620000  1.0 -0.1281130985
C  C190  1  0.83740000  0.60430000  0.56380000  1.0 -0.1281130985
C  C191  1  0.16260000  0.76690000  0.93620000  1.0 -0.1281130985
C  C192  1  0.60430000  0.83740000  0.93620000  1.0 -0.1281130985
C  C193  1  0.66700000  0.76080000  0.38920000  1.0 0.100714395
C  C194  1  0.23920000  0.90620000  0.38920000  1.0 0.100714395
C  C195  1  0.76080000  0.66700000  0.11080000  1.0 0.100714395
C  C196  1  0.09380000  0.33300000  0.38920000  1.0 0.100714395
C  C197  1  0.90620000  0.23920000  0.11080000  1.0 0.100714395
C  C198  1  0.33300000  0.09380000  0.11080000  1.0 0.100714395
C  C199  1  0.33300000  0.23920000  0.61080000  1.0 0.100714395
C  C200  1  0.76080000  0.09380000  0.61080000  1.0 0.100714395
C  C201  1  0.23920000  0.33300000  0.88920000  1.0 0.100714395
C  C202  1  0.90620000  0.66700000  0.61080000  1.0 0.100714395
C  C203  1  0.09380000  0.76080000  0.88920000  1.0 0.100714395
C  C204  1  0.66700000  0.90620000  0.88920000  1.0 0.100714395
C  C205  1  0.63540000  0.69260000  0.33640000  1.0 -0.1281130985
C  C206  1  0.30740000  0.94280000  0.33640000  1.0 -0.1281130985
C  C207  1  0.69260000  0.63540000  0.16360000  1.0 -0.1281130985
C  C208  1  0.05720000  0.36460000  0.33640000  1.0 -0.1281130985
C  C209  1  0.94280000  0.30740000  0.16360000  1.0 -0.1281130985
C  C210  1  0.36460000  0.05720000  0.16360000  1.0 -0.1281130985
C  C211  1  0.36460000  0.30740000  0.66360000  1.0 -0.1281130985
C  C212  1  0.69260000  0.05720000  0.66360000  1.0 -0.1281130985
C  C213  1  0.30740000  0.36460000  0.83640000  1.0 -0.1281130985
C  C214  1  0.94280000  0.63540000  0.66360000  1.0 -0.1281130985
C  C215  1  0.05720000  0.69260000  0.83640000  1.0 -0.1281130985
C  C216  1  0.63540000  0.94280000  0.83640000  1.0 -0.1281130985
C  C217  1  0.74290000  0.84280000  0.36840000  1.0 -0.165952422
C  C218  1  0.15720000  0.90010000  0.36840000  1.0 -0.165952422
C  C219  1  0.84280000  0.74290000  0.13160000  1.0 -0.165952422
C  C220  1  0.09990000  0.25710000  0.36840000  1.0 -0.165952422
C  C221  1  0.90010000  0.15720000  0.13160000  1.0 -0.165952422
C  C222  1  0.25710000  0.09990000  0.13160000  1.0 -0.165952422
C  C223  1  0.25710000  0.15720000  0.63160000  1.0 -0.165952422
C  C224  1  0.84280000  0.09990000  0.63160000  1.0 -0.165952422
C  C225  1  0.15720000  0.25710000  0.86840000  1.0 -0.165952422
C  C226  1  0.90010000  0.74290000  0.63160000  1.0 -0.165952422
C  C227  1  0.09990000  0.84280000  0.86840000  1.0 -0.165952422
C  C228  1  0.74290000  0.90010000  0.86840000  1.0 -0.165952422
O  O1  1  0.66990000  0.42563000  0.70292000  1.0 -0.6091687011
O  O2  1  0.57437000  0.24427000  0.70292000  1.0 -0.6091687011
O  O3  1  0.42563000  0.66990000  0.79708000  1.0 -0.6091687011
O  O4  1  0.75573000  0.33010000  0.70292000  1.0 -0.6091687011
O  O5  1  0.24427000  0.57437000  0.79708000  1.0 -0.6091687011
O  O6  1  0.33010000  0.75573000  0.79708000  1.0 -0.6091687011
O  O7  1  0.33010000  0.57437000  0.29708000  1.0 -0.6091687011
O  O8  1  0.42563000  0.75573000  0.29708000  1.0 -0.6091687011
O  O9  1  0.57437000  0.33010000  0.20292000  1.0 -0.6091687011
O  O10  1  0.24427000  0.66990000  0.29708000  1.0 -0.6091687011
O  O11  1  0.75573000  0.42563000  0.20292000  1.0 -0.6091687011
O  O12  1  0.66990000  0.24427000  0.20292000  1.0 -0.6091687011
O  O13  1  0.68402000  0.63569000  0.51971000  1.0 -0.5301943449
O  O14  1  0.36431000  0.04833000  0.51971000  1.0 -0.5301943449
O  O15  1  0.63569000  0.68402000  0.98029000  1.0 -0.5301943449
O  O16  1  0.95167000  0.31598000  0.51971000  1.0 -0.5301943449
O  O17  1  0.04833000  0.36431000  0.98029000  1.0 -0.5301943449
O  O18  1  0.31598000  0.95167000  0.98029000  1.0 -0.5301943449
O  O19  1  0.31598000  0.36431000  0.48029000  1.0 -0.5301943449
O  O20  1  0.63569000  0.95167000  0.48029000  1.0 -0.5301943449
O  O21  1  0.36431000  0.31598000  0.01971000  1.0 -0.5301943449
O  O22  1  0.04833000  0.68402000  0.48029000  1.0 -0.5301943449
O  O23  1  0.95167000  0.63569000  0.01971000  1.0 -0.5301943449
O  O24  1  0.68402000  0.04833000  0.01971000  1.0 -0.5301943449
O  O25  1  0.62190000  0.50951000  0.66730000  1.0 -0.6808561213
O  O26  1  0.49049000  0.11239000  0.66730000  1.0 -0.6808561213
O  O27  1  0.50951000  0.62190000  0.83270000  1.0 -0.6808561213
O  O28  1  0.88761000  0.37810000  0.66730000  1.0 -0.6808561213
O  O29  1  0.11239000  0.49049000  0.83270000  1.0 -0.6808561213
O  O30  1  0.37810000  0.88761000  0.83270000  1.0 -0.6808561213
O  O31  1  0.37810000  0.49049000  0.33270000  1.0 -0.6808561213
O  O32  1  0.50951000  0.88761000  0.33270000  1.0 -0.6808561213
O  O33  1  0.49049000  0.37810000  0.16730000  1.0 -0.6808561213
O  O34  1  0.11239000  0.62190000  0.33270000  1.0 -0.6808561213
O  O35  1  0.88761000  0.50951000  0.16730000  1.0 -0.6808561213
O  O36  1  0.62190000  0.11239000  0.16730000  1.0 -0.6808561213
O  O37  1  0.48177000  0.77333000  0.43828000  1.0 -0.6329124498
O  O38  1  0.22667000  0.70844000  0.43828000  1.0 -0.6329124498
O  O39  1  0.77333000  0.48177000  0.06172000  1.0 -0.6329124498
O  O40  1  0.29156000  0.51823000  0.43828000  1.0 -0.6329124498
O  O41  1  0.70844000  0.22667000  0.06172000  1.0 -0.6329124498
O  O42  1  0.51823000  0.29156000  0.06172000  1.0 -0.6329124498
O  O43  1  0.51823000  0.22667000  0.56172000  1.0 -0.6329124498
O  O44  1  0.77333000  0.29156000  0.56172000  1.0 -0.6329124498
O  O45  1  0.22667000  0.51823000  0.93828000  1.0 -0.6329124498
O  O46  1  0.70844000  0.48177000  0.56172000  1.0 -0.6329124498
O  O47  1  0.29156000  0.77333000  0.93828000  1.0 -0.6329124498
O  O48  1  0.48177000  0.70844000  0.93828000  1.0 -0.6329124498
O  O49  1  0.46269000  0.64995000  0.40903000  1.0 -0.6383144635
O  O50  1  0.35005000  0.81274000  0.40903000  1.0 -0.6383144635
O  O51  1  0.64995000  0.46269000  0.09097000  1.0 -0.6383144635
O  O52  1  0.18726000  0.53731000  0.40903000  1.0 -0.6383144635
O  O53  1  0.81274000  0.35005000  0.09097000  1.0 -0.6383144635
O  O54  1  0.53731000  0.18726000  0.09097000  1.0 -0.6383144635
O  O55  1  0.53731000  0.35005000  0.59097000  1.0 -0.6383144635
O  O56  1  0.64995000  0.18726000  0.59097000  1.0 -0.6383144635
O  O57  1  0.35005000  0.53731000  0.90903000  1.0 -0.6383144635
O  O58  1  0.81274000  0.46269000  0.59097000  1.0 -0.6383144635
O  O59  1  0.18726000  0.64995000  0.90903000  1.0 -0.6383144635
O  O60  1  0.46269000  0.81274000  0.90903000  1.0 -0.6383144635
O  O61  1  0.57309000  0.41989000  0.95037000  1.0 -0.6710219461
O  O62  1  0.58011000  0.15320000  0.95037000  1.0 -0.6710219461
O  O63  1  0.41989000  0.57309000  0.54963000  1.0 -0.6710219461
O  O64  1  0.84680000  0.42691000  0.95037000  1.0 -0.6710219461
O  O65  1  0.15320000  0.58011000  0.54963000  1.0 -0.6710219461
O  O66  1  0.42691000  0.84680000  0.54963000  1.0 -0.6710219461
O  O67  1  0.42691000  0.58011000  0.04963000  1.0 -0.6710219461
O  O68  1  0.41989000  0.84680000  0.04963000  1.0 -0.6710219461
O  O69  1  0.58011000  0.42691000  0.45037000  1.0 -0.6710219461
O  O70  1  0.15320000  0.57309000  0.04963000  1.0 -0.6710219461
O  O71  1  0.84680000  0.41989000  0.45037000  1.0 -0.6710219461
O  O72  1  0.57309000  0.15320000  0.45037000  1.0 -0.6710219461
O  O73  1  0.56461000  0.52266000  0.89495000  1.0 -0.6710219461
O  O74  1  0.47734000  0.04195000  0.89495000  1.0 -0.6710219461
O  O75  1  0.52266000  0.56461000  0.60505000  1.0 -0.6710219461
O  O76  1  0.95805000  0.43539000  0.89495000  1.0 -0.6710219461
O  O77  1  0.04195000  0.47734000  0.60505000  1.0 -0.6710219461
O  O78  1  0.43539000  0.95805000  0.60505000  1.0 -0.6710219461
O  O79  1  0.43539000  0.47734000  0.10505000  1.0 -0.6710219461
O  O80  1  0.52266000  0.95805000  0.10505000  1.0 -0.6710219461
O  O81  1  0.47734000  0.43539000  0.39495000  1.0 -0.6710219461
O  O82  1  0.04195000  0.56461000  0.10505000  1.0 -0.6710219461
O  O83  1  0.95805000  0.52266000  0.39495000  1.0 -0.6710219461
O  O84  1  0.56461000  0.04195000  0.39495000  1.0 -0.6710219461
O  O85  1  0.56148000  0.58321000  0.46842000  1.0 -0.6383144635
O  O86  1  0.41679000  0.97827000  0.46842000  1.0 -0.6383144635
O  O87  1  0.58321000  0.56148000  0.03158000  1.0 -0.6383144635
O  O88  1  0.02173000  0.43852000  0.46842000  1.0 -0.6383144635
O  O89  1  0.97827000  0.41679000  0.03158000  1.0 -0.6383144635
O  O90  1  0.43852000  0.02173000  0.03158000  1.0 -0.6383144635
O  O91  1  0.43852000  0.41679000  0.53158000  1.0 -0.6383144635
O  O92  1  0.58321000  0.02173000  0.53158000  1.0 -0.6383144635
O  O93  1  0.41679000  0.43852000  0.96842000  1.0 -0.6383144635
O  O94  1  0.97827000  0.56148000  0.53158000  1.0 -0.6383144635
O  O95  1  0.02173000  0.58321000  0.96842000  1.0 -0.6383144635
O  O96  1  0.56148000  0.97827000  0.96842000  1.0 -0.6383144635
