# DDEC6 charges by PACMAN v1.1 (https://github.com/mtap-research/PACMAN-charge/)
data_SAMYIR_ASR_pacman
_symmetry_space_group_name_H-M   'P 1'
_cell_length_a   18.17120000
_cell_length_b   18.17120000
_cell_length_c   19.75810000
_cell_angle_alpha   90.00000000
_cell_angle_beta   90.00000000
_cell_angle_gamma   120.00000000
_symmetry_Int_Tables_number   1
_chemical_formula_structural   Tb4H72(C19O8)3
_chemical_formula_sum   'Tb16 H288 C228 O96'
_cell_volume   5649.92948728
_cell_formula_units_Z   4
loop_
 _symmetry_equiv_pos_site_id
 _symmetry_equiv_pos_as_xyz
  1  'x, y, z'
loop_
 _atom_site_type_symbol
 _atom_site_label
 _atom_site_symmetry_multiplicity
 _atom_site_fract_x
 _atom_site_fract_y
 _atom_site_fract_z
 _atom_site_occupancy
 _atom_site_charge
Tb  Tb1  1  0.66666667  0.33333333  0.61768000  1.0 1.9798542926
Tb  Tb2  1  0.33333333  0.66666667  0.88232000  1.0 1.9798542926
Tb  Tb3  1  0.33333333  0.66666667  0.38232000  1.0 1.9798542926
Tb  Tb4  1  0.66666667  0.33333333  0.11768000  1.0 1.9798542926
Tb  Tb5  1  0.58274000  0.49181000  0.55565000  1.0 1.9798542926
Tb  Tb6  1  0.50819000  0.09093000  0.55565000  1.0 1.9798542926
Tb  Tb7  1  0.49181000  0.58274000  0.94435000  1.0 1.9798542926
Tb  Tb8  1  0.90907000  0.41726000  0.55565000  1.0 1.9798542926
Tb  Tb9  1  0.09093000  0.50819000  0.94435000  1.0 1.9798542926
Tb  Tb10  1  0.41726000  0.90907000  0.94435000  1.0 1.9798542926
Tb  Tb11  1  0.41726000  0.50819000  0.44435000  1.0 1.9798542926
Tb  Tb12  1  0.49181000  0.90907000  0.44435000  1.0 1.9798542926
Tb  Tb13  1  0.50819000  0.41726000  0.05565000  1.0 1.9798542926
Tb  Tb14  1  0.09093000  0.58274000  0.44435000  1.0 1.9798542926
Tb  Tb15  1  0.90907000  0.49181000  0.05565000  1.0 1.9798542926
Tb  Tb16  1  0.58274000  0.09093000  0.05565000  1.0 1.9798542926
H  H1  1  0.64520000  0.41500000  0.84090000  1.0 0.1307945442
H  H2  1  0.58500000  0.23020000  0.84090000  1.0 0.1307945442
H  H3  1  0.41500000  0.64520000  0.65910000  1.0 0.1307945442
H  H4  1  0.76980000  0.35480000  0.84090000  1.0 0.1307945442
H  H5  1  0.23020000  0.58500000  0.65910000  1.0 0.1307945442
H  H6  1  0.35480000  0.76980000  0.65910000  1.0 0.1307945442
H  H7  1  0.35480000  0.58500000  0.15910000  1.0 0.1307945442
H  H8  1  0.41500000  0.76980000  0.15910000  1.0 0.1307945442
H  H9  1  0.58500000  0.35480000  0.34090000  1.0 0.1307945442
H  H10  1  0.23020000  0.64520000  0.15910000  1.0 0.1307945442
H  H11  1  0.76980000  0.41500000  0.34090000  1.0 0.1307945442
H  H12  1  0.64520000  0.23020000  0.34090000  1.0 0.1307945442
H  H13  1  0.62460000  0.55000000  0.78290000  1.0 0.1369762042
H  H14  1  0.45000000  0.07460000  0.78290000  1.0 0.1369762042
H  H15  1  0.55000000  0.62460000  0.71710000  1.0 0.1369762042
H  H16  1  0.92540000  0.37540000  0.78290000  1.0 0.1369762042
H  H17  1  0.07460000  0.45000000  0.71710000  1.0 0.1369762042
H  H18  1  0.37540000  0.92540000  0.71710000  1.0 0.1369762042
H  H19  1  0.37540000  0.45000000  0.21710000  1.0 0.1369762042
H  H20  1  0.55000000  0.92540000  0.21710000  1.0 0.1369762042
H  H21  1  0.45000000  0.37540000  0.28290000  1.0 0.1369762042
H  H22  1  0.07460000  0.62460000  0.21710000  1.0 0.1369762042
H  H23  1  0.92540000  0.55000000  0.28290000  1.0 0.1369762042
H  H24  1  0.62460000  0.07460000  0.28290000  1.0 0.1369762042
H  H25  1  0.71810000  0.77610000  0.46920000  1.0 0.1213208121
H  H26  1  0.22390000  0.94200000  0.46920000  1.0 0.1213208121
H  H27  1  0.77610000  0.71810000  0.03080000  1.0 0.1213208121
H  H28  1  0.05800000  0.28190000  0.46920000  1.0 0.1213208121
H  H29  1  0.94200000  0.22390000  0.03080000  1.0 0.1213208121
H  H30  1  0.28190000  0.05800000  0.03080000  1.0 0.1213208121
H  H31  1  0.28190000  0.22390000  0.53080000  1.0 0.1213208121
H  H32  1  0.77610000  0.05800000  0.53080000  1.0 0.1213208121
H  H33  1  0.22390000  0.28190000  0.96920000  1.0 0.1213208121
H  H34  1  0.94200000  0.71810000  0.53080000  1.0 0.1213208121
H  H35  1  0.05800000  0.77610000  0.96920000  1.0 0.1213208121
H  H36  1  0.71810000  0.94200000  0.96920000  1.0 0.1213208121
H  H37  1  0.63640000  0.82900000  0.42700000  1.0 0.0893818457
H  H38  1  0.17100000  0.80740000  0.42700000  1.0 0.0893818457
H  H39  1  0.82900000  0.63640000  0.07300000  1.0 0.0893818457
H  H40  1  0.19260000  0.36360000  0.42700000  1.0 0.0893818457
H  H41  1  0.80740000  0.17100000  0.07300000  1.0 0.0893818457
H  H42  1  0.36360000  0.19260000  0.07300000  1.0 0.0893818457
H  H43  1  0.36360000  0.17100000  0.57300000  1.0 0.0893818457
H  H44  1  0.82900000  0.19260000  0.57300000  1.0 0.0893818457
H  H45  1  0.17100000  0.36360000  0.92700000  1.0 0.0893818457
H  H46  1  0.80740000  0.63640000  0.57300000  1.0 0.0893818457
H  H47  1  0.19260000  0.82900000  0.92700000  1.0 0.0893818457
H  H48  1  0.63640000  0.80740000  0.92700000  1.0 0.0893818457
H  H49  1  0.82720000  0.53030000  0.85270000  1.0 0.1307945442
H  H50  1  0.46970000  0.29690000  0.85270000  1.0 0.1307945442
H  H51  1  0.53030000  0.82720000  0.64730000  1.0 0.1307945442
H  H52  1  0.70310000  0.17280000  0.85270000  1.0 0.1307945442
H  H53  1  0.29690000  0.46970000  0.64730000  1.0 0.1307945442
H  H54  1  0.17280000  0.70310000  0.64730000  1.0 0.1307945442
H  H55  1  0.17280000  0.46970000  0.14730000  1.0 0.1307945442
H  H56  1  0.53030000  0.70310000  0.14730000  1.0 0.1307945442
H  H57  1  0.46970000  0.17280000  0.35270000  1.0 0.1307945442
H  H58  1  0.29690000  0.82720000  0.14730000  1.0 0.1307945442
H  H59  1  0.70310000  0.53030000  0.35270000  1.0 0.1307945442
H  H60  1  0.82720000  0.29690000  0.35270000  1.0 0.1307945442
H  H61  1  0.84260000  0.58100000  0.78500000  1.0 0.1213208121
H  H62  1  0.41900000  0.26160000  0.78500000  1.0 0.1213208121
H  H63  1  0.58100000  0.84260000  0.71500000  1.0 0.1213208121
H  H64  1  0.73840000  0.15740000  0.78500000  1.0 0.1213208121
H  H65  1  0.26160000  0.41900000  0.71500000  1.0 0.1213208121
H  H66  1  0.15740000  0.73840000  0.71500000  1.0 0.1213208121
H  H67  1  0.15740000  0.41900000  0.21500000  1.0 0.1213208121
H  H68  1  0.58100000  0.73840000  0.21500000  1.0 0.1213208121
H  H69  1  0.41900000  0.15740000  0.28500000  1.0 0.1213208121
H  H70  1  0.26160000  0.84260000  0.21500000  1.0 0.1213208121
H  H71  1  0.73840000  0.58100000  0.28500000  1.0 0.1213208121
H  H72  1  0.84260000  0.26160000  0.28500000  1.0 0.1213208121
H  H73  1  0.78090000  0.48240000  0.78620000  1.0 0.1307945442
H  H74  1  0.51760000  0.29850000  0.78620000  1.0 0.1307945442
H  H75  1  0.48240000  0.78090000  0.71380000  1.0 0.1307945442
H  H76  1  0.70150000  0.21910000  0.78620000  1.0 0.1307945442
H  H77  1  0.29850000  0.51760000  0.71380000  1.0 0.1307945442
H  H78  1  0.21910000  0.70150000  0.71380000  1.0 0.1307945442
H  H79  1  0.21910000  0.51760000  0.21380000  1.0 0.1307945442
H  H80  1  0.48240000  0.70150000  0.21380000  1.0 0.1307945442
H  H81  1  0.51760000  0.21910000  0.28620000  1.0 0.1307945442
H  H82  1  0.29850000  0.78090000  0.21380000  1.0 0.1307945442
H  H83  1  0.70150000  0.48240000  0.28620000  1.0 0.1307945442
H  H84  1  0.78090000  0.29850000  0.28620000  1.0 0.1307945442
H  H85  1  0.70700000  0.63600000  0.87340000  1.0 0.1307945442
H  H86  1  0.36400000  0.07100000  0.87340000  1.0 0.1307945442
H  H87  1  0.63600000  0.70700000  0.62660000  1.0 0.1307945442
H  H88  1  0.92900000  0.29300000  0.87340000  1.0 0.1307945442
H  H89  1  0.07100000  0.36400000  0.62660000  1.0 0.1307945442
H  H90  1  0.29300000  0.92900000  0.62660000  1.0 0.1307945442
H  H91  1  0.29300000  0.36400000  0.12660000  1.0 0.1307945442
H  H92  1  0.63600000  0.92900000  0.12660000  1.0 0.1307945442
H  H93  1  0.36400000  0.29300000  0.37340000  1.0 0.1307945442
H  H94  1  0.07100000  0.70700000  0.12660000  1.0 0.1307945442
H  H95  1  0.92900000  0.63600000  0.37340000  1.0 0.1307945442
H  H96  1  0.70700000  0.07100000  0.37340000  1.0 0.1307945442
H  H97  1  0.79410000  0.67720000  0.83490000  1.0 0.1307945442
H  H98  1  0.32280000  0.11690000  0.83490000  1.0 0.1307945442
H  H99  1  0.67720000  0.79410000  0.66510000  1.0 0.1307945442
H  H100  1  0.88310000  0.20590000  0.83490000  1.0 0.1307945442
H  H101  1  0.11690000  0.32280000  0.66510000  1.0 0.1307945442
H  H102  1  0.20590000  0.88310000  0.66510000  1.0 0.1307945442
H  H103  1  0.20590000  0.32280000  0.16510000  1.0 0.1307945442
H  H104  1  0.67720000  0.88310000  0.16510000  1.0 0.1307945442
H  H105  1  0.32280000  0.20590000  0.33490000  1.0 0.1307945442
H  H106  1  0.11690000  0.79410000  0.16510000  1.0 0.1307945442
H  H107  1  0.88310000  0.67720000  0.33490000  1.0 0.1307945442
H  H108  1  0.79410000  0.11690000  0.33490000  1.0 0.1307945442
H  H109  1  0.78440000  0.63270000  0.90490000  1.0 0.1307945442
H  H110  1  0.36730000  0.15170000  0.90490000  1.0 0.1307945442
H  H111  1  0.63270000  0.78440000  0.59510000  1.0 0.1307945442
H  H112  1  0.84830000  0.21560000  0.90490000  1.0 0.1307945442
H  H113  1  0.15170000  0.36730000  0.59510000  1.0 0.1307945442
H  H114  1  0.21560000  0.84830000  0.59510000  1.0 0.1307945442
H  H115  1  0.21560000  0.36730000  0.09510000  1.0 0.1307945442
H  H116  1  0.63270000  0.84830000  0.09510000  1.0 0.1307945442
H  H117  1  0.36730000  0.21560000  0.40490000  1.0 0.1307945442
H  H118  1  0.15170000  0.78440000  0.09510000  1.0 0.1307945442
H  H119  1  0.84830000  0.63270000  0.40490000  1.0 0.1307945442
H  H120  1  0.78440000  0.15170000  0.40490000  1.0 0.1307945442
H  H121  1  0.56910000  0.66240000  0.30070000  1.0 0.080661816
H  H122  1  0.33760000  0.90670000  0.30070000  1.0 0.080661816
H  H123  1  0.66240000  0.56910000  0.19930000  1.0 0.080661816
H  H124  1  0.09330000  0.43090000  0.30070000  1.0 0.080661816
H  H125  1  0.90670000  0.33760000  0.19930000  1.0 0.080661816
H  H126  1  0.43090000  0.09330000  0.19930000  1.0 0.080661816
H  H127  1  0.43090000  0.33760000  0.69930000  1.0 0.080661816
H  H128  1  0.66240000  0.09330000  0.69930000  1.0 0.080661816
H  H129  1  0.33760000  0.43090000  0.80070000  1.0 0.080661816
H  H130  1  0.90670000  0.56910000  0.69930000  1.0 0.080661816
H  H131  1  0.09330000  0.66240000  0.80070000  1.0 0.080661816
H  H132  1  0.56910000  0.90670000  0.80070000  1.0 0.080661816
H  H133  1  0.57250000  0.60870000  0.36150000  1.0 0.080661816
H  H134  1  0.39130000  0.96380000  0.36150000  1.0 0.080661816
H  H135  1  0.60870000  0.57250000  0.13850000  1.0 0.080661816
H  H136  1  0.03620000  0.42750000  0.36150000  1.0 0.080661816
H  H137  1  0.96380000  0.39130000  0.13850000  1.0 0.080661816
H  H138  1  0.42750000  0.03620000  0.13850000  1.0 0.080661816
H  H139  1  0.42750000  0.39130000  0.63850000  1.0 0.080661816
H  H140  1  0.60870000  0.03620000  0.63850000  1.0 0.080661816
H  H141  1  0.39130000  0.42750000  0.86150000  1.0 0.080661816
H  H142  1  0.96380000  0.57250000  0.63850000  1.0 0.080661816
H  H143  1  0.03620000  0.60870000  0.86150000  1.0 0.080661816
H  H144  1  0.57250000  0.96380000  0.86150000  1.0 0.080661816
H  H145  1  0.64600000  0.64670000  0.30800000  1.0 0.080661816
H  H146  1  0.35330000  0.99930000  0.30800000  1.0 0.080661816
H  H147  1  0.64670000  0.64600000  0.19200000  1.0 0.080661816
H  H148  1  0.00070000  0.35400000  0.30800000  1.0 0.080661816
H  H149  1  0.99930000  0.35330000  0.19200000  1.0 0.080661816
H  H150  1  0.35400000  0.00070000  0.19200000  1.0 0.080661816
H  H151  1  0.35400000  0.35330000  0.69200000  1.0 0.080661816
H  H152  1  0.64670000  0.00070000  0.69200000  1.0 0.080661816
H  H153  1  0.35330000  0.35400000  0.80800000  1.0 0.080661816
H  H154  1  0.99930000  0.64600000  0.69200000  1.0 0.080661816
H  H155  1  0.00070000  0.64670000  0.80800000  1.0 0.080661816
H  H156  1  0.64600000  0.99930000  0.80800000  1.0 0.080661816
H  H157  1  0.75720000  0.78510000  0.31280000  1.0 0.0713791848
H  H158  1  0.21490000  0.97210000  0.31280000  1.0 0.080661816
H  H159  1  0.78510000  0.75720000  0.18720000  1.0 0.080661816
H  H160  1  0.02790000  0.24280000  0.31280000  1.0 0.080661816
H  H161  1  0.97210000  0.21490000  0.18720000  1.0 0.080661816
H  H162  1  0.24280000  0.02790000  0.18720000  1.0 0.0713791848
H  H163  1  0.24280000  0.21490000  0.68720000  1.0 0.080661816
H  H164  1  0.78510000  0.02790000  0.68720000  1.0 0.0713791848
H  H165  1  0.21490000  0.24280000  0.81280000  1.0 0.080661816
H  H166  1  0.97210000  0.75720000  0.68720000  1.0 0.0713791848
H  H167  1  0.02790000  0.78510000  0.81280000  1.0 0.0713791848
H  H168  1  0.75720000  0.97210000  0.81280000  1.0 0.0713791848
H  H169  1  0.76820000  0.84590000  0.37310000  1.0 0.0514262822
H  H170  1  0.15410000  0.92230000  0.37310000  1.0 0.0514262822
H  H171  1  0.84590000  0.76820000  0.12690000  1.0 0.0514262822
H  H172  1  0.07770000  0.23180000  0.37310000  1.0 0.0514262822
H  H173  1  0.92230000  0.15410000  0.12690000  1.0 0.0514262822
H  H174  1  0.23180000  0.07770000  0.12690000  1.0 0.0514262822
H  H175  1  0.23180000  0.15410000  0.62690000  1.0 0.0514262822
H  H176  1  0.84590000  0.07770000  0.62690000  1.0 0.0514262822
H  H177  1  0.15410000  0.23180000  0.87310000  1.0 0.0514262822
H  H178  1  0.92230000  0.76820000  0.62690000  1.0 0.0514262822
H  H179  1  0.07770000  0.84590000  0.87310000  1.0 0.0514262822
H  H180  1  0.76820000  0.92230000  0.87310000  1.0 0.0514262822
H  H181  1  0.71130000  0.83870000  0.31090000  1.0 0.080661816
H  H182  1  0.16130000  0.87260000  0.31090000  1.0 0.080661816
H  H183  1  0.83870000  0.71130000  0.18910000  1.0 0.080661816
H  H184  1  0.12740000  0.28870000  0.31090000  1.0 0.080661816
H  H185  1  0.87260000  0.16130000  0.18910000  1.0 0.080661816
H  H186  1  0.28870000  0.12740000  0.18910000  1.0 0.080661816
H  H187  1  0.28870000  0.16130000  0.68910000  1.0 0.080661816
H  H188  1  0.83870000  0.12740000  0.68910000  1.0 0.080661816
H  H189  1  0.16130000  0.28870000  0.81090000  1.0 0.080661816
H  H190  1  0.87260000  0.71130000  0.68910000  1.0 0.080661816
H  H191  1  0.12740000  0.83870000  0.81090000  1.0 0.080661816
H  H192  1  0.71130000  0.87260000  0.81090000  1.0 0.080661816
H  H193  1  0.70840000  0.77300000  0.48890000  1.0 0.1096000237
H  H194  1  0.22700000  0.93540000  0.48890000  1.0 0.1096000237
H  H195  1  0.77300000  0.70840000  0.01110000  1.0 0.1096000237
H  H196  1  0.06460000  0.29160000  0.48890000  1.0 0.1096000237
H  H197  1  0.93540000  0.22700000  0.01110000  1.0 0.1096000237
H  H198  1  0.29160000  0.06460000  0.01110000  1.0 0.1096000237
H  H199  1  0.29160000  0.22700000  0.51110000  1.0 0.1096000237
H  H200  1  0.77300000  0.06460000  0.51110000  1.0 0.1096000237
H  H201  1  0.22700000  0.29160000  0.98890000  1.0 0.1096000237
H  H202  1  0.93540000  0.70840000  0.51110000  1.0 0.1096000237
H  H203  1  0.06460000  0.77300000  0.98890000  1.0 0.1096000237
H  H204  1  0.70840000  0.93540000  0.98890000  1.0 0.1096000237
H  H205  1  0.62700000  0.82500000  0.45210000  1.0 0.0994592831
H  H206  1  0.17500000  0.80200000  0.45210000  1.0 0.0994592831
H  H207  1  0.82500000  0.62700000  0.04790000  1.0 0.0994592831
H  H208  1  0.19800000  0.37300000  0.45210000  1.0 0.0994592831
H  H209  1  0.80200000  0.17500000  0.04790000  1.0 0.0994592831
H  H210  1  0.37300000  0.19800000  0.04790000  1.0 0.0994592831
H  H211  1  0.37300000  0.17500000  0.54790000  1.0 0.0994592831
H  H212  1  0.82500000  0.19800000  0.54790000  1.0 0.0994592831
H  H213  1  0.17500000  0.37300000  0.95210000  1.0 0.0994592831
H  H214  1  0.80200000  0.62700000  0.54790000  1.0 0.0994592831
H  H215  1  0.19800000  0.82500000  0.95210000  1.0 0.0994592831
H  H216  1  0.62700000  0.80200000  0.95210000  1.0 0.0994592831
H  H217  1  0.65410000  0.65220000  0.34680000  1.0 0.080661816
H  H218  1  0.34780000  0.00190000  0.34680000  1.0 0.080661816
H  H219  1  0.65220000  0.65410000  0.15320000  1.0 0.080661816
H  H220  1  0.99810000  0.34590000  0.34680000  1.0 0.080661816
H  H221  1  0.00190000  0.34780000  0.15320000  1.0 0.080661816
H  H222  1  0.34590000  0.99810000  0.15320000  1.0 0.080661816
H  H223  1  0.34590000  0.34780000  0.65320000  1.0 0.080661816
H  H224  1  0.65220000  0.99810000  0.65320000  1.0 0.080661816
H  H225  1  0.34780000  0.34590000  0.84680000  1.0 0.080661816
H  H226  1  0.00190000  0.65410000  0.65320000  1.0 0.080661816
H  H227  1  0.99810000  0.65220000  0.84680000  1.0 0.080661816
H  H228  1  0.65410000  0.00190000  0.84680000  1.0 0.080661816
H  H229  1  0.65670000  0.71650000  0.29270000  1.0 0.0713791848
H  H230  1  0.28350000  0.94020000  0.29270000  1.0 0.0713791848
H  H231  1  0.71650000  0.65670000  0.20730000  1.0 0.0713791848
H  H232  1  0.05980000  0.34330000  0.29270000  1.0 0.0713791848
H  H233  1  0.94020000  0.28350000  0.20730000  1.0 0.0713791848
H  H234  1  0.34330000  0.05980000  0.20730000  1.0 0.0713791848
H  H235  1  0.34330000  0.28350000  0.70730000  1.0 0.0713791848
H  H236  1  0.71650000  0.05980000  0.70730000  1.0 0.0713791848
H  H237  1  0.28350000  0.34330000  0.79270000  1.0 0.0713791848
H  H238  1  0.94020000  0.65670000  0.70730000  1.0 0.0713791848
H  H239  1  0.05980000  0.71650000  0.79270000  1.0 0.0713791848
H  H240  1  0.65670000  0.94020000  0.79270000  1.0 0.0713791848
H  H241  1  0.57410000  0.66190000  0.33520000  1.0 0.0713791848
H  H242  1  0.33810000  0.91220000  0.33520000  1.0 0.0713791848
H  H243  1  0.66190000  0.57410000  0.16480000  1.0 0.0713791848
H  H244  1  0.08780000  0.42590000  0.33520000  1.0 0.0713791848
H  H245  1  0.91220000  0.33810000  0.16480000  1.0 0.0713791848
H  H246  1  0.42590000  0.08780000  0.16480000  1.0 0.0713791848
H  H247  1  0.42590000  0.33810000  0.66480000  1.0 0.0713791848
H  H248  1  0.66190000  0.08780000  0.66480000  1.0 0.0713791848
H  H249  1  0.33810000  0.42590000  0.83520000  1.0 0.0713791848
H  H250  1  0.91220000  0.57410000  0.66480000  1.0 0.0713791848
H  H251  1  0.08780000  0.66190000  0.83520000  1.0 0.0713791848
H  H252  1  0.57410000  0.91220000  0.83520000  1.0 0.0713791848
H  H253  1  0.75990000  0.88350000  0.40370000  1.0 0.0893818457
H  H254  1  0.11650000  0.87640000  0.40370000  1.0 0.0893818457
H  H255  1  0.88350000  0.75990000  0.09630000  1.0 0.0893818457
H  H256  1  0.12360000  0.24010000  0.40370000  1.0 0.0893818457
H  H257  1  0.87640000  0.11650000  0.09630000  1.0 0.0893818457
H  H258  1  0.24010000  0.12360000  0.09630000  1.0 0.0893818457
H  H259  1  0.24010000  0.11650000  0.59630000  1.0 0.0893818457
H  H260  1  0.88350000  0.12360000  0.59630000  1.0 0.0893818457
H  H261  1  0.11650000  0.24010000  0.90370000  1.0 0.0893818457
H  H262  1  0.87640000  0.75990000  0.59630000  1.0 0.0893818457
H  H263  1  0.12360000  0.88350000  0.90370000  1.0 0.0893818457
H  H264  1  0.75990000  0.87640000  0.90370000  1.0 0.0893818457
H  H265  1  0.72970000  0.86400000  0.32820000  1.0 0.080661816
H  H266  1  0.13600000  0.86570000  0.32820000  1.0 0.080661816
H  H267  1  0.86400000  0.72970000  0.17180000  1.0 0.080661816
H  H268  1  0.13430000  0.27030000  0.32820000  1.0 0.080661816
H  H269  1  0.86570000  0.13600000  0.17180000  1.0 0.080661816
H  H270  1  0.27030000  0.13430000  0.17180000  1.0 0.080661816
H  H271  1  0.27030000  0.13600000  0.67180000  1.0 0.080661816
H  H272  1  0.86400000  0.13430000  0.67180000  1.0 0.080661816
H  H273  1  0.13600000  0.27030000  0.82820000  1.0 0.080661816
H  H274  1  0.86570000  0.72970000  0.67180000  1.0 0.080661816
H  H275  1  0.13430000  0.86400000  0.82820000  1.0 0.080661816
H  H276  1  0.72970000  0.86570000  0.82820000  1.0 0.080661816
H  H277  1  0.78960000  0.83300000  0.35770000  1.0 0.0713791848
H  H278  1  0.16700000  0.95660000  0.35770000  1.0 0.0713791848
H  H279  1  0.83300000  0.78960000  0.14230000  1.0 0.0713791848
H  H280  1  0.04340000  0.21040000  0.35770000  1.0 0.0713791848
H  H281  1  0.95660000  0.16700000  0.14230000  1.0 0.0713791848
H  H282  1  0.21040000  0.04340000  0.14230000  1.0 0.0713791848
H  H283  1  0.21040000  0.16700000  0.64230000  1.0 0.0713791848
H  H284  1  0.83300000  0.04340000  0.64230000  1.0 0.0713791848
H  H285  1  0.16700000  0.21040000  0.85770000  1.0 0.0713791848
H  H286  1  0.95660000  0.78960000  0.64230000  1.0 0.0713791848
H  H287  1  0.04340000  0.83300000  0.85770000  1.0 0.0713791848
H  H288  1  0.78960000  0.95660000  0.85770000  1.0 0.0713791848
C  C1  1  0.64580000  0.46890000  0.84601000  1.0 -0.2083510328
C  C2  1  0.53110000  0.17690000  0.84601000  1.0 -0.2083510328
C  C3  1  0.46890000  0.64580000  0.65399000  1.0 -0.2083510328
C  C4  1  0.82310000  0.35420000  0.84601000  1.0 -0.2083510328
C  C5  1  0.17690000  0.53110000  0.65399000  1.0 -0.2083510328
C  C6  1  0.35420000  0.82310000  0.65399000  1.0 -0.2083510328
C  C7  1  0.35420000  0.53110000  0.15399000  1.0 -0.2083510328
C  C8  1  0.46890000  0.82310000  0.15399000  1.0 -0.2083510328
C  C9  1  0.53110000  0.35420000  0.34601000  1.0 -0.2083510328
C  C10  1  0.17690000  0.64580000  0.15399000  1.0 -0.2083510328
C  C11  1  0.82310000  0.46890000  0.34601000  1.0 -0.2083510328
C  C12  1  0.64580000  0.17690000  0.34601000  1.0 -0.2083510328
C  C13  1  0.65280000  0.51600000  0.78056000  1.0 -0.2001969299
C  C14  1  0.48400000  0.13680000  0.78056000  1.0 -0.2001969299
C  C15  1  0.51600000  0.65280000  0.71944000  1.0 -0.2001969299
C  C16  1  0.86320000  0.34720000  0.78056000  1.0 -0.2001969299
C  C17  1  0.13680000  0.48400000  0.71944000  1.0 -0.2001969299
C  C18  1  0.34720000  0.86320000  0.71944000  1.0 -0.2001969299
C  C19  1  0.34720000  0.48400000  0.21944000  1.0 -0.2001969299
C  C20  1  0.51600000  0.86320000  0.21944000  1.0 -0.2001969299
C  C21  1  0.48400000  0.34720000  0.28056000  1.0 -0.2001969299
C  C22  1  0.13680000  0.65280000  0.21944000  1.0 -0.2001969299
C  C23  1  0.86320000  0.51600000  0.28056000  1.0 -0.2001969299
C  C24  1  0.65280000  0.13680000  0.28056000  1.0 -0.2001969299
C  C25  1  0.72860000  0.54790000  0.82787000  1.0 0.2689510354
C  C26  1  0.45210000  0.18070000  0.82787000  1.0 0.2689510354
C  C27  1  0.54790000  0.72860000  0.67213000  1.0 0.2689510354
C  C28  1  0.81930000  0.27140000  0.82787000  1.0 0.2689510354
C  C29  1  0.18070000  0.45210000  0.67213000  1.0 0.2689510354
C  C30  1  0.27140000  0.81930000  0.67213000  1.0 0.2689510354
C  C31  1  0.27140000  0.45210000  0.17213000  1.0 0.2689510354
C  C32  1  0.54790000  0.81930000  0.17213000  1.0 0.2689510354
C  C33  1  0.45210000  0.27140000  0.32787000  1.0 0.2689510354
C  C34  1  0.18070000  0.72860000  0.17213000  1.0 0.2689510354
C  C35  1  0.81930000  0.54790000  0.32787000  1.0 0.2689510354
C  C36  1  0.72860000  0.18070000  0.32787000  1.0 0.2689510354
C  C37  1  0.64850000  0.47980000  0.71213000  1.0 0.6382549474
C  C38  1  0.52020000  0.16870000  0.71213000  1.0 0.6382549474
C  C39  1  0.47980000  0.64850000  0.78787000  1.0 0.6382549474
C  C40  1  0.83130000  0.35150000  0.71213000  1.0 0.6382549474
C  C41  1  0.16870000  0.52020000  0.78787000  1.0 0.6382549474
C  C42  1  0.35150000  0.83130000  0.78787000  1.0 0.6382549474
C  C43  1  0.35150000  0.52020000  0.28787000  1.0 0.6382549474
C  C44  1  0.47980000  0.83130000  0.28787000  1.0 0.6382549474
C  C45  1  0.52020000  0.35150000  0.21213000  1.0 0.6382549474
C  C46  1  0.16870000  0.64850000  0.28787000  1.0 0.6382549474
C  C47  1  0.83130000  0.47980000  0.21213000  1.0 0.6382549474
C  C48  1  0.64850000  0.16870000  0.21213000  1.0 0.6382549474
C  C49  1  0.63360000  0.64540000  0.48285000  1.0 0.468658176
C  C50  1  0.35460000  0.98820000  0.48285000  1.0 0.468658176
C  C51  1  0.64540000  0.63360000  0.01715000  1.0 0.468658176
C  C52  1  0.01180000  0.36640000  0.48285000  1.0 0.468658176
C  C53  1  0.98820000  0.35460000  0.01715000  1.0 0.468658176
C  C54  1  0.36640000  0.01180000  0.01715000  1.0 0.468658176
C  C55  1  0.36640000  0.35460000  0.51715000  1.0 0.468658176
C  C56  1  0.64540000  0.01180000  0.51715000  1.0 0.468658176
C  C57  1  0.35460000  0.36640000  0.98285000  1.0 0.468658176
C  C58  1  0.98820000  0.63360000  0.51715000  1.0 0.468658176
C  C59  1  0.01180000  0.64540000  0.98285000  1.0 0.468658176
C  C60  1  0.63360000  0.98820000  0.98285000  1.0 0.468658176
C  C61  1  0.59010000  0.47110000  0.90066000  1.0 0.6650574276
C  C62  1  0.52890000  0.11900000  0.90066000  1.0 0.6647081444
C  C63  1  0.47110000  0.59010000  0.59934000  1.0 0.6647081444
C  C64  1  0.88100000  0.40990000  0.90066000  1.0 0.6650574276
C  C65  1  0.11900000  0.52890000  0.59934000  1.0 0.6647081444
C  C66  1  0.40990000  0.88100000  0.59934000  1.0 0.6647081444
C  C67  1  0.40990000  0.52890000  0.09934000  1.0 0.6650574276
C  C68  1  0.47110000  0.88100000  0.09934000  1.0 0.6647081444
C  C69  1  0.52890000  0.40990000  0.40066000  1.0 0.6647081444
C  C70  1  0.11900000  0.59010000  0.09934000  1.0 0.6647081444
C  C71  1  0.88100000  0.47110000  0.40066000  1.0 0.6650574276
C  C72  1  0.59010000  0.11900000  0.40066000  1.0 0.6647081444
C  C73  1  0.66290000  0.73190000  0.45210000  1.0 -0.1288031136
C  C74  1  0.26810000  0.93100000  0.45210000  1.0 -0.1288031136
C  C75  1  0.73190000  0.66290000  0.04790000  1.0 -0.1288031136
C  C76  1  0.06900000  0.33710000  0.45210000  1.0 -0.1288031136
C  C77  1  0.93100000  0.26810000  0.04790000  1.0 -0.1288031136
C  C78  1  0.33710000  0.06900000  0.04790000  1.0 -0.1288031136
C  C79  1  0.33710000  0.26810000  0.54790000  1.0 -0.1288031136
C  C80  1  0.73190000  0.06900000  0.54790000  1.0 -0.1288031136
C  C81  1  0.26810000  0.33710000  0.95210000  1.0 -0.1288031136
C  C82  1  0.93100000  0.66290000  0.54790000  1.0 -0.1288031136
C  C83  1  0.06900000  0.73190000  0.95210000  1.0 -0.1288031136
C  C84  1  0.66290000  0.93100000  0.95210000  1.0 -0.1288031136
C  C85  1  0.60790000  0.76690000  0.42420000  1.0 -0.1213870949
C  C86  1  0.23310000  0.84100000  0.42420000  1.0 -0.1213870949
C  C87  1  0.76690000  0.60790000  0.07580000  1.0 -0.1213870949
C  C88  1  0.15900000  0.39210000  0.42420000  1.0 -0.1213870949
C  C89  1  0.84100000  0.23310000  0.07580000  1.0 -0.1213870949
C  C90  1  0.39210000  0.15900000  0.07580000  1.0 -0.1213870949
C  C91  1  0.39210000  0.23310000  0.57580000  1.0 -0.1213870949
C  C92  1  0.76690000  0.15900000  0.57580000  1.0 -0.1213870949
C  C93  1  0.23310000  0.39210000  0.92420000  1.0 -0.1213870949
C  C94  1  0.84100000  0.60790000  0.57580000  1.0 -0.1213870949
C  C95  1  0.15900000  0.76690000  0.92420000  1.0 -0.1213870949
C  C96  1  0.60790000  0.84100000  0.92420000  1.0 -0.1213870949
C  C97  1  0.80130000  0.53410000  0.81150000  1.0 -0.5307375372
C  C98  1  0.46590000  0.26720000  0.81150000  1.0 -0.5307375372
C  C99  1  0.53410000  0.80130000  0.68850000  1.0 -0.5307375372
C  C100  1  0.73280000  0.19870000  0.81150000  1.0 -0.5307375372
C  C101  1  0.26720000  0.46590000  0.68850000  1.0 -0.5307375372
C  C102  1  0.19870000  0.73280000  0.68850000  1.0 -0.5307375372
C  C103  1  0.19870000  0.46590000  0.18850000  1.0 -0.5307375372
C  C104  1  0.53410000  0.73280000  0.18850000  1.0 -0.5307375372
C  C105  1  0.46590000  0.19870000  0.31150000  1.0 -0.5307375372
C  C106  1  0.26720000  0.80130000  0.18850000  1.0 -0.5307375372
C  C107  1  0.73280000  0.53410000  0.31150000  1.0 -0.5307375372
C  C108  1  0.80130000  0.26720000  0.31150000  1.0 -0.5307375372
C  C109  1  0.65280000  0.73640000  0.37440000  1.0 0.1213208121
C  C110  1  0.26360000  0.91640000  0.37440000  1.0 0.1213208121
C  C111  1  0.73640000  0.65280000  0.12560000  1.0 0.1213208121
C  C112  1  0.08360000  0.34720000  0.37440000  1.0 0.1213208121
C  C113  1  0.91640000  0.26360000  0.12560000  1.0 0.1213208121
C  C114  1  0.34720000  0.08360000  0.12560000  1.0 0.1213208121
C  C115  1  0.34720000  0.26360000  0.62560000  1.0 0.1213208121
C  C116  1  0.73640000  0.08360000  0.62560000  1.0 0.1213208121
C  C117  1  0.26360000  0.34720000  0.87440000  1.0 0.1213208121
C  C118  1  0.91640000  0.65280000  0.62560000  1.0 0.1213208121
C  C119  1  0.08360000  0.73640000  0.87440000  1.0 0.1213208121
C  C120  1  0.65280000  0.91640000  0.87440000  1.0 0.1213208121
C  C121  1  0.75600000  0.63100000  0.86350000  1.0 -0.5129696807
C  C122  1  0.36900000  0.12500000  0.86350000  1.0 -0.5129696807
C  C123  1  0.63100000  0.75600000  0.63650000  1.0 -0.5129696807
C  C124  1  0.87500000  0.24400000  0.86350000  1.0 -0.5129696807
C  C125  1  0.12500000  0.36900000  0.63650000  1.0 -0.5129696807
C  C126  1  0.24400000  0.87500000  0.63650000  1.0 -0.5129696807
C  C127  1  0.24400000  0.36900000  0.13650000  1.0 -0.5129696807
C  C128  1  0.63100000  0.87500000  0.13650000  1.0 -0.5129696807
C  C129  1  0.36900000  0.24400000  0.36350000  1.0 -0.5129696807
C  C130  1  0.12500000  0.75600000  0.13650000  1.0 -0.5129696807
C  C131  1  0.87500000  0.63100000  0.36350000  1.0 -0.5129696807
C  C132  1  0.75600000  0.12500000  0.36350000  1.0 -0.5129696807
C  C133  1  0.60580000  0.65620000  0.33230000  1.0 -0.2171128721
C  C134  1  0.34380000  0.94960000  0.33230000  1.0 -0.2171128721
C  C135  1  0.65620000  0.60580000  0.16770000  1.0 -0.2171128721
C  C136  1  0.05040000  0.39420000  0.33230000  1.0 -0.2171128721
C  C137  1  0.94960000  0.34380000  0.16770000  1.0 -0.2171128721
C  C138  1  0.39420000  0.05040000  0.16770000  1.0 -0.2171128721
C  C139  1  0.39420000  0.34380000  0.66770000  1.0 -0.2171128721
C  C140  1  0.65620000  0.05040000  0.66770000  1.0 -0.2171128721
C  C141  1  0.34380000  0.39420000  0.83230000  1.0 -0.2171128721
C  C142  1  0.94960000  0.60580000  0.66770000  1.0 -0.2171128721
C  C143  1  0.05040000  0.65620000  0.83230000  1.0 -0.2171128721
C  C144  1  0.60580000  0.94960000  0.83230000  1.0 -0.2171128721
C  C145  1  0.72940000  0.80810000  0.33960000  1.0 -0.2083510328
C  C146  1  0.19190000  0.92130000  0.33960000  1.0 -0.2083510328
C  C147  1  0.80810000  0.72940000  0.16040000  1.0 -0.2083510328
C  C148  1  0.07870000  0.27060000  0.33960000  1.0 -0.2083510328
C  C149  1  0.92130000  0.19190000  0.16040000  1.0 -0.2083510328
C  C150  1  0.27060000  0.07870000  0.16040000  1.0 -0.2083510328
C  C151  1  0.27060000  0.19190000  0.66040000  1.0 -0.2083510328
C  C152  1  0.80810000  0.07870000  0.66040000  1.0 -0.2083510328
C  C153  1  0.19190000  0.27060000  0.83960000  1.0 -0.2083510328
C  C154  1  0.92130000  0.72940000  0.66040000  1.0 -0.2083510328
C  C155  1  0.07870000  0.80810000  0.83960000  1.0 -0.2083510328
C  C156  1  0.72940000  0.92130000  0.83960000  1.0 -0.2083510328
C  C157  1  0.51230000  0.72600000  0.42735000  1.0 0.5210451255
C  C158  1  0.27400000  0.78630000  0.42735000  1.0 0.5210451255
C  C159  1  0.72600000  0.51230000  0.07265000  1.0 0.5210451255
C  C160  1  0.21370000  0.48770000  0.42735000  1.0 0.5210451255
C  C161  1  0.78630000  0.27400000  0.07265000  1.0 0.5210451255
C  C162  1  0.48770000  0.21370000  0.07265000  1.0 0.5210451255
C  C163  1  0.48770000  0.27400000  0.57265000  1.0 0.5210451255
C  C164  1  0.72600000  0.21370000  0.57265000  1.0 0.5210451255
C  C165  1  0.27400000  0.48770000  0.92735000  1.0 0.5210451255
C  C166  1  0.78630000  0.51230000  0.57265000  1.0 0.5210451255
C  C167  1  0.21370000  0.72600000  0.92735000  1.0 0.5210451255
C  C168  1  0.51230000  0.78630000  0.92735000  1.0 0.5210451255
C  C169  1  0.66080000  0.73130000  0.46150000  1.0 -0.1288031136
C  C170  1  0.26870000  0.92950000  0.46150000  1.0 -0.1288031136
C  C171  1  0.73130000  0.66080000  0.03850000  1.0 -0.1288031136
C  C172  1  0.07050000  0.33920000  0.46150000  1.0 -0.1288031136
C  C173  1  0.92950000  0.26870000  0.03850000  1.0 -0.1288031136
C  C174  1  0.33920000  0.07050000  0.03850000  1.0 -0.1288031136
C  C175  1  0.33920000  0.26870000  0.53850000  1.0 -0.1288031136
C  C176  1  0.73130000  0.07050000  0.53850000  1.0 -0.1288031136
C  C177  1  0.26870000  0.33920000  0.96150000  1.0 -0.1288031136
C  C178  1  0.92950000  0.66080000  0.53850000  1.0 -0.1288031136
C  C179  1  0.07050000  0.73130000  0.96150000  1.0 -0.1288031136
C  C180  1  0.66080000  0.92950000  0.96150000  1.0 -0.1288031136
C  C181  1  0.60410000  0.76630000  0.43670000  1.0 -0.1288031136
C  C182  1  0.23370000  0.83780000  0.43670000  1.0 -0.1288031136
C  C183  1  0.76630000  0.60410000  0.06330000  1.0 -0.1288031136
C  C184  1  0.16220000  0.39590000  0.43670000  1.0 -0.1288031136
C  C185  1  0.83780000  0.23370000  0.06330000  1.0 -0.1288031136
C  C186  1  0.39590000  0.16220000  0.06330000  1.0 -0.1288031136
C  C187  1  0.39590000  0.23370000  0.56330000  1.0 -0.1288031136
C  C188  1  0.76630000  0.16220000  0.56330000  1.0 -0.1288031136
C  C189  1  0.23370000  0.39590000  0.93670000  1.0 -0.1288031136
C  C190  1  0.83780000  0.60410000  0.56330000  1.0 -0.1288031136
C  C191  1  0.16220000  0.76630000  0.93670000  1.0 -0.1288031136
C  C192  1  0.60410000  0.83780000  0.93670000  1.0 -0.1288031136
C  C193  1  0.66690000  0.76040000  0.38940000  1.0 0.0994592831
C  C194  1  0.23960000  0.90650000  0.38940000  1.0 0.0994592831
C  C195  1  0.76040000  0.66690000  0.11060000  1.0 0.0994592831
C  C196  1  0.09350000  0.33310000  0.38940000  1.0 0.0994592831
C  C197  1  0.90650000  0.23960000  0.11060000  1.0 0.0994592831
C  C198  1  0.33310000  0.09350000  0.11060000  1.0 0.0994592831
C  C199  1  0.33310000  0.23960000  0.61060000  1.0 0.0994592831
C  C200  1  0.76040000  0.09350000  0.61060000  1.0 0.0994592831
C  C201  1  0.23960000  0.33310000  0.88940000  1.0 0.0994592831
C  C202  1  0.90650000  0.66690000  0.61060000  1.0 0.0994592831
C  C203  1  0.09350000  0.76040000  0.88940000  1.0 0.0994592831
C  C204  1  0.66690000  0.90650000  0.88940000  1.0 0.0994592831
C  C205  1  0.63510000  0.69150000  0.33620000  1.0 -0.1288031136
C  C206  1  0.30850000  0.94360000  0.33620000  1.0 -0.1288031136
C  C207  1  0.69150000  0.63510000  0.16380000  1.0 -0.1288031136
C  C208  1  0.05640000  0.36490000  0.33620000  1.0 -0.1288031136
C  C209  1  0.94360000  0.30850000  0.16380000  1.0 -0.1288031136
C  C210  1  0.36490000  0.05640000  0.16380000  1.0 -0.1288031136
C  C211  1  0.36490000  0.30850000  0.66380000  1.0 -0.1288031136
C  C212  1  0.69150000  0.05640000  0.66380000  1.0 -0.1288031136
C  C213  1  0.30850000  0.36490000  0.83620000  1.0 -0.1288031136
C  C214  1  0.94360000  0.63510000  0.66380000  1.0 -0.1288031136
C  C215  1  0.05640000  0.69150000  0.83620000  1.0 -0.1288031136
C  C216  1  0.63510000  0.94360000  0.83620000  1.0 -0.1288031136
C  C217  1  0.74350000  0.84270000  0.36780000  1.0 -0.1758388253
C  C218  1  0.15730000  0.90080000  0.36780000  1.0 -0.1758388253
C  C219  1  0.84270000  0.74350000  0.13220000  1.0 -0.1758388253
C  C220  1  0.09920000  0.25650000  0.36780000  1.0 -0.1758388253
C  C221  1  0.90080000  0.15730000  0.13220000  1.0 -0.1749404302
C  C222  1  0.25650000  0.09920000  0.13220000  1.0 -0.1758388253
C  C223  1  0.25650000  0.15730000  0.63220000  1.0 -0.1758388253
C  C224  1  0.84270000  0.09920000  0.63220000  1.0 -0.1758388253
C  C225  1  0.15730000  0.25650000  0.86780000  1.0 -0.1758388253
C  C226  1  0.90080000  0.74350000  0.63220000  1.0 -0.1758388253
C  C227  1  0.09920000  0.84270000  0.86780000  1.0 -0.1758388253
C  C228  1  0.74350000  0.90080000  0.86780000  1.0 -0.1758388253
O  O1  1  0.67016000  0.42537000  0.70240000  1.0 -0.6146343282
O  O2  1  0.57463000  0.24479000  0.70240000  1.0 -0.6146343282
O  O3  1  0.42537000  0.67016000  0.79760000  1.0 -0.6146343282
O  O4  1  0.75521000  0.32984000  0.70240000  1.0 -0.6146343282
O  O5  1  0.24479000  0.57463000  0.79760000  1.0 -0.6150834492
O  O6  1  0.32984000  0.75521000  0.79760000  1.0 -0.6146343282
O  O7  1  0.32984000  0.57463000  0.29760000  1.0 -0.6146343282
O  O8  1  0.42537000  0.75521000  0.29760000  1.0 -0.6146343282
O  O9  1  0.57463000  0.32984000  0.20240000  1.0 -0.6146343282
O  O10  1  0.24479000  0.67016000  0.29760000  1.0 -0.6146343282
O  O11  1  0.75521000  0.42537000  0.20240000  1.0 -0.6146343282
O  O12  1  0.67016000  0.24479000  0.20240000  1.0 -0.6146343282
O  O13  1  0.68356000  0.63493000  0.51999000  1.0 -0.5307375372
O  O14  1  0.36507000  0.04863000  0.51999000  1.0 -0.5307375372
O  O15  1  0.63493000  0.68356000  0.98001000  1.0 -0.5307375372
O  O16  1  0.95137000  0.31644000  0.51999000  1.0 -0.5307375372
O  O17  1  0.04863000  0.36507000  0.98001000  1.0 -0.5307375372
O  O18  1  0.31644000  0.95137000  0.98001000  1.0 -0.5307375372
O  O19  1  0.31644000  0.36507000  0.48001000  1.0 -0.5307375372
O  O20  1  0.63493000  0.95137000  0.48001000  1.0 -0.5307375372
O  O21  1  0.36507000  0.31644000  0.01999000  1.0 -0.5307375372
O  O22  1  0.04863000  0.68356000  0.48001000  1.0 -0.5307375372
O  O23  1  0.95137000  0.63493000  0.01999000  1.0 -0.5307375372
O  O24  1  0.68356000  0.04863000  0.01999000  1.0 -0.5307375372
O  O25  1  0.62191000  0.50929000  0.66659000  1.0 -0.685508888
O  O26  1  0.49071000  0.11262000  0.66659000  1.0 -0.685508888
O  O27  1  0.50929000  0.62191000  0.83341000  1.0 -0.685508888
O  O28  1  0.88738000  0.37809000  0.66659000  1.0 -0.6849005154
O  O29  1  0.11262000  0.49071000  0.83341000  1.0 -0.685508888
O  O30  1  0.37809000  0.88738000  0.83341000  1.0 -0.685508888
O  O31  1  0.37809000  0.49071000  0.33341000  1.0 -0.685508888
O  O32  1  0.50929000  0.88738000  0.33341000  1.0 -0.685508888
O  O33  1  0.49071000  0.37809000  0.16659000  1.0 -0.685508888
O  O34  1  0.11262000  0.62191000  0.33341000  1.0 -0.685508888
O  O35  1  0.88738000  0.50929000  0.16659000  1.0 -0.6849005154
O  O36  1  0.62191000  0.11262000  0.16659000  1.0 -0.685508888
O  O37  1  0.48166000  0.77365000  0.43867000  1.0 -0.6401899644
O  O38  1  0.22635000  0.70801000  0.43867000  1.0 -0.6401899644
O  O39  1  0.77365000  0.48166000  0.06133000  1.0 -0.6401899644
O  O40  1  0.29199000  0.51834000  0.43867000  1.0 -0.6401899644
O  O41  1  0.70801000  0.22635000  0.06133000  1.0 -0.6401899644
O  O42  1  0.51834000  0.29199000  0.06133000  1.0 -0.6401899644
O  O43  1  0.51834000  0.22635000  0.56133000  1.0 -0.6401899644
O  O44  1  0.77365000  0.29199000  0.56133000  1.0 -0.6401899644
O  O45  1  0.22635000  0.51834000  0.93867000  1.0 -0.6401899644
O  O46  1  0.70801000  0.48166000  0.56133000  1.0 -0.6401899644
O  O47  1  0.29199000  0.77365000  0.93867000  1.0 -0.6401899644
O  O48  1  0.48166000  0.70801000  0.93867000  1.0 -0.6401899644
O  O49  1  0.46221000  0.64998000  0.40949000  1.0 -0.6467997661
O  O50  1  0.35002000  0.81223000  0.40949000  1.0 -0.6467997661
O  O51  1  0.64998000  0.46221000  0.09051000  1.0 -0.6467997661
O  O52  1  0.18777000  0.53779000  0.40949000  1.0 -0.6467997661
O  O53  1  0.81223000  0.35002000  0.09051000  1.0 -0.6467997661
O  O54  1  0.53779000  0.18777000  0.09051000  1.0 -0.6401899644
O  O55  1  0.53779000  0.35002000  0.59051000  1.0 -0.6467997661
O  O56  1  0.64998000  0.18777000  0.59051000  1.0 -0.6401899644
O  O57  1  0.35002000  0.53779000  0.90949000  1.0 -0.6467997661
O  O58  1  0.81223000  0.46221000  0.59051000  1.0 -0.6467997661
O  O59  1  0.18777000  0.64998000  0.90949000  1.0 -0.6467997661
O  O60  1  0.46221000  0.81223000  0.90949000  1.0 -0.6467997661
O  O61  1  0.57266000  0.42032000  0.95052000  1.0 -0.6732478793
O  O62  1  0.57968000  0.15234000  0.95052000  1.0 -0.6732478793
O  O63  1  0.42032000  0.57266000  0.54948000  1.0 -0.6732478793
O  O64  1  0.84766000  0.42734000  0.95052000  1.0 -0.6732478793
O  O65  1  0.15234000  0.57968000  0.54948000  1.0 -0.6732478793
O  O66  1  0.42734000  0.84766000  0.54948000  1.0 -0.6732478793
O  O67  1  0.42734000  0.57968000  0.04948000  1.0 -0.6732478793
O  O68  1  0.42032000  0.84766000  0.04948000  1.0 -0.6732478793
O  O69  1  0.57968000  0.42734000  0.45052000  1.0 -0.6732478793
O  O70  1  0.15234000  0.57266000  0.04948000  1.0 -0.6732478793
O  O71  1  0.84766000  0.42032000  0.45052000  1.0 -0.6732478793
O  O72  1  0.57266000  0.15234000  0.45052000  1.0 -0.6732478793
O  O73  1  0.56433000  0.52293000  0.89473000  1.0 -0.6732478793
O  O74  1  0.47707000  0.04140000  0.89473000  1.0 -0.6732478793
O  O75  1  0.52293000  0.56433000  0.60527000  1.0 -0.6732478793
O  O76  1  0.95860000  0.43567000  0.89473000  1.0 -0.6732478793
O  O77  1  0.04140000  0.47707000  0.60527000  1.0 -0.6732478793
O  O78  1  0.43567000  0.95860000  0.60527000  1.0 -0.6732478793
O  O79  1  0.43567000  0.47707000  0.10527000  1.0 -0.6732478793
O  O80  1  0.52293000  0.95860000  0.10527000  1.0 -0.6732478793
O  O81  1  0.47707000  0.43567000  0.39473000  1.0 -0.6732478793
O  O82  1  0.04140000  0.56433000  0.10527000  1.0 -0.6732478793
O  O83  1  0.95860000  0.52293000  0.39473000  1.0 -0.6732478793
O  O84  1  0.56433000  0.04140000  0.39473000  1.0 -0.6732478793
O  O85  1  0.56107000  0.58299000  0.46871000  1.0 -0.6467997661
O  O86  1  0.41701000  0.97808000  0.46871000  1.0 -0.6467997661
O  O87  1  0.58299000  0.56107000  0.03129000  1.0 -0.6467997661
O  O88  1  0.02192000  0.43893000  0.46871000  1.0 -0.6467997661
O  O89  1  0.97808000  0.41701000  0.03129000  1.0 -0.6467997661
O  O90  1  0.43893000  0.02192000  0.03129000  1.0 -0.6467997661
O  O91  1  0.43893000  0.41701000  0.53129000  1.0 -0.6467997661
O  O92  1  0.58299000  0.02192000  0.53129000  1.0 -0.6467997661
O  O93  1  0.41701000  0.43893000  0.96871000  1.0 -0.6467997661
O  O94  1  0.97808000  0.56107000  0.53129000  1.0 -0.6467997661
O  O95  1  0.02192000  0.58299000  0.96871000  1.0 -0.6467997661
O  O96  1  0.56107000  0.97808000  0.96871000  1.0 -0.6467997661
