# DDEC6 charges by PACMAN v1.1 (https://github.com/mtap-research/PACMAN-charge/)
data_SAMYAJ_ASR_pacman
_symmetry_space_group_name_H-M   'P 1'
_cell_length_a   18.28740000
_cell_length_b   18.28740000
_cell_length_c   19.84880000
_cell_angle_alpha   90.00000000
_cell_angle_beta   90.00000000
_cell_angle_gamma   120.00000000
_symmetry_Int_Tables_number   1
_chemical_formula_structural   Eu4H72(C19O8)3
_chemical_formula_sum   'Eu16 H288 C228 O96'
_cell_volume   5748.68902365
_cell_formula_units_Z   4
loop_
 _symmetry_equiv_pos_site_id
 _symmetry_equiv_pos_as_xyz
  1  'x, y, z'
loop_
 _atom_site_type_symbol
 _atom_site_label
 _atom_site_symmetry_multiplicity
 _atom_site_fract_x
 _atom_site_fract_y
 _atom_site_fract_z
 _atom_site_occupancy
 _atom_site_charge
Eu  Eu1  1  0.41690000  0.50760000  0.55600000  1.0 1.9977028158
Eu  Eu2  1  0.49240000  0.90930000  0.55600000  1.0 1.9977028158
Eu  Eu3  1  0.09070000  0.58310000  0.55600000  1.0 1.9977028158
Eu  Eu4  1  0.90930000  0.49240000  0.94400000  1.0 1.9977028158
Eu  Eu5  1  0.58310000  0.09070000  0.94400000  1.0 1.9977028158
Eu  Eu6  1  0.50760000  0.41690000  0.94400000  1.0 1.9977028158
Eu  Eu7  1  0.58310000  0.49240000  0.44400000  1.0 1.9977028158
Eu  Eu8  1  0.50760000  0.09070000  0.44400000  1.0 1.9977028158
Eu  Eu9  1  0.90930000  0.41690000  0.44400000  1.0 1.9977028158
Eu  Eu10  1  0.09070000  0.50760000  0.05600000  1.0 1.9977028158
Eu  Eu11  1  0.41690000  0.90930000  0.05600000  1.0 1.9977028158
Eu  Eu12  1  0.49240000  0.58310000  0.05600000  1.0 1.9977028158
Eu  Eu13  1  0.33333333  0.66666667  0.61850000  1.0 1.9855171826
Eu  Eu14  1  0.66666667  0.33333333  0.88150000  1.0 1.9855171826
Eu  Eu15  1  0.66666667  0.33333333  0.38150000  1.0 1.9855171826
Eu  Eu16  1  0.33333333  0.66666667  0.11850000  1.0 1.9846574452
H  H1  1  0.37411000  0.44921000  0.78370000  1.0 0.1369553145
H  H2  1  0.55079000  0.92490000  0.78370000  1.0 0.1369553145
H  H3  1  0.07510000  0.62589000  0.78370000  1.0 0.1369553145
H  H4  1  0.92490000  0.55079000  0.71630000  1.0 0.1369553145
H  H5  1  0.62589000  0.07510000  0.71630000  1.0 0.1369553145
H  H6  1  0.44921000  0.37411000  0.71630000  1.0 0.1369553145
H  H7  1  0.62589000  0.55079000  0.21630000  1.0 0.1369553145
H  H8  1  0.44921000  0.07510000  0.21630000  1.0 0.1369553145
H  H9  1  0.92490000  0.37411000  0.21630000  1.0 0.1369553145
H  H10  1  0.07510000  0.44921000  0.28370000  1.0 0.1369553145
H  H11  1  0.37411000  0.92490000  0.28370000  1.0 0.1369553145
H  H12  1  0.55079000  0.62589000  0.28370000  1.0 0.1369553145
H  H13  1  0.35501000  0.58481000  0.84090000  1.0 0.130977102
H  H14  1  0.41519000  0.77020000  0.84090000  1.0 0.130977102
H  H15  1  0.22980000  0.64499000  0.84090000  1.0 0.130977102
H  H16  1  0.77020000  0.41519000  0.65910000  1.0 0.130977102
H  H17  1  0.64499000  0.22980000  0.65910000  1.0 0.130977102
H  H18  1  0.58481000  0.35501000  0.65910000  1.0 0.130977102
H  H19  1  0.64499000  0.41519000  0.15910000  1.0 0.130977102
H  H20  1  0.58481000  0.22980000  0.15910000  1.0 0.130977102
H  H21  1  0.77020000  0.35501000  0.15910000  1.0 0.130977102
H  H22  1  0.22980000  0.58481000  0.34090000  1.0 0.130977102
H  H23  1  0.35501000  0.77020000  0.34090000  1.0 0.130977102
H  H24  1  0.41519000  0.64499000  0.34090000  1.0 0.130977102
H  H25  1  0.28281000  0.22251000  0.47150000  1.0 0.1216070409
H  H26  1  0.77749000  0.06030000  0.47150000  1.0 0.1216070409
H  H27  1  0.93970000  0.71719000  0.47150000  1.0 0.1216070409
H  H28  1  0.06030000  0.77749000  0.02850000  1.0 0.1216070409
H  H29  1  0.71719000  0.93970000  0.02850000  1.0 0.1216070409
H  H30  1  0.22251000  0.28281000  0.02850000  1.0 0.1216070409
H  H31  1  0.71719000  0.77749000  0.52850000  1.0 0.1216070409
H  H32  1  0.22251000  0.93970000  0.52850000  1.0 0.1216070409
H  H33  1  0.06030000  0.28281000  0.52850000  1.0 0.1216070409
H  H34  1  0.93970000  0.22251000  0.97150000  1.0 0.1216070409
H  H35  1  0.28281000  0.06030000  0.97150000  1.0 0.1216070409
H  H36  1  0.77749000  0.71719000  0.97150000  1.0 0.1216070409
H  H37  1  0.22031000  0.51881000  0.78750000  1.0 0.130977102
H  H38  1  0.48119000  0.70150000  0.78750000  1.0 0.130977102
H  H39  1  0.29850000  0.77969000  0.78750000  1.0 0.130977102
H  H40  1  0.70150000  0.48119000  0.71250000  1.0 0.130977102
H  H41  1  0.77969000  0.29850000  0.71250000  1.0 0.130977102
H  H42  1  0.51881000  0.22031000  0.71250000  1.0 0.130977102
H  H43  1  0.77969000  0.48119000  0.21250000  1.0 0.130977102
H  H44  1  0.51881000  0.29850000  0.21250000  1.0 0.130977102
H  H45  1  0.70150000  0.22031000  0.21250000  1.0 0.130977102
H  H46  1  0.29850000  0.51881000  0.28750000  1.0 0.130977102
H  H47  1  0.22031000  0.70150000  0.28750000  1.0 0.130977102
H  H48  1  0.48119000  0.77969000  0.28750000  1.0 0.130977102
H  H49  1  0.17311000  0.46971000  0.85280000  1.0 0.130977102
H  H50  1  0.53029000  0.70340000  0.85280000  1.0 0.130977102
H  H51  1  0.29660000  0.82689000  0.85280000  1.0 0.130977102
H  H52  1  0.70340000  0.53029000  0.64720000  1.0 0.130977102
H  H53  1  0.82689000  0.29660000  0.64720000  1.0 0.130977102
H  H54  1  0.46971000  0.17311000  0.64720000  1.0 0.130977102
H  H55  1  0.82689000  0.53029000  0.14720000  1.0 0.130977102
H  H56  1  0.46971000  0.29660000  0.14720000  1.0 0.130977102
H  H57  1  0.70340000  0.17311000  0.14720000  1.0 0.130977102
H  H58  1  0.29660000  0.46971000  0.35280000  1.0 0.130977102
H  H59  1  0.17311000  0.70340000  0.35280000  1.0 0.130977102
H  H60  1  0.53029000  0.82689000  0.35280000  1.0 0.130977102
H  H61  1  0.15891000  0.42101000  0.78470000  1.0 0.1216070409
H  H62  1  0.57899000  0.73790000  0.78470000  1.0 0.1216070409
H  H63  1  0.26210000  0.84109000  0.78470000  1.0 0.1216070409
H  H64  1  0.73790000  0.57899000  0.71530000  1.0 0.1216070409
H  H65  1  0.84109000  0.26210000  0.71530000  1.0 0.1216070409
H  H66  1  0.42101000  0.15891000  0.71530000  1.0 0.1216070409
H  H67  1  0.84109000  0.57899000  0.21530000  1.0 0.1216070409
H  H68  1  0.42101000  0.26210000  0.21530000  1.0 0.1216070409
H  H69  1  0.73790000  0.15891000  0.21530000  1.0 0.1216070409
H  H70  1  0.26210000  0.42101000  0.28470000  1.0 0.1216070409
H  H71  1  0.15891000  0.73790000  0.28470000  1.0 0.1216070409
H  H72  1  0.57899000  0.84109000  0.28470000  1.0 0.1216070409
H  H73  1  0.20291000  0.32431000  0.83720000  1.0 0.130977102
H  H74  1  0.67569000  0.87860000  0.83720000  1.0 0.130977102
H  H75  1  0.12140000  0.79709000  0.83720000  1.0 0.130977102
H  H76  1  0.87860000  0.67569000  0.66280000  1.0 0.130977102
H  H77  1  0.79709000  0.12140000  0.66280000  1.0 0.130977102
H  H78  1  0.32431000  0.20291000  0.66280000  1.0 0.130977102
H  H79  1  0.79709000  0.67569000  0.16280000  1.0 0.130977102
H  H80  1  0.32431000  0.12140000  0.16280000  1.0 0.130977102
H  H81  1  0.87860000  0.20291000  0.16280000  1.0 0.130977102
H  H82  1  0.12140000  0.32431000  0.33720000  1.0 0.130977102
H  H83  1  0.20291000  0.87860000  0.33720000  1.0 0.130977102
H  H84  1  0.67569000  0.79709000  0.33720000  1.0 0.130977102
H  H85  1  0.21901000  0.37041000  0.90680000  1.0 0.130977102
H  H86  1  0.62959000  0.84860000  0.90680000  1.0 0.130977102
H  H87  1  0.15140000  0.78099000  0.90680000  1.0 0.130977102
H  H88  1  0.84860000  0.62959000  0.59320000  1.0 0.130977102
H  H89  1  0.78099000  0.15140000  0.59320000  1.0 0.130977102
H  H90  1  0.37041000  0.21901000  0.59320000  1.0 0.130977102
H  H91  1  0.78099000  0.62959000  0.09320000  1.0 0.130977102
H  H92  1  0.37041000  0.15140000  0.09320000  1.0 0.130977102
H  H93  1  0.84860000  0.21901000  0.09320000  1.0 0.130977102
H  H94  1  0.15140000  0.37041000  0.40680000  1.0 0.130977102
H  H95  1  0.21901000  0.84860000  0.40680000  1.0 0.130977102
H  H96  1  0.62959000  0.78099000  0.40680000  1.0 0.130977102
H  H97  1  0.29181000  0.36311000  0.87150000  1.0 0.130977102
H  H98  1  0.63689000  0.92870000  0.87150000  1.0 0.130977102
H  H99  1  0.07130000  0.70819000  0.87150000  1.0 0.130977102
H  H100  1  0.92870000  0.63689000  0.62850000  1.0 0.130977102
H  H101  1  0.70819000  0.07130000  0.62850000  1.0 0.130977102
H  H102  1  0.36311000  0.29181000  0.62850000  1.0 0.130977102
H  H103  1  0.70819000  0.63689000  0.12850000  1.0 0.130977102
H  H104  1  0.36311000  0.07130000  0.12850000  1.0 0.130977102
H  H105  1  0.92870000  0.29181000  0.12850000  1.0 0.130977102
H  H106  1  0.07130000  0.36311000  0.37150000  1.0 0.130977102
H  H107  1  0.29181000  0.92870000  0.37150000  1.0 0.130977102
H  H108  1  0.63689000  0.70819000  0.37150000  1.0 0.130977102
H  H109  1  0.36461000  0.16861000  0.42750000  1.0 0.0904177761
H  H110  1  0.83139000  0.19600000  0.42750000  1.0 0.0904177761
H  H111  1  0.80400000  0.63539000  0.42750000  1.0 0.0904177761
H  H112  1  0.19600000  0.83139000  0.07250000  1.0 0.0904177761
H  H113  1  0.63539000  0.80400000  0.07250000  1.0 0.0904177761
H  H114  1  0.16861000  0.36461000  0.07250000  1.0 0.0904177761
H  H115  1  0.63539000  0.83139000  0.57250000  1.0 0.0904177761
H  H116  1  0.16861000  0.80400000  0.57250000  1.0 0.0904177761
H  H117  1  0.19600000  0.36461000  0.57250000  1.0 0.0904177761
H  H118  1  0.80400000  0.16861000  0.92750000  1.0 0.0904177761
H  H119  1  0.36461000  0.19600000  0.92750000  1.0 0.0904177761
H  H120  1  0.83139000  0.63539000  0.92750000  1.0 0.0904177761
H  H121  1  0.25551000  0.13751000  0.36160000  1.0 0.0530682553
H  H122  1  0.86249000  0.11800000  0.36160000  1.0 0.0530682553
H  H123  1  0.88200000  0.74449000  0.36160000  1.0 0.0530682553
H  H124  1  0.11800000  0.86249000  0.13840000  1.0 0.0530682553
H  H125  1  0.74449000  0.88200000  0.13840000  1.0 0.0530682553
H  H126  1  0.13751000  0.25551000  0.13840000  1.0 0.0530682553
H  H127  1  0.74449000  0.86249000  0.63840000  1.0 0.0530682553
H  H128  1  0.13751000  0.88200000  0.63840000  1.0 0.0530682553
H  H129  1  0.11800000  0.25551000  0.63840000  1.0 0.0530682553
H  H130  1  0.88200000  0.13751000  0.86160000  1.0 0.0530682553
H  H131  1  0.25551000  0.11800000  0.86160000  1.0 0.0530682553
H  H132  1  0.86249000  0.74449000  0.86160000  1.0 0.0530682553
H  H133  1  0.28931000  0.18771000  0.29400000  1.0 0.080284078
H  H134  1  0.81229000  0.10160000  0.29400000  1.0 0.080284078
H  H135  1  0.89840000  0.71069000  0.29400000  1.0 0.080284078
H  H136  1  0.10160000  0.81229000  0.20600000  1.0 0.080284078
H  H137  1  0.71069000  0.89840000  0.20600000  1.0 0.080284078
H  H138  1  0.18771000  0.28931000  0.20600000  1.0 0.080284078
H  H139  1  0.71069000  0.81229000  0.70600000  1.0 0.080284078
H  H140  1  0.18771000  0.89840000  0.70600000  1.0 0.080284078
H  H141  1  0.10160000  0.28931000  0.70600000  1.0 0.080284078
H  H142  1  0.89840000  0.18771000  0.79400000  1.0 0.080284078
H  H143  1  0.28931000  0.10160000  0.79400000  1.0 0.080284078
H  H144  1  0.81229000  0.71069000  0.79400000  1.0 0.080284078
H  H145  1  0.22651000  0.20121000  0.33890000  1.0 0.0646278422
H  H146  1  0.79879000  0.02530000  0.33890000  1.0 0.0646278422
H  H147  1  0.97470000  0.77349000  0.33890000  1.0 0.0646278422
H  H148  1  0.02530000  0.79879000  0.16110000  1.0 0.0646278422
H  H149  1  0.77349000  0.97470000  0.16110000  1.0 0.0646278422
H  H150  1  0.20121000  0.22651000  0.16110000  1.0 0.0646278422
H  H151  1  0.77349000  0.79879000  0.66110000  1.0 0.0646278422
H  H152  1  0.20121000  0.97470000  0.66110000  1.0 0.0646278422
H  H153  1  0.02530000  0.22651000  0.66110000  1.0 0.0646278422
H  H154  1  0.97470000  0.20121000  0.83890000  1.0 0.0646278422
H  H155  1  0.22651000  0.02530000  0.83890000  1.0 0.0646278422
H  H156  1  0.79879000  0.77349000  0.83890000  1.0 0.0646278422
H  H157  1  0.35631000  0.36451000  0.32880000  1.0 0.080284078
H  H158  1  0.63549000  0.99180000  0.32880000  1.0 0.080284078
H  H159  1  0.00820000  0.64369000  0.32880000  1.0 0.080284078
H  H160  1  0.99180000  0.63549000  0.17120000  1.0 0.080284078
H  H161  1  0.64369000  0.00820000  0.17120000  1.0 0.080284078
H  H162  1  0.36451000  0.35631000  0.17120000  1.0 0.080284078
H  H163  1  0.64369000  0.63549000  0.67120000  1.0 0.080284078
H  H164  1  0.36451000  0.00820000  0.67120000  1.0 0.080284078
H  H165  1  0.99180000  0.35631000  0.67120000  1.0 0.080284078
H  H166  1  0.00820000  0.36451000  0.82880000  1.0 0.080284078
H  H167  1  0.35631000  0.99180000  0.82880000  1.0 0.080284078
H  H168  1  0.63549000  0.64369000  0.82880000  1.0 0.080284078
H  H169  1  0.39981000  0.32301000  0.28850000  1.0 0.080284078
H  H170  1  0.67699000  0.07680000  0.28850000  1.0 0.080284078
H  H171  1  0.92320000  0.60019000  0.28850000  1.0 0.080284078
H  H172  1  0.07680000  0.67699000  0.21150000  1.0 0.080284078
H  H173  1  0.60019000  0.92320000  0.21150000  1.0 0.080284078
H  H174  1  0.32301000  0.39981000  0.21150000  1.0 0.080284078
H  H175  1  0.60019000  0.67699000  0.71150000  1.0 0.080284078
H  H176  1  0.32301000  0.92320000  0.71150000  1.0 0.080284078
H  H177  1  0.07680000  0.39981000  0.71150000  1.0 0.080284078
H  H178  1  0.92320000  0.32301000  0.78850000  1.0 0.080284078
H  H179  1  0.39981000  0.07680000  0.78850000  1.0 0.080284078
H  H180  1  0.67699000  0.60019000  0.78850000  1.0 0.080284078
H  H181  1  0.44401000  0.37791000  0.35240000  1.0 0.080284078
H  H182  1  0.62209000  0.06610000  0.35240000  1.0 0.080284078
H  H183  1  0.93390000  0.55599000  0.35240000  1.0 0.080284078
H  H184  1  0.06610000  0.62209000  0.14760000  1.0 0.080284078
H  H185  1  0.55599000  0.93390000  0.14760000  1.0 0.080284078
H  H186  1  0.37791000  0.44401000  0.14760000  1.0 0.080284078
H  H187  1  0.55599000  0.62209000  0.64760000  1.0 0.080284078
H  H188  1  0.37791000  0.93390000  0.64760000  1.0 0.080284078
H  H189  1  0.06610000  0.44401000  0.64760000  1.0 0.080284078
H  H190  1  0.93390000  0.37791000  0.85240000  1.0 0.080284078
H  H191  1  0.44401000  0.06610000  0.85240000  1.0 0.080284078
H  H192  1  0.62209000  0.55599000  0.85240000  1.0 0.080284078
H  H193  1  0.37951000  0.35711000  0.35770000  1.0 0.071954494
H  H194  1  0.64289000  0.02240000  0.35770000  1.0 0.071954494
H  H195  1  0.97760000  0.62049000  0.35770000  1.0 0.071954494
H  H196  1  0.02240000  0.64289000  0.14230000  1.0 0.071954494
H  H197  1  0.62049000  0.97760000  0.14230000  1.0 0.071954494
H  H198  1  0.35711000  0.37951000  0.14230000  1.0 0.071954494
H  H199  1  0.62049000  0.64289000  0.64230000  1.0 0.071954494
H  H200  1  0.35711000  0.97760000  0.64230000  1.0 0.071954494
H  H201  1  0.02240000  0.37951000  0.64230000  1.0 0.071954494
H  H202  1  0.97760000  0.35711000  0.85770000  1.0 0.071954494
H  H203  1  0.37951000  0.02240000  0.85770000  1.0 0.071954494
H  H204  1  0.64289000  0.62049000  0.85770000  1.0 0.071954494
H  H205  1  0.31621000  0.28981000  0.30660000  1.0 0.071954494
H  H206  1  0.71019000  0.02640000  0.30660000  1.0 0.071954494
H  H207  1  0.97360000  0.68379000  0.30660000  1.0 0.071954494
H  H208  1  0.02640000  0.71019000  0.19340000  1.0 0.071954494
H  H209  1  0.68379000  0.97360000  0.19340000  1.0 0.071954494
H  H210  1  0.28981000  0.31621000  0.19340000  1.0 0.071954494
H  H211  1  0.68379000  0.71019000  0.69340000  1.0 0.071954494
H  H212  1  0.28981000  0.97360000  0.69340000  1.0 0.071954494
H  H213  1  0.02640000  0.31621000  0.69340000  1.0 0.071954494
H  H214  1  0.97360000  0.28981000  0.80660000  1.0 0.071954494
H  H215  1  0.31621000  0.02640000  0.80660000  1.0 0.071954494
H  H216  1  0.71019000  0.68379000  0.80660000  1.0 0.071954494
H  H217  1  0.40811000  0.30491000  0.31340000  1.0 0.080284078
H  H218  1  0.69509000  0.10320000  0.31340000  1.0 0.080284078
H  H219  1  0.89680000  0.59189000  0.31340000  1.0 0.080284078
H  H220  1  0.10320000  0.69509000  0.18660000  1.0 0.080284078
H  H221  1  0.59189000  0.89680000  0.18660000  1.0 0.080284078
H  H222  1  0.30491000  0.40811000  0.18660000  1.0 0.080284078
H  H223  1  0.59189000  0.69509000  0.68660000  1.0 0.080284078
H  H224  1  0.30491000  0.89680000  0.68660000  1.0 0.080284078
H  H225  1  0.10320000  0.40811000  0.68660000  1.0 0.080284078
H  H226  1  0.89680000  0.30491000  0.81340000  1.0 0.080284078
H  H227  1  0.40811000  0.10320000  0.81340000  1.0 0.080284078
H  H228  1  0.69509000  0.59189000  0.81340000  1.0 0.080284078
H  H229  1  0.29411000  0.22821000  0.48780000  1.0 0.130977102
H  H230  1  0.77179000  0.06590000  0.48780000  1.0 0.130977102
H  H231  1  0.93410000  0.70589000  0.48780000  1.0 0.130977102
H  H232  1  0.06590000  0.77179000  0.01220000  1.0 0.130977102
H  H233  1  0.70589000  0.93410000  0.01220000  1.0 0.130977102
H  H234  1  0.22821000  0.29411000  0.01220000  1.0 0.130977102
H  H235  1  0.70589000  0.77179000  0.51220000  1.0 0.130977102
H  H236  1  0.22821000  0.93410000  0.51220000  1.0 0.130977102
H  H237  1  0.06590000  0.29411000  0.51220000  1.0 0.130977102
H  H238  1  0.93410000  0.22821000  0.98780000  1.0 0.130977102
H  H239  1  0.29411000  0.06590000  0.98780000  1.0 0.130977102
H  H240  1  0.77179000  0.70589000  0.98780000  1.0 0.130977102
H  H241  1  0.37371000  0.17811000  0.45290000  1.0 0.0979386313
H  H242  1  0.82189000  0.19560000  0.45290000  1.0 0.0979386313
H  H243  1  0.80440000  0.62629000  0.45290000  1.0 0.0979386313
H  H244  1  0.19560000  0.82189000  0.04710000  1.0 0.0979386313
H  H245  1  0.62629000  0.80440000  0.04710000  1.0 0.0979386313
H  H246  1  0.17811000  0.37371000  0.04710000  1.0 0.0979386313
H  H247  1  0.62629000  0.82189000  0.54710000  1.0 0.0979386313
H  H248  1  0.17811000  0.80440000  0.54710000  1.0 0.0979386313
H  H249  1  0.19560000  0.37371000  0.54710000  1.0 0.0979386313
H  H250  1  0.80440000  0.17811000  0.95290000  1.0 0.0979386313
H  H251  1  0.37371000  0.19560000  0.95290000  1.0 0.0979386313
H  H252  1  0.82189000  0.62629000  0.95290000  1.0 0.0979386313
H  H253  1  0.21171000  0.17061000  0.35790000  1.0 0.0646278422
H  H254  1  0.82939000  0.04110000  0.35790000  1.0 0.0646278422
H  H255  1  0.95890000  0.78829000  0.35790000  1.0 0.0646278422
H  H256  1  0.04110000  0.82939000  0.14210000  1.0 0.0646278422
H  H257  1  0.78829000  0.95890000  0.14210000  1.0 0.0646278422
H  H258  1  0.17061000  0.21171000  0.14210000  1.0 0.0646278422
H  H259  1  0.78829000  0.82939000  0.64210000  1.0 0.0646278422
H  H260  1  0.17061000  0.95890000  0.64210000  1.0 0.0646278422
H  H261  1  0.04110000  0.21171000  0.64210000  1.0 0.0646278422
H  H262  1  0.95890000  0.17061000  0.85790000  1.0 0.0646278422
H  H263  1  0.21171000  0.04110000  0.85790000  1.0 0.0646278422
H  H264  1  0.82939000  0.78829000  0.85790000  1.0 0.0646278422
H  H265  1  0.23721000  0.11721000  0.40380000  1.0 0.0904177761
H  H266  1  0.88279000  0.12000000  0.40380000  1.0 0.0904177761
H  H267  1  0.88000000  0.76279000  0.40380000  1.0 0.0904177761
H  H268  1  0.12000000  0.88279000  0.09620000  1.0 0.0904177761
H  H269  1  0.76279000  0.88000000  0.09620000  1.0 0.0904177761
H  H270  1  0.11721000  0.23721000  0.09620000  1.0 0.0904177761
H  H271  1  0.76279000  0.88279000  0.59620000  1.0 0.0904177761
H  H272  1  0.11721000  0.88000000  0.59620000  1.0 0.0904177761
H  H273  1  0.12000000  0.23721000  0.59620000  1.0 0.0904177761
H  H274  1  0.88000000  0.11721000  0.90380000  1.0 0.0904177761
H  H275  1  0.23721000  0.12000000  0.90380000  1.0 0.0904177761
H  H276  1  0.88279000  0.76279000  0.90380000  1.0 0.0904177761
H  H277  1  0.26891000  0.13671000  0.32900000  1.0 0.071954494
H  H278  1  0.86329000  0.13220000  0.32900000  1.0 0.071954494
H  H279  1  0.86780000  0.73109000  0.32900000  1.0 0.071954494
H  H280  1  0.13220000  0.86329000  0.17100000  1.0 0.071954494
H  H281  1  0.73109000  0.86780000  0.17100000  1.0 0.071954494
H  H282  1  0.13671000  0.26891000  0.17100000  1.0 0.071954494
H  H283  1  0.73109000  0.86329000  0.67100000  1.0 0.071954494
H  H284  1  0.13671000  0.86780000  0.67100000  1.0 0.071954494
H  H285  1  0.13220000  0.26891000  0.67100000  1.0 0.071954494
H  H286  1  0.86780000  0.13671000  0.82900000  1.0 0.071954494
H  H287  1  0.26891000  0.13220000  0.82900000  1.0 0.071954494
H  H288  1  0.86329000  0.73109000  0.82900000  1.0 0.071954494
C  C1  1  0.35121000  0.51961000  0.71301000  1.0 0.6462302592
C  C2  1  0.48039000  0.83160000  0.71301000  1.0 0.6462302592
C  C3  1  0.16840000  0.64879000  0.71301000  1.0 0.6462302592
C  C4  1  0.83160000  0.48039000  0.78699000  1.0 0.6462302592
C  C5  1  0.64879000  0.16840000  0.78699000  1.0 0.6462302592
C  C6  1  0.51961000  0.35121000  0.78699000  1.0 0.6462302592
C  C7  1  0.64879000  0.48039000  0.28699000  1.0 0.6462302592
C  C8  1  0.51961000  0.16840000  0.28699000  1.0 0.6462302592
C  C9  1  0.83160000  0.35121000  0.28699000  1.0 0.6462302592
C  C10  1  0.16840000  0.51961000  0.21301000  1.0 0.6462302592
C  C11  1  0.35121000  0.83160000  0.21301000  1.0 0.6462302592
C  C12  1  0.48039000  0.64879000  0.21301000  1.0 0.6462302592
C  C13  1  0.40971000  0.52961000  0.90101000  1.0 0.6740282562
C  C14  1  0.47039000  0.88010000  0.90101000  1.0 0.6740282562
C  C15  1  0.11990000  0.59029000  0.90101000  1.0 0.6740282562
C  C16  1  0.88010000  0.47039000  0.59899000  1.0 0.6740282562
C  C17  1  0.59029000  0.11990000  0.59899000  1.0 0.6740282562
C  C18  1  0.52961000  0.40971000  0.59899000  1.0 0.6740282562
C  C19  1  0.59029000  0.47039000  0.09899000  1.0 0.6740282562
C  C20  1  0.52961000  0.11990000  0.09899000  1.0 0.6740282562
C  C21  1  0.88010000  0.40971000  0.09899000  1.0 0.6740282562
C  C22  1  0.11990000  0.52961000  0.40101000  1.0 0.6740282562
C  C23  1  0.40971000  0.88010000  0.40101000  1.0 0.6740282562
C  C24  1  0.47039000  0.59029000  0.40101000  1.0 0.6740282562
C  C25  1  0.34651000  0.48331000  0.78126000  1.0 -0.1973848251
C  C26  1  0.51669000  0.86320000  0.78126000  1.0 -0.1973848251
C  C27  1  0.13680000  0.65349000  0.78126000  1.0 -0.1973848251
C  C28  1  0.86320000  0.51669000  0.71874000  1.0 -0.1973848251
C  C29  1  0.65349000  0.13680000  0.71874000  1.0 -0.1973848251
C  C30  1  0.48331000  0.34651000  0.71874000  1.0 -0.1973848251
C  C31  1  0.65349000  0.51669000  0.21874000  1.0 -0.1973848251
C  C32  1  0.48331000  0.13680000  0.21874000  1.0 -0.1973848251
C  C33  1  0.86320000  0.34651000  0.21874000  1.0 -0.1973848251
C  C34  1  0.13680000  0.48331000  0.28126000  1.0 -0.1973848251
C  C35  1  0.34651000  0.86320000  0.28126000  1.0 -0.1973848251
C  C36  1  0.51669000  0.65349000  0.28126000  1.0 -0.1973848251
C  C37  1  0.35421000  0.53111000  0.84641000  1.0 -0.2156823415
C  C38  1  0.46889000  0.82310000  0.84641000  1.0 -0.2156823415
C  C39  1  0.17690000  0.64579000  0.84641000  1.0 -0.2156823415
C  C40  1  0.82310000  0.46889000  0.65359000  1.0 -0.2156823415
C  C41  1  0.64579000  0.17690000  0.65359000  1.0 -0.2156823415
C  C42  1  0.53111000  0.35421000  0.65359000  1.0 -0.2156823415
C  C43  1  0.64579000  0.46889000  0.15359000  1.0 -0.2156823415
C  C44  1  0.53111000  0.17690000  0.15359000  1.0 -0.2156823415
C  C45  1  0.82310000  0.35421000  0.15359000  1.0 -0.2156823415
C  C46  1  0.17690000  0.53111000  0.34641000  1.0 -0.2156823415
C  C47  1  0.35421000  0.82310000  0.34641000  1.0 -0.2156823415
C  C48  1  0.46889000  0.64579000  0.34641000  1.0 -0.2156823415
C  C49  1  0.36621000  0.35391000  0.48255000  1.0 0.4674649176
C  C50  1  0.64609000  0.01230000  0.48255000  1.0 0.4674649176
C  C51  1  0.98770000  0.63379000  0.48255000  1.0 0.4674649176
C  C52  1  0.01230000  0.64609000  0.01745000  1.0 0.4674649176
C  C53  1  0.63379000  0.98770000  0.01745000  1.0 0.4674649176
C  C54  1  0.35391000  0.36621000  0.01745000  1.0 0.4674649176
C  C55  1  0.63379000  0.64609000  0.51745000  1.0 0.4674649176
C  C56  1  0.35391000  0.98770000  0.51745000  1.0 0.4674649176
C  C57  1  0.01230000  0.36621000  0.51745000  1.0 0.4674649176
C  C58  1  0.98770000  0.35391000  0.98255000  1.0 0.4674649176
C  C59  1  0.36621000  0.01230000  0.98255000  1.0 0.4674649176
C  C60  1  0.64609000  0.63379000  0.98255000  1.0 0.4674649176
C  C61  1  0.33741000  0.26611000  0.45370000  1.0 -0.1417917077
C  C62  1  0.73389000  0.07130000  0.45370000  1.0 -0.1417917077
C  C63  1  0.92870000  0.66259000  0.45370000  1.0 -0.1417917077
C  C64  1  0.07130000  0.73389000  0.04630000  1.0 -0.1417917077
C  C65  1  0.66259000  0.92870000  0.04630000  1.0 -0.1417917077
C  C66  1  0.26611000  0.33741000  0.04630000  1.0 -0.1417917077
C  C67  1  0.66259000  0.73389000  0.54630000  1.0 -0.1417917077
C  C68  1  0.26611000  0.92870000  0.54630000  1.0 -0.1417917077
C  C69  1  0.07130000  0.33741000  0.54630000  1.0 -0.1417917077
C  C70  1  0.92870000  0.26611000  0.95370000  1.0 -0.1417917077
C  C71  1  0.33741000  0.07130000  0.95370000  1.0 -0.1417917077
C  C72  1  0.73389000  0.66259000  0.95370000  1.0 -0.1417917077
C  C73  1  0.27141000  0.45261000  0.82834000  1.0 0.2776222762
C  C74  1  0.54739000  0.81880000  0.82834000  1.0 0.2776222762
C  C75  1  0.18120000  0.72859000  0.82834000  1.0 0.2776222762
C  C76  1  0.81880000  0.54739000  0.67166000  1.0 0.2776222762
C  C77  1  0.72859000  0.18120000  0.67166000  1.0 0.2776222762
C  C78  1  0.45261000  0.27141000  0.67166000  1.0 0.2776222762
C  C79  1  0.72859000  0.54739000  0.17166000  1.0 0.2776222762
C  C80  1  0.45261000  0.18120000  0.17166000  1.0 0.2776222762
C  C81  1  0.81880000  0.27141000  0.17166000  1.0 0.2776222762
C  C82  1  0.18120000  0.45261000  0.32834000  1.0 0.2776222762
C  C83  1  0.27141000  0.81880000  0.32834000  1.0 0.2776222762
C  C84  1  0.54739000  0.72859000  0.32834000  1.0 0.2776222762
C  C85  1  0.19951000  0.46681000  0.81190000  1.0 -0.523950449
C  C86  1  0.53319000  0.73270000  0.81190000  1.0 -0.523950449
C  C87  1  0.26730000  0.80049000  0.81190000  1.0 -0.523950449
C  C88  1  0.73270000  0.53319000  0.68810000  1.0 -0.523950449
C  C89  1  0.80049000  0.26730000  0.68810000  1.0 -0.523950449
C  C90  1  0.46681000  0.19951000  0.68810000  1.0 -0.523950449
C  C91  1  0.80049000  0.53319000  0.18810000  1.0 -0.523950449
C  C92  1  0.46681000  0.26730000  0.18810000  1.0 -0.523950449
C  C93  1  0.73270000  0.19951000  0.18810000  1.0 -0.523950449
C  C94  1  0.26730000  0.46681000  0.31190000  1.0 -0.523950449
C  C95  1  0.19951000  0.73270000  0.31190000  1.0 -0.523950449
C  C96  1  0.53319000  0.80049000  0.31190000  1.0 -0.523950449
C  C97  1  0.24381000  0.37011000  0.86420000  1.0 -0.5090499037
C  C98  1  0.62989000  0.87370000  0.86420000  1.0 -0.5090499037
C  C99  1  0.12630000  0.75619000  0.86420000  1.0 -0.5090499037
C  C100  1  0.87370000  0.62989000  0.63580000  1.0 -0.5090499037
C  C101  1  0.75619000  0.12630000  0.63580000  1.0 -0.5090499037
C  C102  1  0.37011000  0.24381000  0.63580000  1.0 -0.5090499037
C  C103  1  0.75619000  0.62989000  0.13580000  1.0 -0.5090499037
C  C104  1  0.37011000  0.12630000  0.13580000  1.0 -0.5090499037
C  C105  1  0.87370000  0.24381000  0.13580000  1.0 -0.5090499037
C  C106  1  0.12630000  0.37011000  0.36420000  1.0 -0.5090499037
C  C107  1  0.24381000  0.87370000  0.36420000  1.0 -0.5090499037
C  C108  1  0.62989000  0.75619000  0.36420000  1.0 -0.5090499037
C  C109  1  0.39191000  0.23021000  0.42440000  1.0 -0.1296626542
C  C110  1  0.76979000  0.16170000  0.42440000  1.0 -0.1296626542
C  C111  1  0.83830000  0.60809000  0.42440000  1.0 -0.1296626542
C  C112  1  0.16170000  0.76979000  0.07560000  1.0 -0.1296626542
C  C113  1  0.60809000  0.83830000  0.07560000  1.0 -0.1296626542
C  C114  1  0.23021000  0.39191000  0.07560000  1.0 -0.1296626542
C  C115  1  0.60809000  0.76979000  0.57560000  1.0 -0.1296626542
C  C116  1  0.23021000  0.83830000  0.57560000  1.0 -0.1296626542
C  C117  1  0.16170000  0.39191000  0.57560000  1.0 -0.1296626542
C  C118  1  0.83830000  0.23021000  0.92440000  1.0 -0.1296626542
C  C119  1  0.39191000  0.16170000  0.92440000  1.0 -0.1296626542
C  C120  1  0.76979000  0.60809000  0.92440000  1.0 -0.1296626542
C  C121  1  0.48731000  0.27401000  0.42652000  1.0 0.5211097386
C  C122  1  0.72599000  0.21330000  0.42652000  1.0 0.5211097386
C  C123  1  0.78670000  0.51269000  0.42652000  1.0 0.5211097386
C  C124  1  0.21330000  0.72599000  0.07348000  1.0 0.5211097386
C  C125  1  0.51269000  0.78670000  0.07348000  1.0 0.5211097386
C  C126  1  0.27401000  0.48731000  0.07348000  1.0 0.5211097386
C  C127  1  0.51269000  0.72599000  0.57348000  1.0 0.5211097386
C  C128  1  0.27401000  0.78670000  0.57348000  1.0 0.5211097386
C  C129  1  0.21330000  0.48731000  0.57348000  1.0 0.5211097386
C  C130  1  0.78670000  0.27401000  0.92652000  1.0 0.5211097386
C  C131  1  0.48731000  0.21330000  0.92652000  1.0 0.5211097386
C  C132  1  0.72599000  0.51269000  0.92652000  1.0 0.5211097386
C  C133  1  0.27271000  0.19031000  0.33940000  1.0 -0.1973848251
C  C134  1  0.80969000  0.08240000  0.33940000  1.0 -0.1973848251
C  C135  1  0.91760000  0.72729000  0.33940000  1.0 -0.1973848251
C  C136  1  0.08240000  0.80969000  0.16060000  1.0 -0.1973848251
C  C137  1  0.72729000  0.91760000  0.16060000  1.0 -0.1973848251
C  C138  1  0.19031000  0.27271000  0.16060000  1.0 -0.1973848251
C  C139  1  0.72729000  0.80969000  0.66060000  1.0 -0.1973848251
C  C140  1  0.19031000  0.91760000  0.66060000  1.0 -0.1973848251
C  C141  1  0.08240000  0.27271000  0.66060000  1.0 -0.1973848251
C  C142  1  0.91760000  0.19031000  0.83940000  1.0 -0.1973848251
C  C143  1  0.27271000  0.08240000  0.83940000  1.0 -0.1973848251
C  C144  1  0.80969000  0.72729000  0.83940000  1.0 -0.1973848251
C  C145  1  0.34601000  0.26011000  0.37660000  1.0 0.130977102
C  C146  1  0.73989000  0.08590000  0.37660000  1.0 0.130977102
C  C147  1  0.91410000  0.65399000  0.37660000  1.0 0.130977102
C  C148  1  0.08590000  0.73989000  0.12340000  1.0 0.130977102
C  C149  1  0.65399000  0.91410000  0.12340000  1.0 0.130977102
C  C150  1  0.26011000  0.34601000  0.12340000  1.0 0.130977102
C  C151  1  0.65399000  0.73989000  0.62340000  1.0 0.130977102
C  C152  1  0.26011000  0.91410000  0.62340000  1.0 0.130977102
C  C153  1  0.08590000  0.34601000  0.62340000  1.0 0.130977102
C  C154  1  0.91410000  0.26011000  0.87660000  1.0 0.130977102
C  C155  1  0.34601000  0.08590000  0.87660000  1.0 0.130977102
C  C156  1  0.73989000  0.65399000  0.87660000  1.0 0.130977102
C  C157  1  0.39071000  0.33861000  0.33250000  1.0 -0.2156823415
C  C158  1  0.66139000  0.05210000  0.33250000  1.0 -0.2156823415
C  C159  1  0.94790000  0.60929000  0.33250000  1.0 -0.2156823415
C  C160  1  0.05210000  0.66139000  0.16750000  1.0 -0.2156823415
C  C161  1  0.60929000  0.94790000  0.16750000  1.0 -0.2156823415
C  C162  1  0.33861000  0.39071000  0.16750000  1.0 -0.2156823415
C  C163  1  0.60929000  0.66139000  0.66750000  1.0 -0.2156823415
C  C164  1  0.33861000  0.94790000  0.66750000  1.0 -0.2156823415
C  C165  1  0.05210000  0.39071000  0.66750000  1.0 -0.2156823415
C  C166  1  0.94790000  0.33861000  0.83250000  1.0 -0.2156823415
C  C167  1  0.39071000  0.05210000  0.83250000  1.0 -0.2156823415
C  C168  1  0.66139000  0.60929000  0.83250000  1.0 -0.2156823415
C  C169  1  0.33241000  0.23721000  0.39070000  1.0 0.0979386313
C  C170  1  0.76279000  0.09520000  0.39070000  1.0 0.0979386313
C  C171  1  0.90480000  0.66759000  0.39070000  1.0 0.0979386313
C  C172  1  0.09520000  0.76279000  0.10930000  1.0 0.0979386313
C  C173  1  0.66759000  0.90480000  0.10930000  1.0 0.0979386313
C  C174  1  0.23721000  0.33241000  0.10930000  1.0 0.0979386313
C  C175  1  0.66759000  0.76279000  0.60930000  1.0 0.0979386313
C  C176  1  0.23721000  0.90480000  0.60930000  1.0 0.0979386313
C  C177  1  0.09520000  0.33241000  0.60930000  1.0 0.0979386313
C  C178  1  0.90480000  0.23721000  0.89070000  1.0 0.0979386313
C  C179  1  0.33241000  0.09520000  0.89070000  1.0 0.0979386313
C  C180  1  0.76279000  0.66759000  0.89070000  1.0 0.0979386313
C  C181  1  0.36161000  0.30311000  0.33740000  1.0 -0.1188774976
C  C182  1  0.69689000  0.05850000  0.33740000  1.0 -0.1188774976
C  C183  1  0.94150000  0.63839000  0.33740000  1.0 -0.1188774976
C  C184  1  0.05850000  0.69689000  0.16260000  1.0 -0.1188774976
C  C185  1  0.63839000  0.94150000  0.16260000  1.0 -0.1188774976
C  C186  1  0.30311000  0.36161000  0.16260000  1.0 -0.1188774976
C  C187  1  0.63839000  0.69689000  0.66260000  1.0 -0.1188774976
C  C188  1  0.30311000  0.94150000  0.66260000  1.0 -0.1188774976
C  C189  1  0.05850000  0.36161000  0.66260000  1.0 -0.1188774976
C  C190  1  0.94150000  0.30311000  0.83740000  1.0 -0.1188774976
C  C191  1  0.36161000  0.05850000  0.83740000  1.0 -0.1188774976
C  C192  1  0.69689000  0.63839000  0.83740000  1.0 -0.1188774976
C  C193  1  0.33981000  0.26991000  0.45940000  1.0 -0.1417917077
C  C194  1  0.73009000  0.06990000  0.45940000  1.0 -0.1417917077
C  C195  1  0.93010000  0.66019000  0.45940000  1.0 -0.1417917077
C  C196  1  0.06990000  0.73009000  0.04060000  1.0 -0.1417917077
C  C197  1  0.66019000  0.93010000  0.04060000  1.0 -0.1417917077
C  C198  1  0.26991000  0.33981000  0.04060000  1.0 -0.1417917077
C  C199  1  0.66019000  0.73009000  0.54060000  1.0 -0.1417917077
C  C200  1  0.26991000  0.93010000  0.54060000  1.0 -0.1417917077
C  C201  1  0.06990000  0.33981000  0.54060000  1.0 -0.1417917077
C  C202  1  0.93010000  0.26991000  0.95940000  1.0 -0.1417917077
C  C203  1  0.33981000  0.06990000  0.95940000  1.0 -0.1417917077
C  C204  1  0.73009000  0.66019000  0.95940000  1.0 -0.1417917077
C  C205  1  0.39611000  0.23551000  0.43540000  1.0 -0.1188774976
C  C206  1  0.76449000  0.16060000  0.43540000  1.0 -0.1188774976
C  C207  1  0.83940000  0.60389000  0.43540000  1.0 -0.1188774976
C  C208  1  0.16060000  0.76449000  0.06460000  1.0 -0.1188774976
C  C209  1  0.60389000  0.83940000  0.06460000  1.0 -0.1188774976
C  C210  1  0.23551000  0.39611000  0.06460000  1.0 -0.1188774976
C  C211  1  0.60389000  0.76449000  0.56460000  1.0 -0.1188774976
C  C212  1  0.23551000  0.83940000  0.56460000  1.0 -0.1188774976
C  C213  1  0.16060000  0.39611000  0.56460000  1.0 -0.1188774976
C  C214  1  0.83940000  0.23551000  0.93540000  1.0 -0.1188774976
C  C215  1  0.39611000  0.16060000  0.93540000  1.0 -0.1188774976
C  C216  1  0.76449000  0.60389000  0.93540000  1.0 -0.1188774976
C  C217  1  0.25571000  0.15841000  0.36840000  1.0 -0.165844674
C  C218  1  0.84159000  0.09730000  0.36840000  1.0 -0.165844674
C  C219  1  0.90270000  0.74429000  0.36840000  1.0 -0.165844674
C  C220  1  0.09730000  0.84159000  0.13160000  1.0 -0.165844674
C  C221  1  0.74429000  0.90270000  0.13160000  1.0 -0.165844674
C  C222  1  0.15841000  0.25571000  0.13160000  1.0 -0.165844674
C  C223  1  0.74429000  0.84159000  0.63160000  1.0 -0.165844674
C  C224  1  0.15841000  0.90270000  0.63160000  1.0 -0.165844674
C  C225  1  0.09730000  0.25571000  0.63160000  1.0 -0.165844674
C  C226  1  0.90270000  0.15841000  0.86840000  1.0 -0.165844674
C  C227  1  0.25571000  0.09730000  0.86840000  1.0 -0.165844674
C  C228  1  0.84159000  0.74429000  0.86840000  1.0 -0.165844674
O  O1  1  0.31573000  0.36344000  0.51937000  1.0 -0.5402983739
O  O2  1  0.63656000  0.95229000  0.51937000  1.0 -0.5402983739
O  O3  1  0.04771000  0.68427000  0.51937000  1.0 -0.5402983739
O  O4  1  0.95229000  0.63656000  0.98063000  1.0 -0.5402983739
O  O5  1  0.68427000  0.04771000  0.98063000  1.0 -0.5402983739
O  O6  1  0.36344000  0.31573000  0.98063000  1.0 -0.5402983739
O  O7  1  0.68427000  0.63656000  0.48063000  1.0 -0.5402983739
O  O8  1  0.36344000  0.04771000  0.48063000  1.0 -0.5402983739
O  O9  1  0.95229000  0.31573000  0.48063000  1.0 -0.5402983739
O  O10  1  0.04771000  0.36344000  0.01937000  1.0 -0.5402983739
O  O11  1  0.31573000  0.95229000  0.01937000  1.0 -0.5402983739
O  O12  1  0.63656000  0.68427000  0.01937000  1.0 -0.5402983739
O  O13  1  0.33017000  0.57420000  0.70344000  1.0 -0.6219791982
O  O14  1  0.42580000  0.75597000  0.70344000  1.0 -0.6219791982
O  O15  1  0.24403000  0.66983000  0.70344000  1.0 -0.6219791982
O  O16  1  0.75597000  0.42580000  0.79656000  1.0 -0.6219791982
O  O17  1  0.66983000  0.24403000  0.79656000  1.0 -0.6219791982
O  O18  1  0.57420000  0.33017000  0.79656000  1.0 -0.6219791982
O  O19  1  0.66983000  0.42580000  0.29656000  1.0 -0.6219791982
O  O20  1  0.57420000  0.24403000  0.29656000  1.0 -0.6219791982
O  O21  1  0.75597000  0.33017000  0.29656000  1.0 -0.6219791982
O  O22  1  0.24403000  0.57420000  0.20344000  1.0 -0.6219791982
O  O23  1  0.33017000  0.75597000  0.20344000  1.0 -0.6219791982
O  O24  1  0.42580000  0.66983000  0.20344000  1.0 -0.6219791982
O  O25  1  0.37751000  0.49011000  0.66758000  1.0 -0.6887161348
O  O26  1  0.50989000  0.88740000  0.66758000  1.0 -0.6887161348
O  O27  1  0.11260000  0.62249000  0.66758000  1.0 -0.6887161348
O  O28  1  0.88740000  0.50989000  0.83242000  1.0 -0.6887161348
O  O29  1  0.62249000  0.11260000  0.83242000  1.0 -0.6887161348
O  O30  1  0.49011000  0.37751000  0.83242000  1.0 -0.6887161348
O  O31  1  0.62249000  0.50989000  0.33242000  1.0 -0.6887161348
O  O32  1  0.49011000  0.11260000  0.33242000  1.0 -0.6887161348
O  O33  1  0.88740000  0.37751000  0.33242000  1.0 -0.6887161348
O  O34  1  0.11260000  0.49011000  0.16758000  1.0 -0.6887161348
O  O35  1  0.37751000  0.88740000  0.16758000  1.0 -0.6887161348
O  O36  1  0.50989000  0.62249000  0.16758000  1.0 -0.6887161348
O  O37  1  0.53700000  0.34988000  0.40864000  1.0 -0.6494567929
O  O38  1  0.65012000  0.18712000  0.40864000  1.0 -0.6494567929
O  O39  1  0.81288000  0.46300000  0.40864000  1.0 -0.6494567929
O  O40  1  0.18712000  0.65012000  0.09136000  1.0 -0.6494567929
O  O41  1  0.46300000  0.81288000  0.09136000  1.0 -0.6494567929
O  O42  1  0.34988000  0.53700000  0.09136000  1.0 -0.6494567929
O  O43  1  0.46300000  0.65012000  0.59136000  1.0 -0.6494567929
O  O44  1  0.34988000  0.81288000  0.59136000  1.0 -0.6494567929
O  O45  1  0.18712000  0.53700000  0.59136000  1.0 -0.6494567929
O  O46  1  0.81288000  0.34988000  0.90864000  1.0 -0.6494567929
O  O47  1  0.53700000  0.18712000  0.90864000  1.0 -0.6494567929
O  O48  1  0.65012000  0.46300000  0.90864000  1.0 -0.6494567929
O  O49  1  0.51802000  0.22685000  0.43797000  1.0 -0.6494567929
O  O50  1  0.77315000  0.29117000  0.43797000  1.0 -0.6494567929
O  O51  1  0.70883000  0.48198000  0.43797000  1.0 -0.6494567929
O  O52  1  0.29117000  0.77315000  0.06203000  1.0 -0.6494567929
O  O53  1  0.48198000  0.70883000  0.06203000  1.0 -0.6494567929
O  O54  1  0.22685000  0.51802000  0.06203000  1.0 -0.6494567929
O  O55  1  0.48198000  0.77315000  0.56203000  1.0 -0.6494567929
O  O56  1  0.22685000  0.70883000  0.56203000  1.0 -0.6494567929
O  O57  1  0.29117000  0.51802000  0.56203000  1.0 -0.6494567929
O  O58  1  0.70883000  0.22685000  0.93797000  1.0 -0.6494567929
O  O59  1  0.51802000  0.29117000  0.93797000  1.0 -0.6494567929
O  O60  1  0.77315000  0.48198000  0.93797000  1.0 -0.6494567929
O  O61  1  0.43803000  0.41616000  0.46835000  1.0 -0.6634391858
O  O62  1  0.58384000  0.02187000  0.46835000  1.0 -0.6634391858
O  O63  1  0.97813000  0.56197000  0.46835000  1.0 -0.6634391858
O  O64  1  0.02187000  0.58384000  0.03165000  1.0 -0.6634391858
O  O65  1  0.56197000  0.97813000  0.03165000  1.0 -0.6634391858
O  O66  1  0.41616000  0.43803000  0.03165000  1.0 -0.6634391858
O  O67  1  0.56197000  0.58384000  0.53165000  1.0 -0.6634391858
O  O68  1  0.41616000  0.97813000  0.53165000  1.0 -0.6634391858
O  O69  1  0.02187000  0.43803000  0.53165000  1.0 -0.6634391858
O  O70  1  0.97813000  0.41616000  0.96835000  1.0 -0.6634391858
O  O71  1  0.43803000  0.02187000  0.96835000  1.0 -0.6634391858
O  O72  1  0.58384000  0.56197000  0.96835000  1.0 -0.6634391858
O  O73  1  0.42653000  0.58008000  0.95033000  1.0 -0.6721894804
O  O74  1  0.41992000  0.84645000  0.95033000  1.0 -0.6721894804
O  O75  1  0.15355000  0.57347000  0.95033000  1.0 -0.6721894804
O  O76  1  0.84645000  0.41992000  0.54967000  1.0 -0.6721894804
O  O77  1  0.57347000  0.15355000  0.54967000  1.0 -0.6721894804
O  O78  1  0.58008000  0.42653000  0.54967000  1.0 -0.6721894804
O  O79  1  0.57347000  0.41992000  0.04967000  1.0 -0.6721894804
O  O80  1  0.58008000  0.15355000  0.04967000  1.0 -0.6721894804
O  O81  1  0.84645000  0.42653000  0.04967000  1.0 -0.6721894804
O  O82  1  0.15355000  0.58008000  0.45033000  1.0 -0.6721894804
O  O83  1  0.42653000  0.84645000  0.45033000  1.0 -0.6721894804
O  O84  1  0.41992000  0.57347000  0.45033000  1.0 -0.6721894804
O  O85  1  0.43485000  0.47742000  0.89508000  1.0 -0.6887161348
O  O86  1  0.52258000  0.95743000  0.89508000  1.0 -0.6887161348
O  O87  1  0.04257000  0.56515000  0.89508000  1.0 -0.6887161348
O  O88  1  0.95743000  0.52258000  0.60492000  1.0 -0.6887161348
O  O89  1  0.56515000  0.04257000  0.60492000  1.0 -0.6887161348
O  O90  1  0.47742000  0.43485000  0.60492000  1.0 -0.6887161348
O  O91  1  0.56515000  0.52258000  0.10492000  1.0 -0.6887161348
O  O92  1  0.47742000  0.04257000  0.10492000  1.0 -0.6887161348
O  O93  1  0.95743000  0.43485000  0.10492000  1.0 -0.6887161348
O  O94  1  0.04257000  0.47742000  0.39508000  1.0 -0.6887161348
O  O95  1  0.43485000  0.95743000  0.39508000  1.0 -0.6887161348
O  O96  1  0.52258000  0.56515000  0.39508000  1.0 -0.6887161348
