# DDEC6 charges by PACMAN v1.1 (https://github.com/mtap-research/PACMAN-charge/)
data_SAPHOI_ASR_pacman
_symmetry_space_group_name_H-M   'P 1'
_cell_length_a   19.90840000
_cell_length_b   19.90840000
_cell_length_c   32.23500000
_cell_angle_alpha   69.76700000
_cell_angle_beta   110.23300000
_cell_angle_gamma   126.84900000
_symmetry_Int_Tables_number   1
_chemical_formula_structural   Ba4H68C98S14O59
_chemical_formula_sum   'Ba8 H136 C196 S28 O118'
_cell_volume   9428.39845829
_cell_formula_units_Z   2
loop_
 _symmetry_equiv_pos_site_id
 _symmetry_equiv_pos_as_xyz
  1  'x, y, z'
loop_
 _atom_site_type_symbol
 _atom_site_label
 _atom_site_symmetry_multiplicity
 _atom_site_fract_x
 _atom_site_fract_y
 _atom_site_fract_z
 _atom_site_occupancy
 _atom_site_charge
Ba  Ba1  1  0.37917000  0.35297000  0.93309000  1.0 1.2131845474
Ba  Ba2  1  0.35297000  0.37917000  0.56691000  1.0 1.2309671561
Ba  Ba3  1  0.62083000  0.64703000  0.06691000  1.0 1.2309671561
Ba  Ba4  1  0.64703000  0.62083000  0.43309000  1.0 1.2309671561
Ba  Ba5  1  0.94432000  0.95054000  0.75968000  1.0 0.3146797538
Ba  Ba6  1  0.95054000  0.94432000  0.74032000  1.0 0.3146797538
Ba  Ba7  1  0.05568000  0.04946000  0.24032000  1.0 0.3221570625
Ba  Ba8  1  0.04946000  0.05568000  0.25968000  1.0 0.3012624562
H  H1  1  0.62860000  0.85340000  0.64190000  1.0 0.1510766655
H  H2  1  0.85340000  0.62860000  0.85810000  1.0 0.1510766655
H  H3  1  0.37140000  0.14660000  0.35810000  1.0 0.1510766655
H  H4  1  0.14660000  0.37140000  0.14190000  1.0 0.1510766655
H  H5  1  0.42490000  0.61430000  0.66140000  1.0 0.1510766655
H  H6  1  0.61430000  0.42490000  0.83860000  1.0 0.1510766655
H  H7  1  0.57510000  0.38570000  0.33860000  1.0 0.1510766655
H  H8  1  0.38570000  0.57510000  0.16140000  1.0 0.1510766655
H  H9  1  0.29810000  0.59210000  0.66940000  1.0 0.1300581581
H  H10  1  0.59210000  0.29810000  0.83060000  1.0 0.1300581581
H  H11  1  0.70190000  0.40790000  0.33060000  1.0 0.1300581581
H  H12  1  0.40790000  0.70190000  0.16940000  1.0 0.1300581581
H  H13  1  0.30150000  0.66870000  0.67780000  1.0 0.1202363797
H  H14  1  0.66870000  0.30150000  0.82220000  1.0 0.1202363797
H  H15  1  0.69850000  0.33130000  0.32220000  1.0 0.1202363797
H  H16  1  0.33130000  0.69850000  0.17780000  1.0 0.1202363797
H  H17  1  0.28560000  0.48080000  0.72780000  1.0 0.1631416649
H  H18  1  0.48080000  0.28560000  0.77220000  1.0 0.1631416649
H  H19  1  0.71440000  0.51920000  0.27220000  1.0 0.1631416649
H  H20  1  0.51920000  0.71440000  0.22780000  1.0 0.1631416649
H  H21  1  0.29650000  0.48630000  0.85250000  1.0 0.1377997149
H  H22  1  0.48630000  0.29650000  0.64750000  1.0 0.1377997149
H  H23  1  0.70350000  0.51370000  0.14750000  1.0 0.1377997149
H  H24  1  0.51370000  0.70350000  0.35250000  1.0 0.1377997149
H  H25  1  0.40540000  0.70720000  0.83820000  1.0 0.1202363797
H  H26  1  0.70720000  0.40540000  0.66180000  1.0 0.1202363797
H  H27  1  0.59460000  0.29280000  0.16180000  1.0 0.1202363797
H  H28  1  0.29280000  0.59460000  0.33820000  1.0 0.1202363797
H  H29  1  0.37400000  0.62140000  0.87510000  1.0 0.1377997149
H  H30  1  0.62140000  0.37400000  0.62490000  1.0 0.1377997149
H  H31  1  0.62600000  0.37860000  0.12490000  1.0 0.1377997149
H  H32  1  0.37860000  0.62600000  0.37510000  1.0 0.1377997149
H  H33  1  0.23110000  0.53810000  0.88940000  1.0 0.1510766655
H  H34  1  0.53810000  0.23110000  0.61060000  1.0 0.1510766655
H  H35  1  0.76890000  0.46190000  0.11060000  1.0 0.1510766655
H  H36  1  0.46190000  0.76890000  0.38940000  1.0 0.1510766655
H  H37  1  0.11900000  0.66500000  0.86230000  1.0 0.1377997149
H  H38  1  0.66500000  0.11900000  0.63770000  1.0 0.1377997149
H  H39  1  0.88100000  0.33500000  0.13770000  1.0 0.1377997149
H  H40  1  0.33500000  0.88100000  0.36230000  1.0 0.1377997149
H  H41  1  0.15740000  0.78340000  0.78540000  1.0 0.1300581581
H  H42  1  0.78340000  0.15740000  0.71460000  1.0 0.1300581581
H  H43  1  0.84260000  0.21660000  0.21460000  1.0 0.1300581581
H  H44  1  0.21660000  0.84260000  0.28540000  1.0 0.1300581581
H  H45  1  0.25910000  0.84390000  0.79070000  1.0 0.1377997149
H  H46  1  0.84390000  0.25910000  0.70930000  1.0 0.1377997149
H  H47  1  0.74090000  0.15610000  0.20930000  1.0 0.1377997149
H  H48  1  0.15610000  0.74090000  0.29070000  1.0 0.1377997149
H  H49  1  0.09270000  0.80270000  0.82200000  1.0 0.1300581581
H  H50  1  0.80270000  0.09270000  0.67800000  1.0 0.1300581581
H  H51  1  0.90730000  0.19730000  0.17800000  1.0 0.1300581581
H  H52  1  0.19730000  0.90730000  0.32200000  1.0 0.1300581581
H  H53  1  0.21870000  0.94750000  0.91530000  1.0 0.1300581581
H  H54  1  0.94750000  0.21870000  0.58470000  1.0 0.1300581581
H  H55  1  0.78130000  0.05250000  0.08470000  1.0 0.1300581581
H  H56  1  0.05250000  0.78130000  0.41530000  1.0 0.1300581581
H  H57  1  0.41220000  0.03440000  0.90790000  1.0 0.1377997149
H  H58  1  0.03440000  0.41220000  0.59210000  1.0 0.1377997149
H  H59  1  0.58780000  0.96560000  0.09210000  1.0 0.1377997149
H  H60  1  0.96560000  0.58780000  0.40790000  1.0 0.1377997149
H  H61  1  0.35660000  0.00280000  0.94420000  1.0 0.1202363797
H  H62  1  0.00280000  0.35660000  0.55580000  1.0 0.1202363797
H  H63  1  0.64340000  0.99720000  0.05580000  1.0 0.1202363797
H  H64  1  0.99720000  0.64340000  0.44420000  1.0 0.1202363797
H  H65  1  0.33800000  0.87680000  0.00370000  1.0 0.1377997149
H  H66  1  0.87680000  0.33800000  0.49630000  1.0 0.1377997149
H  H67  1  0.66200000  0.12320000  0.99630000  1.0 0.1377997149
H  H68  1  0.12320000  0.66200000  0.50370000  1.0 0.1377997149
H  H69  1  0.53270000  0.84550000  0.03850000  1.0 0.1377997149
H  H70  1  0.84550000  0.53270000  0.46150000  1.0 0.1377997149
H  H71  1  0.46730000  0.15450000  0.96150000  1.0 0.1377997149
H  H72  1  0.15450000  0.46730000  0.53850000  1.0 0.1377997149
H  H73  1  0.65030000  0.01250000  0.96330000  1.0 0.1202363797
H  H74  1  0.01250000  0.65030000  0.53670000  1.0 0.1202363797
H  H75  1  0.34970000  0.98750000  0.03670000  1.0 0.1202363797
H  H76  1  0.98750000  0.34970000  0.46330000  1.0 0.1202363797
H  H77  1  0.64650000  0.93670000  0.00370000  1.0 0.1377997149
H  H78  1  0.93670000  0.64650000  0.49630000  1.0 0.1377997149
H  H79  1  0.35350000  0.06330000  0.99630000  1.0 0.1377997149
H  H80  1  0.06330000  0.35350000  0.50370000  1.0 0.1377997149
H  H81  1  0.60450000  0.80770000  0.98730000  1.0 0.1300581581
H  H82  1  0.80770000  0.60450000  0.51270000  1.0 0.1300581581
H  H83  1  0.39550000  0.19230000  0.01270000  1.0 0.1300581581
H  H84  1  0.19230000  0.39550000  0.48730000  1.0 0.1300581581
H  H85  1  0.56230000  0.78770000  0.86120000  1.0 0.1510766655
H  H86  1  0.78770000  0.56230000  0.63880000  1.0 0.1510766655
H  H87  1  0.43770000  0.21230000  0.13880000  1.0 0.1510766655
H  H88  1  0.21230000  0.43770000  0.36120000  1.0 0.1510766655
H  H89  1  0.56380000  0.97900000  0.81280000  1.0 0.1300581581
H  H90  1  0.97900000  0.56380000  0.68720000  1.0 0.1300581581
H  H91  1  0.43620000  0.02100000  0.18720000  1.0 0.1300581581
H  H92  1  0.02100000  0.43620000  0.31280000  1.0 0.1300581581
H  H93  1  0.50280000  0.88260000  0.80510000  1.0 0.1300581581
H  H94  1  0.88260000  0.50280000  0.69490000  1.0 0.1300581581
H  H95  1  0.49720000  0.11740000  0.19490000  1.0 0.1300581581
H  H96  1  0.11740000  0.49720000  0.30510000  1.0 0.1300581581
H  H97  1  0.72440000  0.96460000  0.83620000  1.0 0.1377997149
H  H98  1  0.96460000  0.72440000  0.66380000  1.0 0.1377997149
H  H99  1  0.27560000  0.03540000  0.16380000  1.0 0.1377997149
H  H100  1  0.03540000  0.27560000  0.33620000  1.0 0.1377997149
H  H101  1  0.73580000  0.96140000  0.71600000  1.0 0.1300581581
H  H102  1  0.96140000  0.73580000  0.78400000  1.0 0.1300581581
H  H103  1  0.26420000  0.03860000  0.28400000  1.0 0.1300581581
H  H104  1  0.03860000  0.26420000  0.21600000  1.0 0.1300581581
H  H105  1  0.63300000  0.96940000  0.65040000  1.0 0.1300581581
H  H106  1  0.96940000  0.63300000  0.84960000  1.0 0.1300581581
H  H107  1  0.36700000  0.03060000  0.34960000  1.0 0.1300581581
H  H108  1  0.03060000  0.36700000  0.15040000  1.0 0.1300581581
H  H109  1  0.54800000  0.95300000  0.65710000  1.0 0.1202363797
H  H110  1  0.95300000  0.54800000  0.84290000  1.0 0.1202363797
H  H111  1  0.45200000  0.04700000  0.34290000  1.0 0.1202363797
H  H112  1  0.04700000  0.45200000  0.15710000  1.0 0.1202363797
H  H113  1  0.37080000  0.73880000  0.72910000  1.0 0.3221570625
H  H114  1  0.73880000  0.37080000  0.77090000  1.0 0.3221570625
H  H115  1  0.62920000  0.26120000  0.27090000  1.0 0.3221570625
H  H116  1  0.26120000  0.62920000  0.22910000  1.0 0.3221570625
H  H117  1  0.36580000  0.77300000  0.79640000  1.0 0.3221570625
H  H118  1  0.77300000  0.36580000  0.70360000  1.0 0.3221570625
H  H119  1  0.63420000  0.22700000  0.20360000  1.0 0.3221570625
H  H120  1  0.22700000  0.63420000  0.29640000  1.0 0.3221570625
H  H121  1  0.40210000  0.93270000  0.87990000  1.0 0.3221570625
H  H122  1  0.93270000  0.40210000  0.62010000  1.0 0.3221570625
H  H123  1  0.59790000  0.06730000  0.12010000  1.0 0.3221570625
H  H124  1  0.06730000  0.59790000  0.37990000  1.0 0.3221570625
H  H125  1  0.54950000  0.01050000  0.90650000  1.0 0.277282697
H  H126  1  0.01050000  0.54950000  0.59350000  1.0 0.277282697
H  H127  1  0.45050000  0.98950000  0.09350000  1.0 0.277282697
H  H128  1  0.98950000  0.45050000  0.40650000  1.0 0.277282697
H  H129  1  0.62380000  0.03600000  0.90510000  1.0 0.3012624562
H  H130  1  0.03600000  0.62380000  0.59490000  1.0 0.3012624562
H  H131  1  0.37620000  0.96400000  0.09490000  1.0 0.3012624562
H  H132  1  0.96400000  0.37620000  0.40510000  1.0 0.3012624562
H  H133  1  0.49530000  0.93330000  0.70090000  1.0 0.3394179702
H  H134  1  0.93330000  0.49530000  0.79910000  1.0 0.3394179702
H  H135  1  0.50470000  0.06670000  0.29910000  1.0 0.3394179702
H  H136  1  0.06670000  0.50470000  0.20090000  1.0 0.3394179702
C  C1  1  0.46090000  0.78410000  0.67770000  1.0 0.2163997561
C  C2  1  0.78410000  0.46090000  0.82230000  1.0 0.2163997561
C  C3  1  0.53910000  0.21590000  0.32230000  1.0 0.2163997561
C  C4  1  0.21590000  0.53910000  0.17770000  1.0 0.2163997561
C  C5  1  0.54070000  0.84170000  0.66530000  1.0 0.0302646598
C  C6  1  0.84170000  0.54070000  0.83470000  1.0 0.0302646598
C  C7  1  0.45930000  0.15830000  0.33470000  1.0 0.0302646598
C  C8  1  0.15830000  0.45930000  0.16530000  1.0 0.0302646598
C  C9  1  0.57450000  0.81390000  0.65070000  1.0 -0.1024654339
C  C10  1  0.81390000  0.57450000  0.84930000  1.0 -0.1024654339
C  C11  1  0.42550000  0.18610000  0.34930000  1.0 -0.1024654339
C  C12  1  0.18610000  0.42550000  0.15070000  1.0 -0.1024654339
C  C13  1  0.53140000  0.72880000  0.64840000  1.0 -0.1024654339
C  C14  1  0.72880000  0.53140000  0.85160000  1.0 -0.1024654339
C  C15  1  0.46860000  0.27120000  0.35160000  1.0 -0.1024654339
C  C16  1  0.27120000  0.46860000  0.14840000  1.0 -0.1024654339
C  C17  1  0.45440000  0.67320000  0.66210000  1.0 -0.0913320754
C  C18  1  0.67320000  0.45440000  0.83790000  1.0 -0.0913320754
C  C19  1  0.54560000  0.32680000  0.33790000  1.0 -0.0913320754
C  C20  1  0.32680000  0.54560000  0.16210000  1.0 -0.0913320754
C  C21  1  0.41890000  0.69910000  0.67640000  1.0 0.0093656105
C  C22  1  0.69910000  0.41890000  0.82360000  1.0 0.0093656105
C  C23  1  0.58110000  0.30090000  0.32360000  1.0 0.0093656105
C  C24  1  0.30090000  0.58110000  0.17640000  1.0 0.0093656105
C  C25  1  0.33040000  0.63760000  0.68750000  1.0 -0.2301684126
C  C26  1  0.63760000  0.33040000  0.81250000  1.0 -0.2301684126
C  C27  1  0.66960000  0.36240000  0.31250000  1.0 -0.2301684126
C  C28  1  0.36240000  0.66960000  0.18750000  1.0 -0.2301684126
C  C29  1  0.32450000  0.59550000  0.73610000  1.0 0.0209423508
C  C30  1  0.59550000  0.32450000  0.76390000  1.0 0.0209423508
C  C31  1  0.67550000  0.40450000  0.26390000  1.0 0.0209423508
C  C32  1  0.40450000  0.67550000  0.23610000  1.0 0.0209423508
C  C33  1  0.29740000  0.51140000  0.74910000  1.0 -0.1024654339
C  C34  1  0.51140000  0.29740000  0.75090000  1.0 -0.1024654339
C  C35  1  0.70260000  0.48860000  0.25090000  1.0 -0.1024654339
C  C36  1  0.48860000  0.70260000  0.24910000  1.0 -0.1024654339
C  C37  1  0.28740000  0.47160000  0.79110000  1.0 -0.1117460199
C  C38  1  0.47160000  0.28740000  0.70890000  1.0 -0.1117460199
C  C39  1  0.71260000  0.52840000  0.20890000  1.0 -0.1117460199
C  C40  1  0.52840000  0.71260000  0.29110000  1.0 -0.1117460199
C  C41  1  0.30530000  0.51550000  0.82270000  1.0 -0.1117460199
C  C42  1  0.51550000  0.30530000  0.67730000  1.0 -0.1117460199
C  C43  1  0.69470000  0.48450000  0.17730000  1.0 -0.1117460199
C  C44  1  0.48450000  0.69470000  0.32270000  1.0 -0.1117460199
C  C45  1  0.33540000  0.60000000  0.81120000  1.0 0.0302646598
C  C46  1  0.60000000  0.33540000  0.68880000  1.0 0.0302646598
C  C47  1  0.66460000  0.40000000  0.18880000  1.0 0.0302646598
C  C48  1  0.40000000  0.66460000  0.31120000  1.0 0.0302646598
C  C49  1  0.34330000  0.63990000  0.76720000  1.0 0.2012240658
C  C50  1  0.63990000  0.34330000  0.73280000  1.0 0.2012240658
C  C51  1  0.65670000  0.36010000  0.23280000  1.0 0.2012240658
C  C52  1  0.36010000  0.65670000  0.26720000  1.0 0.2012240658
C  C53  1  0.35610000  0.64810000  0.84500000  1.0 -0.2508736829
C  C54  1  0.64810000  0.35610000  0.65500000  1.0 -0.2508736829
C  C55  1  0.64390000  0.35190000  0.15500000  1.0 -0.2508736829
C  C56  1  0.35190000  0.64390000  0.34500000  1.0 -0.2508736829
C  C57  1  0.28560000  0.65200000  0.84720000  1.0 0.0209423508
C  C58  1  0.65200000  0.28560000  0.65280000  1.0 0.0209423508
C  C59  1  0.71440000  0.34800000  0.15280000  1.0 0.0209423508
C  C60  1  0.34800000  0.71440000  0.34720000  1.0 0.0209423508
C  C61  1  0.22730000  0.58630000  0.87400000  1.0 -0.1117460199
C  C62  1  0.58630000  0.22730000  0.62600000  1.0 -0.1117460199
C  C63  1  0.77270000  0.41370000  0.12600000  1.0 -0.1117460199
C  C64  1  0.41370000  0.77270000  0.37400000  1.0 -0.1117460199
C  C65  1  0.16460000  0.59000000  0.87850000  1.0 -0.0913320754
C  C66  1  0.59000000  0.16460000  0.62150000  1.0 -0.0913320754
C  C67  1  0.83540000  0.41000000  0.12150000  1.0 -0.0913320754
C  C68  1  0.41000000  0.83540000  0.37850000  1.0 -0.0913320754
C  C69  1  0.16100000  0.66080000  0.85790000  1.0 -0.1190776454
C  C70  1  0.66080000  0.16100000  0.64210000  1.0 -0.1190776454
C  C71  1  0.83900000  0.33920000  0.14210000  1.0 -0.1190776454
C  C72  1  0.33920000  0.83900000  0.35790000  1.0 -0.1190776454
C  C73  1  0.21800000  0.72500000  0.83100000  1.0 0.0302646598
C  C74  1  0.72500000  0.21800000  0.66900000  1.0 0.0302646598
C  C75  1  0.78200000  0.27500000  0.16900000  1.0 0.0302646598
C  C76  1  0.27500000  0.78200000  0.33100000  1.0 0.0302646598
C  C77  1  0.27810000  0.71910000  0.82570000  1.0 0.1510766655
C  C78  1  0.71910000  0.27810000  0.67430000  1.0 0.1510766655
C  C79  1  0.72190000  0.28090000  0.17430000  1.0 0.1510766655
C  C80  1  0.28090000  0.72190000  0.32570000  1.0 0.1510766655
C  C81  1  0.21150000  0.80170000  0.80750000  1.0 -0.2419485256
C  C82  1  0.80170000  0.21150000  0.69250000  1.0 -0.2419485256
C  C83  1  0.78850000  0.19830000  0.19250000  1.0 -0.2419485256
C  C84  1  0.19830000  0.78850000  0.30750000  1.0 -0.2419485256
C  C85  1  0.21460000  0.84380000  0.83950000  1.0 0.0394314847
C  C86  1  0.84380000  0.21460000  0.66050000  1.0 0.0394314847
C  C87  1  0.78540000  0.15620000  0.16050000  1.0 0.0394314847
C  C88  1  0.15620000  0.78540000  0.33950000  1.0 0.0394314847
C  C89  1  0.14480000  0.83660000  0.84060000  1.0 -0.1190776454
C  C90  1  0.83660000  0.14480000  0.65940000  1.0 -0.1190776454
C  C91  1  0.85520000  0.16340000  0.15940000  1.0 -0.1190776454
C  C92  1  0.16340000  0.85520000  0.34060000  1.0 -0.1190776454
C  C93  1  0.14580000  0.87740000  0.86820000  1.0 -0.1190776454
C  C94  1  0.87740000  0.14580000  0.63180000  1.0 -0.1190776454
C  C95  1  0.85420000  0.12260000  0.13180000  1.0 -0.1190776454
C  C96  1  0.12260000  0.85420000  0.36820000  1.0 -0.1190776454
C  C97  1  0.21820000  0.92140000  0.89530000  1.0 -0.1190776454
C  C98  1  0.92140000  0.21820000  0.60470000  1.0 -0.1284744456
C  C99  1  0.78180000  0.07860000  0.10470000  1.0 -0.1190776454
C  C100  1  0.07860000  0.78180000  0.39530000  1.0 -0.1190776454
C  C101  1  0.29280000  0.93080000  0.89590000  1.0 0.0012031764
C  C102  1  0.93080000  0.29280000  0.60410000  1.0 0.0012031764
C  C103  1  0.70720000  0.06920000  0.10410000  1.0 0.0012031764
C  C104  1  0.06920000  0.70720000  0.39590000  1.0 0.0012031764
C  C105  1  0.29190000  0.89470000  0.86670000  1.0 0.2012240658
C  C106  1  0.89470000  0.29190000  0.63330000  1.0 0.2012240658
C  C107  1  0.70810000  0.10530000  0.13330000  1.0 0.2012240658
C  C108  1  0.10530000  0.70810000  0.36670000  1.0 0.2012240658
C  C109  1  0.37120000  0.98320000  0.92640000  1.0 -0.2508736829
C  C110  1  0.98320000  0.37120000  0.57360000  1.0 -0.2508736829
C  C111  1  0.62880000  0.01680000  0.07360000  1.0 -0.2508736829
C  C112  1  0.01680000  0.62880000  0.42640000  1.0 -0.2508736829
C  C113  1  0.41480000  0.93900000  0.95820000  1.0 0.0093656105
C  C114  1  0.93900000  0.41480000  0.54180000  1.0 0.0093656105
C  C115  1  0.58520000  0.06100000  0.04180000  1.0 0.0093656105
C  C116  1  0.06100000  0.58520000  0.45820000  1.0 0.0093656105
C  C117  1  0.38640000  0.88700000  0.99700000  1.0 -0.1190776454
C  C118  1  0.88700000  0.38640000  0.50300000  1.0 -0.1190776454
C  C119  1  0.61360000  0.11300000  0.00300000  1.0 -0.1190776454
C  C120  1  0.11300000  0.61360000  0.49700000  1.0 -0.1190776454
C  C121  1  0.42860000  0.84980000  0.02590000  1.0 -0.0913320754
C  C122  1  0.84980000  0.42860000  0.47410000  1.0 -0.0913320754
C  C123  1  0.57140000  0.15020000  0.97410000  1.0 -0.0913320754
C  C124  1  0.15020000  0.57140000  0.52590000  1.0 -0.0913320754
C  C125  1  0.50250000  0.87030000  0.01770000  1.0 -0.1284744456
C  C126  1  0.87030000  0.50250000  0.48230000  1.0 -0.1284744456
C  C127  1  0.49750000  0.12970000  0.98230000  1.0 -0.1284744456
C  C128  1  0.12970000  0.49750000  0.51770000  1.0 -0.1284744456
C  C129  1  0.53320000  0.92640000  0.97960000  1.0 -0.0158814836
C  C130  1  0.92640000  0.53320000  0.52040000  1.0 -0.0158814836
C  C131  1  0.46680000  0.07360000  0.02040000  1.0 -0.0158814836
C  C132  1  0.07360000  0.46680000  0.47960000  1.0 -0.0158814836
C  C133  1  0.48550000  0.95650000  0.94900000  1.0 0.1673949257
C  C134  1  0.95650000  0.48550000  0.55100000  1.0 0.1673949257
C  C135  1  0.51450000  0.04350000  0.05100000  1.0 0.1673949257
C  C136  1  0.04350000  0.51450000  0.44900000  1.0 0.1673949257
C  C137  1  0.61550000  0.95010000  0.97410000  1.0 -0.2663642421
C  C138  1  0.95010000  0.61550000  0.52590000  1.0 -0.2663642421
C  C139  1  0.38450000  0.04990000  0.02590000  1.0 -0.2663642421
C  C140  1  0.04990000  0.38450000  0.47410000  1.0 -0.2663642421
C  C141  1  0.60660000  0.90540000  0.94190000  1.0 -0.0087059263
C  C142  1  0.90540000  0.60660000  0.55810000  1.0 -0.0087059263
C  C143  1  0.39340000  0.09460000  0.05810000  1.0 -0.0087059263
C  C144  1  0.09460000  0.39340000  0.44190000  1.0 -0.0087059263
C  C145  1  0.59920000  0.83060000  0.95600000  1.0 -0.1190776454
C  C146  1  0.83060000  0.59920000  0.54400000  1.0 -0.1190776454
C  C147  1  0.40080000  0.16940000  0.04400000  1.0 -0.1190776454
C  C148  1  0.16940000  0.40080000  0.45600000  1.0 -0.1190776454
C  C149  1  0.58420000  0.78680000  0.92650000  1.0 -0.1284744456
C  C150  1  0.78680000  0.58420000  0.57350000  1.0 -0.1284744456
C  C151  1  0.41580000  0.21320000  0.07350000  1.0 -0.1284744456
C  C152  1  0.21320000  0.41580000  0.42650000  1.0 -0.1284744456
C  C153  1  0.57490000  0.81950000  0.88210000  1.0 -0.1117460199
C  C154  1  0.81950000  0.57490000  0.61790000  1.0 -0.1117460199
C  C155  1  0.42510000  0.18050000  0.11790000  1.0 -0.1117460199
C  C156  1  0.18050000  0.42510000  0.38210000  1.0 -0.1117460199
C  C157  1  0.58300000  0.89580000  0.86650000  1.0 0.0209423508
C  C158  1  0.89580000  0.58300000  0.63350000  1.0 0.0209423508
C  C159  1  0.41700000  0.10420000  0.13350000  1.0 0.0209423508
C  C160  1  0.10420000  0.41700000  0.36650000  1.0 0.0209423508
C  C161  1  0.60200000  0.94080000  0.89680000  1.0 0.2012240658
C  C162  1  0.94080000  0.60200000  0.60320000  1.0 0.2012240658
C  C163  1  0.39800000  0.05920000  0.10320000  1.0 0.2012240658
C  C164  1  0.05920000  0.39800000  0.39680000  1.0 0.2012240658
C  C165  1  0.56210000  0.92650000  0.81670000  1.0 -0.2508736829
C  C166  1  0.92650000  0.56210000  0.68330000  1.0 -0.2508736829
C  C167  1  0.43790000  0.07350000  0.18330000  1.0 -0.2508736829
C  C168  1  0.07350000  0.43790000  0.31670000  1.0 -0.2508736829
C  C169  1  0.61830000  0.94490000  0.78910000  1.0 0.0394314847
C  C170  1  0.94490000  0.61830000  0.71090000  1.0 0.0394314847
C  C171  1  0.38170000  0.05510000  0.21090000  1.0 0.0394314847
C  C172  1  0.05510000  0.38170000  0.28910000  1.0 0.0394314847
C  C173  1  0.69940000  0.96060000  0.80550000  1.0 -0.1376009634
C  C174  1  0.96060000  0.69940000  0.69450000  1.0 -0.1376009634
C  C175  1  0.30060000  0.03940000  0.19450000  1.0 -0.1376009634
C  C176  1  0.03940000  0.30060000  0.30550000  1.0 -0.1376009634
C  C177  1  0.74220000  0.96980000  0.77820000  1.0 -0.1190776454
C  C178  1  0.96980000  0.74220000  0.72180000  1.0 -0.1190776454
C  C179  1  0.25780000  0.03020000  0.22180000  1.0 -0.1190776454
C  C180  1  0.03020000  0.25780000  0.27820000  1.0 -0.1190776454
C  C181  1  0.70580000  0.95940000  0.73410000  1.0 -0.1376009634
C  C182  1  0.95940000  0.70580000  0.76590000  1.0 -0.1376009634
C  C183  1  0.29420000  0.04060000  0.26590000  1.0 -0.1376009634
C  C184  1  0.04060000  0.29420000  0.23410000  1.0 -0.1284744456
C  C185  1  0.62810000  0.94650000  0.71680000  1.0 0.0209423508
C  C186  1  0.94650000  0.62810000  0.78320000  1.0 0.0209423508
C  C187  1  0.37190000  0.05350000  0.28320000  1.0 0.0209423508
C  C188  1  0.05350000  0.37190000  0.21680000  1.0 0.0209423508
C  C189  1  0.58370000  0.94170000  0.74390000  1.0 0.1922565967
C  C190  1  0.94170000  0.58370000  0.75610000  1.0 0.1922565967
C  C191  1  0.41630000  0.05830000  0.25610000  1.0 0.1922565967
C  C192  1  0.05830000  0.41630000  0.24390000  1.0 0.1922565967
C  C193  1  0.58810000  0.93390000  0.66900000  1.0 -0.2419485256
C  C194  1  0.93390000  0.58810000  0.83100000  1.0 -0.2419485256
C  C195  1  0.41190000  0.06610000  0.33100000  1.0 -0.2419485256
C  C196  1  0.06610000  0.41190000  0.16900000  1.0 -0.2419485256
S  S1  1  0.57383000  0.69677000  0.62712000  1.0 1.1058507383
S  S2  1  0.69677000  0.57383000  0.87288000  1.0 1.1058507383
S  S3  1  0.42617000  0.30323000  0.37288000  1.0 1.1043252469
S  S4  1  0.30323000  0.42617000  0.12712000  1.0 1.1043252469
S  S5  1  0.25037000  0.36363000  0.80897000  1.0 1.1043252469
S  S6  1  0.36363000  0.25037000  0.69103000  1.0 1.1043252469
S  S7  1  0.74963000  0.63637000  0.19103000  1.0 1.1058507383
S  S8  1  0.63637000  0.74963000  0.30897000  1.0 1.1058507383
S  S9  1  0.08646000  0.50350000  0.91029000  1.0 1.1389191568
S  S10  1  0.50350000  0.08646000  0.58971000  1.0 1.1389191568
S  S11  1  0.91354000  0.49650000  0.08971000  1.0 1.1389191568
S  S12  1  0.49650000  0.91354000  0.41029000  1.0 1.1389191568
S  S13  1  0.05380000  0.87040000  0.86670000  1.0 1.1869738519
S  S14  1  0.87040000  0.05380000  0.63330000  1.0 1.1869738519
S  S15  1  0.94620000  0.12960000  0.13330000  1.0 1.1869738519
S  S16  1  0.12960000  0.94620000  0.36670000  1.0 1.1869738519
S  S17  1  0.39581000  0.77799000  0.07530000  1.0 1.129015249
S  S18  1  0.77799000  0.39581000  0.42470000  1.0 1.129015249
S  S19  1  0.60419000  0.22201000  0.92470000  1.0 1.129015249
S  S20  1  0.22201000  0.60419000  0.57530000  1.0 1.129015249
S  S21  1  0.57852000  0.69168000  0.94650000  1.0 1.1740181991
S  S22  1  0.69168000  0.57852000  0.55350000  1.0 1.1740181991
S  S23  1  0.42148000  0.30832000  0.05350000  1.0 1.1740181991
S  S24  1  0.30832000  0.42148000  0.44650000  1.0 1.1740181991
S  S25  1  0.84396000  0.99044000  0.79859000  1.0 1.1740181991
S  S26  1  0.99044000  0.84396000  0.70141000  1.0 1.1740181991
S  S27  1  0.15604000  0.00956000  0.20141000  1.0 1.1740181991
S  S28  1  0.00956000  0.15604000  0.29859000  1.0 1.1764614105
O  O1  1  0.42390000  0.81010000  0.68910000  1.0 -0.4186390407
O  O2  1  0.81010000  0.42390000  0.81090000  1.0 -0.4186390407
O  O3  1  0.57610000  0.18990000  0.31090000  1.0 -0.4186390407
O  O4  1  0.18990000  0.57610000  0.18910000  1.0 -0.4186390407
O  O5  1  0.36810000  0.72090000  0.75660000  1.0 -0.4088243127
O  O6  1  0.72090000  0.36810000  0.74340000  1.0 -0.4088243127
O  O7  1  0.63190000  0.27910000  0.24340000  1.0 -0.4088243127
O  O8  1  0.27910000  0.63190000  0.25660000  1.0 -0.4088243127
O  O9  1  0.33080000  0.78300000  0.79720000  1.0 -0.3933125429
O  O10  1  0.78300000  0.33080000  0.70280000  1.0 -0.3933125429
O  O11  1  0.66920000  0.21700000  0.20280000  1.0 -0.3933125429
O  O12  1  0.21700000  0.66920000  0.29720000  1.0 -0.3933125429
O  O13  1  0.35930000  0.90270000  0.86200000  1.0 -0.3933125429
O  O14  1  0.90270000  0.35930000  0.63800000  1.0 -0.3933125429
O  O15  1  0.64070000  0.09730000  0.13800000  1.0 -0.3933125429
O  O16  1  0.09730000  0.64070000  0.36200000  1.0 -0.3933125429
O  O17  1  0.50460000  0.00280000  0.90900000  1.0 -0.4088243127
O  O18  1  0.00280000  0.50460000  0.59100000  1.0 -0.4088243127
O  O19  1  0.49540000  0.99720000  0.09100000  1.0 -0.4088243127
O  O20  1  0.99720000  0.49540000  0.40900000  1.0 -0.4088243127
O  O21  1  0.61220000  0.01560000  0.88280000  1.0 -0.3692813769
O  O22  1  0.01560000  0.61220000  0.61720000  1.0 -0.3692813769
O  O23  1  0.38780000  0.98440000  0.11720000  1.0 -0.3692813769
O  O24  1  0.98440000  0.38780000  0.38280000  1.0 -0.3692813769
O  O25  1  0.51010000  0.93490000  0.72850000  1.0 -0.3484149456
O  O26  1  0.93490000  0.51010000  0.77150000  1.0 -0.3484149456
O  O27  1  0.48990000  0.06510000  0.27150000  1.0 -0.3484149456
O  O28  1  0.06510000  0.48990000  0.22850000  1.0 -0.3484149456
O  O29  1  0.65630000  0.72510000  0.65070000  1.0 -0.4186390407
O  O30  1  0.72510000  0.65630000  0.84930000  1.0 -0.4186390407
O  O31  1  0.34370000  0.27490000  0.34930000  1.0 -0.4186390407
O  O32  1  0.27490000  0.34370000  0.15070000  1.0 -0.4186390407
O  O33  1  0.52380000  0.60680000  0.63570000  1.0 -0.4489245404
O  O34  1  0.60680000  0.52380000  0.86430000  1.0 -0.4427596628
O  O35  1  0.47620000  0.39320000  0.36430000  1.0 -0.4489245404
O  O36  1  0.39320000  0.47620000  0.13570000  1.0 -0.4489245404
O  O37  1  0.57090000  0.73290000  0.58130000  1.0 -0.4186390407
O  O38  1  0.73290000  0.57090000  0.91870000  1.0 -0.4186390407
O  O39  1  0.42910000  0.26710000  0.41870000  1.0 -0.4186390407
O  O40  1  0.26710000  0.42910000  0.08130000  1.0 -0.4186390407
O  O41  1  0.16740000  0.32200000  0.81950000  1.0 -0.4912146191
O  O42  1  0.32200000  0.16740000  0.68050000  1.0 -0.4912146191
O  O43  1  0.83260000  0.67800000  0.18050000  1.0 -0.4912146191
O  O44  1  0.67800000  0.83260000  0.31950000  1.0 -0.4912146191
O  O45  1  0.23980000  0.33280000  0.77260000  1.0 -0.4186390407
O  O46  1  0.33280000  0.23980000  0.72740000  1.0 -0.4186390407
O  O47  1  0.76020000  0.66720000  0.22740000  1.0 -0.4186390407
O  O48  1  0.66720000  0.76020000  0.27260000  1.0 -0.4186390407
O  O49  1  0.31390000  0.35950000  0.84410000  1.0 -0.6543765545
O  O50  1  0.35950000  0.31390000  0.65590000  1.0 -0.65732764
O  O51  1  0.68610000  0.64050000  0.15590000  1.0 -0.65732764
O  O52  1  0.64050000  0.68610000  0.34410000  1.0 -0.65732764
O  O53  1  0.06330000  0.53910000  0.93020000  1.0 -0.4704360694
O  O54  1  0.53910000  0.06330000  0.56980000  1.0 -0.4704360694
O  O55  1  0.93670000  0.46090000  0.06980000  1.0 -0.4704360694
O  O56  1  0.46090000  0.93670000  0.43020000  1.0 -0.4704360694
O  O57  1  0.01700000  0.45120000  0.87990000  1.0 -0.4704360694
O  O58  1  0.45120000  0.01700000  0.62010000  1.0 -0.4704360694
O  O59  1  0.98300000  0.54880000  0.12010000  1.0 -0.4704360694
O  O60  1  0.54880000  0.98300000  0.37990000  1.0 -0.4704360694
O  O61  1  0.12700000  0.46280000  0.94290000  1.0 -0.4427596628
O  O62  1  0.46280000  0.12700000  0.55710000  1.0 -0.4427596628
O  O63  1  0.87300000  0.53720000  0.05710000  1.0 -0.4427596628
O  O64  1  0.53720000  0.87300000  0.44290000  1.0 -0.4427596628
O  O65  1  0.06870000  0.89550000  0.90680000  1.0 -0.4704360694
O  O66  1  0.89550000  0.06870000  0.59320000  1.0 -0.4704360694
O  O67  1  0.93130000  0.10450000  0.09320000  1.0 -0.4704360694
O  O68  1  0.10450000  0.93130000  0.40680000  1.0 -0.4704360694
O  O69  1  0.98680000  0.78420000  0.86460000  1.0 -0.4912146191
O  O70  1  0.78420000  0.98680000  0.63540000  1.0 -0.4912146191
O  O71  1  0.01320000  0.21580000  0.13540000  1.0 -0.4912146191
O  O72  1  0.21580000  0.01320000  0.36460000  1.0 -0.4912146191
O  O73  1  0.04650000  0.93130000  0.82810000  1.0 -0.5291771769
O  O74  1  0.93130000  0.04650000  0.67190000  1.0 -0.5291771769
O  O75  1  0.95350000  0.06870000  0.17190000  1.0 -0.5291771769
O  O76  1  0.06870000  0.95350000  0.32810000  1.0 -0.5291771769
O  O77  1  0.38380000  0.70120000  0.07210000  1.0 -0.4912146191
O  O78  1  0.70120000  0.38380000  0.42790000  1.0 -0.4912146191
O  O79  1  0.61620000  0.29880000  0.92790000  1.0 -0.4912146191
O  O80  1  0.29880000  0.61620000  0.57210000  1.0 -0.4961989403
O  O81  1  0.32060000  0.76660000  0.07590000  1.0 -0.5126608491
O  O82  1  0.76660000  0.32060000  0.42410000  1.0 -0.5126608491
O  O83  1  0.67940000  0.23340000  0.92410000  1.0 -0.5126608491
O  O84  1  0.23340000  0.67940000  0.57590000  1.0 -0.5126608491
O  O85  1  0.46420000  0.81400000  0.11150000  1.0 -0.5537573129
O  O86  1  0.81400000  0.46420000  0.38850000  1.0 -0.5537573129
O  O87  1  0.53580000  0.18600000  0.88850000  1.0 -0.5537573129
O  O88  1  0.18600000  0.53580000  0.61150000  1.0 -0.5537573129
O  O89  1  0.56690000  0.66310000  0.91130000  1.0 -0.4489245404
O  O90  1  0.66310000  0.56690000  0.58870000  1.0 -0.4489245404
O  O91  1  0.43310000  0.33690000  0.08870000  1.0 -0.4489245404
O  O92  1  0.33690000  0.43310000  0.41130000  1.0 -0.4489245404
O  O93  1  0.51920000  0.64060000  0.97510000  1.0 -0.5798372081
O  O94  1  0.64060000  0.51920000  0.52490000  1.0 -0.5798372081
O  O95  1  0.48080000  0.35940000  0.02490000  1.0 -0.5798372081
O  O96  1  0.35940000  0.48080000  0.47510000  1.0 -0.5798372081
O  O97  1  0.65870000  0.71210000  0.97720000  1.0 -0.5798372081
O  O98  1  0.71210000  0.65870000  0.52280000  1.0 -0.5798372081
O  O99  1  0.34130000  0.28790000  0.02280000  1.0 -0.5798372081
O  O100  1  0.28790000  0.34130000  0.47720000  1.0 -0.5856010795
O  O101  1  0.83840000  0.91360000  0.81610000  1.0 -0.4912146191
O  O102  1  0.91360000  0.83840000  0.68390000  1.0 -0.4912146191
O  O103  1  0.16160000  0.08640000  0.18390000  1.0 -0.4912146191
O  O104  1  0.08640000  0.16160000  0.31610000  1.0 -0.4912146191
O  O105  1  0.88300000  0.04480000  0.82920000  1.0 -0.4489245404
O  O106  1  0.04480000  0.88300000  0.67080000  1.0 -0.4489245404
O  O107  1  0.11700000  0.95520000  0.17080000  1.0 -0.4489245404
O  O108  1  0.95520000  0.11700000  0.32920000  1.0 -0.4489245404
O  O109  1  0.88710000  0.03450000  0.76180000  1.0 -0.5367969006
O  O110  1  0.03450000  0.88710000  0.73820000  1.0 -0.5367969006
O  O111  1  0.11290000  0.96550000  0.23820000  1.0 -0.5367969006
O  O112  1  0.96550000  0.11290000  0.26180000  1.0 -0.5367969006
O  O113  1  0.78950000  0.85890000  0.70000000  1.0 0.2734764636
O  O114  1  0.85890000  0.78950000  0.80000000  1.0 0.2734764636
O  O115  1  0.21050000  0.14110000  0.30000000  1.0 0.277282697
O  O116  1  0.14110000  0.21050000  0.20000000  1.0 0.2734764636
O  O117  1  0.09470000  0.09470000  0.75000000  1.0 0.3325147748
O  O118  1  0.90530000  0.90530000  0.25000000  1.0 0.3394179702
