# DDEC6 charges by PACMAN v1.1 (https://github.com/mtap-research/PACMAN-charge/)
data_SAPJIE_ASR_pacman
_symmetry_space_group_name_H-M   'P 1'
_cell_length_a   22.47430000
_cell_length_b   22.47430000
_cell_length_c   22.47430000
_cell_angle_alpha   92.74400000
_cell_angle_beta   92.74400000
_cell_angle_gamma   154.72300000
_symmetry_Int_Tables_number   1
_chemical_formula_structural   AlZn2P4H4O12F
_chemical_formula_sum   'Al8 Zn16 P32 H32 O96 F8'
_cell_volume   4729.64355793
_cell_formula_units_Z   8
loop_
 _symmetry_equiv_pos_site_id
 _symmetry_equiv_pos_as_xyz
  1  'x, y, z'
loop_
 _atom_site_type_symbol
 _atom_site_label
 _atom_site_symmetry_multiplicity
 _atom_site_fract_x
 _atom_site_fract_y
 _atom_site_fract_z
 _atom_site_occupancy
 _atom_site_charge
Al  Al1  1  0.37500000  0.43066000  0.55566000  1.0 1.7408006171
Al  Al2  1  0.87500000  0.81934000  0.44434000  1.0 1.7408006171
Al  Al3  1  0.06934000  0.12500000  0.44434000  1.0 1.7408006171
Al  Al4  1  0.68066000  0.62500000  0.55566000  1.0 1.7408006171
Al  Al5  1  0.87500000  0.31934000  0.94434000  1.0 1.7408006171
Al  Al6  1  0.37500000  0.93066000  0.05566000  1.0 1.7408006171
Al  Al7  1  0.18066000  0.62500000  0.05566000  1.0 1.7408006171
Al  Al8  1  0.56934000  0.12500000  0.94434000  1.0 1.7408006171
Zn  Zn1  1  0.24822000  0.47555000  0.33399000  1.0 1.0962710496
Zn  Zn2  1  0.14156000  0.91423000  0.66601000  1.0 1.0962710496
Zn  Zn3  1  0.16423000  0.99822000  0.27267000  1.0 1.0943195978
Zn  Zn4  1  0.72555000  0.89156000  0.72733000  1.0 1.0943195978
Zn  Zn5  1  0.50178000  0.33577000  0.72733000  1.0 1.0962710496
Zn  Zn6  1  0.60844000  0.77445000  0.27267000  1.0 1.0943195978
Zn  Zn7  1  0.58577000  0.35844000  0.33399000  1.0 1.0962710496
Zn  Zn8  1  0.02445000  0.25178000  0.66601000  1.0 1.0962710496
Zn  Zn9  1  0.00178000  0.27445000  0.16601000  1.0 1.0962710496
Zn  Zn10  1  0.10844000  0.83577000  0.83399000  1.0 1.0962710496
Zn  Zn11  1  0.08577000  0.75178000  0.22733000  1.0 1.0962710496
Zn  Zn12  1  0.52445000  0.85844000  0.77267000  1.0 1.0962710496
Zn  Zn13  1  0.74822000  0.41423000  0.77267000  1.0 1.0962710496
Zn  Zn14  1  0.64156000  0.97555000  0.22733000  1.0 1.0943195978
Zn  Zn15  1  0.66423000  0.39156000  0.16601000  1.0 1.0943195978
Zn  Zn16  1  0.22555000  0.49822000  0.83399000  1.0 1.0962710496
P  P1  1  0.48600000  0.78246000  0.32124000  1.0 1.2657994472
P  P2  1  0.46122000  0.16476000  0.67876000  1.0 1.2657994472
P  P3  1  0.41476000  0.23600000  0.20354000  1.0 1.2657994472
P  P4  1  0.03246000  0.21122000  0.79646000  1.0 1.2657994472
P  P5  1  0.26400000  0.08524000  0.79646000  1.0 1.2657994472
P  P6  1  0.28878000  0.46754000  0.20354000  1.0 1.2657994472
P  P7  1  0.33524000  0.03878000  0.32124000  1.0 1.2657994472
P  P8  1  0.71754000  0.01400000  0.67876000  1.0 1.2657994472
P  P9  1  0.76400000  0.96754000  0.17876000  1.0 1.264323918
P  P10  1  0.78878000  0.58524000  0.82124000  1.0 1.2657994472
P  P11  1  0.83524000  0.51400000  0.29646000  1.0 1.264323918
P  P12  1  0.21754000  0.53878000  0.70354000  1.0 1.2657994472
P  P13  1  0.98600000  0.66476000  0.70354000  1.0 1.264323918
P  P14  1  0.96122000  0.28246000  0.29646000  1.0 1.264323918
P  P15  1  0.91476000  0.71122000  0.17876000  1.0 1.264323918
P  P16  1  0.53246000  0.73600000  0.82124000  1.0 1.2657994472
P  P17  1  0.30776000  0.42872000  0.42962000  1.0 1.2930818702
P  P18  1  0.99910000  0.87814000  0.57038000  1.0 1.2930818702
P  P19  1  0.12814000  0.05776000  0.37904000  1.0 1.2930818702
P  P20  1  0.67872000  0.74910000  0.62096000  1.0 1.2930818702
P  P21  1  0.44224000  0.37186000  0.62096000  1.0 1.2930818702
P  P22  1  0.75090000  0.82128000  0.37904000  1.0 1.2930818702
P  P23  1  0.62186000  0.50090000  0.42962000  1.0 1.2930818702
P  P24  1  0.07128000  0.19224000  0.57038000  1.0 1.2930818702
P  P25  1  0.94224000  0.32128000  0.07038000  1.0 1.2930818702
P  P26  1  0.25090000  0.87186000  0.92962000  1.0 1.2930818702
P  P27  1  0.12186000  0.69224000  0.12096000  1.0 1.2930818702
P  P28  1  0.57128000  0.00090000  0.87904000  1.0 1.2930818702
P  P29  1  0.80776000  0.37814000  0.87904000  1.0 1.2930818702
P  P30  1  0.49910000  0.92872000  0.12096000  1.0 1.2930818702
P  P31  1  0.62814000  0.24910000  0.07038000  1.0 1.2930818702
P  P32  1  0.17872000  0.55776000  0.92962000  1.0 1.2930818702
H  H1  1  0.39250000  0.47150000  0.39780000  1.0 -0.063928174
H  H2  1  0.07370000  0.99470000  0.60220000  1.0 -0.063928174
H  H3  1  0.24470000  0.14250000  0.42100000  1.0 -0.063928174
H  H4  1  0.72150000  0.82370000  0.57900000  1.0 -0.063928174
H  H5  1  0.35750000  0.25530000  0.57900000  1.0 -0.063928174
H  H6  1  0.67630000  0.77850000  0.42100000  1.0 -0.063928174
H  H7  1  0.50530000  0.42630000  0.39780000  1.0 -0.063928174
H  H8  1  0.02850000  0.10750000  0.60220000  1.0 -0.063928174
H  H9  1  0.85750000  0.27850000  0.10220000  1.0 -0.063928174
H  H10  1  0.17630000  0.75530000  0.89780000  1.0 -0.063928174
H  H11  1  0.00530000  0.60750000  0.07900000  1.0 -0.063928174
H  H12  1  0.52850000  0.92630000  0.92100000  1.0 -0.063928174
H  H13  1  0.89250000  0.49470000  0.92100000  1.0 -0.063928174
H  H14  1  0.57370000  0.97150000  0.07900000  1.0 -0.063928174
H  H15  1  0.74470000  0.32370000  0.10220000  1.0 -0.063928174
H  H16  1  0.22150000  0.64250000  0.89780000  1.0 -0.063928174
H  H17  1  0.54410000  0.87350000  0.36760000  1.0 -0.1771862993
H  H18  1  0.50590000  0.17650000  0.63240000  1.0 -0.1771862993
H  H19  1  0.42650000  0.29410000  0.17060000  1.0 -0.1771862993
H  H20  1  0.12350000  0.25590000  0.82940000  1.0 -0.1771862993
H  H21  1  0.20590000  0.07350000  0.82940000  1.0 -0.1771862993
H  H22  1  0.24410000  0.37650000  0.17060000  1.0 -0.1771862993
H  H23  1  0.32350000  0.99410000  0.36760000  1.0 -0.1771862993
H  H24  1  0.62650000  0.95590000  0.63240000  1.0 -0.1771862993
H  H25  1  0.70590000  0.87650000  0.13240000  1.0 -0.1771862993
H  H26  1  0.74410000  0.57350000  0.86760000  1.0 -0.1771862993
H  H27  1  0.82350000  0.45590000  0.32940000  1.0 -0.1771862993
H  H28  1  0.12650000  0.49410000  0.67060000  1.0 -0.1771862993
H  H29  1  0.04410000  0.67650000  0.67060000  1.0 -0.1771862993
H  H30  1  0.00590000  0.37350000  0.32940000  1.0 -0.1771862993
H  H31  1  0.92650000  0.75590000  0.13240000  1.0 -0.1771862993
H  H32  1  0.62350000  0.79410000  0.86760000  1.0 -0.1771862993
O  O1  1  0.33747000  0.63085000  0.32652000  1.0 -0.6581753363
O  O2  1  0.30433000  0.01095000  0.67348000  1.0 -0.6581753363
O  O3  1  0.26095000  0.08747000  0.20662000  1.0 -0.6581753363
O  O4  1  0.88085000  0.05433000  0.79338000  1.0 -0.6581753363
O  O5  1  0.41253000  0.23905000  0.79338000  1.0 -0.6581753363
O  O6  1  0.44567000  0.61915000  0.20662000  1.0 -0.6581753363
O  O7  1  0.48905000  0.19567000  0.32652000  1.0 -0.6581753363
O  O8  1  0.86915000  0.16253000  0.67348000  1.0 -0.6581753363
O  O9  1  0.91253000  0.11915000  0.17348000  1.0 -0.6581753363
O  O10  1  0.94567000  0.73905000  0.82652000  1.0 -0.6581753363
O  O11  1  0.98905000  0.66253000  0.29338000  1.0 -0.6581753363
O  O12  1  0.36915000  0.69567000  0.70662000  1.0 -0.6581753363
O  O13  1  0.83747000  0.51095000  0.70662000  1.0 -0.6581753363
O  O14  1  0.80433000  0.13085000  0.29338000  1.0 -0.6581753363
O  O15  1  0.76095000  0.55433000  0.17348000  1.0 -0.6581753363
O  O16  1  0.38085000  0.58747000  0.82652000  1.0 -0.6581753363
O  O17  1  0.59274000  0.82824000  0.32838000  1.0 -0.6888330394
O  O18  1  0.49986000  0.26436000  0.67162000  1.0 -0.6888330394
O  O19  1  0.51436000  0.34274000  0.26450000  1.0 -0.6888330394
O  O20  1  0.07824000  0.24986000  0.73550000  1.0 -0.6888330394
O  O21  1  0.15726000  0.98564000  0.73550000  1.0 -0.6888330394
O  O22  1  0.25014000  0.42176000  0.26450000  1.0 -0.6888330394
O  O23  1  0.23564000  0.00014000  0.32838000  1.0 -0.6888330394
O  O24  1  0.67176000  0.90726000  0.67162000  1.0 -0.6888330394
O  O25  1  0.65726000  0.92176000  0.17162000  1.0 -0.6888330394
O  O26  1  0.75014000  0.48564000  0.82838000  1.0 -0.6888330394
O  O27  1  0.73564000  0.40726000  0.23550000  1.0 -0.6888330394
O  O28  1  0.17176000  0.50014000  0.76450000  1.0 -0.6888330394
O  O29  1  0.09274000  0.76436000  0.76450000  1.0 -0.6888330394
O  O30  1  0.99986000  0.32824000  0.23550000  1.0 -0.6888330394
O  O31  1  0.01436000  0.74986000  0.17162000  1.0 -0.6888330394
O  O32  1  0.57824000  0.84274000  0.82838000  1.0 -0.6888330394
O  O33  1  0.48126000  0.81126000  0.26272000  1.0 -0.6293743309
O  O34  1  0.54854000  0.21854000  0.73728000  1.0 -0.6293743309
O  O35  1  0.46854000  0.23126000  0.17000000  1.0 -0.6293743309
O  O36  1  0.06126000  0.29854000  0.83000000  1.0 -0.6293743309
O  O37  1  0.26874000  0.03146000  0.83000000  1.0 -0.6293743309
O  O38  1  0.20146000  0.43874000  0.17000000  1.0 -0.6293743309
O  O39  1  0.28146000  0.95146000  0.26272000  1.0 -0.6293743309
O  O40  1  0.68874000  0.01874000  0.73728000  1.0 -0.6293743309
O  O41  1  0.76874000  0.93874000  0.23728000  1.0 -0.6293743309
O  O42  1  0.70146000  0.53146000  0.76272000  1.0 -0.6293743309
O  O43  1  0.78146000  0.51874000  0.33000000  1.0 -0.6293743309
O  O44  1  0.18874000  0.45146000  0.67000000  1.0 -0.6293743309
O  O45  1  0.98126000  0.71854000  0.67000000  1.0 -0.6293743309
O  O46  1  0.04854000  0.31126000  0.33000000  1.0 -0.6293743309
O  O47  1  0.96854000  0.79854000  0.23728000  1.0 -0.6293743309
O  O48  1  0.56126000  0.73126000  0.76272000  1.0 -0.6293743309
O  O49  1  0.36947000  0.48352000  0.49739000  1.0 -0.6888330394
O  O50  1  0.98613000  0.87208000  0.50261000  1.0 -0.6888330394
O  O51  1  0.12208000  0.11947000  0.38595000  1.0 -0.6888330394
O  O52  1  0.73352000  0.73613000  0.61405000  1.0 -0.6888330394
O  O53  1  0.38053000  0.37792000  0.61405000  1.0 -0.6888330394
O  O54  1  0.76387000  0.76648000  0.38595000  1.0 -0.6888330394
O  O55  1  0.62792000  0.51387000  0.49739000  1.0 -0.6888330394
O  O56  1  0.01648000  0.13053000  0.50261000  1.0 -0.6888330394
O  O57  1  0.88053000  0.26648000  0.00261000  1.0 -0.6888330394
O  O58  1  0.26387000  0.87792000  0.99739000  1.0 -0.6888330394
O  O59  1  0.12792000  0.63053000  0.11405000  1.0 -0.6888330394
O  O60  1  0.51648000  0.01387000  0.88595000  1.0 -0.6888330394
O  O61  1  0.86947000  0.37208000  0.88595000  1.0 -0.6888330394
O  O62  1  0.48613000  0.98352000  0.11405000  1.0 -0.6888330394
O  O63  1  0.62208000  0.23613000  0.00261000  1.0 -0.6888330394
O  O64  1  0.23352000  0.61947000  0.99739000  1.0 -0.6888330394
O  O65  1  0.15504000  0.26500000  0.41164000  1.0 -0.6785058697
O  O66  1  0.85336000  0.74340000  0.58836000  1.0 -0.6785058697
O  O67  1  0.99340000  0.90504000  0.39004000  1.0 -0.6785058697
O  O68  1  0.51500000  0.60336000  0.60996000  1.0 -0.6785058697
O  O69  1  0.59496000  0.50660000  0.60996000  1.0 -0.6785058697
O  O70  1  0.89664000  0.98500000  0.39004000  1.0 -0.6785058697
O  O71  1  0.75660000  0.64664000  0.41164000  1.0 -0.6785058697
O  O72  1  0.23500000  0.34496000  0.58836000  1.0 -0.6785058697
O  O73  1  0.09496000  0.48500000  0.08836000  1.0 -0.6785058697
O  O74  1  0.39664000  0.00660000  0.91164000  1.0 -0.6785058697
O  O75  1  0.25660000  0.84496000  0.10996000  1.0 -0.6785058697
O  O76  1  0.73500000  0.14664000  0.89004000  1.0 -0.6785058697
O  O77  1  0.65504000  0.24340000  0.89004000  1.0 -0.6785058697
O  O78  1  0.35336000  0.76500000  0.10996000  1.0 -0.6785058697
O  O79  1  0.49340000  0.10336000  0.08836000  1.0 -0.6785058697
O  O80  1  0.01500000  0.40504000  0.91164000  1.0 -0.6785058697
O  O81  1  0.31666000  0.49897000  0.40803000  1.0 -0.6246641
O  O82  1  0.09094000  0.90863000  0.59197000  1.0 -0.6293743309
O  O83  1  0.15863000  0.06666000  0.31769000  1.0 -0.6246641
O  O84  1  0.74897000  0.84094000  0.68231000  1.0 -0.6246641
O  O85  1  0.43334000  0.34137000  0.68231000  1.0 -0.6246641
O  O86  1  0.65906000  0.75103000  0.31769000  1.0 -0.6246641
O  O87  1  0.59137000  0.40906000  0.40803000  1.0 -0.6246641
O  O88  1  0.00103000  0.18334000  0.59197000  1.0 -0.6246641
O  O89  1  0.93334000  0.25103000  0.09197000  1.0 -0.6246641
O  O90  1  0.15906000  0.84137000  0.90803000  1.0 -0.6246641
O  O91  1  0.09137000  0.68334000  0.18231000  1.0 -0.6246641
O  O92  1  0.50103000  0.90906000  0.81769000  1.0 -0.6246641
O  O93  1  0.81666000  0.40863000  0.81769000  1.0 -0.6246641
O  O94  1  0.59094000  0.99897000  0.18231000  1.0 -0.6246641
O  O95  1  0.65863000  0.34094000  0.09197000  1.0 -0.6246641
O  O96  1  0.24897000  0.56666000  0.90803000  1.0 -0.6246641
F  F1  1  0.23758000  0.26242000  0.50000000  1.0 -0.6293743309
F  F2  1  0.76242000  0.73758000  0.50000000  1.0 -0.6293743309
F  F3  1  0.98758000  0.98758000  0.47516000  1.0 -0.6293743309
F  F4  1  0.51242000  0.51242000  0.52484000  1.0 -0.6293743309
F  F5  1  0.01242000  0.48758000  0.00000000  1.0 -0.6293743309
F  F6  1  0.48758000  0.01242000  0.00000000  1.0 -0.6293743309
F  F7  1  0.26242000  0.76242000  0.02484000  1.0 -0.6293743309
F  F8  1  0.73758000  0.23758000  0.97516000  1.0 -0.6293743309
