# DDEC6 charges by PACMAN v1.1 (https://github.com/mtap-research/PACMAN-charge/)
data_SAPMAB_FSR_pacman
_symmetry_space_group_name_H-M   'P 1'
_cell_length_a   10.94000000
_cell_length_b   22.57000000
_cell_length_c   28.68000000
_cell_angle_alpha   90.00000000
_cell_angle_beta   90.00000000
_cell_angle_gamma   90.00000000
_symmetry_Int_Tables_number   1
_chemical_formula_structural   Co6H40C45O31
_chemical_formula_sum   'Co24 H160 C180 O124'
_cell_volume   7081.54514400
_cell_formula_units_Z   4
loop_
 _symmetry_equiv_pos_site_id
 _symmetry_equiv_pos_as_xyz
  1  'x, y, z'
loop_
 _atom_site_type_symbol
 _atom_site_label
 _atom_site_symmetry_multiplicity
 _atom_site_fract_x
 _atom_site_fract_y
 _atom_site_fract_z
 _atom_site_occupancy
 _atom_site_charge
Co  Co1  1  0.12400000  0.04731000  0.38102000  1.0 1.1233890213
Co  Co2  1  0.26460000  0.96571000  0.29375000  1.0 1.0868000544
Co  Co3  1  0.41020000  0.03526000  0.20496000  1.0 1.075738386
Co  Co4  1  0.54570000  0.95397000  0.11749000  1.0 1.053710059
Co  Co5  1  0.40190000  0.08585000  0.33796000  1.0 0.9893881834
Co  Co6  1  0.73250000  0.40747000  0.33557000  1.0 0.9980147488
Co  Co7  1  0.12400000  0.95269000  0.61898000  1.0 1.1233890213
Co  Co8  1  0.26460000  0.03429000  0.70625000  1.0 1.0868000544
Co  Co9  1  0.41020000  0.96474000  0.79504000  1.0 1.0738554753
Co  Co10  1  0.54570000  0.04603000  0.88251000  1.0 1.053710059
Co  Co11  1  0.40190000  0.91415000  0.66204000  1.0 0.9893881834
Co  Co12  1  0.73250000  0.59253000  0.66443000  1.0 0.9980147488
Co  Co13  1  0.87600000  0.45269000  0.88102000  1.0 1.1233890213
Co  Co14  1  0.73540000  0.53429000  0.79375000  1.0 1.0868000544
Co  Co15  1  0.58980000  0.46474000  0.70496000  1.0 1.075738386
Co  Co16  1  0.45430000  0.54603000  0.61749000  1.0 1.053710059
Co  Co17  1  0.59810000  0.41415000  0.83796000  1.0 0.9893881834
Co  Co18  1  0.26750000  0.09253000  0.83557000  1.0 0.9980147488
Co  Co19  1  0.87600000  0.54731000  0.11898000  1.0 1.1233890213
Co  Co20  1  0.73540000  0.46571000  0.20625000  1.0 1.0868000544
Co  Co21  1  0.58980000  0.53526000  0.29504000  1.0 1.075738386
Co  Co22  1  0.45430000  0.45397000  0.38251000  1.0 1.053710059
Co  Co23  1  0.59810000  0.58585000  0.16204000  1.0 0.9893881834
Co  Co24  1  0.26750000  0.90747000  0.16443000  1.0 0.9980147488
H  H1  1  0.20480000  0.07310000  0.30130000  1.0 0.3895139068
H  H2  1  0.46650000  0.92990000  0.19590000  1.0 0.3540535799
H  H3  1  0.01050000  0.04620000  0.46370000  1.0 0.3690386421
H  H4  1  0.91050000  0.04660000  0.43220000  1.0 0.3690386421
H  H5  1  0.08350000  0.16730000  0.37700000  1.0 0.4098810113
H  H6  1  0.97350000  0.13980000  0.35660000  1.0 0.3895139068
H  H7  1  0.76420000  0.95920000  0.07460000  1.0 0.4180359847
H  H8  1  0.67500000  0.98690000  0.04290000  1.0 0.3958259902
H  H9  1  0.56240000  0.85170000  0.11920000  1.0 0.3266562082
H  H10  1  0.56700000  0.87040000  0.16370000  1.0 0.3011740751
H  H11  1  0.55990000  0.14030000  0.46920000  1.0 0.1414564542
H  H12  1  0.51140000  0.11300000  0.60520000  1.0 0.1302952003
H  H13  1  0.25360000  0.06110000  0.51640000  1.0 0.1214493432
H  H14  1  0.89700000  0.98500000  0.17620000  1.0 0.1214493432
H  H15  1  0.11070000  0.11060000  0.23760000  1.0 0.1414564542
H  H16  1  0.74910000  0.13680000  0.22530000  1.0 0.1302952003
H  H17  1  0.79520000  0.18000000  0.58220000  1.0 0.1302952003
H  H18  1  0.67300000  0.16850000  0.60920000  1.0 0.1214493432
H  H19  1  0.74750000  0.11510000  0.58880000  1.0 0.1302952003
H  H20  1  0.45950000  0.17240000  0.17130000  1.0 0.1414564542
H  H21  1  0.64170000  0.32610000  0.17150000  1.0 0.1414564542
H  H22  1  0.54490000  0.25200000  0.29060000  1.0 0.1302952003
H  H23  1  0.93410000  0.86860000  0.27010000  1.0 0.1302952003
H  H24  1  0.56510000  0.89590000  0.25220000  1.0 0.1214493432
H  H25  1  0.76980000  0.00960000  0.32640000  1.0 0.1214493432
H  H26  1  0.42080000  0.06560000  0.01440000  1.0 0.1302952003
H  H27  1  0.12800000  0.14860000  0.96980000  1.0 0.1480251111
H  H28  1  0.17860000  0.11800000  0.10780000  1.0 0.1414564542
H  H29  1  0.87980000  0.25700000  0.27900000  1.0 0.1302952003
H  H30  1  0.81250000  0.23080000  0.23530000  1.0 0.1214493432
H  H31  1  0.79120000  0.20290000  0.28470000  1.0 0.1214493432
H  H32  1  0.49800000  0.24040000  0.05130000  1.0 0.1302952003
H  H33  1  0.45820000  0.18950000  0.08530000  1.0 0.1214493432
H  H34  1  0.39000000  0.25060000  0.08630000  1.0 0.1027836732
H  H35  1  0.80500000  0.74320000  0.21500000  1.0 0.1302952003
H  H36  1  0.90470000  0.79130000  0.22520000  1.0 0.1111321903
H  H37  1  0.82600000  0.76550000  0.26610000  1.0 0.1111321903
H  H38  1  0.90070000  0.19720000  0.09320000  1.0 0.1302952003
H  H39  1  0.94800000  0.13280000  0.10290000  1.0 0.1302952003
H  H40  1  0.03110000  0.18740000  0.11460000  1.0 0.1214493432
H  H41  1  0.20480000  0.92690000  0.69870000  1.0 0.3895139068
H  H42  1  0.46650000  0.07010000  0.80410000  1.0 0.3540535799
H  H43  1  0.01050000  0.95380000  0.53630000  1.0 0.3690386421
H  H44  1  0.91050000  0.95340000  0.56780000  1.0 0.3690386421
H  H45  1  0.08350000  0.83270000  0.62300000  1.0 0.4098810113
H  H46  1  0.97350000  0.86020000  0.64340000  1.0 0.3895139068
H  H47  1  0.76420000  0.04080000  0.92540000  1.0 0.4180359847
H  H48  1  0.67500000  0.01310000  0.95710000  1.0 0.3958259902
H  H49  1  0.56240000  0.14830000  0.88080000  1.0 0.3266562082
H  H50  1  0.56700000  0.12960000  0.83630000  1.0 0.3011740751
H  H51  1  0.55990000  0.85970000  0.53080000  1.0 0.1414564542
H  H52  1  0.51140000  0.88700000  0.39480000  1.0 0.1302952003
H  H53  1  0.25360000  0.93890000  0.48360000  1.0 0.1214493432
H  H54  1  0.89700000  0.01500000  0.82380000  1.0 0.1214493432
H  H55  1  0.11070000  0.88940000  0.76240000  1.0 0.1414564542
H  H56  1  0.74910000  0.86320000  0.77470000  1.0 0.1302952003
H  H57  1  0.79520000  0.82000000  0.41780000  1.0 0.1302952003
H  H58  1  0.67300000  0.83150000  0.39080000  1.0 0.1214493432
H  H59  1  0.74750000  0.88490000  0.41120000  1.0 0.1302952003
H  H60  1  0.45950000  0.82760000  0.82870000  1.0 0.1414564542
H  H61  1  0.64170000  0.67390000  0.82850000  1.0 0.1414564542
H  H62  1  0.54490000  0.74800000  0.70940000  1.0 0.1302952003
H  H63  1  0.93410000  0.13140000  0.72990000  1.0 0.1302952003
H  H64  1  0.56510000  0.10410000  0.74780000  1.0 0.1214493432
H  H65  1  0.76980000  0.99040000  0.67360000  1.0 0.1214493432
H  H66  1  0.42080000  0.93440000  0.98560000  1.0 0.1302952003
H  H67  1  0.12800000  0.85140000  0.03020000  1.0 0.1480251111
H  H68  1  0.17860000  0.88200000  0.89220000  1.0 0.1414564542
H  H69  1  0.87980000  0.74300000  0.72100000  1.0 0.1302952003
H  H70  1  0.81250000  0.76920000  0.76470000  1.0 0.1214493432
H  H71  1  0.79120000  0.79710000  0.71530000  1.0 0.1214493432
H  H72  1  0.49800000  0.75960000  0.94870000  1.0 0.1302952003
H  H73  1  0.45820000  0.81050000  0.91470000  1.0 0.1214493432
H  H74  1  0.39000000  0.74940000  0.91370000  1.0 0.1027836732
H  H75  1  0.80500000  0.25680000  0.78500000  1.0 0.1302952003
H  H76  1  0.90470000  0.20870000  0.77480000  1.0 0.1111321903
H  H77  1  0.82600000  0.23450000  0.73390000  1.0 0.1111321903
H  H78  1  0.90070000  0.80280000  0.90680000  1.0 0.1302952003
H  H79  1  0.94800000  0.86720000  0.89710000  1.0 0.1302952003
H  H80  1  0.03110000  0.81260000  0.88540000  1.0 0.1214493432
H  H81  1  0.79520000  0.42690000  0.80130000  1.0 0.3895139068
H  H82  1  0.53350000  0.57010000  0.69590000  1.0 0.3540535799
H  H83  1  0.98950000  0.45380000  0.96370000  1.0 0.3690386421
H  H84  1  0.08950000  0.45340000  0.93220000  1.0 0.3690386421
H  H85  1  0.91650000  0.33270000  0.87700000  1.0 0.4098810113
H  H86  1  0.02650000  0.36020000  0.85660000  1.0 0.3895139068
H  H87  1  0.23580000  0.54080000  0.57460000  1.0 0.4180359847
H  H88  1  0.32500000  0.51310000  0.54290000  1.0 0.3958259902
H  H89  1  0.43760000  0.64830000  0.61920000  1.0 0.3266562082
H  H90  1  0.43300000  0.62960000  0.66370000  1.0 0.3011740751
H  H91  1  0.44010000  0.35970000  0.96920000  1.0 0.1414564542
H  H92  1  0.48860000  0.38700000  0.10520000  1.0 0.1302952003
H  H93  1  0.74640000  0.43890000  0.01640000  1.0 0.1214493432
H  H94  1  0.10300000  0.51500000  0.67620000  1.0 0.1214493432
H  H95  1  0.88930000  0.38940000  0.73760000  1.0 0.1414564542
H  H96  1  0.25090000  0.36320000  0.72530000  1.0 0.1302952003
H  H97  1  0.20480000  0.32000000  0.08220000  1.0 0.1302952003
H  H98  1  0.32700000  0.33150000  0.10920000  1.0 0.1214493432
H  H99  1  0.25250000  0.38490000  0.08880000  1.0 0.1302952003
H  H100  1  0.54050000  0.32760000  0.67130000  1.0 0.1414564542
H  H101  1  0.35830000  0.17390000  0.67150000  1.0 0.1414564542
H  H102  1  0.45510000  0.24800000  0.79060000  1.0 0.1302952003
H  H103  1  0.06590000  0.63140000  0.77010000  1.0 0.1302952003
H  H104  1  0.43490000  0.60410000  0.75220000  1.0 0.1214493432
H  H105  1  0.23020000  0.49040000  0.82640000  1.0 0.1214493432
H  H106  1  0.57920000  0.43440000  0.51440000  1.0 0.1302952003
H  H107  1  0.87200000  0.35140000  0.46980000  1.0 0.1480251111
H  H108  1  0.82140000  0.38200000  0.60780000  1.0 0.1414564542
H  H109  1  0.12020000  0.24300000  0.77900000  1.0 0.1302952003
H  H110  1  0.18750000  0.26920000  0.73530000  1.0 0.1214493432
H  H111  1  0.20880000  0.29710000  0.78470000  1.0 0.1214493432
H  H112  1  0.50200000  0.25960000  0.55130000  1.0 0.1302952003
H  H113  1  0.54180000  0.31050000  0.58530000  1.0 0.1214493432
H  H114  1  0.61000000  0.24940000  0.58630000  1.0 0.1027836732
H  H115  1  0.19500000  0.75680000  0.71500000  1.0 0.1302952003
H  H116  1  0.09530000  0.70870000  0.72520000  1.0 0.1111321903
H  H117  1  0.17400000  0.73450000  0.76610000  1.0 0.1111321903
H  H118  1  0.09930000  0.30280000  0.59320000  1.0 0.1302952003
H  H119  1  0.05200000  0.36720000  0.60290000  1.0 0.1302952003
H  H120  1  0.96890000  0.31260000  0.61460000  1.0 0.1214493432
H  H121  1  0.79520000  0.57310000  0.19870000  1.0 0.3895139068
H  H122  1  0.53350000  0.42990000  0.30410000  1.0 0.3540535799
H  H123  1  0.98950000  0.54620000  0.03630000  1.0 0.3690386421
H  H124  1  0.08950000  0.54660000  0.06780000  1.0 0.3690386421
H  H125  1  0.91650000  0.66730000  0.12300000  1.0 0.4098810113
H  H126  1  0.02650000  0.63980000  0.14340000  1.0 0.3895139068
H  H127  1  0.23580000  0.45920000  0.42540000  1.0 0.4180359847
H  H128  1  0.32500000  0.48690000  0.45710000  1.0 0.3958259902
H  H129  1  0.43760000  0.35170000  0.38080000  1.0 0.3266562082
H  H130  1  0.43300000  0.37040000  0.33630000  1.0 0.3011740751
H  H131  1  0.44010000  0.64030000  0.03080000  1.0 0.1414564542
H  H132  1  0.48860000  0.61300000  0.89480000  1.0 0.1214493432
H  H133  1  0.74640000  0.56110000  0.98360000  1.0 0.1214493432
H  H134  1  0.10300000  0.48500000  0.32380000  1.0 0.1214493432
H  H135  1  0.88930000  0.61060000  0.26240000  1.0 0.1414564542
H  H136  1  0.25090000  0.63680000  0.27470000  1.0 0.1302952003
H  H137  1  0.20480000  0.68000000  0.91780000  1.0 0.1302952003
H  H138  1  0.32700000  0.66850000  0.89080000  1.0 0.1214493432
H  H139  1  0.25250000  0.61510000  0.91120000  1.0 0.1302952003
H  H140  1  0.54050000  0.67240000  0.32870000  1.0 0.1414564542
H  H141  1  0.35830000  0.82610000  0.32850000  1.0 0.1414564542
H  H142  1  0.45510000  0.75200000  0.20940000  1.0 0.1302952003
H  H143  1  0.06590000  0.36860000  0.22990000  1.0 0.1302952003
H  H144  1  0.43490000  0.39590000  0.24780000  1.0 0.1214493432
H  H145  1  0.23020000  0.50960000  0.17360000  1.0 0.1214493432
H  H146  1  0.57920000  0.56560000  0.48560000  1.0 0.1302952003
H  H147  1  0.87200000  0.64860000  0.53020000  1.0 0.1480251111
H  H148  1  0.82140000  0.61800000  0.39220000  1.0 0.1414564542
H  H149  1  0.12020000  0.75700000  0.22100000  1.0 0.1302952003
H  H150  1  0.18750000  0.73080000  0.26470000  1.0 0.1214493432
H  H151  1  0.20880000  0.70290000  0.21530000  1.0 0.1214493432
H  H152  1  0.50200000  0.74040000  0.44870000  1.0 0.1302952003
H  H153  1  0.54180000  0.68950000  0.41470000  1.0 0.1214493432
H  H154  1  0.61000000  0.75060000  0.41370000  1.0 0.1027836732
H  H155  1  0.19500000  0.24320000  0.28500000  1.0 0.1302952003
H  H156  1  0.09530000  0.29130000  0.27480000  1.0 0.1111321903
H  H157  1  0.17400000  0.26550000  0.23390000  1.0 0.1111321903
H  H158  1  0.09930000  0.69720000  0.40680000  1.0 0.1302952003
H  H159  1  0.05200000  0.63280000  0.39710000  1.0 0.1302952003
H  H160  1  0.96890000  0.68740000  0.38540000  1.0 0.1214493432
C  C1  1  0.39800000  0.10290000  0.48620000  1.0 0.0035267218
C  C2  1  0.51210000  0.12590000  0.49350000  1.0 -0.1944735341
C  C3  1  0.55200000  0.12700000  0.53970000  1.0 0.1929091967
C  C4  1  0.48400000  0.10850000  0.57470000  1.0 -0.1976013815
C  C5  1  0.36950000  0.08260000  0.56640000  1.0 -0.021969485
C  C6  1  0.32800000  0.07910000  0.52260000  1.0 -0.1313730012
C  C7  1  0.35400000  0.09560000  0.43630000  1.0 0.5923097327
C  C8  1  0.68220000  0.03370000  0.18290000  1.0 0.5923097327
C  C9  1  0.80550000  0.05500000  0.19820000  1.0 -0.0133277864
C  C10  1  0.90590000  0.02140000  0.19110000  1.0 -0.1313730012
C  C11  1  0.03310000  0.04040000  0.20660000  1.0 -0.0870220952
C  C12  1  0.03510000  0.09560000  0.22850000  1.0 -0.2072862995
C  C13  1  0.93400000  0.12890000  0.23760000  1.0 0.2584905408
C  C14  1  0.81600000  0.11220000  0.22130000  1.0 -0.2606510194
C  C15  1  0.72400000  0.15600000  0.58380000  1.0 -0.1583440744
C  C16  1  0.29790000  0.05750000  0.60490000  1.0 0.5970647342
C  C17  1  0.43000000  0.15550000  0.26210000  1.0 0.581699079
C  C18  1  0.49370000  0.20370000  0.23540000  1.0 0.0035267218
C  C19  1  0.49400000  0.20410000  0.18730000  1.0 -0.2196758842
C  C20  1  0.54300000  0.24940000  0.16260000  1.0 0.2497410036
C  C21  1  0.60300000  0.29560000  0.18750000  1.0 -0.2072862995
C  C22  1  0.60270000  0.29490000  0.23420000  1.0 -0.0254719008
C  C23  1  0.54700000  0.25060000  0.25820000  1.0 -0.1367757388
C  C24  1  0.98960000  0.96760000  0.31150000  1.0 0.5923097327
C  C25  1  0.86990000  0.94470000  0.29700000  1.0 -0.0254719008
C  C26  1  0.86460000  0.89210000  0.27280000  1.0 -0.2500705451
C  C27  1  0.75500000  0.87400000  0.25210000  1.0 0.2762168653
C  C28  1  0.64070000  0.90880000  0.26300000  1.0 -0.2196758842
C  C29  1  0.64990000  0.96080000  0.28940000  1.0 -0.0133277864
C  C30  1  0.76410000  0.97660000  0.30720000  1.0 -0.1507532838
C  C31  1  0.66800000  0.34100000  0.26110000  1.0 0.5649559058
C  C32  1  0.13190000  0.00680000  0.20120000  1.0 0.5120309151
C  C33  1  0.53820000  0.99570000  0.29530000  1.0 0.5923097327
C  C34  1  0.37920000  0.05980000  0.10560000  1.0 0.581699079
C  C35  1  0.30190000  0.08640000  0.06590000  1.0 0.0124376656
C  C36  1  0.34500000  0.08270000  0.02020000  1.0 -0.1723893278
C  C37  1  0.27590000  0.10410000  0.98360000  1.0 0.0124376656
C  C38  1  0.17200000  0.13150000  0.99420000  1.0 -0.2196758842
C  C39  1  0.12000000  0.13670000  0.04140000  1.0 0.3011740751
C  C40  1  0.20000000  0.11360000  0.07660000  1.0 -0.2261571281
C  C41  1  0.32200000  0.09990000  0.93390000  1.0 0.581699079
C  C42  1  0.85000000  0.22130000  0.26500000  1.0 -0.2427210745
C  C43  1  0.46800000  0.23160000  0.08190000  1.0 -0.2427210745
C  C44  1  0.82500000  0.77690000  0.23400000  1.0 -0.2500705451
C  C45  1  0.97100000  0.17200000  0.09330000  1.0 -0.2606510194
C  C46  1  0.39800000  0.89710000  0.51380000  1.0 0.0035267218
C  C47  1  0.51210000  0.87410000  0.50650000  1.0 -0.1976013815
C  C48  1  0.55200000  0.87300000  0.46030000  1.0 0.1929091967
C  C49  1  0.48400000  0.89150000  0.42530000  1.0 -0.1976013815
C  C50  1  0.36950000  0.91740000  0.43360000  1.0 -0.021969485
C  C51  1  0.32800000  0.92090000  0.47740000  1.0 -0.1313730012
C  C52  1  0.35400000  0.90440000  0.56370000  1.0 0.5923097327
C  C53  1  0.68220000  0.96630000  0.81710000  1.0 0.5923097327
C  C54  1  0.80550000  0.94500000  0.80180000  1.0 -0.0133277864
C  C55  1  0.90590000  0.97860000  0.80890000  1.0 -0.1313730012
C  C56  1  0.03310000  0.95960000  0.79340000  1.0 -0.0870220952
C  C57  1  0.03510000  0.90440000  0.77150000  1.0 -0.2072862995
C  C58  1  0.93400000  0.87110000  0.76240000  1.0 0.2584905408
C  C59  1  0.81600000  0.88780000  0.77870000  1.0 -0.2606510194
C  C60  1  0.72400000  0.84400000  0.41620000  1.0 -0.1583440744
C  C61  1  0.29790000  0.94250000  0.39510000  1.0 0.5970647342
C  C62  1  0.43000000  0.84450000  0.73790000  1.0 0.581699079
C  C63  1  0.49370000  0.79630000  0.76460000  1.0 0.0035267218
C  C64  1  0.49400000  0.79590000  0.81270000  1.0 -0.2196758842
C  C65  1  0.54300000  0.75060000  0.83740000  1.0 0.2497410036
C  C66  1  0.60300000  0.70440000  0.81250000  1.0 -0.2072862995
C  C67  1  0.60270000  0.70510000  0.76580000  1.0 -0.0254719008
C  C68  1  0.54700000  0.74940000  0.74180000  1.0 -0.1367757388
C  C69  1  0.98960000  0.03240000  0.68850000  1.0 0.5923097327
C  C70  1  0.86990000  0.05530000  0.70300000  1.0 -0.0254719008
C  C71  1  0.86460000  0.10790000  0.72720000  1.0 -0.2500705451
C  C72  1  0.75500000  0.12600000  0.74790000  1.0 0.2762168653
C  C73  1  0.64070000  0.09120000  0.73700000  1.0 -0.2196758842
C  C74  1  0.64990000  0.03920000  0.71060000  1.0 -0.0133277864
C  C75  1  0.76410000  0.02340000  0.69280000  1.0 -0.1507532838
C  C76  1  0.66800000  0.65900000  0.73890000  1.0 0.5655158914
C  C77  1  0.13190000  0.99320000  0.79880000  1.0 0.5120309151
C  C78  1  0.53820000  0.00430000  0.70470000  1.0 0.5923097327
C  C79  1  0.37920000  0.94020000  0.89440000  1.0 0.581699079
C  C80  1  0.30190000  0.91360000  0.93410000  1.0 0.0124376656
C  C81  1  0.34500000  0.91730000  0.97980000  1.0 -0.1723893278
C  C82  1  0.27590000  0.89590000  0.01640000  1.0 0.0124376656
C  C83  1  0.17200000  0.86850000  0.00580000  1.0 -0.2196758842
C  C84  1  0.12000000  0.86330000  0.95860000  1.0 0.3011740751
C  C85  1  0.20000000  0.88640000  0.92340000  1.0 -0.2261571281
C  C86  1  0.32200000  0.90010000  0.06610000  1.0 0.581699079
C  C87  1  0.85000000  0.77870000  0.73500000  1.0 -0.2427210745
C  C88  1  0.46800000  0.76840000  0.91810000  1.0 -0.2427210745
C  C89  1  0.82500000  0.22310000  0.76600000  1.0 -0.2500705451
C  C90  1  0.97100000  0.82800000  0.90670000  1.0 -0.2606510194
C  C91  1  0.60200000  0.39710000  0.98620000  1.0 0.0035267218
C  C92  1  0.48790000  0.37410000  0.99350000  1.0 -0.1976013815
C  C93  1  0.44800000  0.37300000  0.03970000  1.0 0.1929091967
C  C94  1  0.51600000  0.39150000  0.07470000  1.0 -0.1976013815
C  C95  1  0.63050000  0.41740000  0.06640000  1.0 -0.021969485
C  C96  1  0.67200000  0.42090000  0.02260000  1.0 -0.1313730012
C  C97  1  0.64600000  0.40440000  0.93630000  1.0 0.5923097327
C  C98  1  0.31780000  0.46630000  0.68290000  1.0 0.5923097327
C  C99  1  0.19450000  0.44500000  0.69820000  1.0 -0.0133277864
C  C100  1  0.09410000  0.47860000  0.69110000  1.0 -0.1313730012
C  C101  1  0.96690000  0.45960000  0.70660000  1.0 -0.0870220952
C  C102  1  0.96490000  0.40440000  0.72850000  1.0 -0.2072862995
C  C103  1  0.06600000  0.37110000  0.73760000  1.0 0.2584905408
C  C104  1  0.18400000  0.38780000  0.72130000  1.0 -0.2606510194
C  C105  1  0.27600000  0.34400000  0.08380000  1.0 -0.1583440744
C  C106  1  0.70210000  0.44250000  0.10490000  1.0 0.5970647342
C  C107  1  0.57000000  0.34450000  0.76210000  1.0 0.581699079
C  C108  1  0.50630000  0.29630000  0.73540000  1.0 0.0035267218
C  C109  1  0.50600000  0.29590000  0.68730000  1.0 -0.2196758842
C  C110  1  0.45700000  0.25060000  0.66260000  1.0 0.2497410036
C  C111  1  0.39700000  0.20440000  0.68750000  1.0 -0.2072862995
C  C112  1  0.39730000  0.20510000  0.73420000  1.0 -0.0254719008
C  C113  1  0.45300000  0.24940000  0.75820000  1.0 -0.1367757388
C  C114  1  0.01040000  0.53240000  0.81150000  1.0 0.5923097327
C  C115  1  0.13010000  0.55530000  0.79700000  1.0 -0.021969485
C  C116  1  0.13540000  0.60790000  0.77280000  1.0 -0.2500705451
C  C117  1  0.24500000  0.62600000  0.75210000  1.0 0.2762168653
C  C118  1  0.35930000  0.59120000  0.76300000  1.0 -0.2196758842
C  C119  1  0.35010000  0.53920000  0.78940000  1.0 -0.0133277864
C  C120  1  0.23590000  0.52340000  0.80720000  1.0 -0.1507532838
C  C121  1  0.33200000  0.15900000  0.76110000  1.0 0.5649559058
C  C122  1  0.86810000  0.49320000  0.70120000  1.0 0.5120309151
C  C123  1  0.46180000  0.50430000  0.79530000  1.0 0.5923097327
C  C124  1  0.62080000  0.44020000  0.60560000  1.0 0.581699079
C  C125  1  0.69810000  0.41360000  0.56590000  1.0 0.0124376656
C  C126  1  0.65500000  0.41730000  0.52020000  1.0 -0.1723893278
C  C127  1  0.72410000  0.39590000  0.48360000  1.0 0.0124376656
C  C128  1  0.82800000  0.36850000  0.49420000  1.0 -0.2196758842
C  C129  1  0.88000000  0.36330000  0.54140000  1.0 0.3011740751
C  C130  1  0.80000000  0.38640000  0.57660000  1.0 -0.2261571281
C  C131  1  0.67800000  0.40010000  0.43390000  1.0 0.581699079
C  C132  1  0.15000000  0.27870000  0.76500000  1.0 -0.2427210745
C  C133  1  0.53200000  0.26840000  0.58190000  1.0 -0.2427210745
C  C134  1  0.17500000  0.72310000  0.73400000  1.0 -0.2500705451
C  C135  1  0.02900000  0.32800000  0.59330000  1.0 -0.2606510194
C  C136  1  0.60200000  0.60290000  0.01380000  1.0 0.0035267218
C  C137  1  0.48790000  0.62590000  0.00650000  1.0 -0.1976013815
C  C138  1  0.44800000  0.62700000  0.96030000  1.0 0.1929091967
C  C139  1  0.51600000  0.60850000  0.92530000  1.0 -0.1976013815
C  C140  1  0.63050000  0.58260000  0.93360000  1.0 -0.021969485
C  C141  1  0.67200000  0.57910000  0.97740000  1.0 -0.1313730012
C  C142  1  0.64600000  0.59560000  0.06370000  1.0 0.5923097327
C  C143  1  0.31780000  0.53370000  0.31710000  1.0 0.5923097327
C  C144  1  0.19450000  0.55500000  0.30180000  1.0 -0.0133277864
C  C145  1  0.09410000  0.52140000  0.30890000  1.0 -0.1313730012
C  C146  1  0.96690000  0.54040000  0.29340000  1.0 -0.0870220952
C  C147  1  0.96490000  0.59560000  0.27150000  1.0 -0.2072862995
C  C148  1  0.06600000  0.62890000  0.26240000  1.0 0.2584905408
C  C149  1  0.18400000  0.61220000  0.27870000  1.0 -0.2651572071
C  C150  1  0.27600000  0.65600000  0.91620000  1.0 -0.1583440744
C  C151  1  0.70210000  0.55750000  0.89510000  1.0 0.5970647342
C  C152  1  0.57000000  0.65550000  0.23790000  1.0 0.581699079
C  C153  1  0.50630000  0.70370000  0.26460000  1.0 0.0035267218
C  C154  1  0.50600000  0.70410000  0.31270000  1.0 -0.2196758842
C  C155  1  0.45700000  0.74940000  0.33740000  1.0 0.2497410036
C  C156  1  0.39700000  0.79560000  0.31250000  1.0 -0.2072862995
C  C157  1  0.39730000  0.79490000  0.26580000  1.0 -0.0254719008
C  C158  1  0.45300000  0.75060000  0.24180000  1.0 -0.1367757388
C  C159  1  0.01040000  0.46760000  0.18850000  1.0 0.5923097327
C  C160  1  0.13010000  0.44470000  0.20300000  1.0 -0.0254719008
C  C161  1  0.13540000  0.39210000  0.22720000  1.0 -0.2500705451
C  C162  1  0.24500000  0.37400000  0.24790000  1.0 0.2762168653
C  C163  1  0.35930000  0.40880000  0.23700000  1.0 -0.2196758842
C  C164  1  0.35010000  0.46080000  0.21060000  1.0 -0.0133277864
C  C165  1  0.23590000  0.47660000  0.19280000  1.0 -0.1507532838
C  C166  1  0.33200000  0.84100000  0.23890000  1.0 0.5649559058
C  C167  1  0.86810000  0.50680000  0.29880000  1.0 0.5120309151
C  C168  1  0.46180000  0.49570000  0.20470000  1.0 0.5923097327
C  C169  1  0.62080000  0.55980000  0.39440000  1.0 0.581699079
C  C170  1  0.69810000  0.58640000  0.43410000  1.0 0.0124376656
C  C171  1  0.65500000  0.58270000  0.47980000  1.0 -0.1723893278
C  C172  1  0.72410000  0.60410000  0.51640000  1.0 0.0124376656
C  C173  1  0.82800000  0.63150000  0.50580000  1.0 -0.2196758842
C  C174  1  0.88000000  0.63670000  0.45860000  1.0 0.3011740751
C  C175  1  0.80000000  0.61360000  0.42340000  1.0 -0.2261571281
C  C176  1  0.67800000  0.59990000  0.56610000  1.0 0.581699079
C  C177  1  0.15000000  0.72130000  0.23500000  1.0 -0.2427210745
C  C178  1  0.53200000  0.73160000  0.41810000  1.0 -0.2427210745
C  C179  1  0.17500000  0.27690000  0.26600000  1.0 -0.2500705451
C  C180  1  0.02900000  0.67200000  0.40670000  1.0 -0.2606510194
O  O1  1  0.23830000  0.09030000  0.42880000  1.0 -0.6301061702
O  O2  1  0.24390000  0.04810000  0.32490000  1.0 -0.9154679023
O  O3  1  0.44760000  0.98510000  0.26950000  1.0 -0.6301061702
O  O4  1  0.42300000  0.95350000  0.17250000  1.0 -0.9355282925
O  O5  1  0.68230000  0.99080000  0.15580000  1.0 -0.5769854405
O  O6  1  0.66490000  0.15940000  0.54630000  1.0 -0.1152330555
O  O7  1  0.19790000  0.03140000  0.59520000  1.0 -0.5920454033
O  O8  1  0.43480000  0.09990000  0.40480000  1.0 -0.5424434387
O  O9  1  0.43080000  0.16120000  0.30720000  1.0 -0.5601340376
O  O10  1  0.99010000  0.01150000  0.34080000  1.0 -0.6207970821
O  O11  1  0.99760000  0.04470000  0.43410000  1.0 -0.7028837793
O  O12  1  0.06200000  0.13380000  0.35710000  1.0 -0.7252345327
O  O13  1  0.33920000  0.06370000  0.64610000  1.0 -0.571449443
O  O14  1  0.08590000  0.94160000  0.29970000  1.0 -0.5500201837
O  O15  1  0.71150000  0.38630000  0.24220000  1.0 -0.5500201837
O  O16  1  0.67610000  0.33540000  0.30670000  1.0 -0.5920454033
O  O17  1  0.12950000  0.96180000  0.17170000  1.0 -0.5500201837
O  O18  1  0.22590000  0.01200000  0.22820000  1.0 -0.6301061702
O  O19  1  0.54430000  0.03430000  0.32670000  1.0 -0.5199085765
O  O20  1  0.34420000  0.07000000  0.14590000  1.0 -0.5322684862
O  O21  1  0.58930000  0.05800000  0.20240000  1.0 -0.571449443
O  O22  1  0.38150000  0.11210000  0.24360000  1.0 -0.5500201837
O  O23  1  0.42720000  0.09220000  0.92780000  1.0 -0.5199085765
O  O24  1  0.24370000  0.10490000  0.90150000  1.0 -0.5322684862
O  O25  1  0.67910000  0.95390000  0.06480000  1.0 -0.7174796663
O  O26  1  0.47440000  0.03390000  0.09450000  1.0 -0.5769854405
O  O27  1  0.60870000  0.86900000  0.13870000  1.0 -0.6357115947
O  O28  1  0.94940000  0.18180000  0.25710000  1.0 -0.1507532838
O  O29  1  0.55300000  0.25310000  0.11640000  1.0 -0.1313730012
O  O30  1  0.73220000  0.82480000  0.22650000  1.0 -0.1507532838
O  O31  1  0.02300000  0.16960000  0.04660000  1.0 -0.1367757388
O  O32  1  0.23830000  0.90970000  0.57120000  1.0 -0.6301061702
O  O33  1  0.24390000  0.95190000  0.67510000  1.0 -0.9154679023
O  O34  1  0.44760000  0.01490000  0.73050000  1.0 -0.6301061702
O  O35  1  0.42300000  0.04650000  0.82750000  1.0 -0.9355282925
O  O36  1  0.68230000  0.00920000  0.84420000  1.0 -0.5769854405
O  O37  1  0.66490000  0.84060000  0.45370000  1.0 -0.1152330555
O  O38  1  0.19790000  0.96860000  0.40480000  1.0 -0.5920454033
O  O39  1  0.43480000  0.90010000  0.59520000  1.0 -0.5424434387
O  O40  1  0.43080000  0.83880000  0.69280000  1.0 -0.5601340376
O  O41  1  0.99010000  0.98850000  0.65920000  1.0 -0.6207970821
O  O42  1  0.99760000  0.95530000  0.56590000  1.0 -0.7028837793
O  O43  1  0.06200000  0.86620000  0.64290000  1.0 -0.7252345327
O  O44  1  0.33920000  0.93630000  0.35390000  1.0 -0.571449443
O  O45  1  0.08590000  0.05840000  0.70030000  1.0 -0.5500201837
O  O46  1  0.71150000  0.61370000  0.75780000  1.0 -0.5500201837
O  O47  1  0.67610000  0.66460000  0.69330000  1.0 -0.5920454033
O  O48  1  0.12950000  0.03820000  0.82830000  1.0 -0.5500201837
O  O49  1  0.22590000  0.98800000  0.77180000  1.0 -0.6301061702
O  O50  1  0.54430000  0.96570000  0.67330000  1.0 -0.5199085765
O  O51  1  0.34420000  0.93000000  0.85410000  1.0 -0.5322684862
O  O52  1  0.58930000  0.94200000  0.79760000  1.0 -0.571449443
O  O53  1  0.38150000  0.88790000  0.75640000  1.0 -0.5500201837
O  O54  1  0.42720000  0.90780000  0.07220000  1.0 -0.5199085765
O  O55  1  0.24370000  0.89510000  0.09850000  1.0 -0.5322684862
O  O56  1  0.67910000  0.04610000  0.93520000  1.0 -0.7174796663
O  O57  1  0.47440000  0.96610000  0.90550000  1.0 -0.5769854405
O  O58  1  0.60870000  0.13100000  0.86130000  1.0 -0.6357115947
O  O59  1  0.94940000  0.81820000  0.74290000  1.0 -0.1507532838
O  O60  1  0.55300000  0.74690000  0.88360000  1.0 -0.1313730012
O  O61  1  0.73220000  0.17520000  0.77350000  1.0 -0.1507532838
O  O62  1  0.02300000  0.83040000  0.95340000  1.0 -0.1367757388
O  O63  1  0.76170000  0.40970000  0.92880000  1.0 -0.6301061702
O  O64  1  0.75610000  0.45190000  0.82490000  1.0 -0.9154679023
O  O65  1  0.55240000  0.51490000  0.76950000  1.0 -0.6301061702
O  O66  1  0.57700000  0.54650000  0.67250000  1.0 -0.9355282925
O  O67  1  0.31770000  0.50920000  0.65580000  1.0 -0.5769854405
O  O68  1  0.33510000  0.34060000  0.04630000  1.0 -0.1152330555
O  O69  1  0.80210000  0.46860000  0.09520000  1.0 -0.5920454033
O  O70  1  0.56520000  0.40010000  0.90480000  1.0 -0.5424434387
O  O71  1  0.56920000  0.33880000  0.80720000  1.0 -0.5601340376
O  O72  1  0.00990000  0.48850000  0.84080000  1.0 -0.6207970821
O  O73  1  0.00240000  0.45530000  0.93410000  1.0 -0.7028837793
O  O74  1  0.93800000  0.36620000  0.85710000  1.0 -0.7174796663
O  O75  1  0.66080000  0.43630000  0.14610000  1.0 -0.571449443
O  O76  1  0.91410000  0.55840000  0.79970000  1.0 -0.5500201837
O  O77  1  0.28850000  0.11370000  0.74220000  1.0 -0.5500201837
O  O78  1  0.32390000  0.16460000  0.80670000  1.0 -0.5920454033
O  O79  1  0.87050000  0.53820000  0.67170000  1.0 -0.5500201837
O  O80  1  0.77410000  0.48800000  0.72820000  1.0 -0.6301061702
O  O81  1  0.45570000  0.46570000  0.82670000  1.0 -0.5199085765
O  O82  1  0.65580000  0.43000000  0.64590000  1.0 -0.5322684862
O  O83  1  0.41070000  0.44200000  0.70240000  1.0 -0.571449443
O  O84  1  0.61850000  0.38790000  0.74360000  1.0 -0.5500201837
O  O85  1  0.57280000  0.40780000  0.42780000  1.0 -0.5199085765
O  O86  1  0.75630000  0.39510000  0.40150000  1.0 -0.5322684862
O  O87  1  0.32090000  0.54610000  0.56480000  1.0 -0.7174796663
O  O88  1  0.52560000  0.46610000  0.59450000  1.0 -0.5769854405
O  O89  1  0.39130000  0.63100000  0.63870000  1.0 -0.6357115947
O  O90  1  0.05060000  0.31820000  0.75710000  1.0 -0.1507532838
O  O91  1  0.44700000  0.24690000  0.61640000  1.0 -0.1313730012
O  O92  1  0.26780000  0.67520000  0.72650000  1.0 -0.1507532838
O  O93  1  0.97700000  0.33040000  0.54660000  1.0 -0.1367757388
O  O94  1  0.76170000  0.59030000  0.07120000  1.0 -0.6301061702
O  O95  1  0.75610000  0.54810000  0.17510000  1.0 -0.9154679023
O  O96  1  0.55240000  0.48510000  0.23050000  1.0 -0.6301061702
O  O97  1  0.57700000  0.45350000  0.32750000  1.0 -0.9355282925
O  O98  1  0.31770000  0.49080000  0.34420000  1.0 -0.5769854405
O  O99  1  0.33510000  0.65940000  0.95370000  1.0 -0.1142835014
O  O100  1  0.80210000  0.53140000  0.90480000  1.0 -0.5920454033
O  O101  1  0.56520000  0.59990000  0.09520000  1.0 -0.5424434387
O  O102  1  0.56920000  0.66120000  0.19280000  1.0 -0.5601340376
O  O103  1  0.00990000  0.51150000  0.15920000  1.0 -0.6207970821
O  O104  1  0.00240000  0.54470000  0.06590000  1.0 -0.7028837793
O  O105  1  0.93800000  0.63380000  0.14290000  1.0 -0.7252345327
O  O106  1  0.66080000  0.56370000  0.85390000  1.0 -0.571449443
O  O107  1  0.91410000  0.44160000  0.20030000  1.0 -0.5500201837
O  O108  1  0.28850000  0.88630000  0.25780000  1.0 -0.5500201837
O  O109  1  0.32390000  0.83540000  0.19330000  1.0 -0.5920454033
O  O110  1  0.87050000  0.46180000  0.32830000  1.0 -0.5500201837
O  O111  1  0.77410000  0.51200000  0.27180000  1.0 -0.6301061702
O  O112  1  0.45570000  0.53430000  0.17330000  1.0 -0.5199085765
O  O113  1  0.65580000  0.57000000  0.35410000  1.0 -0.5322684862
O  O114  1  0.41070000  0.55800000  0.29760000  1.0 -0.571449443
O  O115  1  0.61850000  0.61210000  0.25640000  1.0 -0.5500201837
O  O116  1  0.57280000  0.59220000  0.57220000  1.0 -0.5199085765
O  O117  1  0.75630000  0.60490000  0.59850000  1.0 -0.5322684862
O  O118  1  0.32090000  0.45390000  0.43520000  1.0 -0.7174796663
O  O119  1  0.52560000  0.53390000  0.40550000  1.0 -0.5769854405
O  O120  1  0.39130000  0.36900000  0.36130000  1.0 -0.6357115947
O  O121  1  0.05060000  0.68180000  0.24290000  1.0 -0.1507532838
O  O122  1  0.44700000  0.75310000  0.38360000  1.0 -0.1313730012
O  O123  1  0.26780000  0.32480000  0.27350000  1.0 -0.1507532838
O  O124  1  0.97700000  0.66960000  0.45340000  1.0 -0.1367757388
