# DDEC6 charges by PACMAN v1.1 (https://github.com/mtap-research/PACMAN-charge/)
data_SARTIR_FSR_pacman
_symmetry_space_group_name_H-M   'P 1'
_cell_length_a   9.61160000
_cell_length_b   11.25420000
_cell_length_c   12.55650000
_cell_angle_alpha   103.50200000
_cell_angle_beta   94.52980000
_cell_angle_gamma   98.32720000
_symmetry_Int_Tables_number   1
_chemical_formula_structural   NiH12C15NO4
_chemical_formula_sum   'Ni2 H24 C30 N2 O8'
_cell_volume   1297.77285791
_cell_formula_units_Z   2
loop_
 _symmetry_equiv_pos_site_id
 _symmetry_equiv_pos_as_xyz
  1  'x, y, z'
loop_
 _atom_site_type_symbol
 _atom_site_label
 _atom_site_symmetry_multiplicity
 _atom_site_fract_x
 _atom_site_fract_y
 _atom_site_fract_z
 _atom_site_occupancy
 _atom_site_charge
Ni  Ni1  1  0.19479000  0.30318000  0.41321000  1.0 0.6826130394
Ni  Ni2  1  0.90232000  0.32040000  0.40886000  1.0 0.5783204678
H  H1  1  0.26902000  0.32702000  0.07911000  1.0 0.1084565415
H  H2  1  0.34696000  0.29209000  0.89307000  1.0 0.1084565415
H  H3  1  0.82526000  0.34739000  0.12854000  1.0 0.0997705542
H  H4  1  0.85769000  0.31606000  0.75387000  1.0 0.0997705542
H  H5  1  0.77440000  0.32719000  0.93536000  1.0 0.0997705542
H  H6  1  0.29656000  0.27506000  0.70161000  1.0 0.0997705542
H  H7  1  0.90220000  0.63192000  0.53097000  1.0 0.0808263328
H  H8  1  0.76418000  0.79157000  0.51793000  1.0 0.0808263328
H  H9  1  0.32705000  0.64502000  0.41167000  1.0 0.0997705542
H  H10  1  0.16538000  0.00625000  0.32917000  1.0 0.0997705542
H  H11  1  0.30690000  0.84556000  0.34443000  1.0 0.0808263328
H  H12  1  0.73930000  0.98845000  0.44463000  1.0 0.0856094342
H  H13  1  0.43175000  0.36886000  0.63328000  1.0 0.0696901188
H  H14  1  0.45701000  0.47402000  0.53559000  1.0 0.1084565415
H  H15  1  0.38661000  0.08927000  0.38449000  1.0 0.0696901188
H  H16  1  0.38577000  0.13345000  0.53287000  1.0 0.0696901188
H  H17  1  0.44407000  0.42326000  0.35747000  1.0 0.0808263328
H  H18  1  0.42357000  0.25509000  0.28623000  1.0 0.0997705542
H  H19  1  0.68880000  0.49294000  0.57089000  1.0 0.0486777555
H  H20  1  0.65930000  0.36301000  0.64425000  1.0 0.0696901188
H  H21  1  0.62625000  0.15151000  0.55002000  1.0 0.0696901188
H  H22  1  0.62178000  0.10410000  0.40256000  1.0 0.0696901188
H  H23  1  0.66037000  0.27393000  0.29993000  1.0 0.0808263328
H  H24  1  0.68142000  0.44089000  0.37511000  1.0 0.0352666844
C  C1  1  0.46677000  0.38180000  0.55339000  1.0 -0.0862474703
C  C2  1  0.43340000  0.16415000  0.46010000  1.0 -0.0409595873
C  C3  1  0.46781000  0.32733000  0.36389000  1.0 -0.0799016338
C  C4  1  0.07968000  0.34963000  0.23488000  1.0 0.536694074
C  C5  1  0.05138000  0.33694000  0.11824000  1.0 -0.05416153
C  C6  1  0.16209000  0.32916000  0.04763000  1.0 -0.158068141
C  C7  1  0.13238000  0.31466000  0.93603000  1.0 0.0808263328
C  C8  1  0.24012000  0.29752000  0.86439000  1.0 -0.1479538983
C  C9  1  0.91225000  0.33924000  0.07635000  1.0 -0.0862474703
C  C10  1  0.12087000  0.50515000  0.49236000  1.0 0.3967437688
C  C11  1  0.10799000  0.62931000  0.46272000  1.0 0.0105809197
C  C12  1  0.98952000  0.68058000  0.48637000  1.0 -0.1479538983
C  C13  1  0.97820000  0.78859000  0.45620000  1.0 0.0808263328
C  C14  1  0.85292000  0.83898000  0.47371000  1.0 -0.1208381212
C  C15  1  0.22655000  0.68797000  0.41929000  1.0 -0.1208381212
C  C16  1  0.63141000  0.39080000  0.56630000  1.0 -0.0409595873
C  C17  1  0.59573000  0.17784000  0.47192000  1.0 -0.0696777087
C  C18  1  0.62905000  0.33822000  0.37350000  1.0 -0.0696777087
C  C19  1  0.04847000  0.28038000  0.59694000  1.0 0.5272955541
C  C20  1  0.07406000  0.29556000  0.71355000  1.0 -0.05416153
C  C21  1  0.96388000  0.30887000  0.78443000  1.0 -0.158068141
C  C22  1  0.99211000  0.31711000  0.89517000  1.0 0.0808263328
C  C23  1  0.88320000  0.32954000  0.96609000  1.0 -0.1479538983
C  C24  1  0.21105000  0.28732000  0.75451000  1.0 -0.0862474703
C  C25  1  0.96073000  0.12856000  0.36355000  1.0 0.4344690684
C  C26  1  0.95523000  0.99922000  0.38907000  1.0 0.0105809197
C  C27  1  0.07774000  0.95509000  0.37197000  1.0 -0.1424056645
C  C28  1  0.09364000  0.84869000  0.40693000  1.0 0.0856094342
C  C29  1  0.21616000  0.79790000  0.38686000  1.0 -0.1301501487
C  C30  1  0.83939000  0.94490000  0.43713000  1.0 -0.1208381212
N  N1  1  0.39648000  0.28860000  0.45222000  1.0 -0.0862474703
N  N2  1  0.68266000  0.30244000  0.47169000  1.0 -0.1301501487
O  O1  1  0.19808000  0.33257000  0.27708000  1.0 -0.451770043
O  O2  1  0.96844000  0.35424000  0.28951000  1.0 -0.4847699162
O  O3  1  0.99837000  0.45226000  0.51095000  1.0 -0.3285040017
O  O4  1  0.85656000  0.17949000  0.36839000  1.0 -0.3230460044
O  O5  1  0.93205000  0.30007000  0.55543000  1.0 -0.3524899241
O  O6  1  0.15854000  0.27147000  0.54149000  1.0 -0.4665655848
O  O7  1  0.08612000  0.17004000  0.34005000  1.0 -0.4416999873
O  O8  1  0.22787000  0.43930000  0.48854000  1.0 -0.3924230691
