# DDEC6 charges by PACMAN v1.1 (https://github.com/mtap-research/PACMAN-charge/)
data_SATCIB_FSR_pacman
_symmetry_space_group_name_H-M   'P 1'
_cell_length_a   19.42560000
_cell_length_b   21.19490000
_cell_length_c   26.64680000
_cell_angle_alpha   90.00000000
_cell_angle_beta   90.00000000
_cell_angle_gamma   90.00000000
_symmetry_Int_Tables_number   1
_chemical_formula_structural   Cu4H24WC36S4IN12
_chemical_formula_sum   'Cu32 H192 W8 C288 S32 I8 N96'
_cell_volume   10971.11774190
_cell_formula_units_Z   8
loop_
 _symmetry_equiv_pos_site_id
 _symmetry_equiv_pos_as_xyz
  1  'x, y, z'
loop_
 _atom_site_type_symbol
 _atom_site_label
 _atom_site_symmetry_multiplicity
 _atom_site_fract_x
 _atom_site_fract_y
 _atom_site_fract_z
 _atom_site_occupancy
 _atom_site_charge
Cu  Cu1  1  0.17049000  0.42581000  0.19802000  1.0 0.2948583598
Cu  Cu2  1  0.32951000  0.57419000  0.69802000  1.0 0.2948583598
Cu  Cu3  1  0.82951000  0.92581000  0.30198000  1.0 0.2948583598
Cu  Cu4  1  0.67049000  0.07419000  0.80198000  1.0 0.2948583598
Cu  Cu5  1  0.27309000  0.72226000  0.62839000  1.0 0.2744540508
Cu  Cu6  1  0.22691000  0.27774000  0.12839000  1.0 0.2744540508
Cu  Cu7  1  0.72691000  0.22226000  0.87161000  1.0 0.2781008765
Cu  Cu8  1  0.77309000  0.77774000  0.37161000  1.0 0.2781008765
Cu  Cu9  1  0.68015000  0.82651000  0.25381000  1.0 0.2781008765
Cu  Cu10  1  0.81985000  0.17349000  0.75381000  1.0 0.2781008765
Cu  Cu11  1  0.31985000  0.32651000  0.24619000  1.0 0.2781008765
Cu  Cu12  1  0.18015000  0.67349000  0.74619000  1.0 0.2781008765
Cu  Cu13  1  0.16168000  0.33465000  0.31602000  1.0 0.2315717164
Cu  Cu14  1  0.33832000  0.66535000  0.81602000  1.0 0.2315717164
Cu  Cu15  1  0.83832000  0.83465000  0.18398000  1.0 0.2315717164
Cu  Cu16  1  0.66168000  0.16535000  0.68398000  1.0 0.2315717164
Cu  Cu17  1  0.82951000  0.57419000  0.80198000  1.0 0.2948583598
Cu  Cu18  1  0.67049000  0.42581000  0.30198000  1.0 0.2948583598
Cu  Cu19  1  0.17049000  0.07419000  0.69802000  1.0 0.2948583598
Cu  Cu20  1  0.32951000  0.92581000  0.19802000  1.0 0.2948583598
Cu  Cu21  1  0.72691000  0.27774000  0.37161000  1.0 0.2781008765
Cu  Cu22  1  0.77309000  0.72226000  0.87161000  1.0 0.2781008765
Cu  Cu23  1  0.27309000  0.77774000  0.12839000  1.0 0.2744540508
Cu  Cu24  1  0.22691000  0.22226000  0.62839000  1.0 0.2744540508
Cu  Cu25  1  0.31985000  0.17349000  0.74619000  1.0 0.2781008765
Cu  Cu26  1  0.18015000  0.82651000  0.24619000  1.0 0.2781008765
Cu  Cu27  1  0.68015000  0.67349000  0.75381000  1.0 0.2781008765
Cu  Cu28  1  0.81985000  0.32651000  0.25381000  1.0 0.2781008765
Cu  Cu29  1  0.83832000  0.66535000  0.68398000  1.0 0.2315717164
Cu  Cu30  1  0.66168000  0.33465000  0.18398000  1.0 0.2315717164
Cu  Cu31  1  0.16168000  0.16535000  0.81602000  1.0 0.2315717164
Cu  Cu32  1  0.33832000  0.83465000  0.31602000  1.0 0.2315717164
H  H1  1  0.34010000  0.59520000  0.23280000  1.0 0.1394696854
H  H2  1  0.15990000  0.40480000  0.73280000  1.0 0.1394696854
H  H3  1  0.65990000  0.09520000  0.26720000  1.0 0.1394696854
H  H4  1  0.84010000  0.90480000  0.76720000  1.0 0.1394696854
H  H5  1  0.28020000  0.52540000  0.18630000  1.0 0.1094647461
H  H6  1  0.21980000  0.47460000  0.68630000  1.0 0.1094647461
H  H7  1  0.71980000  0.02540000  0.31370000  1.0 0.1094647461
H  H8  1  0.78020000  0.97460000  0.81370000  1.0 0.1094647461
H  H9  1  0.15530000  0.48030000  0.29520000  1.0 0.1011988903
H  H10  1  0.34470000  0.51970000  0.79520000  1.0 0.1011988903
H  H11  1  0.84470000  0.98030000  0.20480000  1.0 0.1011988903
H  H12  1  0.65530000  0.01970000  0.70480000  1.0 0.1011988903
H  H13  1  0.21580000  0.55510000  0.35090000  1.0 0.131353473
H  H14  1  0.28420000  0.44490000  0.85090000  1.0 0.131353473
H  H15  1  0.78420000  0.05510000  0.14910000  1.0 0.131353473
H  H16  1  0.71580000  0.94490000  0.64910000  1.0 0.131353473
H  H17  1  0.25970000  0.61170000  0.46080000  1.0 0.1208400115
H  H18  1  0.24030000  0.38830000  0.96080000  1.0 0.1208400115
H  H19  1  0.74030000  0.11170000  0.03920000  1.0 0.1208400115
H  H20  1  0.75970000  0.88830000  0.53920000  1.0 0.1208400115
H  H21  1  0.23200000  0.62740000  0.54700000  1.0 0.1094647461
H  H22  1  0.26800000  0.37260000  0.04700000  1.0 0.1094647461
H  H23  1  0.76800000  0.12740000  0.95300000  1.0 0.1094647461
H  H24  1  0.73200000  0.87260000  0.45300000  1.0 0.1094647461
H  H25  1  0.38420000  0.75460000  0.55480000  1.0 0.1094647461
H  H26  1  0.11580000  0.24540000  0.05480000  1.0 0.1094647461
H  H27  1  0.61580000  0.25460000  0.94520000  1.0 0.1094647461
H  H28  1  0.88420000  0.74540000  0.44520000  1.0 0.1094647461
H  H29  1  0.39290000  0.75650000  0.46860000  1.0 0.131353473
H  H30  1  0.10710000  0.24350000  0.96860000  1.0 0.131353473
H  H31  1  0.60710000  0.25650000  0.03140000  1.0 0.131353473
H  H32  1  0.89290000  0.74350000  0.53140000  1.0 0.131353473
H  H33  1  0.48930000  0.78300000  0.37380000  1.0 0.131353473
H  H34  1  0.01070000  0.21700000  0.87380000  1.0 0.131353473
H  H35  1  0.51070000  0.28300000  0.12620000  1.0 0.131353473
H  H36  1  0.98930000  0.71700000  0.62620000  1.0 0.131353473
H  H37  1  0.58380000  0.83550000  0.33990000  1.0 0.1094647461
H  H38  1  0.91620000  0.16450000  0.83990000  1.0 0.1094647461
H  H39  1  0.41620000  0.33550000  0.16010000  1.0 0.1094647461
H  H40  1  0.08380000  0.66450000  0.66010000  1.0 0.1094647461
H  H41  1  0.57630000  0.73140000  0.22100000  1.0 0.1208400115
H  H42  1  0.92370000  0.26860000  0.72100000  1.0 0.1208400115
H  H43  1  0.42370000  0.23140000  0.27900000  1.0 0.1208400115
H  H44  1  0.07630000  0.76860000  0.77900000  1.0 0.1208400115
H  H45  1  0.48360000  0.68000000  0.24780000  1.0 0.1394696854
H  H46  1  0.01640000  0.32000000  0.74780000  1.0 0.1394696854
H  H47  1  0.51640000  0.18000000  0.25220000  1.0 0.1394696854
H  H48  1  0.98360000  0.82000000  0.75220000  1.0 0.1394696854
H  H49  1  0.00300000  0.38460000  0.06270000  1.0 0.131353473
H  H50  1  0.49700000  0.61540000  0.56270000  1.0 0.131353473
H  H51  1  0.99700000  0.88460000  0.43730000  1.0 0.131353473
H  H52  1  0.50300000  0.11540000  0.93730000  1.0 0.131353473
H  H53  1  0.04800000  0.38020000  0.13940000  1.0 0.1094647461
H  H54  1  0.45200000  0.61980000  0.63940000  1.0 0.1094647461
H  H55  1  0.95200000  0.88020000  0.36060000  1.0 0.1094647461
H  H56  1  0.54800000  0.11980000  0.86060000  1.0 0.1094647461
H  H57  1  0.19210000  0.50200000  0.10460000  1.0 0.1011988903
H  H58  1  0.30790000  0.49800000  0.60460000  1.0 0.1011988903
H  H59  1  0.80790000  0.00200000  0.39540000  1.0 0.1011988903
H  H60  1  0.69210000  0.99800000  0.89540000  1.0 0.1011988903
H  H61  1  0.15390000  0.50660000  0.02210000  1.0 0.131353473
H  H62  1  0.34610000  0.49340000  0.52210000  1.0 0.131353473
H  H63  1  0.84610000  0.00660000  0.47790000  1.0 0.131353473
H  H64  1  0.65390000  0.99340000  0.97790000  1.0 0.131353473
H  H65  1  0.16710000  0.55430000  0.90690000  1.0 0.131353473
H  H66  1  0.33290000  0.44570000  0.40690000  1.0 0.131353473
H  H67  1  0.83290000  0.05430000  0.59310000  1.0 0.131353473
H  H68  1  0.66710000  0.94570000  0.09310000  1.0 0.131353473
H  H69  1  0.20690000  0.62380000  0.85200000  1.0 0.1011988903
H  H70  1  0.29310000  0.37620000  0.35200000  1.0 0.1011988903
H  H71  1  0.79310000  0.12380000  0.64800000  1.0 0.1011988903
H  H72  1  0.70690000  0.87620000  0.14800000  1.0 0.1011988903
H  H73  1  0.07010000  0.56770000  0.74810000  1.0 0.1094647461
H  H74  1  0.42990000  0.43230000  0.24810000  1.0 0.1094647461
H  H75  1  0.92990000  0.06770000  0.75190000  1.0 0.1094647461
H  H76  1  0.57010000  0.93230000  0.25190000  1.0 0.1094647461
H  H77  1  0.01920000  0.50150000  0.80430000  1.0 0.131353473
H  H78  1  0.48080000  0.49850000  0.30430000  1.0 0.131353473
H  H79  1  0.98080000  0.00150000  0.69570000  1.0 0.131353473
H  H80  1  0.51920000  0.99850000  0.19570000  1.0 0.131353473
H  H81  1  0.89580000  0.39390000  0.83770000  1.0 0.1394696854
H  H82  1  0.60420000  0.60610000  0.33770000  1.0 0.1394696854
H  H83  1  0.10420000  0.89390000  0.66230000  1.0 0.1394696854
H  H84  1  0.39580000  0.10610000  0.16230000  1.0 0.1394696854
H  H85  1  0.80990000  0.33160000  0.82460000  1.0 0.1208400115
H  H86  1  0.69010000  0.66840000  0.32460000  1.0 0.1208400115
H  H87  1  0.19010000  0.83160000  0.67540000  1.0 0.1208400115
H  H88  1  0.30990000  0.16840000  0.17540000  1.0 0.1208400115
H  H89  1  0.83510000  0.24330000  0.94910000  1.0 0.1011988903
H  H90  1  0.66490000  0.75670000  0.44910000  1.0 0.1011988903
H  H91  1  0.16490000  0.74330000  0.55090000  1.0 0.1011988903
H  H92  1  0.33510000  0.25670000  0.05090000  1.0 0.1011988903
H  H93  1  0.91440000  0.32090000  0.97670000  1.0 0.1453566785
H  H94  1  0.58560000  0.67910000  0.47670000  1.0 0.1453566785
H  H95  1  0.08560000  0.82090000  0.52330000  1.0 0.1453566785
H  H96  1  0.41440000  0.17910000  0.02330000  1.0 0.1453566785
H  H97  1  0.65990000  0.40480000  0.76720000  1.0 0.1394696854
H  H98  1  0.84010000  0.59520000  0.26720000  1.0 0.1394696854
H  H99  1  0.34010000  0.90480000  0.73280000  1.0 0.1394696854
H  H100  1  0.15990000  0.09520000  0.23280000  1.0 0.1394696854
H  H101  1  0.71980000  0.47460000  0.81370000  1.0 0.1094647461
H  H102  1  0.78020000  0.52540000  0.31370000  1.0 0.1094647461
H  H103  1  0.28020000  0.97460000  0.68630000  1.0 0.1094647461
H  H104  1  0.21980000  0.02540000  0.18630000  1.0 0.1094647461
H  H105  1  0.84470000  0.51970000  0.70480000  1.0 0.1011988903
H  H106  1  0.65530000  0.48030000  0.20480000  1.0 0.1011988903
H  H107  1  0.15530000  0.01970000  0.79520000  1.0 0.1011988903
H  H108  1  0.34470000  0.98030000  0.29520000  1.0 0.1011988903
H  H109  1  0.78420000  0.44490000  0.64910000  1.0 0.131353473
H  H110  1  0.71580000  0.55510000  0.14910000  1.0 0.131353473
H  H111  1  0.21580000  0.94490000  0.85090000  1.0 0.131353473
H  H112  1  0.28420000  0.05510000  0.35090000  1.0 0.131353473
H  H113  1  0.74030000  0.38830000  0.53920000  1.0 0.1208400115
H  H114  1  0.75970000  0.61170000  0.03920000  1.0 0.1208400115
H  H115  1  0.25970000  0.88830000  0.96080000  1.0 0.1208400115
H  H116  1  0.24030000  0.11170000  0.46080000  1.0 0.1208400115
H  H117  1  0.76800000  0.37260000  0.45300000  1.0 0.1094647461
H  H118  1  0.73200000  0.62740000  0.95300000  1.0 0.1094647461
H  H119  1  0.23200000  0.87260000  0.04700000  1.0 0.1094647461
H  H120  1  0.26800000  0.12740000  0.54700000  1.0 0.1094647461
H  H121  1  0.61580000  0.24540000  0.44520000  1.0 0.1094647461
H  H122  1  0.88420000  0.75460000  0.94520000  1.0 0.1094647461
H  H123  1  0.38420000  0.74540000  0.05480000  1.0 0.1094647461
H  H124  1  0.11580000  0.25460000  0.55480000  1.0 0.1094647461
H  H125  1  0.60710000  0.24350000  0.53140000  1.0 0.131353473
H  H126  1  0.89290000  0.75650000  0.03140000  1.0 0.131353473
H  H127  1  0.39290000  0.74350000  0.96860000  1.0 0.131353473
H  H128  1  0.10710000  0.25650000  0.46860000  1.0 0.131353473
H  H129  1  0.51070000  0.21700000  0.62620000  1.0 0.131353473
H  H130  1  0.98930000  0.78300000  0.12620000  1.0 0.131353473
H  H131  1  0.48930000  0.71700000  0.87380000  1.0 0.131353473
H  H132  1  0.01070000  0.28300000  0.37380000  1.0 0.131353473
H  H133  1  0.41620000  0.16450000  0.66010000  1.0 0.1094647461
H  H134  1  0.08380000  0.83550000  0.16010000  1.0 0.1094647461
H  H135  1  0.58380000  0.66450000  0.83990000  1.0 0.1094647461
H  H136  1  0.91620000  0.33550000  0.33990000  1.0 0.1094647461
H  H137  1  0.42370000  0.26860000  0.77900000  1.0 0.1208400115
H  H138  1  0.07630000  0.73140000  0.27900000  1.0 0.1208400115
H  H139  1  0.57630000  0.76860000  0.72100000  1.0 0.1208400115
H  H140  1  0.92370000  0.23140000  0.22100000  1.0 0.1208400115
H  H141  1  0.51640000  0.32000000  0.75220000  1.0 0.1394696854
H  H142  1  0.98360000  0.68000000  0.25220000  1.0 0.1394696854
H  H143  1  0.48360000  0.82000000  0.74780000  1.0 0.1394696854
H  H144  1  0.01640000  0.18000000  0.24780000  1.0 0.1394696854
H  H145  1  0.99700000  0.61540000  0.93730000  1.0 0.131353473
H  H146  1  0.50300000  0.38460000  0.43730000  1.0 0.131353473
H  H147  1  0.00300000  0.11540000  0.56270000  1.0 0.131353473
H  H148  1  0.49700000  0.88460000  0.06270000  1.0 0.131353473
H  H149  1  0.95200000  0.61980000  0.86060000  1.0 0.1094647461
H  H150  1  0.54800000  0.38020000  0.36060000  1.0 0.1094647461
H  H151  1  0.04800000  0.11980000  0.63940000  1.0 0.1094647461
H  H152  1  0.45200000  0.88020000  0.13940000  1.0 0.1094647461
H  H153  1  0.80790000  0.49800000  0.89540000  1.0 0.1011988903
H  H154  1  0.69210000  0.50200000  0.39540000  1.0 0.1011988903
H  H155  1  0.19210000  0.99800000  0.60460000  1.0 0.1011988903
H  H156  1  0.30790000  0.00200000  0.10460000  1.0 0.1011988903
H  H157  1  0.84610000  0.49340000  0.97790000  1.0 0.131353473
H  H158  1  0.65390000  0.50660000  0.47790000  1.0 0.131353473
H  H159  1  0.15390000  0.99340000  0.52210000  1.0 0.131353473
H  H160  1  0.34610000  0.00660000  0.02210000  1.0 0.131353473
H  H161  1  0.83290000  0.44570000  0.09310000  1.0 0.131353473
H  H162  1  0.66710000  0.55430000  0.59310000  1.0 0.131353473
H  H163  1  0.16710000  0.94570000  0.40690000  1.0 0.131353473
H  H164  1  0.33290000  0.05430000  0.90690000  1.0 0.131353473
H  H165  1  0.79310000  0.37620000  0.14800000  1.0 0.1011988903
H  H166  1  0.70690000  0.62380000  0.64800000  1.0 0.1011988903
H  H167  1  0.20690000  0.87620000  0.35200000  1.0 0.1011988903
H  H168  1  0.29310000  0.12380000  0.85200000  1.0 0.1011988903
H  H169  1  0.92990000  0.43230000  0.25190000  1.0 0.1094647461
H  H170  1  0.57010000  0.56770000  0.75190000  1.0 0.1094647461
H  H171  1  0.07010000  0.93230000  0.24810000  1.0 0.1094647461
H  H172  1  0.42990000  0.06770000  0.74810000  1.0 0.1094647461
H  H173  1  0.98080000  0.49850000  0.19570000  1.0 0.131353473
H  H174  1  0.51920000  0.50150000  0.69570000  1.0 0.131353473
H  H175  1  0.01920000  0.99850000  0.30430000  1.0 0.131353473
H  H176  1  0.48080000  0.00150000  0.80430000  1.0 0.131353473
H  H177  1  0.10420000  0.60610000  0.16230000  1.0 0.1394696854
H  H178  1  0.39580000  0.39390000  0.66230000  1.0 0.1394696854
H  H179  1  0.89580000  0.10610000  0.33770000  1.0 0.1394696854
H  H180  1  0.60420000  0.89390000  0.83770000  1.0 0.1394696854
H  H181  1  0.19010000  0.66840000  0.17540000  1.0 0.1208400115
H  H182  1  0.30990000  0.33160000  0.67540000  1.0 0.1208400115
H  H183  1  0.80990000  0.16840000  0.32460000  1.0 0.1208400115
H  H184  1  0.69010000  0.83160000  0.82460000  1.0 0.1208400115
H  H185  1  0.16490000  0.75670000  0.05090000  1.0 0.1011988903
H  H186  1  0.33510000  0.24330000  0.55090000  1.0 0.1011988903
H  H187  1  0.83510000  0.25670000  0.44910000  1.0 0.1011988903
H  H188  1  0.66490000  0.74330000  0.94910000  1.0 0.1011988903
H  H189  1  0.08560000  0.67910000  0.02330000  1.0 0.1453566785
H  H190  1  0.41440000  0.32090000  0.52330000  1.0 0.1453566785
H  H191  1  0.91440000  0.17910000  0.47670000  1.0 0.1453566785
H  H192  1  0.58560000  0.82090000  0.97670000  1.0 0.1453566785
W  W1  1  0.18706000  0.30208000  0.22264000  1.0 0.7394677336
W  W2  1  0.31294000  0.69792000  0.72264000  1.0 0.7394677336
W  W3  1  0.81294000  0.80208000  0.27736000  1.0 0.7394677336
W  W4  1  0.68706000  0.19792000  0.77736000  1.0 0.7394677336
W  W5  1  0.81294000  0.69792000  0.77736000  1.0 0.7394677336
W  W6  1  0.68706000  0.30208000  0.27736000  1.0 0.7394677336
W  W7  1  0.18706000  0.19792000  0.72264000  1.0 0.7394677336
W  W8  1  0.31294000  0.80208000  0.22264000  1.0 0.7394677336
C  C1  1  0.32740000  0.62160000  0.33120000  1.0 0.3550334806
C  C2  1  0.17260000  0.37840000  0.83120000  1.0 0.3550334806
C  C3  1  0.67260000  0.12160000  0.16880000  1.0 0.3550334806
C  C4  1  0.82740000  0.87840000  0.66880000  1.0 0.3550334806
C  C5  1  0.34620000  0.66700000  0.40310000  1.0 0.3393625553
C  C6  1  0.15380000  0.33300000  0.90310000  1.0 0.3393625553
C  C7  1  0.65380000  0.16700000  0.09690000  1.0 0.3393625553
C  C8  1  0.84620000  0.83300000  0.59690000  1.0 0.3393625553
C  C9  1  0.41810000  0.68830000  0.33730000  1.0 0.3506953625
C  C10  1  0.08190000  0.31170000  0.83730000  1.0 0.3506953625
C  C11  1  0.58190000  0.18830000  0.16270000  1.0 0.3506953625
C  C12  1  0.91810000  0.81170000  0.66270000  1.0 0.3506953625
C  C13  1  0.28530000  0.58170000  0.29560000  1.0 0.0680501676
C  C14  1  0.21470000  0.41830000  0.79560000  1.0 0.0680501676
C  C15  1  0.71470000  0.08170000  0.20440000  1.0 0.0680501676
C  C16  1  0.78530000  0.91830000  0.70440000  1.0 0.0680501676
C  C17  1  0.30320000  0.57340000  0.24680000  1.0 -0.160138489
C  C18  1  0.19680000  0.42660000  0.74680000  1.0 -0.160138489
C  C19  1  0.69680000  0.07340000  0.25320000  1.0 -0.160138489
C  C20  1  0.80320000  0.92660000  0.75320000  1.0 -0.160138489
C  C21  1  0.26540000  0.53210000  0.21910000  1.0 0.0601429787
C  C22  1  0.23460000  0.46790000  0.71910000  1.0 0.0601429787
C  C23  1  0.73460000  0.03210000  0.28090000  1.0 0.0601429787
C  C24  1  0.76540000  0.96790000  0.78090000  1.0 0.0601429787
C  C25  1  0.19130000  0.50470000  0.28280000  1.0 0.0795524056
C  C26  1  0.30870000  0.49530000  0.78280000  1.0 0.0795524056
C  C27  1  0.80870000  0.00470000  0.21720000  1.0 0.0795524056
C  C28  1  0.69130000  0.99530000  0.71720000  1.0 0.0795524056
C  C29  1  0.22880000  0.54930000  0.31760000  1.0 -0.140121526
C  C30  1  0.27120000  0.45070000  0.81760000  1.0 -0.140121526
C  C31  1  0.77120000  0.04930000  0.18240000  1.0 -0.140121526
C  C32  1  0.72880000  0.95070000  0.68240000  1.0 -0.140121526
C  C33  1  0.33770000  0.67920000  0.45740000  1.0 0.0478717169
C  C34  1  0.16230000  0.32080000  0.95740000  1.0 0.0478717169
C  C35  1  0.66230000  0.17920000  0.04260000  1.0 0.0478717169
C  C36  1  0.83770000  0.82080000  0.54260000  1.0 0.0478717169
C  C37  1  0.28310000  0.64170000  0.47970000  1.0 -0.160138489
C  C38  1  0.21690000  0.35830000  0.97970000  1.0 -0.160138489
C  C39  1  0.71690000  0.14170000  0.02030000  1.0 -0.160138489
C  C40  1  0.78310000  0.85830000  0.52030000  1.0 -0.160138489
C  C41  1  0.26600000  0.65180000  0.53180000  1.0 0.0197168122
C  C42  1  0.23400000  0.34820000  0.03180000  1.0 0.0197168122
C  C43  1  0.73400000  0.15180000  0.96820000  1.0 0.0197168122
C  C44  1  0.76600000  0.84820000  0.46820000  1.0 0.0197168122
C  C45  1  0.35450000  0.73000000  0.53560000  1.0 0.0601429787
C  C46  1  0.14550000  0.27000000  0.03560000  1.0 0.0601429787
C  C47  1  0.64550000  0.23000000  0.96440000  1.0 0.0601429787
C  C48  1  0.85450000  0.77000000  0.46440000  1.0 0.0601429787
C  C49  1  0.36580000  0.72630000  0.48440000  1.0 -0.140121526
C  C50  1  0.13420000  0.27370000  0.98440000  1.0 -0.140121526
C  C51  1  0.63420000  0.22630000  0.01560000  1.0 -0.140121526
C  C52  1  0.86580000  0.77370000  0.51560000  1.0 -0.140121526
C  C53  1  0.47680000  0.72200000  0.31760000  1.0 0.0317470423
C  C54  1  0.02320000  0.27800000  0.81760000  1.0 0.0317470423
C  C55  1  0.52320000  0.22200000  0.18240000  1.0 0.0317470423
C  C56  1  0.97680000  0.77800000  0.68240000  1.0 0.0317470423
C  C57  1  0.50690000  0.77050000  0.34290000  1.0 -0.123727343
C  C58  1  0.99310000  0.22950000  0.84290000  1.0 -0.123727343
C  C59  1  0.49310000  0.27050000  0.15710000  1.0 -0.123727343
C  C60  1  0.00690000  0.72950000  0.65710000  1.0 -0.123727343
C  C61  1  0.56440000  0.80180000  0.32260000  1.0 0.0197168122
C  C62  1  0.93560000  0.19820000  0.82260000  1.0 0.0197168122
C  C63  1  0.43560000  0.30180000  0.17740000  1.0 0.0197168122
C  C64  1  0.06440000  0.69820000  0.67740000  1.0 0.0197168122
C  C65  1  0.56030000  0.74140000  0.25290000  1.0 0.0878761607
C  C66  1  0.93970000  0.25860000  0.75290000  1.0 0.0878761607
C  C67  1  0.43970000  0.24140000  0.24710000  1.0 0.0878761607
C  C68  1  0.06030000  0.75860000  0.74710000  1.0 0.0878761607
C  C69  1  0.50430000  0.70970000  0.26860000  1.0 -0.1800807332
C  C70  1  0.99570000  0.29030000  0.76860000  1.0 -0.1800807332
C  C71  1  0.49570000  0.20970000  0.23140000  1.0 -0.1800807332
C  C72  1  0.00430000  0.79030000  0.73140000  1.0 -0.1800807332
C  C73  1  0.05580000  0.44020000  0.97790000  1.0 0.3506953625
C  C74  1  0.44420000  0.55980000  0.47790000  1.0 0.3506953625
C  C75  1  0.94420000  0.94020000  0.52210000  1.0 0.3506953625
C  C76  1  0.55580000  0.05980000  0.02210000  1.0 0.3506953625
C  C77  1  0.05510000  0.47770000  0.89780000  1.0 0.3228646266
C  C78  1  0.44490000  0.52230000  0.39780000  1.0 0.3228646266
C  C79  1  0.94490000  0.97770000  0.60220000  1.0 0.3228646266
C  C80  1  0.55510000  0.02230000  0.10220000  1.0 0.3228646266
C  C81  1  0.97980000  0.40420000  0.92310000  1.0 0.3506953625
C  C82  1  0.52020000  0.59580000  0.42310000  1.0 0.3506953625
C  C83  1  0.02020000  0.90420000  0.57690000  1.0 0.3550334806
C  C84  1  0.47980000  0.09580000  0.07690000  1.0 0.3506953625
C  C85  1  0.07780000  0.44090000  0.03170000  1.0 0.0601429787
C  C86  1  0.42220000  0.55910000  0.53170000  1.0 0.0601429787
C  C87  1  0.92220000  0.94090000  0.46830000  1.0 0.0601429787
C  C88  1  0.57780000  0.05910000  0.96830000  1.0 0.0601429787
C  C89  1  0.04330000  0.40650000  0.06990000  1.0 -0.160138489
C  C90  1  0.45670000  0.59350000  0.56990000  1.0 -0.160138489
C  C91  1  0.95670000  0.90650000  0.43010000  1.0 -0.160138489
C  C92  1  0.54330000  0.09350000  0.93010000  1.0 -0.160138489
C  C93  1  0.06910000  0.40620000  0.11590000  1.0 0.0601429787
C  C94  1  0.43090000  0.59380000  0.61590000  1.0 0.0601429787
C  C95  1  0.93090000  0.90620000  0.38410000  1.0 0.0601429787
C  C96  1  0.56910000  0.09380000  0.88410000  1.0 0.0601429787
C  C97  1  0.15460000  0.47730000  0.09540000  1.0 0.0601429787
C  C98  1  0.34540000  0.52270000  0.59540000  1.0 0.0601429787
C  C99  1  0.84540000  0.97730000  0.40460000  1.0 0.0601429787
C  C100  1  0.65460000  0.02270000  0.90460000  1.0 0.0601429787
C  C101  1  0.13280000  0.48000000  0.04530000  1.0 -0.1669705947
C  C102  1  0.36720000  0.52000000  0.54530000  1.0 -0.1669705947
C  C103  1  0.86720000  0.98000000  0.45470000  1.0 -0.1669705947
C  C104  1  0.63280000  0.02000000  0.95470000  1.0 -0.1669705947
C  C105  1  0.08850000  0.51710000  0.86130000  1.0 0.0410946152
C  C106  1  0.41150000  0.48290000  0.36130000  1.0 0.0410946152
C  C107  1  0.91150000  0.01710000  0.63870000  1.0 0.0410946152
C  C108  1  0.58850000  0.98290000  0.13870000  1.0 0.0410946152
C  C109  1  0.14710000  0.55760000  0.87530000  1.0 -0.160138489
C  C110  1  0.35290000  0.44240000  0.37530000  1.0 -0.160138489
C  C111  1  0.85290000  0.05760000  0.62470000  1.0 -0.160138489
C  C112  1  0.64710000  0.94240000  0.12470000  1.0 -0.160138489
C  C113  1  0.17040000  0.59800000  0.84260000  1.0 0.0601429787
C  C114  1  0.32960000  0.40200000  0.34260000  1.0 0.0601429787
C  C115  1  0.82960000  0.09800000  0.65740000  1.0 0.0601429787
C  C116  1  0.67040000  0.90200000  0.15740000  1.0 0.0601429787
C  C117  1  0.08740000  0.56530000  0.78060000  1.0 0.0410946152
C  C118  1  0.41260000  0.43470000  0.28060000  1.0 0.0410946152
C  C119  1  0.91260000  0.06530000  0.71940000  1.0 0.0410946152
C  C120  1  0.58740000  0.93470000  0.21940000  1.0 0.0410946152
C  C121  1  0.05820000  0.52430000  0.81320000  1.0 -0.1669705947
C  C122  1  0.44180000  0.47570000  0.31320000  1.0 -0.1669705947
C  C123  1  0.94180000  0.02430000  0.68680000  1.0 -0.1669705947
C  C124  1  0.55820000  0.97570000  0.18680000  1.0 -0.1669705947
C  C125  1  0.91880000  0.36310000  0.91080000  1.0 0.0601429787
C  C126  1  0.58120000  0.63690000  0.41080000  1.0 0.0601429787
C  C127  1  0.08120000  0.86310000  0.58920000  1.0 0.0601429787
C  C128  1  0.41880000  0.13690000  0.08920000  1.0 0.0601429787
C  C129  1  0.88240000  0.36550000  0.86250000  1.0 -0.160138489
C  C130  1  0.61760000  0.63450000  0.36250000  1.0 -0.160138489
C  C131  1  0.11760000  0.86550000  0.63750000  1.0 -0.160138489
C  C132  1  0.38240000  0.13450000  0.13750000  1.0 -0.160138489
C  C133  1  0.83250000  0.32830000  0.85530000  1.0 0.0317470423
C  C134  1  0.66750000  0.67170000  0.35530000  1.0 0.0317470423
C  C135  1  0.16750000  0.82830000  0.64470000  1.0 0.0317470423
C  C136  1  0.33250000  0.17170000  0.14470000  1.0 0.0317470423
C  C137  1  0.84430000  0.27800000  0.92880000  1.0 0.0680501676
C  C138  1  0.65570000  0.72200000  0.42880000  1.0 0.0680501676
C  C139  1  0.15570000  0.77800000  0.57120000  1.0 0.0680501676
C  C140  1  0.34430000  0.22200000  0.07120000  1.0 0.0680501676
C  C141  1  0.89670000  0.32170000  0.94430000  1.0 -0.160138489
C  C142  1  0.60330000  0.67830000  0.44430000  1.0 -0.160138489
C  C143  1  0.10330000  0.82170000  0.55570000  1.0 -0.160138489
C  C144  1  0.39670000  0.17830000  0.05570000  1.0 -0.160138489
C  C145  1  0.67260000  0.37840000  0.66880000  1.0 0.3550334806
C  C146  1  0.82740000  0.62160000  0.16880000  1.0 0.3550334806
C  C147  1  0.32740000  0.87840000  0.83120000  1.0 0.3550334806
C  C148  1  0.17260000  0.12160000  0.33120000  1.0 0.3550334806
C  C149  1  0.65380000  0.33300000  0.59690000  1.0 0.3393625553
C  C150  1  0.84620000  0.66700000  0.09690000  1.0 0.3393625553
C  C151  1  0.34620000  0.83300000  0.90310000  1.0 0.3393625553
C  C152  1  0.15380000  0.16700000  0.40310000  1.0 0.3393625553
C  C153  1  0.58190000  0.31170000  0.66270000  1.0 0.3506953625
C  C154  1  0.91810000  0.68830000  0.16270000  1.0 0.3506953625
C  C155  1  0.41810000  0.81170000  0.83730000  1.0 0.3506953625
C  C156  1  0.08190000  0.18830000  0.33730000  1.0 0.3506953625
C  C157  1  0.71470000  0.41830000  0.70440000  1.0 0.0680501676
C  C158  1  0.78530000  0.58170000  0.20440000  1.0 0.0680501676
C  C159  1  0.28530000  0.91830000  0.79560000  1.0 0.0680501676
C  C160  1  0.21470000  0.08170000  0.29560000  1.0 0.0680501676
C  C161  1  0.69680000  0.42660000  0.75320000  1.0 -0.160138489
C  C162  1  0.80320000  0.57340000  0.25320000  1.0 -0.160138489
C  C163  1  0.30320000  0.92660000  0.74680000  1.0 -0.160138489
C  C164  1  0.19680000  0.07340000  0.24680000  1.0 -0.160138489
C  C165  1  0.73460000  0.46790000  0.78090000  1.0 0.0601429787
C  C166  1  0.76540000  0.53210000  0.28090000  1.0 0.0601429787
C  C167  1  0.26540000  0.96790000  0.71910000  1.0 0.0601429787
C  C168  1  0.23460000  0.03210000  0.21910000  1.0 0.0601429787
C  C169  1  0.80870000  0.49530000  0.71720000  1.0 0.0795524056
C  C170  1  0.69130000  0.50470000  0.21720000  1.0 0.0795524056
C  C171  1  0.19130000  0.99530000  0.78280000  1.0 0.0795524056
C  C172  1  0.30870000  0.00470000  0.28280000  1.0 0.0795524056
C  C173  1  0.77120000  0.45070000  0.68240000  1.0 -0.140121526
C  C174  1  0.72880000  0.54930000  0.18240000  1.0 -0.140121526
C  C175  1  0.22880000  0.95070000  0.81760000  1.0 -0.140121526
C  C176  1  0.27120000  0.04930000  0.31760000  1.0 -0.140121526
C  C177  1  0.66230000  0.32080000  0.54260000  1.0 0.0478717169
C  C178  1  0.83770000  0.67920000  0.04260000  1.0 0.0478717169
C  C179  1  0.33770000  0.82080000  0.95740000  1.0 0.0478717169
C  C180  1  0.16230000  0.17920000  0.45740000  1.0 0.0478717169
C  C181  1  0.71690000  0.35830000  0.52030000  1.0 -0.160138489
C  C182  1  0.78310000  0.64170000  0.02030000  1.0 -0.160138489
C  C183  1  0.28310000  0.85830000  0.97970000  1.0 -0.160138489
C  C184  1  0.21690000  0.14170000  0.47970000  1.0 -0.160138489
C  C185  1  0.73400000  0.34820000  0.46820000  1.0 0.0197168122
C  C186  1  0.76600000  0.65180000  0.96820000  1.0 0.0197168122
C  C187  1  0.26600000  0.84820000  0.03180000  1.0 0.0197168122
C  C188  1  0.23400000  0.15180000  0.53180000  1.0 0.0197168122
C  C189  1  0.64550000  0.27000000  0.46440000  1.0 0.0601429787
C  C190  1  0.85450000  0.73000000  0.96440000  1.0 0.0601429787
C  C191  1  0.35450000  0.77000000  0.03560000  1.0 0.0601429787
C  C192  1  0.14550000  0.23000000  0.53560000  1.0 0.0601429787
C  C193  1  0.63420000  0.27370000  0.51560000  1.0 -0.140121526
C  C194  1  0.86580000  0.72630000  0.01560000  1.0 -0.140121526
C  C195  1  0.36580000  0.77370000  0.98440000  1.0 -0.140121526
C  C196  1  0.13420000  0.22630000  0.48440000  1.0 -0.140121526
C  C197  1  0.52320000  0.27800000  0.68240000  1.0 0.0317470423
C  C198  1  0.97680000  0.72200000  0.18240000  1.0 0.0317470423
C  C199  1  0.47680000  0.77800000  0.81760000  1.0 0.0317470423
C  C200  1  0.02320000  0.22200000  0.31760000  1.0 0.0317470423
C  C201  1  0.49310000  0.22950000  0.65710000  1.0 -0.123727343
C  C202  1  0.00690000  0.77050000  0.15710000  1.0 -0.123727343
C  C203  1  0.50690000  0.72950000  0.84290000  1.0 -0.123727343
C  C204  1  0.99310000  0.27050000  0.34290000  1.0 -0.123727343
C  C205  1  0.43560000  0.19820000  0.67740000  1.0 0.0197168122
C  C206  1  0.06440000  0.80180000  0.17740000  1.0 0.0197168122
C  C207  1  0.56440000  0.69820000  0.82260000  1.0 0.0197168122
C  C208  1  0.93560000  0.30180000  0.32260000  1.0 0.0197168122
C  C209  1  0.43970000  0.25860000  0.74710000  1.0 0.0878761607
C  C210  1  0.06030000  0.74140000  0.24710000  1.0 0.0878761607
C  C211  1  0.56030000  0.75860000  0.75290000  1.0 0.0878761607
C  C212  1  0.93970000  0.24140000  0.25290000  1.0 0.0878761607
C  C213  1  0.49570000  0.29030000  0.73140000  1.0 -0.1800807332
C  C214  1  0.00430000  0.70970000  0.23140000  1.0 -0.1800807332
C  C215  1  0.50430000  0.79030000  0.76860000  1.0 -0.1800807332
C  C216  1  0.99570000  0.20970000  0.26860000  1.0 -0.1800807332
C  C217  1  0.94420000  0.55980000  0.02210000  1.0 0.3506953625
C  C218  1  0.55580000  0.44020000  0.52210000  1.0 0.3506953625
C  C219  1  0.05580000  0.05980000  0.47790000  1.0 0.3506953625
C  C220  1  0.44420000  0.94020000  0.97790000  1.0 0.3506953625
C  C221  1  0.94490000  0.52230000  0.10220000  1.0 0.3228646266
C  C222  1  0.55510000  0.47770000  0.60220000  1.0 0.3228646266
C  C223  1  0.05510000  0.02230000  0.39780000  1.0 0.3228646266
C  C224  1  0.44490000  0.97770000  0.89780000  1.0 0.3228646266
C  C225  1  0.02020000  0.59580000  0.07690000  1.0 0.3550334806
C  C226  1  0.47980000  0.40420000  0.57690000  1.0 0.3506953625
C  C227  1  0.97980000  0.09580000  0.42310000  1.0 0.3506953625
C  C228  1  0.52020000  0.90420000  0.92310000  1.0 0.3506953625
C  C229  1  0.92220000  0.55910000  0.96830000  1.0 0.0601429787
C  C230  1  0.57780000  0.44090000  0.46830000  1.0 0.0601429787
C  C231  1  0.07780000  0.05910000  0.53170000  1.0 0.0601429787
C  C232  1  0.42220000  0.94090000  0.03170000  1.0 0.0601429787
C  C233  1  0.95670000  0.59350000  0.93010000  1.0 -0.160138489
C  C234  1  0.54330000  0.40650000  0.43010000  1.0 -0.160138489
C  C235  1  0.04330000  0.09350000  0.56990000  1.0 -0.160138489
C  C236  1  0.45670000  0.90650000  0.06990000  1.0 -0.160138489
C  C237  1  0.93090000  0.59380000  0.88410000  1.0 0.0601429787
C  C238  1  0.56910000  0.40620000  0.38410000  1.0 0.0601429787
C  C239  1  0.06910000  0.09380000  0.61590000  1.0 0.0601429787
C  C240  1  0.43090000  0.90620000  0.11590000  1.0 0.0601429787
C  C241  1  0.84540000  0.52270000  0.90460000  1.0 0.0601429787
C  C242  1  0.65460000  0.47730000  0.40460000  1.0 0.0601429787
C  C243  1  0.15460000  0.02270000  0.59540000  1.0 0.0601429787
C  C244  1  0.34540000  0.97730000  0.09540000  1.0 0.0601429787
C  C245  1  0.86720000  0.52000000  0.95470000  1.0 -0.1669705947
C  C246  1  0.63280000  0.48000000  0.45470000  1.0 -0.1669705947
C  C247  1  0.13280000  0.02000000  0.54530000  1.0 -0.1669705947
C  C248  1  0.36720000  0.98000000  0.04530000  1.0 -0.1669705947
C  C249  1  0.91150000  0.48290000  0.13870000  1.0 0.0410946152
C  C250  1  0.58850000  0.51710000  0.63870000  1.0 0.0410946152
C  C251  1  0.08850000  0.98290000  0.36130000  1.0 0.0410946152
C  C252  1  0.41150000  0.01710000  0.86130000  1.0 0.0410946152
C  C253  1  0.85290000  0.44240000  0.12470000  1.0 -0.160138489
C  C254  1  0.64710000  0.55760000  0.62470000  1.0 -0.160138489
C  C255  1  0.14710000  0.94240000  0.37530000  1.0 -0.160138489
C  C256  1  0.35290000  0.05760000  0.87530000  1.0 -0.160138489
C  C257  1  0.82960000  0.40200000  0.15740000  1.0 0.0601429787
C  C258  1  0.67040000  0.59800000  0.65740000  1.0 0.0601429787
C  C259  1  0.17040000  0.90200000  0.34260000  1.0 0.0601429787
C  C260  1  0.32960000  0.09800000  0.84260000  1.0 0.0601429787
C  C261  1  0.91260000  0.43470000  0.21940000  1.0 0.0410946152
C  C262  1  0.58740000  0.56530000  0.71940000  1.0 0.0410946152
C  C263  1  0.08740000  0.93470000  0.28060000  1.0 0.0410946152
C  C264  1  0.41260000  0.06530000  0.78060000  1.0 0.0410946152
C  C265  1  0.94180000  0.47570000  0.18680000  1.0 -0.1669705947
C  C266  1  0.55820000  0.52430000  0.68680000  1.0 -0.1669705947
C  C267  1  0.05820000  0.97570000  0.31320000  1.0 -0.1669705947
C  C268  1  0.44180000  0.02430000  0.81320000  1.0 -0.1669705947
C  C269  1  0.08120000  0.63690000  0.08920000  1.0 0.0601429787
C  C270  1  0.41880000  0.36310000  0.58920000  1.0 0.0601429787
C  C271  1  0.91880000  0.13690000  0.41080000  1.0 0.0601429787
C  C272  1  0.58120000  0.86310000  0.91080000  1.0 0.0601429787
C  C273  1  0.11760000  0.63450000  0.13750000  1.0 -0.160138489
C  C274  1  0.38240000  0.36550000  0.63750000  1.0 -0.160138489
C  C275  1  0.88240000  0.13450000  0.36250000  1.0 -0.160138489
C  C276  1  0.61760000  0.86550000  0.86250000  1.0 -0.160138489
C  C277  1  0.16750000  0.67170000  0.14470000  1.0 0.0317470423
C  C278  1  0.33250000  0.32830000  0.64470000  1.0 0.0317470423
C  C279  1  0.83250000  0.17170000  0.35530000  1.0 0.0317470423
C  C280  1  0.66750000  0.82830000  0.85530000  1.0 0.0317470423
C  C281  1  0.15570000  0.72200000  0.07120000  1.0 0.0680501676
C  C282  1  0.34430000  0.27800000  0.57120000  1.0 0.0680501676
C  C283  1  0.84430000  0.22200000  0.42880000  1.0 0.0680501676
C  C284  1  0.65570000  0.77800000  0.92880000  1.0 0.0680501676
C  C285  1  0.10330000  0.67830000  0.05570000  1.0 -0.160138489
C  C286  1  0.39670000  0.32170000  0.55570000  1.0 -0.160138489
C  C287  1  0.89670000  0.17830000  0.44430000  1.0 -0.160138489
C  C288  1  0.60330000  0.82170000  0.94430000  1.0 -0.160138489
S  S1  1  0.10281000  0.36275000  0.24746000  1.0 -0.4306893041
S  S2  1  0.39719000  0.63725000  0.74746000  1.0 -0.4306893041
S  S3  1  0.89719000  0.86275000  0.25254000  1.0 -0.4306893041
S  S4  1  0.60281000  0.13725000  0.75254000  1.0 -0.4306893041
S  S5  1  0.75683000  0.76434000  0.21211000  1.0 -0.4306893041
S  S6  1  0.74317000  0.23566000  0.71211000  1.0 -0.4306893041
S  S7  1  0.24317000  0.26434000  0.28789000  1.0 -0.4306893041
S  S8  1  0.25683000  0.73566000  0.78789000  1.0 -0.4306893041
S  S9  1  0.26205000  0.36106000  0.17624000  1.0 -0.5200909813
S  S10  1  0.23795000  0.63894000  0.67624000  1.0 -0.5200909813
S  S11  1  0.73795000  0.86106000  0.32376000  1.0 -0.5200909813
S  S12  1  0.76205000  0.13894000  0.82376000  1.0 -0.5200909813
S  S13  1  0.35199000  0.77390000  0.67553000  1.0 -0.4200422828
S  S14  1  0.14801000  0.22610000  0.17553000  1.0 -0.4200422828
S  S15  1  0.64801000  0.27390000  0.82447000  1.0 -0.4200422828
S  S16  1  0.85199000  0.72610000  0.32447000  1.0 -0.4200422828
S  S17  1  0.89719000  0.63725000  0.75254000  1.0 -0.4306893041
S  S18  1  0.60281000  0.36275000  0.25254000  1.0 -0.4306893041
S  S19  1  0.10281000  0.13725000  0.74746000  1.0 -0.4306893041
S  S20  1  0.39719000  0.86275000  0.24746000  1.0 -0.4306893041
S  S21  1  0.24317000  0.23566000  0.78789000  1.0 -0.4306893041
S  S22  1  0.25683000  0.76434000  0.28789000  1.0 -0.4306893041
S  S23  1  0.75683000  0.73566000  0.71211000  1.0 -0.4306893041
S  S24  1  0.74317000  0.26434000  0.21211000  1.0 -0.4306893041
S  S25  1  0.73795000  0.63894000  0.82376000  1.0 -0.5200909813
S  S26  1  0.76205000  0.36106000  0.32376000  1.0 -0.5200909813
S  S27  1  0.26205000  0.13894000  0.67624000  1.0 -0.5200909813
S  S28  1  0.23795000  0.86106000  0.17624000  1.0 -0.5200909813
S  S29  1  0.64801000  0.22610000  0.32447000  1.0 -0.4200422828
S  S30  1  0.85199000  0.77390000  0.82447000  1.0 -0.4200422828
S  S31  1  0.35199000  0.72610000  0.17553000  1.0 -0.4200422828
S  S32  1  0.14801000  0.27390000  0.67553000  1.0 -0.4200422828
I  I1  1  0.15129000  0.36964000  0.39937000  1.0 -0.4375171018
I  I2  1  0.34871000  0.63036000  0.89937000  1.0 -0.4375171018
I  I3  1  0.84871000  0.86964000  0.10063000  1.0 -0.4375171018
I  I4  1  0.65129000  0.13036000  0.60063000  1.0 -0.4375171018
I  I5  1  0.84871000  0.63036000  0.60063000  1.0 -0.4375171018
I  I6  1  0.65129000  0.36964000  0.10063000  1.0 -0.4375171018
I  I7  1  0.15129000  0.13036000  0.89937000  1.0 -0.4375171018
I  I8  1  0.34871000  0.86964000  0.39937000  1.0 -0.4375171018
N  N1  1  0.30670000  0.62860000  0.37650000  1.0 -0.3763785352
N  N2  1  0.19330000  0.37140000  0.87650000  1.0 -0.3763785352
N  N3  1  0.69330000  0.12860000  0.12350000  1.0 -0.3763785352
N  N4  1  0.80670000  0.87140000  0.62350000  1.0 -0.3763785352
N  N5  1  0.40380000  0.69990000  0.38420000  1.0 -0.4200422828
N  N6  1  0.09620000  0.30010000  0.88420000  1.0 -0.4200422828
N  N7  1  0.59620000  0.19990000  0.11580000  1.0 -0.4200422828
N  N8  1  0.90380000  0.80010000  0.61580000  1.0 -0.4200422828
N  N9  1  0.38300000  0.65040000  0.30880000  1.0 -0.4019141316
N  N10  1  0.11700000  0.34960000  0.80880000  1.0 -0.4053649669
N  N11  1  0.61700000  0.15040000  0.19120000  1.0 -0.4019141316
N  N12  1  0.88300000  0.84960000  0.69120000  1.0 -0.4053649669
N  N13  1  0.20920000  0.49970000  0.23350000  1.0 -0.2146464502
N  N14  1  0.29080000  0.50030000  0.73350000  1.0 -0.2146464502
N  N15  1  0.79080000  0.99970000  0.26650000  1.0 -0.2146464502
N  N16  1  0.70920000  0.00030000  0.76650000  1.0 -0.2146464502
N  N17  1  0.30090000  0.69880000  0.55990000  1.0 -0.2210181923
N  N18  1  0.19910000  0.30120000  0.05990000  1.0 -0.2210181923
N  N19  1  0.69910000  0.19880000  0.94010000  1.0 -0.2210181923
N  N20  1  0.80090000  0.80120000  0.44010000  1.0 -0.2210181923
N  N21  1  0.59310000  0.78240000  0.27600000  1.0 -0.1893446361
N  N22  1  0.90690000  0.21760000  0.77600000  1.0 -0.1893446361
N  N23  1  0.40690000  0.28240000  0.22400000  1.0 -0.1893446361
N  N24  1  0.09310000  0.71760000  0.72400000  1.0 -0.1893446361
N  N25  1  0.08250000  0.47920000  0.94560000  1.0 -0.4019141316
N  N26  1  0.41750000  0.52080000  0.44560000  1.0 -0.4019141316
N  N27  1  0.91750000  0.97920000  0.55440000  1.0 -0.4019141316
N  N28  1  0.58250000  0.02080000  0.05440000  1.0 -0.4019141316
N  N29  1  0.00310000  0.43990000  0.88510000  1.0 -0.4019141316
N  N30  1  0.49690000  0.56010000  0.38510000  1.0 -0.4019141316
N  N31  1  0.99690000  0.93990000  0.61490000  1.0 -0.4019141316
N  N32  1  0.50310000  0.06010000  0.11490000  1.0 -0.4019141316
N  N33  1  0.99700000  0.40350000  0.96880000  1.0 -0.4053649669
N  N34  1  0.50300000  0.59650000  0.46880000  1.0 -0.4053649669
N  N35  1  0.00300000  0.90350000  0.53120000  1.0 -0.4053649669
N  N36  1  0.49700000  0.09650000  0.03120000  1.0 -0.4019141316
N  N37  1  0.12470000  0.44090000  0.13170000  1.0 -0.2032186379
N  N38  1  0.37530000  0.55910000  0.63170000  1.0 -0.2032186379
N  N39  1  0.87530000  0.94090000  0.36830000  1.0 -0.2032186379
N  N40  1  0.62470000  0.05910000  0.86830000  1.0 -0.2032186379
N  N41  1  0.14350000  0.60470000  0.79400000  1.0 -0.2210181923
N  N42  1  0.35650000  0.39530000  0.29400000  1.0 -0.2210181923
N  N43  1  0.85650000  0.10470000  0.70600000  1.0 -0.2210181923
N  N44  1  0.64350000  0.89530000  0.20600000  1.0 -0.2210181923
N  N45  1  0.80860000  0.28480000  0.88690000  1.0 -0.1800807332
N  N46  1  0.69140000  0.71520000  0.38690000  1.0 -0.1800807332
N  N47  1  0.19140000  0.78480000  0.61310000  1.0 -0.1800807332
N  N48  1  0.30860000  0.21520000  0.11310000  1.0 -0.1800807332
N  N49  1  0.69330000  0.37140000  0.62350000  1.0 -0.3763785352
N  N50  1  0.80670000  0.62860000  0.12350000  1.0 -0.3763785352
N  N51  1  0.30670000  0.87140000  0.87650000  1.0 -0.3763785352
N  N52  1  0.19330000  0.12860000  0.37650000  1.0 -0.3763785352
N  N53  1  0.59620000  0.30010000  0.61580000  1.0 -0.4200422828
N  N54  1  0.90380000  0.69990000  0.11580000  1.0 -0.4200422828
N  N55  1  0.40380000  0.80010000  0.88420000  1.0 -0.4200422828
N  N56  1  0.09620000  0.19990000  0.38420000  1.0 -0.4200422828
N  N57  1  0.61700000  0.34960000  0.69120000  1.0 -0.4053649669
N  N58  1  0.88300000  0.65040000  0.19120000  1.0 -0.4053649669
N  N59  1  0.38300000  0.84960000  0.80880000  1.0 -0.4053649669
N  N60  1  0.11700000  0.15040000  0.30880000  1.0 -0.4019141316
N  N61  1  0.79080000  0.50030000  0.76650000  1.0 -0.2146464502
N  N62  1  0.70920000  0.49970000  0.26650000  1.0 -0.2146464502
N  N63  1  0.20920000  0.00030000  0.73350000  1.0 -0.2146464502
N  N64  1  0.29080000  0.99970000  0.23350000  1.0 -0.2146464502
N  N65  1  0.69910000  0.30120000  0.44010000  1.0 -0.2210181923
N  N66  1  0.80090000  0.69880000  0.94010000  1.0 -0.2210181923
N  N67  1  0.30090000  0.80120000  0.05990000  1.0 -0.2210181923
N  N68  1  0.19910000  0.19880000  0.55990000  1.0 -0.2210181923
N  N69  1  0.40690000  0.21760000  0.72400000  1.0 -0.1893446361
N  N70  1  0.09310000  0.78240000  0.22400000  1.0 -0.1893446361
N  N71  1  0.59310000  0.71760000  0.77600000  1.0 -0.1893446361
N  N72  1  0.90690000  0.28240000  0.27600000  1.0 -0.1893446361
N  N73  1  0.91750000  0.52080000  0.05440000  1.0 -0.4019141316
N  N74  1  0.58250000  0.47920000  0.55440000  1.0 -0.4019141316
N  N75  1  0.08250000  0.02080000  0.44560000  1.0 -0.4019141316
N  N76  1  0.41750000  0.97920000  0.94560000  1.0 -0.4019141316
N  N77  1  0.99690000  0.56010000  0.11490000  1.0 -0.4019141316
N  N78  1  0.50310000  0.43990000  0.61490000  1.0 -0.4019141316
N  N79  1  0.00310000  0.06010000  0.38510000  1.0 -0.4019141316
N  N80  1  0.49690000  0.93990000  0.88510000  1.0 -0.4019141316
N  N81  1  0.00300000  0.59650000  0.03120000  1.0 -0.4019141316
N  N82  1  0.49700000  0.40350000  0.53120000  1.0 -0.4019141316
N  N83  1  0.99700000  0.09650000  0.46880000  1.0 -0.4053649669
N  N84  1  0.50300000  0.90350000  0.96880000  1.0 -0.4053649669
N  N85  1  0.87530000  0.55910000  0.86830000  1.0 -0.2032186379
N  N86  1  0.62470000  0.44090000  0.36830000  1.0 -0.2032186379
N  N87  1  0.12470000  0.05910000  0.63170000  1.0 -0.2032186379
N  N88  1  0.37530000  0.94090000  0.13170000  1.0 -0.2032186379
N  N89  1  0.85650000  0.39530000  0.20600000  1.0 -0.2210181923
N  N90  1  0.64350000  0.60470000  0.70600000  1.0 -0.2210181923
N  N91  1  0.14350000  0.89530000  0.29400000  1.0 -0.2210181923
N  N92  1  0.35650000  0.10470000  0.79400000  1.0 -0.2210181923
N  N93  1  0.19140000  0.71520000  0.11310000  1.0 -0.1800807332
N  N94  1  0.30860000  0.28480000  0.61310000  1.0 -0.1800807332
N  N95  1  0.80860000  0.21520000  0.38690000  1.0 -0.1800807332
N  N96  1  0.69140000  0.78480000  0.88690000  1.0 -0.1800807332
