# DDEC6 charges by PACMAN v1.1 (https://github.com/mtap-research/PACMAN-charge/)
data_SAWJAC_ASR_pacman
_symmetry_space_group_name_H-M   'P 1'
_cell_length_a   24.27560000
_cell_length_b   24.27560000
_cell_length_c   35.43810000
_cell_angle_alpha   90.00000000
_cell_angle_beta   90.00000000
_cell_angle_gamma   120.00000000
_symmetry_Int_Tables_number   1
_chemical_formula_structural   Fe13H144C84(NO8)8
_chemical_formula_sum   'Fe78 H864 C504 N48 O384'
_cell_volume   18085.93670549
_cell_formula_units_Z   6
loop_
 _symmetry_equiv_pos_site_id
 _symmetry_equiv_pos_as_xyz
  1  'x, y, z'
loop_
 _atom_site_type_symbol
 _atom_site_label
 _atom_site_symmetry_multiplicity
 _atom_site_fract_x
 _atom_site_fract_y
 _atom_site_fract_z
 _atom_site_occupancy
 _atom_site_charge
Fe  Fe1  1  0.00000000  0.00000000  0.25000000  1.0 1.147682817
Fe  Fe2  1  0.00000000  0.00000000  0.75000000  1.0 1.147682817
Fe  Fe3  1  0.00000000  0.12906000  0.25000000  1.0 1.1798684311
Fe  Fe4  1  0.87094000  0.87094000  0.25000000  1.0 1.1798684311
Fe  Fe5  1  0.12906000  0.00000000  0.25000000  1.0 1.1798684311
Fe  Fe6  1  0.00000000  0.87094000  0.75000000  1.0 1.1798684311
Fe  Fe7  1  0.12906000  0.12906000  0.75000000  1.0 1.1798684311
Fe  Fe8  1  0.87094000  0.00000000  0.75000000  1.0 1.1798684311
Fe  Fe9  1  0.12809000  0.12809000  0.25000000  1.0 1.1798684311
Fe  Fe10  1  0.87191000  0.00000000  0.25000000  1.0 1.1798684311
Fe  Fe11  1  0.00000000  0.87191000  0.25000000  1.0 1.1798684311
Fe  Fe12  1  0.87191000  0.87191000  0.75000000  1.0 1.1798684311
Fe  Fe13  1  0.12809000  0.00000000  0.75000000  1.0 1.1798684311
Fe  Fe14  1  0.00000000  0.12809000  0.75000000  1.0 1.1798684311
Fe  Fe15  1  0.11415000  0.21491000  0.31766000  1.0 1.0382204962
Fe  Fe16  1  0.78509000  0.89924000  0.31766000  1.0 1.0382204962
Fe  Fe17  1  0.10076000  0.88585000  0.31766000  1.0 1.0382204962
Fe  Fe18  1  0.21491000  0.11415000  0.18234000  1.0 1.0382204962
Fe  Fe19  1  0.89924000  0.78509000  0.18234000  1.0 1.0382204962
Fe  Fe20  1  0.88585000  0.10076000  0.18234000  1.0 1.0382204962
Fe  Fe21  1  0.88585000  0.78509000  0.68234000  1.0 1.0382204962
Fe  Fe22  1  0.21491000  0.10076000  0.68234000  1.0 1.0382204962
Fe  Fe23  1  0.89924000  0.11415000  0.68234000  1.0 1.0382204962
Fe  Fe24  1  0.78509000  0.88585000  0.81766000  1.0 1.0382204962
Fe  Fe25  1  0.10076000  0.21491000  0.81766000  1.0 1.0346279454
Fe  Fe26  1  0.11415000  0.89924000  0.81766000  1.0 1.0346279454
Fe  Fe27  1  0.33333333  0.66666667  0.42863000  1.0 1.3211692286
Fe  Fe28  1  0.66666667  0.33333333  0.07137000  1.0 1.3211692286
Fe  Fe29  1  0.66666667  0.33333333  0.57137000  1.0 1.3211692286
Fe  Fe30  1  0.33333333  0.66666667  0.92863000  1.0 1.3211692286
Fe  Fe31  1  0.19400000  0.55071000  0.42606000  1.0 1.2209293656
Fe  Fe32  1  0.44929000  0.64329000  0.42606000  1.0 1.2209293656
Fe  Fe33  1  0.35671000  0.80600000  0.42606000  1.0 1.2209293656
Fe  Fe34  1  0.55071000  0.19400000  0.07394000  1.0 1.2209293656
Fe  Fe35  1  0.64329000  0.44929000  0.07394000  1.0 1.2209293656
Fe  Fe36  1  0.80600000  0.35671000  0.07394000  1.0 1.2209293656
Fe  Fe37  1  0.80600000  0.44929000  0.57394000  1.0 1.2209293656
Fe  Fe38  1  0.55071000  0.35671000  0.57394000  1.0 1.2209293656
Fe  Fe39  1  0.64329000  0.19400000  0.57394000  1.0 1.2209293656
Fe  Fe40  1  0.44929000  0.80600000  0.92606000  1.0 1.2209293656
Fe  Fe41  1  0.35671000  0.55071000  0.92606000  1.0 1.2209293656
Fe  Fe42  1  0.19400000  0.64329000  0.92606000  1.0 1.2209293656
Fe  Fe43  1  0.31064000  0.52918000  0.42805000  1.0 1.258604339
Fe  Fe44  1  0.47082000  0.78146000  0.42805000  1.0 1.258604339
Fe  Fe45  1  0.21854000  0.68936000  0.42805000  1.0 1.258604339
Fe  Fe46  1  0.52918000  0.31064000  0.07195000  1.0 1.258604339
Fe  Fe47  1  0.78146000  0.47082000  0.07195000  1.0 1.258604339
Fe  Fe48  1  0.68936000  0.21854000  0.07195000  1.0 1.258604339
Fe  Fe49  1  0.68936000  0.47082000  0.57195000  1.0 1.258604339
Fe  Fe50  1  0.52918000  0.21854000  0.57195000  1.0 1.258604339
Fe  Fe51  1  0.78146000  0.31064000  0.57195000  1.0 1.258604339
Fe  Fe52  1  0.47082000  0.68936000  0.92805000  1.0 1.258604339
Fe  Fe53  1  0.21854000  0.52918000  0.92805000  1.0 1.258604339
Fe  Fe54  1  0.31064000  0.78146000  0.92805000  1.0 1.258604339
Fe  Fe55  1  0.19995000  0.44907000  0.36146000  1.0 1.2390741221
Fe  Fe56  1  0.55093000  0.75088000  0.36146000  1.0 1.2390741221
Fe  Fe57  1  0.24912000  0.80005000  0.36146000  1.0 1.2390741221
Fe  Fe58  1  0.44907000  0.19995000  0.13854000  1.0 1.2390741221
Fe  Fe59  1  0.75088000  0.55093000  0.13854000  1.0 1.2390741221
Fe  Fe60  1  0.80005000  0.24912000  0.13854000  1.0 1.2390741221
Fe  Fe61  1  0.80005000  0.55093000  0.63854000  1.0 1.2390741221
Fe  Fe62  1  0.44907000  0.24912000  0.63854000  1.0 1.2390741221
Fe  Fe63  1  0.75088000  0.19995000  0.63854000  1.0 1.2390741221
Fe  Fe64  1  0.55093000  0.80005000  0.86146000  1.0 1.2390741221
Fe  Fe65  1  0.24912000  0.44907000  0.86146000  1.0 1.2390741221
Fe  Fe66  1  0.19995000  0.75088000  0.86146000  1.0 1.2390741221
Fe  Fe67  1  0.10886000  0.58869000  0.48899000  1.0 1.123131187
Fe  Fe68  1  0.41131000  0.52017000  0.48899000  1.0 1.1266726225
Fe  Fe69  1  0.47983000  0.89114000  0.48899000  1.0 1.123131187
Fe  Fe70  1  0.58869000  0.10886000  0.01101000  1.0 1.1266726225
Fe  Fe71  1  0.52017000  0.41131000  0.01101000  1.0 1.1266726225
Fe  Fe72  1  0.89114000  0.47983000  0.01101000  1.0 1.1266726225
Fe  Fe73  1  0.89114000  0.41131000  0.51101000  1.0 1.1266726225
Fe  Fe74  1  0.58869000  0.47983000  0.51101000  1.0 1.1266726225
Fe  Fe75  1  0.52017000  0.10886000  0.51101000  1.0 1.1266726225
Fe  Fe76  1  0.41131000  0.89114000  0.98899000  1.0 1.123131187
Fe  Fe77  1  0.47983000  0.58869000  0.98899000  1.0 1.123131187
Fe  Fe78  1  0.10886000  0.52017000  0.98899000  1.0 1.123131187
H  H1  1  0.00000000  0.00000000  0.39600000  1.0 0.5268840641
H  H2  1  0.00000000  0.00000000  0.10400000  1.0 0.5268840641
H  H3  1  0.00000000  0.00000000  0.60400000  1.0 0.524230849
H  H4  1  0.00000000  0.00000000  0.89600000  1.0 0.524230849
H  H5  1  0.04090000  0.08220000  0.19230000  1.0 0.3355310869
H  H6  1  0.91780000  0.95870000  0.19230000  1.0 0.3355310869
H  H7  1  0.04130000  0.95910000  0.19230000  1.0 0.3355310869
H  H8  1  0.08220000  0.04090000  0.30770000  1.0 0.3355310869
H  H9  1  0.95870000  0.91780000  0.30770000  1.0 0.3355310869
H  H10  1  0.95910000  0.04130000  0.30770000  1.0 0.3355310869
H  H11  1  0.95910000  0.91780000  0.80770000  1.0 0.3355310869
H  H12  1  0.08220000  0.04130000  0.80770000  1.0 0.3355310869
H  H13  1  0.95870000  0.04090000  0.80770000  1.0 0.3355310869
H  H14  1  0.91780000  0.95910000  0.69230000  1.0 0.3355310869
H  H15  1  0.04130000  0.08220000  0.69230000  1.0 0.3355310869
H  H16  1  0.04090000  0.95870000  0.69230000  1.0 0.3355310869
H  H17  1  0.09500000  0.04170000  0.43040000  1.0 0.0899346986
H  H18  1  0.95830000  0.05330000  0.43040000  1.0 0.0899346986
H  H19  1  0.94670000  0.90500000  0.43040000  1.0 0.0899346986
H  H20  1  0.04170000  0.09500000  0.06960000  1.0 0.0899346986
H  H21  1  0.05330000  0.95830000  0.06960000  1.0 0.0899346986
H  H22  1  0.90500000  0.94670000  0.06960000  1.0 0.0899346986
H  H23  1  0.90500000  0.95830000  0.56960000  1.0 0.0899346986
H  H24  1  0.04170000  0.94670000  0.56960000  1.0 0.0899346986
H  H25  1  0.05330000  0.09500000  0.56960000  1.0 0.0899346986
H  H26  1  0.95830000  0.90500000  0.93040000  1.0 0.0899346986
H  H27  1  0.94670000  0.04170000  0.93040000  1.0 0.0899346986
H  H28  1  0.09500000  0.05330000  0.93040000  1.0 0.0899346986
H  H29  1  0.05990000  0.06710000  0.45750000  1.0 0.0595684922
H  H30  1  0.93290000  0.99280000  0.45750000  1.0 0.0595684922
H  H31  1  0.00720000  0.94010000  0.45750000  1.0 0.0595684922
H  H32  1  0.06710000  0.05990000  0.04250000  1.0 0.0595684922
H  H33  1  0.99280000  0.93290000  0.04250000  1.0 0.0595684922
H  H34  1  0.94010000  0.00720000  0.04250000  1.0 0.0595684922
H  H35  1  0.94010000  0.93290000  0.54250000  1.0 0.0595684922
H  H36  1  0.06710000  0.00720000  0.54250000  1.0 0.0595684922
H  H37  1  0.99280000  0.05990000  0.54250000  1.0 0.0595684922
H  H38  1  0.93290000  0.94010000  0.95750000  1.0 0.0595684922
H  H39  1  0.00720000  0.06710000  0.95750000  1.0 0.0595684922
H  H40  1  0.05990000  0.99280000  0.95750000  1.0 0.0595684922
H  H41  1  0.04950000  0.12350000  0.40510000  1.0 0.0988514576
H  H42  1  0.87650000  0.92600000  0.40510000  1.0 0.0988514576
H  H43  1  0.07400000  0.95050000  0.40510000  1.0 0.0988514576
H  H44  1  0.12350000  0.04950000  0.09490000  1.0 0.0988514576
H  H45  1  0.92600000  0.87650000  0.09490000  1.0 0.0988514576
H  H46  1  0.95050000  0.07400000  0.09490000  1.0 0.0988514576
H  H47  1  0.95050000  0.87650000  0.59490000  1.0 0.0988514576
H  H48  1  0.12350000  0.07400000  0.59490000  1.0 0.0988514576
H  H49  1  0.92600000  0.04950000  0.59490000  1.0 0.0988514576
H  H50  1  0.87650000  0.95050000  0.90510000  1.0 0.0988514576
H  H51  1  0.07400000  0.12350000  0.90510000  1.0 0.0988514576
H  H52  1  0.04950000  0.92600000  0.90510000  1.0 0.0988514576
H  H53  1  0.12180000  0.14900000  0.41710000  1.0 0.0899346986
H  H54  1  0.85100000  0.97280000  0.41710000  1.0 0.0899346986
H  H55  1  0.02720000  0.87820000  0.41710000  1.0 0.0899346986
H  H56  1  0.14900000  0.12180000  0.08290000  1.0 0.0899346986
H  H57  1  0.97280000  0.85100000  0.08290000  1.0 0.0899346986
H  H58  1  0.87820000  0.02720000  0.08290000  1.0 0.0899346986
H  H59  1  0.87820000  0.85100000  0.58290000  1.0 0.0899346986
H  H60  1  0.14900000  0.02720000  0.58290000  1.0 0.0899346986
H  H61  1  0.97280000  0.12180000  0.58290000  1.0 0.0899346986
H  H62  1  0.85100000  0.87820000  0.91710000  1.0 0.0899346986
H  H63  1  0.02720000  0.14900000  0.91710000  1.0 0.0899346986
H  H64  1  0.12180000  0.97280000  0.91710000  1.0 0.0899346986
H  H65  1  0.09680000  0.03460000  0.43390000  1.0 0.0899346986
H  H66  1  0.96540000  0.06220000  0.43390000  1.0 0.0899346986
H  H67  1  0.93780000  0.90320000  0.43390000  1.0 0.0899346986
H  H68  1  0.03460000  0.09680000  0.06610000  1.0 0.0899346986
H  H69  1  0.06220000  0.96540000  0.06610000  1.0 0.0899346986
H  H70  1  0.90320000  0.93780000  0.06610000  1.0 0.0899346986
H  H71  1  0.90320000  0.96540000  0.56610000  1.0 0.0899346986
H  H72  1  0.03460000  0.93780000  0.56610000  1.0 0.0899346986
H  H73  1  0.06220000  0.09680000  0.56610000  1.0 0.0899346986
H  H74  1  0.96540000  0.90320000  0.93390000  1.0 0.0899346986
H  H75  1  0.93780000  0.03460000  0.93390000  1.0 0.0899346986
H  H76  1  0.09680000  0.06220000  0.93390000  1.0 0.0899346986
H  H77  1  0.04920000  0.98300000  0.46400000  1.0 0.0595684922
H  H78  1  0.01700000  0.06620000  0.46400000  1.0 0.0595684922
H  H79  1  0.93380000  0.95080000  0.46400000  1.0 0.0595684922
H  H80  1  0.98300000  0.04920000  0.03600000  1.0 0.0595684922
H  H81  1  0.06620000  0.01700000  0.03600000  1.0 0.0595684922
H  H82  1  0.95080000  0.93380000  0.03600000  1.0 0.0595684922
H  H83  1  0.95080000  0.01700000  0.53600000  1.0 0.0595684922
H  H84  1  0.98300000  0.93380000  0.53600000  1.0 0.0595684922
H  H85  1  0.06620000  0.04920000  0.53600000  1.0 0.0595684922
H  H86  1  0.01700000  0.95080000  0.96400000  1.0 0.0595684922
H  H87  1  0.93380000  0.98300000  0.96400000  1.0 0.0595684922
H  H88  1  0.04920000  0.06620000  0.96400000  1.0 0.0595684922
H  H89  1  0.06360000  0.15530000  0.42450000  1.0 0.0899346986
H  H90  1  0.84470000  0.90830000  0.42450000  1.0 0.0899346986
H  H91  1  0.09170000  0.93640000  0.42450000  1.0 0.0899346986
H  H92  1  0.15530000  0.06360000  0.07550000  1.0 0.0899346986
H  H93  1  0.90830000  0.84470000  0.07550000  1.0 0.0899346986
H  H94  1  0.93640000  0.09170000  0.07550000  1.0 0.0899346986
H  H95  1  0.93640000  0.84470000  0.57550000  1.0 0.0899346986
H  H96  1  0.15530000  0.09170000  0.57550000  1.0 0.0899346986
H  H97  1  0.90830000  0.06360000  0.57550000  1.0 0.0899346986
H  H98  1  0.84470000  0.93640000  0.92450000  1.0 0.0899346986
H  H99  1  0.09170000  0.15530000  0.92450000  1.0 0.0899346986
H  H100  1  0.06360000  0.90830000  0.92450000  1.0 0.0899346986
H  H101  1  0.09730000  0.11370000  0.41910000  1.0 0.081568343
H  H102  1  0.88630000  0.98360000  0.41910000  1.0 0.081568343
H  H103  1  0.01640000  0.90270000  0.41910000  1.0 0.081568343
H  H104  1  0.11370000  0.09730000  0.08090000  1.0 0.081568343
H  H105  1  0.98360000  0.88630000  0.08090000  1.0 0.081568343
H  H106  1  0.90270000  0.01640000  0.08090000  1.0 0.081568343
H  H107  1  0.90270000  0.88630000  0.58090000  1.0 0.081568343
H  H108  1  0.11370000  0.01640000  0.58090000  1.0 0.081568343
H  H109  1  0.98360000  0.09730000  0.58090000  1.0 0.081568343
H  H110  1  0.88630000  0.90270000  0.91910000  1.0 0.081568343
H  H111  1  0.01640000  0.11370000  0.91910000  1.0 0.081568343
H  H112  1  0.09730000  0.98360000  0.91910000  1.0 0.081568343
H  H113  1  0.13200000  0.27830000  0.22320000  1.0 0.2904394832
H  H114  1  0.72170000  0.85370000  0.22320000  1.0 0.2904394832
H  H115  1  0.14630000  0.86800000  0.22320000  1.0 0.2904394832
H  H116  1  0.27830000  0.13200000  0.27680000  1.0 0.2904394832
H  H117  1  0.85370000  0.72170000  0.27680000  1.0 0.2904394832
H  H118  1  0.86800000  0.14630000  0.27680000  1.0 0.2904394832
H  H119  1  0.86800000  0.72170000  0.77680000  1.0 0.2904394832
H  H120  1  0.27830000  0.14630000  0.77680000  1.0 0.2904394832
H  H121  1  0.85370000  0.13200000  0.77680000  1.0 0.2904394832
H  H122  1  0.72170000  0.86800000  0.72320000  1.0 0.2904394832
H  H123  1  0.14630000  0.27830000  0.72320000  1.0 0.2904394832
H  H124  1  0.13200000  0.85370000  0.72320000  1.0 0.2904394832
H  H125  1  0.14680000  0.26550000  0.16090000  1.0 0.0988514576
H  H126  1  0.73450000  0.88130000  0.16090000  1.0 0.0988514576
H  H127  1  0.11870000  0.85320000  0.16090000  1.0 0.0988514576
H  H128  1  0.26550000  0.14680000  0.33910000  1.0 0.0988514576
H  H129  1  0.88130000  0.73450000  0.33910000  1.0 0.0988514576
H  H130  1  0.85320000  0.11870000  0.33910000  1.0 0.0988514576
H  H131  1  0.85320000  0.73450000  0.83910000  1.0 0.0988514576
H  H132  1  0.26550000  0.11870000  0.83910000  1.0 0.0988514576
H  H133  1  0.88130000  0.14680000  0.83910000  1.0 0.0988514576
H  H134  1  0.73450000  0.85320000  0.66090000  1.0 0.0988514576
H  H135  1  0.11870000  0.26550000  0.66090000  1.0 0.0988514576
H  H136  1  0.14680000  0.88130000  0.66090000  1.0 0.0988514576
H  H137  1  0.15920000  0.33540000  0.15240000  1.0 0.0899346986
H  H138  1  0.66460000  0.82380000  0.15240000  1.0 0.0899346986
H  H139  1  0.17620000  0.84080000  0.15240000  1.0 0.0899346986
H  H140  1  0.33540000  0.15920000  0.34760000  1.0 0.0899346986
H  H141  1  0.82380000  0.66460000  0.34760000  1.0 0.0899346986
H  H142  1  0.84080000  0.17620000  0.34760000  1.0 0.0899346986
H  H143  1  0.84080000  0.66460000  0.84760000  1.0 0.0899346986
H  H144  1  0.33540000  0.17620000  0.84760000  1.0 0.0899346986
H  H145  1  0.82380000  0.15920000  0.84760000  1.0 0.0899346986
H  H146  1  0.66460000  0.84080000  0.65240000  1.0 0.0899346986
H  H147  1  0.17620000  0.33540000  0.65240000  1.0 0.0899346986
H  H148  1  0.15920000  0.82380000  0.65240000  1.0 0.0899346986
H  H149  1  0.05210000  0.30220000  0.16690000  1.0 0.149009124
H  H150  1  0.69780000  0.74990000  0.16690000  1.0 0.149009124
H  H151  1  0.25010000  0.94790000  0.16690000  1.0 0.149009124
H  H152  1  0.30220000  0.05210000  0.33310000  1.0 0.149009124
H  H153  1  0.74990000  0.69780000  0.33310000  1.0 0.149009124
H  H154  1  0.94790000  0.25010000  0.33310000  1.0 0.149009124
H  H155  1  0.94790000  0.69780000  0.83310000  1.0 0.149009124
H  H156  1  0.30220000  0.25010000  0.83310000  1.0 0.149009124
H  H157  1  0.74990000  0.05210000  0.83310000  1.0 0.149009124
H  H158  1  0.69780000  0.94790000  0.66690000  1.0 0.149009124
H  H159  1  0.25010000  0.30220000  0.66690000  1.0 0.149009124
H  H160  1  0.05210000  0.74990000  0.66690000  1.0 0.149009124
H  H161  1  0.05710000  0.26240000  0.13260000  1.0 0.1390223222
H  H162  1  0.73760000  0.79470000  0.13260000  1.0 0.1390223222
H  H163  1  0.20530000  0.94290000  0.13260000  1.0 0.1390223222
H  H164  1  0.26240000  0.05710000  0.36740000  1.0 0.1390223222
H  H165  1  0.79470000  0.73760000  0.36740000  1.0 0.1390223222
H  H166  1  0.94290000  0.20530000  0.36740000  1.0 0.1390223222
H  H167  1  0.94290000  0.73760000  0.86740000  1.0 0.1390223222
H  H168  1  0.26240000  0.20530000  0.86740000  1.0 0.1390223222
H  H169  1  0.79470000  0.05710000  0.86740000  1.0 0.1390223222
H  H170  1  0.73760000  0.94290000  0.63260000  1.0 0.1390223222
H  H171  1  0.20530000  0.26240000  0.63260000  1.0 0.1390223222
H  H172  1  0.05710000  0.79470000  0.63260000  1.0 0.1390223222
H  H173  1  0.23150000  0.34130000  0.24210000  1.0 0.111731164
H  H174  1  0.65870000  0.89020000  0.24210000  1.0 0.111731164
H  H175  1  0.10980000  0.76850000  0.24210000  1.0 0.111731164
H  H176  1  0.34130000  0.23150000  0.25790000  1.0 0.111731164
H  H177  1  0.89020000  0.65870000  0.25790000  1.0 0.111731164
H  H178  1  0.76850000  0.10980000  0.25790000  1.0 0.111731164
H  H179  1  0.76850000  0.65870000  0.75790000  1.0 0.111731164
H  H180  1  0.34130000  0.10980000  0.75790000  1.0 0.111731164
H  H181  1  0.89020000  0.23150000  0.75790000  1.0 0.111731164
H  H182  1  0.65870000  0.76850000  0.74210000  1.0 0.111731164
H  H183  1  0.10980000  0.34130000  0.74210000  1.0 0.111731164
H  H184  1  0.23150000  0.89020000  0.74210000  1.0 0.111731164
H  H185  1  0.24620000  0.38630000  0.20620000  1.0 0.081568343
H  H186  1  0.61370000  0.85990000  0.20620000  1.0 0.081568343
H  H187  1  0.14010000  0.75380000  0.20620000  1.0 0.081568343
H  H188  1  0.38630000  0.24620000  0.29380000  1.0 0.081568343
H  H189  1  0.85990000  0.61370000  0.29380000  1.0 0.081568343
H  H190  1  0.75380000  0.14010000  0.29380000  1.0 0.081568343
H  H191  1  0.75380000  0.61370000  0.79380000  1.0 0.081568343
H  H192  1  0.38630000  0.14010000  0.79380000  1.0 0.081568343
H  H193  1  0.85990000  0.24620000  0.79380000  1.0 0.081568343
H  H194  1  0.61370000  0.75380000  0.70620000  1.0 0.081568343
H  H195  1  0.14010000  0.38630000  0.70620000  1.0 0.081568343
H  H196  1  0.24620000  0.85990000  0.70620000  1.0 0.081568343
H  H197  1  0.24790000  0.31110000  0.16720000  1.0 0.1390223222
H  H198  1  0.68890000  0.93680000  0.16720000  1.0 0.1390223222
H  H199  1  0.06320000  0.75210000  0.16720000  1.0 0.1390223222
H  H200  1  0.31110000  0.24790000  0.33280000  1.0 0.1390223222
H  H201  1  0.93680000  0.68890000  0.33280000  1.0 0.1390223222
H  H202  1  0.75210000  0.06320000  0.33280000  1.0 0.1390223222
H  H203  1  0.75210000  0.68890000  0.83280000  1.0 0.1390223222
H  H204  1  0.31110000  0.06320000  0.83280000  1.0 0.1390223222
H  H205  1  0.93680000  0.24790000  0.83280000  1.0 0.1390223222
H  H206  1  0.68890000  0.75210000  0.66720000  1.0 0.1390223222
H  H207  1  0.06320000  0.31110000  0.66720000  1.0 0.1390223222
H  H208  1  0.24790000  0.93680000  0.66720000  1.0 0.1390223222
H  H209  1  0.29730000  0.32760000  0.20080000  1.0 0.1390223222
H  H210  1  0.67240000  0.96970000  0.20080000  1.0 0.1390223222
H  H211  1  0.03030000  0.70270000  0.20080000  1.0 0.1390223222
H  H212  1  0.32760000  0.29730000  0.29920000  1.0 0.1390223222
H  H213  1  0.96970000  0.67240000  0.29920000  1.0 0.1390223222
H  H214  1  0.70270000  0.03030000  0.29920000  1.0 0.1390223222
H  H215  1  0.70270000  0.67240000  0.79920000  1.0 0.1390223222
H  H216  1  0.32760000  0.03030000  0.79920000  1.0 0.1390223222
H  H217  1  0.96970000  0.29730000  0.79920000  1.0 0.1390223222
H  H218  1  0.67240000  0.70270000  0.70080000  1.0 0.1390223222
H  H219  1  0.03030000  0.32760000  0.70080000  1.0 0.1390223222
H  H220  1  0.29730000  0.96970000  0.70080000  1.0 0.1390223222
H  H221  1  0.14330000  0.39430000  0.20430000  1.0 0.0899346986
H  H222  1  0.60570000  0.74900000  0.20430000  1.0 0.0899346986
H  H223  1  0.25100000  0.85670000  0.20430000  1.0 0.0899346986
H  H224  1  0.39430000  0.14330000  0.29570000  1.0 0.0899346986
H  H225  1  0.74900000  0.60570000  0.29570000  1.0 0.0899346986
H  H226  1  0.85670000  0.25100000  0.29570000  1.0 0.0899346986
H  H227  1  0.85670000  0.60570000  0.79570000  1.0 0.0899346986
H  H228  1  0.39430000  0.25100000  0.79570000  1.0 0.0899346986
H  H229  1  0.74900000  0.14330000  0.79570000  1.0 0.0899346986
H  H230  1  0.60570000  0.85670000  0.70430000  1.0 0.0899346986
H  H231  1  0.25100000  0.39430000  0.70430000  1.0 0.0899346986
H  H232  1  0.14330000  0.74900000  0.70430000  1.0 0.0899346986
H  H233  1  0.08480000  0.33670000  0.22540000  1.0 0.111731164
H  H234  1  0.66330000  0.74810000  0.22540000  1.0 0.111731164
H  H235  1  0.25190000  0.91520000  0.22540000  1.0 0.111731164
H  H236  1  0.33670000  0.08480000  0.27460000  1.0 0.111731164
H  H237  1  0.74810000  0.66330000  0.27460000  1.0 0.111731164
H  H238  1  0.91520000  0.25190000  0.27460000  1.0 0.111731164
H  H239  1  0.91520000  0.66330000  0.77460000  1.0 0.111731164
H  H240  1  0.33670000  0.25190000  0.77460000  1.0 0.111731164
H  H241  1  0.74810000  0.08480000  0.77460000  1.0 0.111731164
H  H242  1  0.66330000  0.91520000  0.72540000  1.0 0.111731164
H  H243  1  0.25190000  0.33670000  0.72540000  1.0 0.111731164
H  H244  1  0.08480000  0.74810000  0.72540000  1.0 0.111731164
H  H245  1  0.14270000  0.42100000  0.26640000  1.0 0.149009124
H  H246  1  0.57900000  0.72170000  0.26640000  1.0 0.149009124
H  H247  1  0.27830000  0.85730000  0.26640000  1.0 0.149009124
H  H248  1  0.42100000  0.14270000  0.23360000  1.0 0.149009124
H  H249  1  0.72170000  0.57900000  0.23360000  1.0 0.149009124
H  H250  1  0.85730000  0.27830000  0.23360000  1.0 0.149009124
H  H251  1  0.85730000  0.57900000  0.73360000  1.0 0.149009124
H  H252  1  0.42100000  0.27830000  0.73360000  1.0 0.149009124
H  H253  1  0.72170000  0.14270000  0.73360000  1.0 0.149009124
H  H254  1  0.57900000  0.85730000  0.76640000  1.0 0.149009124
H  H255  1  0.27830000  0.42100000  0.76640000  1.0 0.149009124
H  H256  1  0.14270000  0.72170000  0.76640000  1.0 0.149009124
H  H257  1  0.20550000  0.41760000  0.25820000  1.0 0.1319097231
H  H258  1  0.58240000  0.78790000  0.25820000  1.0 0.1319097231
H  H259  1  0.21210000  0.79450000  0.25820000  1.0 0.1319097231
H  H260  1  0.41760000  0.20550000  0.24180000  1.0 0.1319097231
H  H261  1  0.78790000  0.58240000  0.24180000  1.0 0.1319097231
H  H262  1  0.79450000  0.21210000  0.24180000  1.0 0.1319097231
H  H263  1  0.79450000  0.58240000  0.74180000  1.0 0.1319097231
H  H264  1  0.41760000  0.21210000  0.74180000  1.0 0.1319097231
H  H265  1  0.78790000  0.20550000  0.74180000  1.0 0.1319097231
H  H266  1  0.58240000  0.79450000  0.75820000  1.0 0.1319097231
H  H267  1  0.21210000  0.41760000  0.75820000  1.0 0.1319097231
H  H268  1  0.20550000  0.78790000  0.75820000  1.0 0.1319097231
H  H269  1  0.27990000  0.58450000  0.48520000  1.0 0.3912265164
H  H270  1  0.41550000  0.69540000  0.48520000  1.0 0.3912265164
H  H271  1  0.30460000  0.72010000  0.48520000  1.0 0.3912265164
H  H272  1  0.58450000  0.27990000  0.01480000  1.0 0.3912265164
H  H273  1  0.69540000  0.41550000  0.01480000  1.0 0.3912265164
H  H274  1  0.72010000  0.30460000  0.01480000  1.0 0.3912265164
H  H275  1  0.72010000  0.41550000  0.51480000  1.0 0.3912265164
H  H276  1  0.58450000  0.30460000  0.51480000  1.0 0.3912265164
H  H277  1  0.69540000  0.27990000  0.51480000  1.0 0.3912265164
H  H278  1  0.41550000  0.72010000  0.98520000  1.0 0.3912265164
H  H279  1  0.30460000  0.58450000  0.98520000  1.0 0.3912265164
H  H280  1  0.27990000  0.69540000  0.98520000  1.0 0.3912265164
H  H281  1  0.36020000  0.61460000  0.37080000  1.0 0.3833364857
H  H282  1  0.38540000  0.74560000  0.37080000  1.0 0.3833364857
H  H283  1  0.25440000  0.63980000  0.37080000  1.0 0.3833364857
H  H284  1  0.61460000  0.36020000  0.12920000  1.0 0.3833364857
H  H285  1  0.74560000  0.38540000  0.12920000  1.0 0.3833364857
H  H286  1  0.63980000  0.25440000  0.12920000  1.0 0.3833364857
H  H287  1  0.63980000  0.38540000  0.62920000  1.0 0.3833364857
H  H288  1  0.61460000  0.25440000  0.62920000  1.0 0.3833364857
H  H289  1  0.74560000  0.36020000  0.62920000  1.0 0.3833364857
H  H290  1  0.38540000  0.63980000  0.87080000  1.0 0.3833364857
H  H291  1  0.25440000  0.61460000  0.87080000  1.0 0.3833364857
H  H292  1  0.36020000  0.74560000  0.87080000  1.0 0.3833364857
H  H293  1  0.33333333  0.66666667  0.28910000  1.0 0.2733167869
H  H294  1  0.66666667  0.33333333  0.21090000  1.0 0.2733167869
H  H295  1  0.66666667  0.33333333  0.71090000  1.0 0.2733167869
H  H296  1  0.33333333  0.66666667  0.78910000  1.0 0.2733167869
H  H297  1  0.38830000  0.62550000  0.25570000  1.0 0.0988514576
H  H298  1  0.37450000  0.76280000  0.25570000  1.0 0.0988514576
H  H299  1  0.23720000  0.61170000  0.25570000  1.0 0.0988514576
H  H300  1  0.62550000  0.38830000  0.24430000  1.0 0.0988514576
H  H301  1  0.76280000  0.37450000  0.24430000  1.0 0.0988514576
H  H302  1  0.61170000  0.23720000  0.24430000  1.0 0.0988514576
H  H303  1  0.61170000  0.37450000  0.74430000  1.0 0.0988514576
H  H304  1  0.62550000  0.23720000  0.74430000  1.0 0.0988514576
H  H305  1  0.76280000  0.38830000  0.74430000  1.0 0.0988514576
H  H306  1  0.37450000  0.61170000  0.75570000  1.0 0.0988514576
H  H307  1  0.23720000  0.62550000  0.75570000  1.0 0.0988514576
H  H308  1  0.38830000  0.76280000  0.75570000  1.0 0.0988514576
H  H309  1  0.33890000  0.61020000  0.22210000  1.0 0.081568343
H  H310  1  0.38980000  0.72870000  0.22210000  1.0 0.081568343
H  H311  1  0.27130000  0.66110000  0.22210000  1.0 0.081568343
H  H312  1  0.61020000  0.33890000  0.27790000  1.0 0.081568343
H  H313  1  0.72870000  0.38980000  0.27790000  1.0 0.081568343
H  H314  1  0.66110000  0.27130000  0.27790000  1.0 0.081568343
H  H315  1  0.66110000  0.38980000  0.77790000  1.0 0.081568343
H  H316  1  0.61020000  0.27130000  0.77790000  1.0 0.081568343
H  H317  1  0.72870000  0.33890000  0.77790000  1.0 0.081568343
H  H318  1  0.38980000  0.66110000  0.72210000  1.0 0.081568343
H  H319  1  0.27130000  0.61020000  0.72210000  1.0 0.081568343
H  H320  1  0.33890000  0.72870000  0.72210000  1.0 0.081568343
H  H321  1  0.25510000  0.53880000  0.26160000  1.0 0.1390223222
H  H322  1  0.46120000  0.71630000  0.26160000  1.0 0.1390223222
H  H323  1  0.28370000  0.74490000  0.26160000  1.0 0.1390223222
H  H324  1  0.53880000  0.25510000  0.23840000  1.0 0.1390223222
H  H325  1  0.71630000  0.46120000  0.23840000  1.0 0.1390223222
H  H326  1  0.74490000  0.28370000  0.23840000  1.0 0.1390223222
H  H327  1  0.74490000  0.46120000  0.73840000  1.0 0.1390223222
H  H328  1  0.53880000  0.28370000  0.73840000  1.0 0.1390223222
H  H329  1  0.71630000  0.25510000  0.73840000  1.0 0.1390223222
H  H330  1  0.46120000  0.74490000  0.76160000  1.0 0.1390223222
H  H331  1  0.28370000  0.53880000  0.76160000  1.0 0.1390223222
H  H332  1  0.25510000  0.71630000  0.76160000  1.0 0.1390223222
H  H333  1  0.30680000  0.51760000  0.25520000  1.0 0.1390223222
H  H334  1  0.48240000  0.78920000  0.25520000  1.0 0.1390223222
H  H335  1  0.21080000  0.69320000  0.25520000  1.0 0.1390223222
H  H336  1  0.51760000  0.30680000  0.24480000  1.0 0.1390223222
H  H337  1  0.78920000  0.48240000  0.24480000  1.0 0.1390223222
H  H338  1  0.69320000  0.21080000  0.24480000  1.0 0.1390223222
H  H339  1  0.69320000  0.48240000  0.74480000  1.0 0.1390223222
H  H340  1  0.51760000  0.21080000  0.74480000  1.0 0.1390223222
H  H341  1  0.78920000  0.30680000  0.74480000  1.0 0.1390223222
H  H342  1  0.48240000  0.69320000  0.75520000  1.0 0.1390223222
H  H343  1  0.21080000  0.51760000  0.75520000  1.0 0.1390223222
H  H344  1  0.30680000  0.78920000  0.75520000  1.0 0.1390223222
H  H345  1  0.33333333  0.66666667  0.56490000  1.0 0.284015776
H  H346  1  0.66666667  0.33333333  0.93510000  1.0 0.284015776
H  H347  1  0.66666667  0.33333333  0.43510000  1.0 0.284015776
H  H348  1  0.33333333  0.66666667  0.06490000  1.0 0.284015776
H  H349  1  0.26830000  0.57380000  0.59990000  1.0 0.0988514576
H  H350  1  0.42620000  0.69450000  0.59990000  1.0 0.0988514576
H  H351  1  0.30550000  0.73170000  0.59990000  1.0 0.0988514576
H  H352  1  0.57380000  0.26830000  0.90010000  1.0 0.0988514576
H  H353  1  0.69450000  0.42620000  0.90010000  1.0 0.0988514576
H  H354  1  0.73170000  0.30550000  0.90010000  1.0 0.0988514576
H  H355  1  0.73170000  0.42620000  0.40010000  1.0 0.0988514576
H  H356  1  0.57380000  0.30550000  0.40010000  1.0 0.0988514576
H  H357  1  0.69450000  0.26830000  0.40010000  1.0 0.0988514576
H  H358  1  0.42620000  0.73170000  0.09990000  1.0 0.0988514576
H  H359  1  0.30550000  0.57380000  0.09990000  1.0 0.0988514576
H  H360  1  0.26830000  0.69450000  0.09990000  1.0 0.0988514576
H  H361  1  0.32180000  0.60310000  0.63180000  1.0 0.081568343
H  H362  1  0.39690000  0.71870000  0.63180000  1.0 0.081568343
H  H363  1  0.28130000  0.67820000  0.63180000  1.0 0.081568343
H  H364  1  0.60310000  0.32180000  0.86820000  1.0 0.081568343
H  H365  1  0.71870000  0.39690000  0.86820000  1.0 0.081568343
H  H366  1  0.67820000  0.28130000  0.86820000  1.0 0.081568343
H  H367  1  0.67820000  0.39690000  0.36820000  1.0 0.081568343
H  H368  1  0.60310000  0.28130000  0.36820000  1.0 0.081568343
H  H369  1  0.71870000  0.32180000  0.36820000  1.0 0.081568343
H  H370  1  0.39690000  0.67820000  0.13180000  1.0 0.081568343
H  H371  1  0.28130000  0.60310000  0.13180000  1.0 0.081568343
H  H372  1  0.32180000  0.71870000  0.13180000  1.0 0.081568343
H  H373  1  0.39480000  0.59900000  0.58940000  1.0 0.1390223222
H  H374  1  0.40100000  0.79580000  0.58940000  1.0 0.1390223222
H  H375  1  0.20420000  0.60520000  0.58940000  1.0 0.1390223222
H  H376  1  0.59900000  0.39480000  0.91060000  1.0 0.1390223222
H  H377  1  0.79580000  0.40100000  0.91060000  1.0 0.1390223222
H  H378  1  0.60520000  0.20420000  0.91060000  1.0 0.1390223222
H  H379  1  0.60520000  0.40100000  0.41060000  1.0 0.1390223222
H  H380  1  0.59900000  0.20420000  0.41060000  1.0 0.1390223222
H  H381  1  0.79580000  0.39480000  0.41060000  1.0 0.1390223222
H  H382  1  0.40100000  0.60520000  0.08940000  1.0 0.1390223222
H  H383  1  0.20420000  0.59900000  0.08940000  1.0 0.1390223222
H  H384  1  0.39480000  0.79580000  0.08940000  1.0 0.1390223222
H  H385  1  0.33620000  0.53040000  0.59920000  1.0 0.1390223222
H  H386  1  0.46960000  0.80580000  0.59920000  1.0 0.1390223222
H  H387  1  0.19420000  0.66380000  0.59920000  1.0 0.1390223222
H  H388  1  0.53040000  0.33620000  0.90080000  1.0 0.1390223222
H  H389  1  0.80580000  0.46960000  0.90080000  1.0 0.1390223222
H  H390  1  0.66380000  0.19420000  0.90080000  1.0 0.1390223222
H  H391  1  0.66380000  0.46960000  0.40080000  1.0 0.1390223222
H  H392  1  0.53040000  0.19420000  0.40080000  1.0 0.1390223222
H  H393  1  0.80580000  0.33620000  0.40080000  1.0 0.1390223222
H  H394  1  0.46960000  0.66380000  0.09920000  1.0 0.1390223222
H  H395  1  0.19420000  0.53040000  0.09920000  1.0 0.1390223222
H  H396  1  0.33620000  0.80580000  0.09920000  1.0 0.1390223222
H  H397  1  0.14880000  0.38890000  0.45350000  1.0 0.2904394832
H  H398  1  0.61110000  0.75990000  0.45350000  1.0 0.2904394832
H  H399  1  0.24010000  0.85120000  0.45350000  1.0 0.2954196644
H  H400  1  0.38890000  0.14880000  0.04650000  1.0 0.2904394832
H  H401  1  0.75990000  0.61110000  0.04650000  1.0 0.2904394832
H  H402  1  0.85120000  0.24010000  0.04650000  1.0 0.2904394832
H  H403  1  0.85120000  0.61110000  0.54650000  1.0 0.2904394832
H  H404  1  0.38890000  0.24010000  0.54650000  1.0 0.2904394832
H  H405  1  0.75990000  0.14880000  0.54650000  1.0 0.2904394832
H  H406  1  0.61110000  0.85120000  0.95350000  1.0 0.2954196644
H  H407  1  0.24010000  0.38890000  0.95350000  1.0 0.2954196644
H  H408  1  0.14880000  0.75990000  0.95350000  1.0 0.2954196644
H  H409  1  0.17580000  0.40420000  0.51550000  1.0 0.111731164
H  H410  1  0.59580000  0.77160000  0.51550000  1.0 0.111731164
H  H411  1  0.22840000  0.82420000  0.51550000  1.0 0.111731164
H  H412  1  0.40420000  0.17580000  0.98450000  1.0 0.111731164
H  H413  1  0.77160000  0.59580000  0.98450000  1.0 0.111731164
H  H414  1  0.82420000  0.22840000  0.98450000  1.0 0.111731164
H  H415  1  0.82420000  0.59580000  0.48450000  1.0 0.111731164
H  H416  1  0.40420000  0.22840000  0.48450000  1.0 0.111731164
H  H417  1  0.77160000  0.17580000  0.48450000  1.0 0.111731164
H  H418  1  0.59580000  0.82420000  0.01550000  1.0 0.111731164
H  H419  1  0.22840000  0.40420000  0.01550000  1.0 0.111731164
H  H420  1  0.17580000  0.77160000  0.01550000  1.0 0.111731164
H  H421  1  0.11420000  0.33780000  0.52520000  1.0 0.0899346986
H  H422  1  0.66220000  0.77640000  0.52520000  1.0 0.0899346986
H  H423  1  0.22360000  0.88580000  0.52520000  1.0 0.0899346986
H  H424  1  0.33780000  0.11420000  0.97480000  1.0 0.0899346986
H  H425  1  0.77640000  0.66220000  0.97480000  1.0 0.0899346986
H  H426  1  0.88580000  0.22360000  0.97480000  1.0 0.0899346986
H  H427  1  0.88580000  0.66220000  0.47480000  1.0 0.0899346986
H  H428  1  0.33780000  0.22360000  0.47480000  1.0 0.0899346986
H  H429  1  0.77640000  0.11420000  0.47480000  1.0 0.0899346986
H  H430  1  0.66220000  0.88580000  0.02520000  1.0 0.0899346986
H  H431  1  0.22360000  0.33780000  0.02520000  1.0 0.0899346986
H  H432  1  0.11420000  0.77640000  0.02520000  1.0 0.0899346986
H  H433  1  0.09390000  0.41650000  0.54280000  1.0 0.1390223222
H  H434  1  0.58350000  0.67740000  0.54280000  1.0 0.1390223222
H  H435  1  0.32260000  0.90610000  0.54280000  1.0 0.1390223222
H  H436  1  0.41650000  0.09390000  0.95720000  1.0 0.1390223222
H  H437  1  0.67740000  0.58350000  0.95720000  1.0 0.1390223222
H  H438  1  0.90610000  0.32260000  0.95720000  1.0 0.1390223222
H  H439  1  0.90610000  0.58350000  0.45720000  1.0 0.1390223222
H  H440  1  0.41650000  0.32260000  0.45720000  1.0 0.1390223222
H  H441  1  0.67740000  0.09390000  0.45720000  1.0 0.1390223222
H  H442  1  0.58350000  0.90610000  0.04280000  1.0 0.1390223222
H  H443  1  0.32260000  0.41650000  0.04280000  1.0 0.1390223222
H  H444  1  0.09390000  0.67740000  0.04280000  1.0 0.1390223222
H  H445  1  0.04930000  0.38060000  0.50740000  1.0 0.149009124
H  H446  1  0.61940000  0.66870000  0.50740000  1.0 0.149009124
H  H447  1  0.33130000  0.95070000  0.50740000  1.0 0.149009124
H  H448  1  0.38060000  0.04930000  0.99260000  1.0 0.149009124
H  H449  1  0.66870000  0.61940000  0.99260000  1.0 0.149009124
H  H450  1  0.95070000  0.33130000  0.99260000  1.0 0.149009124
H  H451  1  0.95070000  0.61940000  0.49260000  1.0 0.149009124
H  H452  1  0.38060000  0.33130000  0.49260000  1.0 0.149009124
H  H453  1  0.66870000  0.04930000  0.49260000  1.0 0.149009124
H  H454  1  0.61940000  0.95070000  0.00740000  1.0 0.149009124
H  H455  1  0.33130000  0.38060000  0.00740000  1.0 0.149009124
H  H456  1  0.04930000  0.66870000  0.00740000  1.0 0.149009124
H  H457  1  0.17570000  0.31640000  0.43860000  1.0 0.1188086571
H  H458  1  0.68360000  0.85930000  0.43860000  1.0 0.1188086571
H  H459  1  0.14070000  0.82430000  0.43860000  1.0 0.1188086571
H  H460  1  0.31640000  0.17570000  0.06140000  1.0 0.1188086571
H  H461  1  0.85930000  0.68360000  0.06140000  1.0 0.1188086571
H  H462  1  0.82430000  0.14070000  0.06140000  1.0 0.1188086571
H  H463  1  0.82430000  0.68360000  0.56140000  1.0 0.1188086571
H  H464  1  0.31640000  0.14070000  0.56140000  1.0 0.1188086571
H  H465  1  0.85930000  0.17570000  0.56140000  1.0 0.1188086571
H  H466  1  0.68360000  0.82430000  0.93860000  1.0 0.1188086571
H  H467  1  0.14070000  0.31640000  0.93860000  1.0 0.1188086571
H  H468  1  0.17570000  0.85930000  0.93860000  1.0 0.1188086571
H  H469  1  0.14140000  0.27580000  0.47540000  1.0 0.081568343
H  H470  1  0.72420000  0.86560000  0.47540000  1.0 0.081568343
H  H471  1  0.13440000  0.85860000  0.47540000  1.0 0.081568343
H  H472  1  0.27580000  0.14140000  0.02460000  1.0 0.081568343
H  H473  1  0.86560000  0.72420000  0.02460000  1.0 0.081568343
H  H474  1  0.85860000  0.13440000  0.02460000  1.0 0.081568343
H  H475  1  0.85860000  0.72420000  0.52460000  1.0 0.081568343
H  H476  1  0.27580000  0.13440000  0.52460000  1.0 0.081568343
H  H477  1  0.86560000  0.14140000  0.52460000  1.0 0.081568343
H  H478  1  0.72420000  0.85860000  0.97540000  1.0 0.081568343
H  H479  1  0.13440000  0.27580000  0.97540000  1.0 0.081568343
H  H480  1  0.14140000  0.86560000  0.97540000  1.0 0.081568343
H  H481  1  0.22360000  0.35040000  0.51340000  1.0 0.1319097231
H  H482  1  0.64960000  0.87320000  0.51340000  1.0 0.1319097231
H  H483  1  0.12680000  0.77640000  0.51340000  1.0 0.1319097231
H  H484  1  0.35040000  0.22360000  0.98660000  1.0 0.1319097231
H  H485  1  0.87320000  0.64960000  0.98660000  1.0 0.1319097231
H  H486  1  0.77640000  0.12680000  0.98660000  1.0 0.1319097231
H  H487  1  0.77640000  0.64960000  0.48660000  1.0 0.1319097231
H  H488  1  0.35040000  0.12680000  0.48660000  1.0 0.1319097231
H  H489  1  0.87320000  0.22360000  0.48660000  1.0 0.1319097231
H  H490  1  0.64960000  0.77640000  0.01340000  1.0 0.1319097231
H  H491  1  0.12680000  0.35040000  0.01340000  1.0 0.1319097231
H  H492  1  0.22360000  0.87320000  0.01340000  1.0 0.1319097231
H  H493  1  0.24970000  0.32120000  0.48260000  1.0 0.1390223222
H  H494  1  0.67880000  0.92850000  0.48260000  1.0 0.1390223222
H  H495  1  0.07150000  0.75030000  0.48260000  1.0 0.1390223222
H  H496  1  0.32120000  0.24970000  0.01740000  1.0 0.1390223222
H  H497  1  0.92850000  0.67880000  0.01740000  1.0 0.1390223222
H  H498  1  0.75030000  0.07150000  0.01740000  1.0 0.1390223222
H  H499  1  0.75030000  0.67880000  0.51740000  1.0 0.1390223222
H  H500  1  0.32120000  0.07150000  0.51740000  1.0 0.1390223222
H  H501  1  0.92850000  0.24970000  0.51740000  1.0 0.1390223222
H  H502  1  0.67880000  0.75030000  0.98260000  1.0 0.1390223222
H  H503  1  0.07150000  0.32120000  0.98260000  1.0 0.1390223222
H  H504  1  0.24970000  0.92850000  0.98260000  1.0 0.1390223222
H  H505  1  0.06980000  0.27750000  0.43330000  1.0 0.0988514576
H  H506  1  0.72250000  0.79230000  0.43330000  1.0 0.0988514576
H  H507  1  0.20770000  0.93020000  0.43330000  1.0 0.0988514576
H  H508  1  0.27750000  0.06980000  0.06670000  1.0 0.0988514576
H  H509  1  0.79230000  0.72250000  0.06670000  1.0 0.0988514576
H  H510  1  0.93020000  0.20770000  0.06670000  1.0 0.0988514576
H  H511  1  0.93020000  0.72250000  0.56670000  1.0 0.0988514576
H  H512  1  0.27750000  0.20770000  0.56670000  1.0 0.0988514576
H  H513  1  0.79230000  0.06980000  0.56670000  1.0 0.0988514576
H  H514  1  0.72250000  0.93020000  0.93330000  1.0 0.0988514576
H  H515  1  0.20770000  0.27750000  0.93330000  1.0 0.0988514576
H  H516  1  0.06980000  0.79230000  0.93330000  1.0 0.0988514576
H  H517  1  0.03510000  0.27850000  0.47130000  1.0 0.081568343
H  H518  1  0.72150000  0.75660000  0.47130000  1.0 0.081568343
H  H519  1  0.24340000  0.96490000  0.47130000  1.0 0.081568343
H  H520  1  0.27850000  0.03510000  0.02870000  1.0 0.081568343
H  H521  1  0.75660000  0.72150000  0.02870000  1.0 0.081568343
H  H522  1  0.96490000  0.24340000  0.02870000  1.0 0.081568343
H  H523  1  0.96490000  0.72150000  0.52870000  1.0 0.081568343
H  H524  1  0.27850000  0.24340000  0.52870000  1.0 0.081568343
H  H525  1  0.75660000  0.03510000  0.52870000  1.0 0.081568343
H  H526  1  0.72150000  0.96490000  0.97130000  1.0 0.081568343
H  H527  1  0.24340000  0.27850000  0.97130000  1.0 0.081568343
H  H528  1  0.03510000  0.75660000  0.97130000  1.0 0.081568343
H  H529  1  0.98780000  0.30290000  0.42350000  1.0 0.1390223222
H  H530  1  0.69710000  0.68490000  0.42350000  1.0 0.1390223222
H  H531  1  0.31510000  0.01220000  0.42350000  1.0 0.1390223222
H  H532  1  0.30290000  0.98780000  0.07650000  1.0 0.1390223222
H  H533  1  0.68490000  0.69710000  0.07650000  1.0 0.1390223222
H  H534  1  0.01220000  0.31510000  0.07650000  1.0 0.1390223222
H  H535  1  0.01220000  0.69710000  0.57650000  1.0 0.1390223222
H  H536  1  0.30290000  0.31510000  0.57650000  1.0 0.1390223222
H  H537  1  0.68490000  0.98780000  0.57650000  1.0 0.1390223222
H  H538  1  0.69710000  0.01220000  0.92350000  1.0 0.1390223222
H  H539  1  0.31510000  0.30290000  0.92350000  1.0 0.1390223222
H  H540  1  0.98780000  0.68490000  0.92350000  1.0 0.1390223222
H  H541  1  0.02850000  0.36680000  0.44720000  1.0 0.149009124
H  H542  1  0.63320000  0.66170000  0.44720000  1.0 0.149009124
H  H543  1  0.33830000  0.97150000  0.44720000  1.0 0.149009124
H  H544  1  0.36680000  0.02850000  0.05280000  1.0 0.149009124
H  H545  1  0.66170000  0.63320000  0.05280000  1.0 0.149009124
H  H546  1  0.97150000  0.33830000  0.05280000  1.0 0.149009124
H  H547  1  0.97150000  0.63320000  0.55280000  1.0 0.149009124
H  H548  1  0.36680000  0.33830000  0.55280000  1.0 0.149009124
H  H549  1  0.66170000  0.02850000  0.55280000  1.0 0.149009124
H  H550  1  0.63320000  0.97150000  0.94720000  1.0 0.149009124
H  H551  1  0.33830000  0.36680000  0.94720000  1.0 0.149009124
H  H552  1  0.02850000  0.66170000  0.94720000  1.0 0.149009124
H  H553  1  0.43960000  0.49960000  0.38930000  1.0 0.4171403984
H  H554  1  0.50040000  0.94000000  0.38930000  1.0 0.4171403984
H  H555  1  0.06000000  0.56040000  0.38930000  1.0 0.4171403984
H  H556  1  0.49960000  0.43960000  0.11070000  1.0 0.4171403984
H  H557  1  0.94000000  0.50040000  0.11070000  1.0 0.4171403984
H  H558  1  0.56040000  0.06000000  0.11070000  1.0 0.4081930871
H  H559  1  0.56040000  0.50040000  0.61070000  1.0 0.4171403984
H  H560  1  0.49960000  0.06000000  0.61070000  1.0 0.4171403984
H  H561  1  0.94000000  0.43960000  0.61070000  1.0 0.4171403984
H  H562  1  0.50040000  0.56040000  0.88930000  1.0 0.4171403984
H  H563  1  0.06000000  0.49960000  0.88930000  1.0 0.4171403984
H  H564  1  0.43960000  0.94000000  0.88930000  1.0 0.4171403984
H  H565  1  0.43600000  0.49960000  0.38700000  1.0 0.4043432983
H  H566  1  0.50040000  0.93640000  0.38700000  1.0 0.4081930871
H  H567  1  0.06360000  0.56400000  0.38700000  1.0 0.4081930871
H  H568  1  0.49960000  0.43600000  0.11300000  1.0 0.4043432983
H  H569  1  0.93640000  0.50040000  0.11300000  1.0 0.4081930871
H  H570  1  0.56400000  0.06360000  0.11300000  1.0 0.4043432983
H  H571  1  0.56400000  0.50040000  0.61300000  1.0 0.4043432983
H  H572  1  0.49960000  0.06360000  0.61300000  1.0 0.4043432983
H  H573  1  0.93640000  0.43600000  0.61300000  1.0 0.4043432983
H  H574  1  0.50040000  0.56400000  0.88700000  1.0 0.4081930871
H  H575  1  0.06360000  0.49960000  0.88700000  1.0 0.4081930871
H  H576  1  0.43600000  0.93640000  0.88700000  1.0 0.4081930871
H  H577  1  0.39680000  0.40240000  0.41020000  1.0 0.0988514576
H  H578  1  0.59760000  0.99440000  0.41020000  1.0 0.0988514576
H  H579  1  0.00560000  0.60320000  0.41020000  1.0 0.0988514576
H  H580  1  0.40240000  0.39680000  0.08980000  1.0 0.0988514576
H  H581  1  0.99440000  0.59760000  0.08980000  1.0 0.0988514576
H  H582  1  0.60320000  0.00560000  0.08980000  1.0 0.0988514576
H  H583  1  0.60320000  0.59760000  0.58980000  1.0 0.0988514576
H  H584  1  0.40240000  0.00560000  0.58980000  1.0 0.0988514576
H  H585  1  0.99440000  0.39680000  0.58980000  1.0 0.0988514576
H  H586  1  0.59760000  0.60320000  0.91020000  1.0 0.0988514576
H  H587  1  0.00560000  0.40240000  0.91020000  1.0 0.0988514576
H  H588  1  0.39680000  0.99440000  0.91020000  1.0 0.0988514576
H  H589  1  0.41310000  0.37830000  0.37210000  1.0 0.0595684922
H  H590  1  0.62170000  0.03480000  0.37210000  1.0 0.0535150049
H  H591  1  0.96520000  0.58690000  0.37210000  1.0 0.0535150049
H  H592  1  0.37830000  0.41310000  0.12790000  1.0 0.0535150049
H  H593  1  0.03480000  0.62170000  0.12790000  1.0 0.0595684922
H  H594  1  0.58690000  0.96520000  0.12790000  1.0 0.0595684922
H  H595  1  0.58690000  0.62170000  0.62790000  1.0 0.0595684922
H  H596  1  0.37830000  0.96520000  0.62790000  1.0 0.0595684922
H  H597  1  0.03480000  0.41310000  0.62790000  1.0 0.0535150049
H  H598  1  0.62170000  0.58690000  0.87210000  1.0 0.0535150049
H  H599  1  0.96520000  0.37830000  0.87210000  1.0 0.0535150049
H  H600  1  0.41310000  0.03480000  0.87210000  1.0 0.0535150049
H  H601  1  0.40480000  0.39020000  0.34380000  1.0 0.0595684922
H  H602  1  0.60980000  0.01460000  0.34380000  1.0 0.0595684922
H  H603  1  0.98540000  0.59520000  0.34380000  1.0 0.0595684922
H  H604  1  0.39020000  0.40480000  0.15620000  1.0 0.0595684922
H  H605  1  0.01460000  0.60980000  0.15620000  1.0 0.0595684922
H  H606  1  0.59520000  0.98540000  0.15620000  1.0 0.0595684922
H  H607  1  0.59520000  0.60980000  0.65620000  1.0 0.0595684922
H  H608  1  0.39020000  0.98540000  0.65620000  1.0 0.0595684922
H  H609  1  0.01460000  0.40480000  0.65620000  1.0 0.0595684922
H  H610  1  0.60980000  0.59520000  0.84380000  1.0 0.0595684922
H  H611  1  0.98540000  0.39020000  0.84380000  1.0 0.0595684922
H  H612  1  0.40480000  0.01460000  0.84380000  1.0 0.0595684922
H  H613  1  0.40250000  0.38140000  0.38830000  1.0 0.0535150049
H  H614  1  0.61860000  0.02110000  0.38830000  1.0 0.0595684922
H  H615  1  0.97890000  0.59750000  0.38830000  1.0 0.0535150049
H  H616  1  0.38140000  0.40250000  0.11170000  1.0 0.0595684922
H  H617  1  0.02110000  0.61860000  0.11170000  1.0 0.0595684922
H  H618  1  0.59750000  0.97890000  0.11170000  1.0 0.0595684922
H  H619  1  0.59750000  0.61860000  0.61170000  1.0 0.0595684922
H  H620  1  0.38140000  0.97890000  0.61170000  1.0 0.0595684922
H  H621  1  0.02110000  0.40250000  0.61170000  1.0 0.0595684922
H  H622  1  0.61860000  0.59750000  0.88830000  1.0 0.0595684922
H  H623  1  0.97890000  0.38140000  0.88830000  1.0 0.0595684922
H  H624  1  0.40250000  0.02110000  0.88830000  1.0 0.0595684922
H  H625  1  0.33480000  0.38880000  0.33970000  1.0 0.1188086571
H  H626  1  0.61120000  0.94600000  0.33970000  1.0 0.1188086571
H  H627  1  0.05400000  0.66520000  0.33970000  1.0 0.1188086571
H  H628  1  0.38880000  0.33480000  0.16030000  1.0 0.1188086571
H  H629  1  0.94600000  0.61120000  0.16030000  1.0 0.1188086571
H  H630  1  0.66520000  0.05400000  0.16030000  1.0 0.1188086571
H  H631  1  0.66520000  0.61120000  0.66030000  1.0 0.1188086571
H  H632  1  0.38880000  0.05400000  0.66030000  1.0 0.1188086571
H  H633  1  0.94600000  0.33480000  0.66030000  1.0 0.1188086571
H  H634  1  0.61120000  0.66520000  0.83970000  1.0 0.1188086571
H  H635  1  0.05400000  0.38880000  0.83970000  1.0 0.1188086571
H  H636  1  0.33480000  0.94600000  0.83970000  1.0 0.1188086571
H  H637  1  0.30450000  0.34110000  0.37450000  1.0 0.111731164
H  H638  1  0.65890000  0.96340000  0.37450000  1.0 0.111731164
H  H639  1  0.03660000  0.69550000  0.37450000  1.0 0.111731164
H  H640  1  0.34110000  0.30450000  0.12550000  1.0 0.111731164
H  H641  1  0.96340000  0.65890000  0.12550000  1.0 0.111731164
H  H642  1  0.69550000  0.03660000  0.12550000  1.0 0.111731164
H  H643  1  0.69550000  0.65890000  0.62550000  1.0 0.111731164
H  H644  1  0.34110000  0.03660000  0.62550000  1.0 0.111731164
H  H645  1  0.96340000  0.30450000  0.62550000  1.0 0.111731164
H  H646  1  0.65890000  0.69550000  0.87450000  1.0 0.111731164
H  H647  1  0.03660000  0.34110000  0.87450000  1.0 0.111731164
H  H648  1  0.30450000  0.96340000  0.87450000  1.0 0.111731164
H  H649  1  0.31180000  0.34580000  0.38190000  1.0 0.1319097231
H  H650  1  0.65420000  0.96600000  0.38190000  1.0 0.1319097231
H  H651  1  0.03400000  0.68820000  0.38190000  1.0 0.1319097231
H  H652  1  0.34580000  0.31180000  0.11810000  1.0 0.1319097231
H  H653  1  0.96600000  0.65420000  0.11810000  1.0 0.1319097231
H  H654  1  0.68820000  0.03400000  0.11810000  1.0 0.1319097231
H  H655  1  0.68820000  0.65420000  0.61810000  1.0 0.1319097231
H  H656  1  0.34580000  0.03400000  0.61810000  1.0 0.1319097231
H  H657  1  0.96600000  0.31180000  0.61810000  1.0 0.1319097231
H  H658  1  0.65420000  0.68820000  0.88190000  1.0 0.1319097231
H  H659  1  0.03400000  0.34580000  0.88190000  1.0 0.1319097231
H  H660  1  0.31180000  0.96600000  0.88190000  1.0 0.1319097231
H  H661  1  0.31880000  0.37510000  0.34110000  1.0 0.1188086571
H  H662  1  0.62490000  0.94370000  0.34110000  1.0 0.1188086571
H  H663  1  0.05630000  0.68120000  0.34110000  1.0 0.1188086571
H  H664  1  0.37510000  0.31880000  0.15890000  1.0 0.1188086571
H  H665  1  0.94370000  0.62490000  0.15890000  1.0 0.1188086571
H  H666  1  0.68120000  0.05630000  0.15890000  1.0 0.1188086571
H  H667  1  0.68120000  0.62490000  0.65890000  1.0 0.1188086571
H  H668  1  0.37510000  0.05630000  0.65890000  1.0 0.1188086571
H  H669  1  0.94370000  0.31880000  0.65890000  1.0 0.1188086571
H  H670  1  0.62490000  0.68120000  0.84110000  1.0 0.1188086571
H  H671  1  0.05630000  0.37510000  0.84110000  1.0 0.1188086571
H  H672  1  0.31880000  0.94370000  0.84110000  1.0 0.1188086571
H  H673  1  0.54020000  0.53900000  0.37280000  1.0 0.0899346986
H  H674  1  0.46100000  0.00120000  0.37280000  1.0 0.0899346986
H  H675  1  0.99880000  0.45980000  0.37280000  1.0 0.0899346986
H  H676  1  0.53900000  0.54020000  0.12720000  1.0 0.0899346986
H  H677  1  0.00120000  0.46100000  0.12720000  1.0 0.0899346986
H  H678  1  0.45980000  0.99880000  0.12720000  1.0 0.0899346986
H  H679  1  0.45980000  0.46100000  0.62720000  1.0 0.0899346986
H  H680  1  0.53900000  0.99880000  0.62720000  1.0 0.0899346986
H  H681  1  0.00120000  0.54020000  0.62720000  1.0 0.0899346986
H  H682  1  0.46100000  0.45980000  0.87280000  1.0 0.0899346986
H  H683  1  0.99880000  0.53900000  0.87280000  1.0 0.0899346986
H  H684  1  0.54020000  0.00120000  0.87280000  1.0 0.0899346986
H  H685  1  0.52480000  0.47100000  0.35720000  1.0 0.0535150049
H  H686  1  0.52900000  0.05380000  0.35720000  1.0 0.0535150049
H  H687  1  0.94620000  0.47520000  0.35720000  1.0 0.0535150049
H  H688  1  0.47100000  0.52480000  0.14280000  1.0 0.0535150049
H  H689  1  0.05380000  0.52900000  0.14280000  1.0 0.0535150049
H  H690  1  0.47520000  0.94620000  0.14280000  1.0 0.0535150049
H  H691  1  0.47520000  0.52900000  0.64280000  1.0 0.0535150049
H  H692  1  0.47100000  0.94620000  0.64280000  1.0 0.0535150049
H  H693  1  0.05380000  0.52480000  0.64280000  1.0 0.0535150049
H  H694  1  0.52900000  0.47520000  0.85720000  1.0 0.0535150049
H  H695  1  0.94620000  0.47100000  0.85720000  1.0 0.0535150049
H  H696  1  0.52480000  0.05380000  0.85720000  1.0 0.0535150049
H  H697  1  0.46330000  0.40590000  0.40330000  1.0 0.0595684922
H  H698  1  0.59410000  0.05740000  0.40330000  1.0 0.0595684922
H  H699  1  0.94260000  0.53670000  0.40330000  1.0 0.0595684922
H  H700  1  0.40590000  0.46330000  0.09670000  1.0 0.0595684922
H  H701  1  0.05740000  0.59410000  0.09670000  1.0 0.0595684922
H  H702  1  0.53670000  0.94260000  0.09670000  1.0 0.0595684922
H  H703  1  0.53670000  0.59410000  0.59670000  1.0 0.0595684922
H  H704  1  0.40590000  0.94260000  0.59670000  1.0 0.0595684922
H  H705  1  0.05740000  0.46330000  0.59670000  1.0 0.0595684922
H  H706  1  0.59410000  0.53670000  0.90330000  1.0 0.0595684922
H  H707  1  0.94260000  0.40590000  0.90330000  1.0 0.0595684922
H  H708  1  0.46330000  0.05740000  0.90330000  1.0 0.0595684922
H  H709  1  0.51580000  0.44140000  0.37180000  1.0 0.0595684922
H  H710  1  0.55860000  0.07440000  0.37180000  1.0 0.0595684922
H  H711  1  0.92560000  0.48420000  0.37180000  1.0 0.0595684922
H  H712  1  0.44140000  0.51580000  0.12820000  1.0 0.0595684922
H  H713  1  0.07440000  0.55860000  0.12820000  1.0 0.0595684922
H  H714  1  0.48420000  0.92560000  0.12820000  1.0 0.0595684922
H  H715  1  0.48420000  0.55860000  0.62820000  1.0 0.0595684922
H  H716  1  0.44140000  0.92560000  0.62820000  1.0 0.0595684922
H  H717  1  0.07440000  0.51580000  0.62820000  1.0 0.0595684922
H  H718  1  0.55860000  0.48420000  0.87180000  1.0 0.0595684922
H  H719  1  0.92560000  0.44140000  0.87180000  1.0 0.0595684922
H  H720  1  0.51580000  0.07440000  0.87180000  1.0 0.0595684922
H  H721  1  0.50520000  0.42970000  0.41930000  1.0 0.0697152884
H  H722  1  0.57030000  0.07550000  0.41930000  1.0 0.0697152884
H  H723  1  0.92450000  0.49480000  0.41930000  1.0 0.0697152884
H  H724  1  0.42970000  0.50520000  0.08070000  1.0 0.0697152884
H  H725  1  0.07550000  0.57030000  0.08070000  1.0 0.0697152884
H  H726  1  0.49480000  0.92450000  0.08070000  1.0 0.0697152884
H  H727  1  0.49480000  0.57030000  0.58070000  1.0 0.0697152884
H  H728  1  0.42970000  0.92450000  0.58070000  1.0 0.0697152884
H  H729  1  0.07550000  0.50520000  0.58070000  1.0 0.0697152884
H  H730  1  0.57030000  0.49480000  0.91930000  1.0 0.0697152884
H  H731  1  0.92450000  0.42970000  0.91930000  1.0 0.0697152884
H  H732  1  0.50520000  0.07550000  0.91930000  1.0 0.0697152884
H  H733  1  0.57570000  0.48880000  0.41580000  1.0 0.0697152884
H  H734  1  0.51120000  0.08690000  0.41580000  1.0 0.0697152884
H  H735  1  0.91310000  0.42430000  0.41580000  1.0 0.0697152884
H  H736  1  0.48880000  0.57570000  0.08420000  1.0 0.0697152884
H  H737  1  0.08690000  0.51120000  0.08420000  1.0 0.0697152884
H  H738  1  0.42430000  0.91310000  0.08420000  1.0 0.0697152884
H  H739  1  0.42430000  0.51120000  0.58420000  1.0 0.0697152884
H  H740  1  0.48880000  0.91310000  0.58420000  1.0 0.0697152884
H  H741  1  0.08690000  0.57570000  0.58420000  1.0 0.0697152884
H  H742  1  0.51120000  0.42430000  0.91580000  1.0 0.0697152884
H  H743  1  0.91310000  0.48880000  0.91580000  1.0 0.0697152884
H  H744  1  0.57570000  0.08690000  0.91580000  1.0 0.0697152884
H  H745  1  0.56780000  0.51030000  0.40260000  1.0 0.0988514576
H  H746  1  0.48970000  0.05750000  0.40260000  1.0 0.0988514576
H  H747  1  0.94250000  0.43220000  0.40260000  1.0 0.0988514576
H  H748  1  0.51030000  0.56780000  0.09740000  1.0 0.0988514576
H  H749  1  0.05750000  0.48970000  0.09740000  1.0 0.0988514576
H  H750  1  0.43220000  0.94250000  0.09740000  1.0 0.0988514576
H  H751  1  0.43220000  0.48970000  0.59740000  1.0 0.0988514576
H  H752  1  0.51030000  0.94250000  0.59740000  1.0 0.0988514576
H  H753  1  0.05750000  0.56780000  0.59740000  1.0 0.0988514576
H  H754  1  0.48970000  0.43220000  0.90260000  1.0 0.0988514576
H  H755  1  0.94250000  0.51030000  0.90260000  1.0 0.0988514576
H  H756  1  0.56780000  0.05750000  0.90260000  1.0 0.0988514576
H  H757  1  0.54310000  0.44680000  0.42640000  1.0 0.081568343
H  H758  1  0.55320000  0.09630000  0.42640000  1.0 0.081568343
H  H759  1  0.90370000  0.45690000  0.42640000  1.0 0.081568343
H  H760  1  0.44680000  0.54310000  0.07360000  1.0 0.081568343
H  H761  1  0.09630000  0.55320000  0.07360000  1.0 0.081568343
H  H762  1  0.45690000  0.90370000  0.07360000  1.0 0.081568343
H  H763  1  0.45690000  0.55320000  0.57360000  1.0 0.081568343
H  H764  1  0.44680000  0.90370000  0.57360000  1.0 0.081568343
H  H765  1  0.09630000  0.54310000  0.57360000  1.0 0.081568343
H  H766  1  0.55320000  0.45690000  0.92640000  1.0 0.081568343
H  H767  1  0.90370000  0.44680000  0.92640000  1.0 0.081568343
H  H768  1  0.54310000  0.09630000  0.92640000  1.0 0.081568343
H  H769  1  0.43940000  0.46710000  0.31370000  1.0 0.0595684922
H  H770  1  0.53290000  0.97230000  0.31370000  1.0 0.0595684922
H  H771  1  0.02770000  0.56060000  0.31370000  1.0 0.0595684922
H  H772  1  0.46710000  0.43940000  0.18630000  1.0 0.0595684922
H  H773  1  0.97230000  0.53290000  0.18630000  1.0 0.0595684922
H  H774  1  0.56060000  0.02770000  0.18630000  1.0 0.0595684922
H  H775  1  0.56060000  0.53290000  0.68630000  1.0 0.0595684922
H  H776  1  0.46710000  0.02770000  0.68630000  1.0 0.0595684922
H  H777  1  0.97230000  0.43940000  0.68630000  1.0 0.0595684922
H  H778  1  0.53290000  0.56060000  0.81370000  1.0 0.0595684922
H  H779  1  0.02770000  0.46710000  0.81370000  1.0 0.0595684922
H  H780  1  0.43940000  0.97230000  0.81370000  1.0 0.0595684922
H  H781  1  0.39170000  0.48730000  0.33170000  1.0 0.081568343
H  H782  1  0.51270000  0.90440000  0.33170000  1.0 0.081568343
H  H783  1  0.09560000  0.60830000  0.33170000  1.0 0.081568343
H  H784  1  0.48730000  0.39170000  0.16830000  1.0 0.081568343
H  H785  1  0.90440000  0.51270000  0.16830000  1.0 0.081568343
H  H786  1  0.60830000  0.09560000  0.16830000  1.0 0.081568343
H  H787  1  0.60830000  0.51270000  0.66830000  1.0 0.081568343
H  H788  1  0.48730000  0.09560000  0.66830000  1.0 0.081568343
H  H789  1  0.90440000  0.39170000  0.66830000  1.0 0.081568343
H  H790  1  0.51270000  0.60830000  0.83170000  1.0 0.081568343
H  H791  1  0.09560000  0.48730000  0.83170000  1.0 0.081568343
H  H792  1  0.39170000  0.90440000  0.83170000  1.0 0.081568343
H  H793  1  0.46750000  0.46790000  0.32210000  1.0 0.0595684922
H  H794  1  0.53210000  0.99960000  0.32210000  1.0 0.0595684922
H  H795  1  0.00040000  0.53250000  0.32210000  1.0 0.0595684922
H  H796  1  0.46790000  0.46750000  0.17790000  1.0 0.0595684922
H  H797  1  0.99960000  0.53210000  0.17790000  1.0 0.0595684922
H  H798  1  0.53250000  0.00040000  0.17790000  1.0 0.0595684922
H  H799  1  0.53250000  0.53210000  0.67790000  1.0 0.0595684922
H  H800  1  0.46790000  0.00040000  0.67790000  1.0 0.0595684922
H  H801  1  0.99960000  0.46750000  0.67790000  1.0 0.0595684922
H  H802  1  0.53210000  0.53250000  0.82210000  1.0 0.0595684922
H  H803  1  0.00040000  0.46790000  0.82210000  1.0 0.0595684922
H  H804  1  0.46750000  0.99960000  0.82210000  1.0 0.0595684922
H  H805  1  0.52590000  0.51510000  0.34790000  1.0 0.0297809501
H  H806  1  0.48490000  0.01080000  0.34790000  1.0 0.0297809501
H  H807  1  0.98920000  0.47410000  0.34790000  1.0 0.0297809501
H  H808  1  0.51510000  0.52590000  0.15210000  1.0 0.0297809501
H  H809  1  0.01080000  0.48490000  0.15210000  1.0 0.0297809501
H  H810  1  0.47410000  0.98920000  0.15210000  1.0 0.0297809501
H  H811  1  0.47410000  0.48490000  0.65210000  1.0 0.0297809501
H  H812  1  0.51510000  0.98920000  0.65210000  1.0 0.0297809501
H  H813  1  0.01080000  0.52590000  0.65210000  1.0 0.0297809501
H  H814  1  0.48490000  0.47410000  0.84790000  1.0 0.0297809501
H  H815  1  0.98920000  0.51510000  0.84790000  1.0 0.0297809501
H  H816  1  0.52590000  0.01080000  0.84790000  1.0 0.0297809501
H  H817  1  0.46620000  0.57020000  0.29780000  1.0 0.0595684922
H  H818  1  0.42980000  0.89600000  0.29780000  1.0 0.0595684922
H  H819  1  0.10400000  0.53380000  0.29780000  1.0 0.0595684922
H  H820  1  0.57020000  0.46620000  0.20220000  1.0 0.0595684922
H  H821  1  0.89600000  0.42980000  0.20220000  1.0 0.0595684922
H  H822  1  0.53380000  0.10400000  0.20220000  1.0 0.0595684922
H  H823  1  0.53380000  0.42980000  0.70220000  1.0 0.0595684922
H  H824  1  0.57020000  0.10400000  0.70220000  1.0 0.0595684922
H  H825  1  0.89600000  0.46620000  0.70220000  1.0 0.0595684922
H  H826  1  0.42980000  0.53380000  0.79780000  1.0 0.0595684922
H  H827  1  0.10400000  0.57020000  0.79780000  1.0 0.0595684922
H  H828  1  0.46620000  0.89600000  0.79780000  1.0 0.0595684922
H  H829  1  0.52270000  0.56710000  0.31860000  1.0 0.0988514576
H  H830  1  0.43290000  0.95560000  0.31860000  1.0 0.0988514576
H  H831  1  0.04440000  0.47730000  0.31860000  1.0 0.0988514576
H  H832  1  0.56710000  0.52270000  0.18140000  1.0 0.0988514576
H  H833  1  0.95560000  0.43290000  0.18140000  1.0 0.0988514576
H  H834  1  0.47730000  0.04440000  0.18140000  1.0 0.0988514576
H  H835  1  0.47730000  0.43290000  0.68140000  1.0 0.0988514576
H  H836  1  0.56710000  0.04440000  0.68140000  1.0 0.0988514576
H  H837  1  0.95560000  0.52270000  0.68140000  1.0 0.0988514576
H  H838  1  0.43290000  0.47730000  0.81860000  1.0 0.0988514576
H  H839  1  0.04440000  0.56710000  0.81860000  1.0 0.0988514576
H  H840  1  0.52270000  0.95560000  0.81860000  1.0 0.0988514576
H  H841  1  0.51480000  0.58130000  0.30360000  1.0 0.0595684922
H  H842  1  0.41870000  0.93350000  0.30360000  1.0 0.0595684922
H  H843  1  0.06650000  0.48520000  0.30360000  1.0 0.0595684922
H  H844  1  0.58130000  0.51480000  0.19640000  1.0 0.0595684922
H  H845  1  0.93350000  0.41870000  0.19640000  1.0 0.0595684922
H  H846  1  0.48520000  0.06650000  0.19640000  1.0 0.0595684922
H  H847  1  0.48520000  0.41870000  0.69640000  1.0 0.0595684922
H  H848  1  0.58130000  0.06650000  0.69640000  1.0 0.0595684922
H  H849  1  0.93350000  0.51480000  0.69640000  1.0 0.0595684922
H  H850  1  0.41870000  0.48520000  0.80360000  1.0 0.0595684922
H  H851  1  0.06650000  0.58130000  0.80360000  1.0 0.0595684922
H  H852  1  0.51480000  0.93350000  0.80360000  1.0 0.0595684922
H  H853  1  0.43940000  0.54620000  0.30870000  1.0 0.081568343
H  H854  1  0.45380000  0.89320000  0.30870000  1.0 0.081568343
H  H855  1  0.10680000  0.56060000  0.30870000  1.0 0.081568343
H  H856  1  0.54620000  0.43940000  0.19130000  1.0 0.081568343
H  H857  1  0.89320000  0.45380000  0.19130000  1.0 0.081568343
H  H858  1  0.56060000  0.10680000  0.19130000  1.0 0.081568343
H  H859  1  0.56060000  0.45380000  0.69130000  1.0 0.081568343
H  H860  1  0.54620000  0.10680000  0.69130000  1.0 0.081568343
H  H861  1  0.89320000  0.43940000  0.69130000  1.0 0.081568343
H  H862  1  0.45380000  0.56060000  0.80870000  1.0 0.081568343
H  H863  1  0.10680000  0.54620000  0.80870000  1.0 0.081568343
H  H864  1  0.43940000  0.89320000  0.80870000  1.0 0.081568343
C  C1  1  0.06250000  0.05490000  0.43120000  1.0 -0.0881231443
C  C2  1  0.94510000  0.00760000  0.43120000  1.0 -0.0881231443
C  C3  1  0.99240000  0.93750000  0.43120000  1.0 -0.0881231443
C  C4  1  0.05490000  0.06250000  0.06880000  1.0 -0.0881231443
C  C5  1  0.00760000  0.94510000  0.06880000  1.0 -0.0881231443
C  C6  1  0.93750000  0.99240000  0.06880000  1.0 -0.0881231443
C  C7  1  0.93750000  0.94510000  0.56880000  1.0 -0.0881231443
C  C8  1  0.05490000  0.99240000  0.56880000  1.0 -0.0881231443
C  C9  1  0.00760000  0.06250000  0.56880000  1.0 -0.0881231443
C  C10  1  0.94510000  0.93750000  0.93120000  1.0 -0.0881231443
C  C11  1  0.99240000  0.05490000  0.93120000  1.0 -0.0881231443
C  C12  1  0.06250000  0.00760000  0.93120000  1.0 -0.0881231443
C  C13  1  0.08370000  0.11250000  0.40590000  1.0 -0.1225626745
C  C14  1  0.88750000  0.97120000  0.40590000  1.0 -0.1225626745
C  C15  1  0.02880000  0.91630000  0.40590000  1.0 -0.1225626745
C  C16  1  0.11250000  0.08370000  0.09410000  1.0 -0.1225626745
C  C17  1  0.97120000  0.88750000  0.09410000  1.0 -0.1225626745
C  C18  1  0.91630000  0.02880000  0.09410000  1.0 -0.1225626745
C  C19  1  0.91630000  0.88750000  0.59410000  1.0 -0.1225626745
C  C20  1  0.11250000  0.02880000  0.59410000  1.0 -0.1225626745
C  C21  1  0.97120000  0.08370000  0.59410000  1.0 -0.1225626745
C  C22  1  0.88750000  0.91630000  0.90590000  1.0 -0.1225626745
C  C23  1  0.02880000  0.11250000  0.90590000  1.0 -0.1225626745
C  C24  1  0.08370000  0.97120000  0.90590000  1.0 -0.1225626745
C  C25  1  0.09890000  0.10250000  0.36660000  1.0 0.3130510561
C  C26  1  0.89750000  0.99640000  0.36660000  1.0 0.3130510561
C  C27  1  0.00360000  0.90110000  0.36660000  1.0 0.3130510561
C  C28  1  0.10250000  0.09890000  0.13340000  1.0 0.3130510561
C  C29  1  0.99640000  0.89750000  0.13340000  1.0 0.3130510561
C  C30  1  0.90110000  0.00360000  0.13340000  1.0 0.3130510561
C  C31  1  0.90110000  0.89750000  0.63340000  1.0 0.3130510561
C  C32  1  0.10250000  0.00360000  0.63340000  1.0 0.3130510561
C  C33  1  0.99640000  0.09890000  0.63340000  1.0 0.3130510561
C  C34  1  0.89750000  0.90110000  0.86660000  1.0 0.3130510561
C  C35  1  0.00360000  0.10250000  0.86660000  1.0 0.3130510561
C  C36  1  0.09890000  0.99640000  0.86660000  1.0 0.3130510561
C  C37  1  0.13460000  0.29730000  0.16830000  1.0 -0.0793662948
C  C38  1  0.70270000  0.83730000  0.16830000  1.0 -0.0793662948
C  C39  1  0.16270000  0.86540000  0.16830000  1.0 -0.0793662948
C  C40  1  0.29730000  0.13460000  0.33170000  1.0 -0.0793662948
C  C41  1  0.83730000  0.70270000  0.33170000  1.0 -0.0793662948
C  C42  1  0.86540000  0.16270000  0.33170000  1.0 -0.0793662948
C  C43  1  0.86540000  0.70270000  0.83170000  1.0 -0.0793662948
C  C44  1  0.29730000  0.16270000  0.83170000  1.0 -0.0793662948
C  C45  1  0.83730000  0.13460000  0.83170000  1.0 -0.0793662948
C  C46  1  0.70270000  0.86540000  0.66830000  1.0 -0.0793662948
C  C47  1  0.16270000  0.29730000  0.66830000  1.0 -0.0793662948
C  C48  1  0.13460000  0.83730000  0.66830000  1.0 -0.0793662948
C  C49  1  0.06380000  0.26990000  0.16010000  1.0 -0.3660827144
C  C50  1  0.73010000  0.79390000  0.16010000  1.0 -0.3660827144
C  C51  1  0.20610000  0.93620000  0.16010000  1.0 -0.3660827144
C  C52  1  0.26990000  0.06380000  0.33990000  1.0 -0.3660827144
C  C53  1  0.79390000  0.73010000  0.33990000  1.0 -0.3660827144
C  C54  1  0.93620000  0.20610000  0.33990000  1.0 -0.3660827144
C  C55  1  0.93620000  0.73010000  0.83990000  1.0 -0.3660827144
C  C56  1  0.26990000  0.20610000  0.83990000  1.0 -0.3660827144
C  C57  1  0.79390000  0.06380000  0.83990000  1.0 -0.3660827144
C  C58  1  0.73010000  0.93620000  0.66010000  1.0 -0.3660827144
C  C59  1  0.20610000  0.26990000  0.66010000  1.0 -0.3660827144
C  C60  1  0.06380000  0.79390000  0.66010000  1.0 -0.3660827144
C  C61  1  0.01920000  0.20900000  0.18020000  1.0 0.6084789396
C  C62  1  0.79100000  0.81020000  0.18020000  1.0 0.6084789396
C  C63  1  0.18980000  0.98080000  0.18020000  1.0 0.6084789396
C  C64  1  0.20900000  0.01920000  0.31980000  1.0 0.6084789396
C  C65  1  0.81020000  0.79100000  0.31980000  1.0 0.6084789396
C  C66  1  0.98080000  0.18980000  0.31980000  1.0 0.6084789396
C  C67  1  0.98080000  0.79100000  0.81980000  1.0 0.6084789396
C  C68  1  0.20900000  0.18980000  0.81980000  1.0 0.6084789396
C  C69  1  0.81020000  0.01920000  0.81980000  1.0 0.6084789396
C  C70  1  0.79100000  0.98080000  0.68020000  1.0 0.6084789396
C  C71  1  0.18980000  0.20900000  0.68020000  1.0 0.6084789396
C  C72  1  0.01920000  0.81020000  0.68020000  1.0 0.6084789396
C  C73  1  0.22340000  0.34150000  0.21480000  1.0 -0.0793662948
C  C74  1  0.65850000  0.88190000  0.21480000  1.0 -0.0793662948
C  C75  1  0.11810000  0.77660000  0.21480000  1.0 -0.0793662948
C  C76  1  0.34150000  0.22340000  0.28520000  1.0 -0.0793662948
C  C77  1  0.88190000  0.65850000  0.28520000  1.0 -0.0793662948
C  C78  1  0.77660000  0.11810000  0.28520000  1.0 -0.0793662948
C  C79  1  0.77660000  0.65850000  0.78520000  1.0 -0.0793662948
C  C80  1  0.34150000  0.11810000  0.78520000  1.0 -0.0793662948
C  C81  1  0.88190000  0.22340000  0.78520000  1.0 -0.0793662948
C  C82  1  0.65850000  0.77660000  0.71480000  1.0 -0.0793662948
C  C83  1  0.11810000  0.34150000  0.71480000  1.0 -0.0793662948
C  C84  1  0.22340000  0.88190000  0.71480000  1.0 -0.0793662948
C  C85  1  0.25140000  0.30640000  0.19470000  1.0 -0.3863687255
C  C86  1  0.69360000  0.94500000  0.19470000  1.0 -0.3863687255
C  C87  1  0.05500000  0.74860000  0.19470000  1.0 -0.3863687255
C  C88  1  0.30640000  0.25140000  0.30530000  1.0 -0.3863687255
C  C89  1  0.94500000  0.69360000  0.30530000  1.0 -0.3863687255
C  C90  1  0.74860000  0.05500000  0.30530000  1.0 -0.3863687255
C  C91  1  0.74860000  0.69360000  0.80530000  1.0 -0.3863687255
C  C92  1  0.30640000  0.05500000  0.80530000  1.0 -0.3863687255
C  C93  1  0.94500000  0.25140000  0.80530000  1.0 -0.3863687255
C  C94  1  0.69360000  0.74860000  0.69470000  1.0 -0.3863687255
C  C95  1  0.05500000  0.30640000  0.69470000  1.0 -0.3863687255
C  C96  1  0.25140000  0.94500000  0.69470000  1.0 -0.3863687255
C  C97  1  0.22270000  0.23700000  0.20320000  1.0 0.6084789396
C  C98  1  0.76300000  0.98570000  0.20320000  1.0 0.6084789396
C  C99  1  0.01430000  0.77730000  0.20320000  1.0 0.6084789396
C  C100  1  0.23700000  0.22270000  0.29680000  1.0 0.6084789396
C  C101  1  0.98570000  0.76300000  0.29680000  1.0 0.6084789396
C  C102  1  0.77730000  0.01430000  0.29680000  1.0 0.6084789396
C  C103  1  0.77730000  0.76300000  0.79680000  1.0 0.6084789396
C  C104  1  0.23700000  0.01430000  0.79680000  1.0 0.6084789396
C  C105  1  0.98570000  0.22270000  0.79680000  1.0 0.6084789396
C  C106  1  0.76300000  0.77730000  0.70320000  1.0 0.6084789396
C  C107  1  0.01430000  0.23700000  0.70320000  1.0 0.6084789396
C  C108  1  0.22270000  0.98570000  0.70320000  1.0 0.6084789396
C  C109  1  0.13180000  0.36050000  0.22340000  1.0 -0.0637353032
C  C110  1  0.63950000  0.77130000  0.22340000  1.0 -0.0637353032
C  C111  1  0.22870000  0.86820000  0.22340000  1.0 -0.0637353032
C  C112  1  0.36050000  0.13180000  0.27660000  1.0 -0.0637353032
C  C113  1  0.77130000  0.63950000  0.27660000  1.0 -0.0637353032
C  C114  1  0.86820000  0.22870000  0.27660000  1.0 -0.0637353032
C  C115  1  0.86820000  0.63950000  0.77660000  1.0 -0.0637353032
C  C116  1  0.36050000  0.22870000  0.77660000  1.0 -0.0637353032
C  C117  1  0.77130000  0.13180000  0.77660000  1.0 -0.0637353032
C  C118  1  0.63950000  0.86820000  0.72340000  1.0 -0.0637353032
C  C119  1  0.22870000  0.36050000  0.72340000  1.0 -0.0637353032
C  C120  1  0.13180000  0.77130000  0.72340000  1.0 -0.0637353032
C  C121  1  0.15870000  0.39160000  0.26080000  1.0 -0.3825223318
C  C122  1  0.60840000  0.76710000  0.26080000  1.0 -0.3825223318
C  C123  1  0.23290000  0.84130000  0.26080000  1.0 -0.3825223318
C  C124  1  0.39160000  0.15870000  0.23920000  1.0 -0.3825223318
C  C125  1  0.76710000  0.60840000  0.23920000  1.0 -0.3825223318
C  C126  1  0.84130000  0.23290000  0.23920000  1.0 -0.3825223318
C  C127  1  0.84130000  0.60840000  0.73920000  1.0 -0.3825223318
C  C128  1  0.39160000  0.23290000  0.73920000  1.0 -0.3825223318
C  C129  1  0.76710000  0.15870000  0.73920000  1.0 -0.3825223318
C  C130  1  0.60840000  0.84130000  0.76080000  1.0 -0.3825223318
C  C131  1  0.23290000  0.39160000  0.76080000  1.0 -0.3825223318
C  C132  1  0.15870000  0.76710000  0.76080000  1.0 -0.3825223318
C  C133  1  0.14390000  0.34760000  0.29390000  1.0 0.6580143683
C  C134  1  0.65240000  0.79630000  0.29390000  1.0 0.6580143683
C  C135  1  0.20370000  0.85610000  0.29390000  1.0 0.6580143683
C  C136  1  0.34760000  0.14390000  0.20610000  1.0 0.6580143683
C  C137  1  0.79630000  0.65240000  0.20610000  1.0 0.6580143683
C  C138  1  0.85610000  0.20370000  0.20610000  1.0 0.6580143683
C  C139  1  0.85610000  0.65240000  0.70610000  1.0 0.6580143683
C  C140  1  0.34760000  0.20370000  0.70610000  1.0 0.6580143683
C  C141  1  0.79630000  0.14390000  0.70610000  1.0 0.6580143683
C  C142  1  0.65240000  0.85610000  0.79390000  1.0 0.6580143683
C  C143  1  0.20370000  0.34760000  0.79390000  1.0 0.6580143683
C  C144  1  0.14390000  0.79630000  0.79390000  1.0 0.6580143683
C  C145  1  0.34390000  0.61400000  0.24980000  1.0 -0.0793662948
C  C146  1  0.38600000  0.72990000  0.24980000  1.0 -0.0793662948
C  C147  1  0.27010000  0.65610000  0.24980000  1.0 -0.0793662948
C  C148  1  0.61400000  0.34390000  0.25020000  1.0 -0.0793662948
C  C149  1  0.72990000  0.38600000  0.25020000  1.0 -0.0793662948
C  C150  1  0.65610000  0.27010000  0.25020000  1.0 -0.0793662948
C  C151  1  0.65610000  0.38600000  0.75020000  1.0 -0.0793662948
C  C152  1  0.61400000  0.27010000  0.75020000  1.0 -0.0793662948
C  C153  1  0.72990000  0.34390000  0.75020000  1.0 -0.0793662948
C  C154  1  0.38600000  0.65610000  0.74980000  1.0 -0.0793662948
C  C155  1  0.27010000  0.61400000  0.74980000  1.0 -0.0793662948
C  C156  1  0.34390000  0.72990000  0.74980000  1.0 -0.0793662948
C  C157  1  0.29930000  0.54990000  0.26740000  1.0 -0.3825223318
C  C158  1  0.45010000  0.74940000  0.26740000  1.0 -0.3825223318
C  C159  1  0.25060000  0.70070000  0.26740000  1.0 -0.3825223318
C  C160  1  0.54990000  0.29930000  0.23260000  1.0 -0.3825223318
C  C161  1  0.74940000  0.45010000  0.23260000  1.0 -0.3825223318
C  C162  1  0.70070000  0.25060000  0.23260000  1.0 -0.3825223318
C  C163  1  0.70070000  0.45010000  0.73260000  1.0 -0.3825223318
C  C164  1  0.54990000  0.25060000  0.73260000  1.0 -0.3825223318
C  C165  1  0.74940000  0.29930000  0.73260000  1.0 -0.3825223318
C  C166  1  0.45010000  0.70070000  0.76740000  1.0 -0.3825223318
C  C167  1  0.25060000  0.54990000  0.76740000  1.0 -0.3825223318
C  C168  1  0.29930000  0.74940000  0.76740000  1.0 -0.3825223318
C  C169  1  0.30500000  0.54540000  0.30890000  1.0 0.6184894106
C  C170  1  0.45460000  0.75960000  0.30890000  1.0 0.6184894106
C  C171  1  0.24040000  0.69500000  0.30890000  1.0 0.6184894106
C  C172  1  0.54540000  0.30500000  0.19110000  1.0 0.6184894106
C  C173  1  0.75960000  0.45460000  0.19110000  1.0 0.6184894106
C  C174  1  0.69500000  0.24040000  0.19110000  1.0 0.6184894106
C  C175  1  0.69500000  0.45460000  0.69110000  1.0 0.6184894106
C  C176  1  0.54540000  0.24040000  0.69110000  1.0 0.6184894106
C  C177  1  0.75960000  0.30500000  0.69110000  1.0 0.6184894106
C  C178  1  0.45460000  0.69500000  0.80890000  1.0 0.6184894106
C  C179  1  0.24040000  0.54540000  0.80890000  1.0 0.6184894106
C  C180  1  0.30500000  0.75960000  0.80890000  1.0 0.6184894106
C  C181  1  0.28690000  0.68540000  0.60420000  1.0 -0.0793662948
C  C182  1  0.31460000  0.60150000  0.60420000  1.0 -0.0793662948
C  C183  1  0.39850000  0.71310000  0.60420000  1.0 -0.0793662948
C  C184  1  0.68540000  0.28690000  0.89580000  1.0 -0.0793662948
C  C185  1  0.60150000  0.31460000  0.89580000  1.0 -0.0793662948
C  C186  1  0.71310000  0.39850000  0.89580000  1.0 -0.0793662948
C  C187  1  0.71310000  0.31460000  0.39580000  1.0 -0.0793662948
C  C188  1  0.68540000  0.39850000  0.39580000  1.0 -0.0793662948
C  C189  1  0.60150000  0.28690000  0.39580000  1.0 -0.0793662948
C  C190  1  0.31460000  0.71310000  0.10420000  1.0 -0.0793662948
C  C191  1  0.39850000  0.68540000  0.10420000  1.0 -0.0793662948
C  C192  1  0.28690000  0.60150000  0.10420000  1.0 -0.0793662948
C  C193  1  0.22220000  0.65150000  0.58590000  1.0 -0.3825223318
C  C194  1  0.34850000  0.57070000  0.58590000  1.0 -0.3825223318
C  C195  1  0.42930000  0.77780000  0.58590000  1.0 -0.3825223318
C  C196  1  0.65150000  0.22220000  0.91410000  1.0 -0.3825223318
C  C197  1  0.57070000  0.34850000  0.91410000  1.0 -0.3825223318
C  C198  1  0.77780000  0.42930000  0.91410000  1.0 -0.3825223318
C  C199  1  0.77780000  0.34850000  0.41410000  1.0 -0.3825223318
C  C200  1  0.65150000  0.42930000  0.41410000  1.0 -0.3825223318
C  C201  1  0.57070000  0.22220000  0.41410000  1.0 -0.3825223318
C  C202  1  0.34850000  0.77780000  0.08590000  1.0 -0.3825223318
C  C203  1  0.42930000  0.65150000  0.08590000  1.0 -0.3825223318
C  C204  1  0.22220000  0.57070000  0.08590000  1.0 -0.3825223318
C  C205  1  0.22100000  0.66430000  0.54440000  1.0 0.6358922236
C  C206  1  0.33570000  0.55670000  0.54440000  1.0 0.6358922236
C  C207  1  0.44330000  0.77900000  0.54440000  1.0 0.6358922236
C  C208  1  0.66430000  0.22100000  0.95560000  1.0 0.6358922236
C  C209  1  0.55670000  0.33570000  0.95560000  1.0 0.6358922236
C  C210  1  0.77900000  0.44330000  0.95560000  1.0 0.6358922236
C  C211  1  0.77900000  0.33570000  0.45560000  1.0 0.6358922236
C  C212  1  0.66430000  0.44330000  0.45560000  1.0 0.6358922236
C  C213  1  0.55670000  0.22100000  0.45560000  1.0 0.6358922236
C  C214  1  0.33570000  0.77900000  0.04440000  1.0 0.6358922236
C  C215  1  0.44330000  0.66430000  0.04440000  1.0 0.6358922236
C  C216  1  0.22100000  0.55670000  0.04440000  1.0 0.6358922236
C  C217  1  0.13090000  0.37510000  0.50830000  1.0 -0.0722629733
C  C218  1  0.62490000  0.75580000  0.50830000  1.0 -0.0722629733
C  C219  1  0.24420000  0.86910000  0.50830000  1.0 -0.0722629733
C  C220  1  0.37510000  0.13090000  0.99170000  1.0 -0.0722629733
C  C221  1  0.75580000  0.62490000  0.99170000  1.0 -0.0722629733
C  C222  1  0.86910000  0.24420000  0.99170000  1.0 -0.0722629733
C  C223  1  0.86910000  0.62490000  0.49170000  1.0 -0.0722629733
C  C224  1  0.37510000  0.24420000  0.49170000  1.0 -0.0722629733
C  C225  1  0.75580000  0.13090000  0.49170000  1.0 -0.0722629733
C  C226  1  0.62490000  0.86910000  0.00830000  1.0 -0.0722629733
C  C227  1  0.24420000  0.37510000  0.00830000  1.0 -0.0722629733
C  C228  1  0.13090000  0.75580000  0.00830000  1.0 -0.0722629733
C  C229  1  0.09400000  0.40880000  0.51530000  1.0 -0.3660827144
C  C230  1  0.59120000  0.68520000  0.51530000  1.0 -0.3660827144
C  C231  1  0.31480000  0.90600000  0.51530000  1.0 -0.3660827144
C  C232  1  0.40880000  0.09400000  0.98470000  1.0 -0.3660827144
C  C233  1  0.68520000  0.59120000  0.98470000  1.0 -0.3617569196
C  C234  1  0.90600000  0.31480000  0.98470000  1.0 -0.3617569196
C  C235  1  0.90600000  0.59120000  0.48470000  1.0 -0.3617569196
C  C236  1  0.40880000  0.31480000  0.48470000  1.0 -0.3617569196
C  C237  1  0.68520000  0.09400000  0.48470000  1.0 -0.3617569196
C  C238  1  0.59120000  0.90600000  0.01530000  1.0 -0.3617569196
C  C239  1  0.31480000  0.40880000  0.01530000  1.0 -0.3617569196
C  C240  1  0.09400000  0.68520000  0.01530000  1.0 -0.3660827144
C  C241  1  0.12060000  0.47260000  0.49440000  1.0 0.6184894106
C  C242  1  0.52740000  0.64800000  0.49440000  1.0 0.6184894106
C  C243  1  0.35200000  0.87940000  0.49440000  1.0 0.6184894106
C  C244  1  0.47260000  0.12060000  0.00560000  1.0 0.6184894106
C  C245  1  0.64800000  0.52740000  0.00560000  1.0 0.6184894106
C  C246  1  0.87940000  0.35200000  0.00560000  1.0 0.6184894106
C  C247  1  0.87940000  0.52740000  0.50560000  1.0 0.6184894106
C  C248  1  0.47260000  0.35200000  0.50560000  1.0 0.6184894106
C  C249  1  0.64800000  0.12060000  0.50560000  1.0 0.6184894106
C  C250  1  0.52740000  0.87940000  0.99440000  1.0 0.6184894106
C  C251  1  0.35200000  0.47260000  0.99440000  1.0 0.6184894106
C  C252  1  0.12060000  0.64800000  0.99440000  1.0 0.6184894106
C  C253  1  0.16790000  0.31970000  0.46570000  1.0 -0.0976566306
C  C254  1  0.68030000  0.84820000  0.46570000  1.0 -0.0976566306
C  C255  1  0.15180000  0.83210000  0.46570000  1.0 -0.0976566306
C  C256  1  0.31970000  0.16790000  0.03430000  1.0 -0.0976566306
C  C257  1  0.84820000  0.68030000  0.03430000  1.0 -0.0976566306
C  C258  1  0.83210000  0.15180000  0.03430000  1.0 -0.0976566306
C  C259  1  0.83210000  0.68030000  0.53430000  1.0 -0.0976566306
C  C260  1  0.31970000  0.15180000  0.53430000  1.0 -0.0976566306
C  C261  1  0.84820000  0.16790000  0.53430000  1.0 -0.0976566306
C  C262  1  0.68030000  0.83210000  0.96570000  1.0 -0.0976566306
C  C263  1  0.15180000  0.31970000  0.96570000  1.0 -0.0976566306
C  C264  1  0.16790000  0.84820000  0.96570000  1.0 -0.0976566306
C  C265  1  0.23150000  0.34930000  0.48600000  1.0 -0.3524116589
C  C266  1  0.65070000  0.88220000  0.48600000  1.0 -0.3524116589
C  C267  1  0.11780000  0.76850000  0.48600000  1.0 -0.3524116589
C  C268  1  0.34930000  0.23150000  0.01400000  1.0 -0.3524116589
C  C269  1  0.88220000  0.65070000  0.01400000  1.0 -0.3524116589
C  C270  1  0.76850000  0.11780000  0.01400000  1.0 -0.3524116589
C  C271  1  0.76850000  0.65070000  0.51400000  1.0 -0.3524116589
C  C272  1  0.34930000  0.11780000  0.51400000  1.0 -0.3524116589
C  C273  1  0.88220000  0.23150000  0.51400000  1.0 -0.3524116589
C  C274  1  0.65070000  0.76850000  0.98600000  1.0 -0.3524116589
C  C275  1  0.11780000  0.34930000  0.98600000  1.0 -0.3524116589
C  C276  1  0.23150000  0.88220000  0.98600000  1.0 -0.3524116589
C  C277  1  0.28090000  0.41590000  0.47380000  1.0 0.6184894106
C  C278  1  0.58410000  0.86500000  0.47380000  1.0 0.6184894106
C  C279  1  0.13500000  0.71910000  0.47380000  1.0 0.6184894106
C  C280  1  0.41590000  0.28090000  0.02620000  1.0 0.6184894106
C  C281  1  0.86500000  0.58410000  0.02620000  1.0 0.6184894106
C  C282  1  0.71910000  0.13500000  0.02620000  1.0 0.6184894106
C  C283  1  0.71910000  0.58410000  0.52620000  1.0 0.6184894106
C  C284  1  0.41590000  0.13500000  0.52620000  1.0 0.6184894106
C  C285  1  0.86500000  0.28090000  0.52620000  1.0 0.6184894106
C  C286  1  0.58410000  0.71910000  0.97380000  1.0 0.6084789396
C  C287  1  0.13500000  0.41590000  0.97380000  1.0 0.6184894106
C  C288  1  0.28090000  0.86500000  0.97380000  1.0 0.6184894106
C  C289  1  0.06380000  0.30560000  0.45100000  1.0 -0.0881231443
C  C290  1  0.69440000  0.75820000  0.45100000  1.0 -0.0881231443
C  C291  1  0.24180000  0.93620000  0.45100000  1.0 -0.0881231443
C  C292  1  0.30560000  0.06380000  0.04900000  1.0 -0.0881231443
C  C293  1  0.75820000  0.69440000  0.04900000  1.0 -0.0881231443
C  C294  1  0.93620000  0.24180000  0.04900000  1.0 -0.0881231443
C  C295  1  0.93620000  0.69440000  0.54900000  1.0 -0.0881231443
C  C296  1  0.30560000  0.24180000  0.54900000  1.0 -0.0881231443
C  C297  1  0.75820000  0.06380000  0.54900000  1.0 -0.0881231443
C  C298  1  0.69440000  0.93620000  0.95100000  1.0 -0.0881231443
C  C299  1  0.24180000  0.30560000  0.95100000  1.0 -0.0881231443
C  C300  1  0.06380000  0.75820000  0.95100000  1.0 -0.0881231443
C  C301  1  0.03160000  0.33610000  0.43020000  1.0 -0.3617569196
C  C302  1  0.66390000  0.69550000  0.43020000  1.0 -0.3617569196
C  C303  1  0.30450000  0.96840000  0.43020000  1.0 -0.3617569196
C  C304  1  0.33610000  0.03160000  0.06980000  1.0 -0.3617569196
C  C305  1  0.69550000  0.66390000  0.06980000  1.0 -0.3617569196
C  C306  1  0.96840000  0.30450000  0.06980000  1.0 -0.3617569196
C  C307  1  0.96840000  0.66390000  0.56980000  1.0 -0.3617569196
C  C308  1  0.33610000  0.30450000  0.56980000  1.0 -0.3617569196
C  C309  1  0.69550000  0.03160000  0.56980000  1.0 -0.3617569196
C  C310  1  0.66390000  0.96840000  0.93020000  1.0 -0.3617569196
C  C311  1  0.30450000  0.33610000  0.93020000  1.0 -0.3617569196
C  C312  1  0.03160000  0.69550000  0.93020000  1.0 -0.3617569196
C  C313  1  0.06610000  0.37000000  0.39500000  1.0 0.6184894106
C  C314  1  0.63000000  0.69610000  0.39500000  1.0 0.6184894106
C  C315  1  0.30390000  0.93390000  0.39500000  1.0 0.6184894106
C  C316  1  0.37000000  0.06610000  0.10500000  1.0 0.6184894106
C  C317  1  0.69610000  0.63000000  0.10500000  1.0 0.6184894106
C  C318  1  0.93390000  0.30390000  0.10500000  1.0 0.6184894106
C  C319  1  0.93390000  0.63000000  0.60500000  1.0 0.6184894106
C  C320  1  0.37000000  0.30390000  0.60500000  1.0 0.6184894106
C  C321  1  0.69610000  0.06610000  0.60500000  1.0 0.6184894106
C  C322  1  0.63000000  0.93390000  0.89500000  1.0 0.6184894106
C  C323  1  0.30390000  0.37000000  0.89500000  1.0 0.6184894106
C  C324  1  0.06610000  0.69610000  0.89500000  1.0 0.6184894106
C  C325  1  0.39580000  0.40510000  0.36780000  1.0 -0.0976566306
C  C326  1  0.59490000  0.99070000  0.36780000  1.0 -0.0976566306
C  C327  1  0.00930000  0.60420000  0.36780000  1.0 -0.0976566306
C  C328  1  0.40510000  0.39580000  0.13220000  1.0 -0.0976566306
C  C329  1  0.99070000  0.59490000  0.13220000  1.0 -0.0976566306
C  C330  1  0.60420000  0.00930000  0.13220000  1.0 -0.0976566306
C  C331  1  0.60420000  0.59490000  0.63220000  1.0 -0.0976566306
C  C332  1  0.40510000  0.00930000  0.63220000  1.0 -0.0976566306
C  C333  1  0.99070000  0.39580000  0.63220000  1.0 -0.0976566306
C  C334  1  0.59490000  0.60420000  0.86780000  1.0 -0.0976566306
C  C335  1  0.00930000  0.40510000  0.86780000  1.0 -0.0976566306
C  C336  1  0.39580000  0.99070000  0.86780000  1.0 -0.0976566306
C  C337  1  0.33280000  0.38630000  0.36760000  1.0 -0.3053506899
C  C338  1  0.61370000  0.94650000  0.36760000  1.0 -0.3053506899
C  C339  1  0.05350000  0.66720000  0.36760000  1.0 -0.3053506899
C  C340  1  0.38630000  0.33280000  0.13240000  1.0 -0.3053506899
C  C341  1  0.94650000  0.61370000  0.13240000  1.0 -0.304572134
C  C342  1  0.66720000  0.05350000  0.13240000  1.0 -0.3053506899
C  C343  1  0.66720000  0.61370000  0.63240000  1.0 -0.3053506899
C  C344  1  0.38630000  0.05350000  0.63240000  1.0 -0.3053506899
C  C345  1  0.94650000  0.33280000  0.63240000  1.0 -0.3053506899
C  C346  1  0.61370000  0.66720000  0.86760000  1.0 -0.3053506899
C  C347  1  0.05350000  0.38630000  0.86760000  1.0 -0.3053506899
C  C348  1  0.33280000  0.94650000  0.86760000  1.0 -0.3053506899
C  C349  1  0.30270000  0.42350000  0.38140000  1.0 0.5523491911
C  C350  1  0.57650000  0.87920000  0.38140000  1.0 0.5523491911
C  C351  1  0.12080000  0.69730000  0.38140000  1.0 0.5523491911
C  C352  1  0.42350000  0.30270000  0.11860000  1.0 0.5523491911
C  C353  1  0.87920000  0.57650000  0.11860000  1.0 0.5523491911
C  C354  1  0.69730000  0.12080000  0.11860000  1.0 0.5523491911
C  C355  1  0.69730000  0.57650000  0.61860000  1.0 0.5523491911
C  C356  1  0.42350000  0.12080000  0.61860000  1.0 0.5523491911
C  C357  1  0.87920000  0.30270000  0.61860000  1.0 0.5523491911
C  C358  1  0.57650000  0.69730000  0.88140000  1.0 0.5523491911
C  C359  1  0.12080000  0.42350000  0.88140000  1.0 0.5523491911
C  C360  1  0.30270000  0.87920000  0.88140000  1.0 0.5523491911
C  C361  1  0.51360000  0.49260000  0.37690000  1.0 -0.0722629733
C  C362  1  0.50740000  0.02100000  0.37690000  1.0 -0.0722629733
C  C363  1  0.97900000  0.48640000  0.37690000  1.0 -0.0722629733
C  C364  1  0.49260000  0.51360000  0.12310000  1.0 -0.0722629733
C  C365  1  0.02100000  0.50740000  0.12310000  1.0 -0.0722629733
C  C366  1  0.48640000  0.97900000  0.12310000  1.0 -0.0722629733
C  C367  1  0.48640000  0.50740000  0.62310000  1.0 -0.0722629733
C  C368  1  0.49260000  0.97900000  0.62310000  1.0 -0.0722629733
C  C369  1  0.02100000  0.51360000  0.62310000  1.0 -0.0722629733
C  C370  1  0.50740000  0.48640000  0.87690000  1.0 -0.0722629733
C  C371  1  0.97900000  0.49260000  0.87690000  1.0 -0.0722629733
C  C372  1  0.51360000  0.02100000  0.87690000  1.0 -0.0722629733
C  C373  1  0.53020000  0.47640000  0.41580000  1.0 -0.2252922642
C  C374  1  0.52360000  0.05380000  0.41580000  1.0 -0.2246947872
C  C375  1  0.94620000  0.46980000  0.41580000  1.0 -0.2252922642
C  C376  1  0.47640000  0.53020000  0.08420000  1.0 -0.2246947872
C  C377  1  0.05380000  0.52360000  0.08420000  1.0 -0.2252922642
C  C378  1  0.46980000  0.94620000  0.08420000  1.0 -0.2252922642
C  C379  1  0.46980000  0.52360000  0.58420000  1.0 -0.2252922642
C  C380  1  0.47640000  0.94620000  0.58420000  1.0 -0.2252922642
C  C381  1  0.05380000  0.53020000  0.58420000  1.0 -0.2252922642
C  C382  1  0.52360000  0.46980000  0.91580000  1.0 -0.2246947872
C  C383  1  0.94620000  0.47640000  0.91580000  1.0 -0.2246947872
C  C384  1  0.53020000  0.05380000  0.91580000  1.0 -0.2246947872
C  C385  1  0.51780000  0.50840000  0.44980000  1.0 0.5021539591
C  C386  1  0.49160000  0.00940000  0.44980000  1.0 0.5021539591
C  C387  1  0.99060000  0.48220000  0.44980000  1.0 0.5021539591
C  C388  1  0.50840000  0.51780000  0.05020000  1.0 0.5021539591
C  C389  1  0.00940000  0.49160000  0.05020000  1.0 0.5021539591
C  C390  1  0.48220000  0.99060000  0.05020000  1.0 0.5021539591
C  C391  1  0.48220000  0.49160000  0.55020000  1.0 0.5021539591
C  C392  1  0.50840000  0.99060000  0.55020000  1.0 0.5021539591
C  C393  1  0.00940000  0.51780000  0.55020000  1.0 0.5021539591
C  C394  1  0.49160000  0.48220000  0.94980000  1.0 0.5021539591
C  C395  1  0.99060000  0.50840000  0.94980000  1.0 0.5021539591
C  C396  1  0.51780000  0.00940000  0.94980000  1.0 0.5021539591
C  C397  1  0.43580000  0.49480000  0.33290000  1.0 -0.1253622535
C  C398  1  0.50520000  0.94100000  0.33290000  1.0 -0.1253622535
C  C399  1  0.05900000  0.56420000  0.33290000  1.0 -0.1225626745
C  C400  1  0.49480000  0.43580000  0.16710000  1.0 -0.1253622535
C  C401  1  0.94100000  0.50520000  0.16710000  1.0 -0.1253622535
C  C402  1  0.56420000  0.05900000  0.16710000  1.0 -0.1225626745
C  C403  1  0.56420000  0.50520000  0.66710000  1.0 -0.1253622535
C  C404  1  0.49480000  0.05900000  0.66710000  1.0 -0.1253622535
C  C405  1  0.94100000  0.43580000  0.66710000  1.0 -0.1225626745
C  C406  1  0.50520000  0.56420000  0.83290000  1.0 -0.1225626745
C  C407  1  0.05900000  0.49480000  0.83290000  1.0 -0.1253622535
C  C408  1  0.43580000  0.94100000  0.83290000  1.0 -0.1253622535
C  C409  1  0.48010000  0.56210000  0.32240000  1.0 -0.2739475059
C  C410  1  0.43790000  0.91800000  0.32240000  1.0 -0.2739475059
C  C411  1  0.08200000  0.51990000  0.32240000  1.0 -0.2739475059
C  C412  1  0.56210000  0.48010000  0.17760000  1.0 -0.2739475059
C  C413  1  0.91800000  0.43790000  0.17760000  1.0 -0.2739475059
C  C414  1  0.51990000  0.08200000  0.17760000  1.0 -0.2739475059
C  C415  1  0.51990000  0.43790000  0.67760000  1.0 -0.2739475059
C  C416  1  0.56210000  0.08200000  0.67760000  1.0 -0.2739475059
C  C417  1  0.91800000  0.48010000  0.67760000  1.0 -0.2739475059
C  C418  1  0.43790000  0.51990000  0.82240000  1.0 -0.2739475059
C  C419  1  0.08200000  0.56210000  0.82240000  1.0 -0.2739475059
C  C420  1  0.48010000  0.91800000  0.82240000  1.0 -0.2739475059
C  C421  1  0.48710000  0.61330000  0.34940000  1.0 0.5268840641
C  C422  1  0.38670000  0.87380000  0.34940000  1.0 0.5268840641
C  C423  1  0.12620000  0.51290000  0.34940000  1.0 0.5268840641
C  C424  1  0.61330000  0.48710000  0.15060000  1.0 0.5268840641
C  C425  1  0.87380000  0.38670000  0.15060000  1.0 0.5268840641
C  C426  1  0.51290000  0.12620000  0.15060000  1.0 0.5268840641
C  C427  1  0.51290000  0.38670000  0.65060000  1.0 0.5268840641
C  C428  1  0.61330000  0.12620000  0.65060000  1.0 0.5268840641
C  C429  1  0.87380000  0.48710000  0.65060000  1.0 0.524230849
C  C430  1  0.38670000  0.51290000  0.84940000  1.0 0.5268840641
C  C431  1  0.12620000  0.61330000  0.84940000  1.0 0.5268840641
C  C432  1  0.48710000  0.87380000  0.84940000  1.0 0.5268840641
C  C433  1  0.05610000  0.99420000  0.43680000  1.0 -0.1471311102
C  C434  1  0.00580000  0.06190000  0.43680000  1.0 -0.1471311102
C  C435  1  0.93810000  0.94390000  0.43680000  1.0 -0.1471311102
C  C436  1  0.99420000  0.05610000  0.06320000  1.0 -0.1471311102
C  C437  1  0.06190000  0.00580000  0.06320000  1.0 -0.1471311102
C  C438  1  0.94390000  0.93810000  0.06320000  1.0 -0.1471311102
C  C439  1  0.94390000  0.00580000  0.56320000  1.0 -0.1471311102
C  C440  1  0.99420000  0.93810000  0.56320000  1.0 -0.1471311102
C  C441  1  0.06190000  0.05610000  0.56320000  1.0 -0.1471311102
C  C442  1  0.00580000  0.94390000  0.93680000  1.0 -0.1471311102
C  C443  1  0.93810000  0.99420000  0.93680000  1.0 -0.1471311102
C  C444  1  0.05610000  0.06190000  0.93680000  1.0 -0.1471311102
C  C445  1  0.05700000  0.11430000  0.41480000  1.0 -0.1225626745
C  C446  1  0.88570000  0.94270000  0.41480000  1.0 -0.1225626745
C  C447  1  0.05730000  0.94300000  0.41480000  1.0 -0.1225626745
C  C448  1  0.11430000  0.05700000  0.08520000  1.0 -0.1225626745
C  C449  1  0.94270000  0.88570000  0.08520000  1.0 -0.1225626745
C  C450  1  0.94300000  0.05730000  0.08520000  1.0 -0.1225626745
C  C451  1  0.94300000  0.88570000  0.58520000  1.0 -0.1225626745
C  C452  1  0.11430000  0.05730000  0.58520000  1.0 -0.1225626745
C  C453  1  0.94270000  0.05700000  0.58520000  1.0 -0.1225626745
C  C454  1  0.88570000  0.94300000  0.91480000  1.0 -0.1225626745
C  C455  1  0.05730000  0.11430000  0.91480000  1.0 -0.1225626745
C  C456  1  0.05700000  0.94270000  0.91480000  1.0 -0.1225626745
C  C457  1  0.04630000  0.11180000  0.37540000  1.0 0.0697152884
C  C458  1  0.88820000  0.93450000  0.37540000  1.0 0.0697152884
C  C459  1  0.06550000  0.95370000  0.37540000  1.0 0.0697152884
C  C460  1  0.11180000  0.04630000  0.12460000  1.0 0.0697152884
C  C461  1  0.93450000  0.88820000  0.12460000  1.0 0.0697152884
C  C462  1  0.95370000  0.06550000  0.12460000  1.0 0.0697152884
C  C463  1  0.95370000  0.88820000  0.62460000  1.0 0.0697152884
C  C464  1  0.11180000  0.06550000  0.62460000  1.0 0.0697152884
C  C465  1  0.93450000  0.04630000  0.62460000  1.0 0.0697152884
C  C466  1  0.88820000  0.95370000  0.87540000  1.0 0.0697152884
C  C467  1  0.06550000  0.11180000  0.87540000  1.0 0.0697152884
C  C468  1  0.04630000  0.93450000  0.87540000  1.0 0.0697152884
C  C469  1  0.39870000  0.40690000  0.38240000  1.0 -0.0722629733
C  C470  1  0.59310000  0.99180000  0.38240000  1.0 -0.0722629733
C  C471  1  0.00820000  0.60130000  0.38240000  1.0 -0.0722629733
C  C472  1  0.40690000  0.39870000  0.11760000  1.0 -0.0722629733
C  C473  1  0.99180000  0.59310000  0.11760000  1.0 -0.0722629733
C  C474  1  0.60130000  0.00820000  0.11760000  1.0 -0.0722629733
C  C475  1  0.60130000  0.59310000  0.61760000  1.0 -0.0722629733
C  C476  1  0.40690000  0.00820000  0.61760000  1.0 -0.0722629733
C  C477  1  0.99180000  0.39870000  0.61760000  1.0 -0.0722629733
C  C478  1  0.59310000  0.60130000  0.88240000  1.0 -0.0722629733
C  C479  1  0.00820000  0.40690000  0.88240000  1.0 -0.0722629733
C  C480  1  0.39870000  0.99180000  0.88240000  1.0 -0.0722629733
C  C481  1  0.49300000  0.44800000  0.39260000  1.0 -0.140995808
C  C482  1  0.55200000  0.04500000  0.39260000  1.0 -0.140995808
C  C483  1  0.95500000  0.50700000  0.39260000  1.0 -0.140995808
C  C484  1  0.44800000  0.49300000  0.10740000  1.0 -0.140995808
C  C485  1  0.04500000  0.55200000  0.10740000  1.0 -0.140995808
C  C486  1  0.50700000  0.95500000  0.10740000  1.0 -0.140995808
C  C487  1  0.50700000  0.55200000  0.60740000  1.0 -0.140995808
C  C488  1  0.44800000  0.95500000  0.60740000  1.0 -0.140995808
C  C489  1  0.04500000  0.49300000  0.60740000  1.0 -0.140995808
C  C490  1  0.55200000  0.50700000  0.89260000  1.0 -0.140995808
C  C491  1  0.95500000  0.44800000  0.89260000  1.0 -0.140995808
C  C492  1  0.49300000  0.04500000  0.89260000  1.0 -0.140995808
C  C493  1  0.48100000  0.50140000  0.34160000  1.0 -0.0210360413
C  C494  1  0.49860000  0.97960000  0.34160000  1.0 -0.0210360413
C  C495  1  0.02040000  0.51900000  0.34160000  1.0 -0.0210360413
C  C496  1  0.50140000  0.48100000  0.15840000  1.0 -0.0210360413
C  C497  1  0.97960000  0.49860000  0.15840000  1.0 -0.0210360413
C  C498  1  0.51900000  0.02040000  0.15840000  1.0 -0.0210360413
C  C499  1  0.51900000  0.49860000  0.65840000  1.0 -0.0210360413
C  C500  1  0.50140000  0.02040000  0.65840000  1.0 -0.0210360413
C  C501  1  0.97960000  0.48100000  0.65840000  1.0 -0.0210360413
C  C502  1  0.49860000  0.51900000  0.84160000  1.0 -0.0210360413
C  C503  1  0.02040000  0.50140000  0.84160000  1.0 -0.0210360413
C  C504  1  0.48100000  0.97960000  0.84160000  1.0 -0.0210360413
N  N1  1  0.00000000  0.00000000  0.42030000  1.0 -0.0722629733
N  N2  1  0.00000000  0.00000000  0.07970000  1.0 -0.0722629733
N  N3  1  0.00000000  0.00000000  0.57970000  1.0 -0.0722629733
N  N4  1  0.00000000  0.00000000  0.92030000  1.0 -0.0722629733
N  N5  1  0.15320000  0.31540000  0.20905000  1.0 -0.0210360413
N  N6  1  0.68460000  0.83780000  0.20905000  1.0 -0.0210360413
N  N7  1  0.16220000  0.84680000  0.20905000  1.0 -0.0210360413
N  N8  1  0.31540000  0.15320000  0.29095000  1.0 -0.0210360413
N  N9  1  0.83780000  0.68460000  0.29095000  1.0 -0.0210360413
N  N10  1  0.84680000  0.16220000  0.29095000  1.0 -0.0210360413
N  N11  1  0.84680000  0.68460000  0.79095000  1.0 -0.0210360413
N  N12  1  0.31540000  0.16220000  0.79095000  1.0 -0.0210360413
N  N13  1  0.83780000  0.15320000  0.79095000  1.0 -0.0210360413
N  N14  1  0.68460000  0.84680000  0.70905000  1.0 -0.0210360413
N  N15  1  0.16220000  0.31540000  0.70905000  1.0 -0.0210360413
N  N16  1  0.15320000  0.83780000  0.70905000  1.0 -0.0210360413
N  N17  1  0.33333333  0.66666667  0.26290000  1.0 -0.0369995224
N  N18  1  0.66666667  0.33333333  0.23710000  1.0 -0.0369995224
N  N19  1  0.66666667  0.33333333  0.73710000  1.0 -0.0369995224
N  N20  1  0.33333333  0.66666667  0.76290000  1.0 -0.0369995224
N  N21  1  0.33333333  0.66666667  0.59110000  1.0 -0.0295627597
N  N22  1  0.66666667  0.33333333  0.90890000  1.0 -0.0295627597
N  N23  1  0.66666667  0.33333333  0.40890000  1.0 -0.0295627597
N  N24  1  0.33333333  0.66666667  0.09110000  1.0 -0.0295627597
N  N25  1  0.12960000  0.35310000  0.46880000  1.0 -0.0112847569
N  N26  1  0.64690000  0.77650000  0.46880000  1.0 -0.0112847569
N  N27  1  0.22350000  0.87040000  0.46880000  1.0 -0.0112847569
N  N28  1  0.35310000  0.12960000  0.03120000  1.0 -0.0112847569
N  N29  1  0.77650000  0.64690000  0.03120000  1.0 -0.0112847569
N  N30  1  0.87040000  0.22350000  0.03120000  1.0 -0.0112847569
N  N31  1  0.87040000  0.64690000  0.53120000  1.0 -0.0112847569
N  N32  1  0.35310000  0.22350000  0.53120000  1.0 -0.0112847569
N  N33  1  0.77650000  0.12960000  0.53120000  1.0 -0.0112847569
N  N34  1  0.64690000  0.87040000  0.96880000  1.0 -0.0112847569
N  N35  1  0.22350000  0.35310000  0.96880000  1.0 -0.0112847569
N  N36  1  0.12960000  0.77650000  0.96880000  1.0 -0.0112847569
N  N37  1  0.44650000  0.47450000  0.37220000  1.0 -0.0112847569
N  N38  1  0.52550000  0.97200000  0.37220000  1.0 -0.0112847569
N  N39  1  0.02800000  0.55350000  0.37220000  1.0 -0.0112847569
N  N40  1  0.47450000  0.44650000  0.12780000  1.0 -0.0112847569
N  N41  1  0.97200000  0.52550000  0.12780000  1.0 -0.0112847569
N  N42  1  0.55350000  0.02800000  0.12780000  1.0 -0.0112847569
N  N43  1  0.55350000  0.52550000  0.62780000  1.0 -0.0112847569
N  N44  1  0.47450000  0.02800000  0.62780000  1.0 -0.0112847569
N  N45  1  0.97200000  0.44650000  0.62780000  1.0 -0.0112847569
N  N46  1  0.52550000  0.55350000  0.87220000  1.0 -0.0112847569
N  N47  1  0.02800000  0.47450000  0.87220000  1.0 -0.0112847569
N  N48  1  0.44650000  0.97200000  0.87220000  1.0 -0.0112847569
O  O1  1  0.04120000  0.08286000  0.22050000  1.0 -0.8297388542
O  O2  1  0.91714000  0.95834000  0.22050000  1.0 -0.8297388542
O  O3  1  0.04166000  0.95880000  0.22050000  1.0 -0.8297388542
O  O4  1  0.08286000  0.04120000  0.27950000  1.0 -0.8297388542
O  O5  1  0.95834000  0.91714000  0.27950000  1.0 -0.8297388542
O  O6  1  0.95880000  0.04166000  0.27950000  1.0 -0.8297388542
O  O7  1  0.95880000  0.91714000  0.77950000  1.0 -0.8297388542
O  O8  1  0.08286000  0.04166000  0.77950000  1.0 -0.8297388542
O  O9  1  0.95834000  0.04120000  0.77950000  1.0 -0.8297388542
O  O10  1  0.91714000  0.95880000  0.72050000  1.0 -0.8297388542
O  O11  1  0.04166000  0.08286000  0.72050000  1.0 -0.8297388542
O  O12  1  0.04120000  0.95834000  0.72050000  1.0 -0.8297388542
O  O13  1  0.08030000  0.16060000  0.27615000  1.0 -0.8577611154
O  O14  1  0.83940000  0.91970000  0.27615000  1.0 -0.8577611154
O  O15  1  0.08030000  0.91970000  0.27615000  1.0 -0.8577611154
O  O16  1  0.16060000  0.08030000  0.22385000  1.0 -0.8577611154
O  O17  1  0.91970000  0.83940000  0.22385000  1.0 -0.8577611154
O  O18  1  0.91970000  0.08030000  0.22385000  1.0 -0.8577611154
O  O19  1  0.91970000  0.83940000  0.72385000  1.0 -0.8577611154
O  O20  1  0.16060000  0.08030000  0.72385000  1.0 -0.8505723039
O  O21  1  0.91970000  0.08030000  0.72385000  1.0 -0.8577611154
O  O22  1  0.83940000  0.91970000  0.77615000  1.0 -0.8577611154
O  O23  1  0.08030000  0.16060000  0.77615000  1.0 -0.8505723039
O  O24  1  0.08030000  0.91970000  0.77615000  1.0 -0.8577611154
O  O25  1  0.12630000  0.15340000  0.34580000  1.0 -0.1225626745
O  O26  1  0.84660000  0.97290000  0.34580000  1.0 -0.1225626745
O  O27  1  0.02710000  0.87370000  0.34580000  1.0 -0.1225626745
O  O28  1  0.15340000  0.12630000  0.15420000  1.0 -0.1225626745
O  O29  1  0.97290000  0.84660000  0.15420000  1.0 -0.1225626745
O  O30  1  0.87370000  0.02710000  0.15420000  1.0 -0.1225626745
O  O31  1  0.87370000  0.84660000  0.65420000  1.0 -0.1225626745
O  O32  1  0.15340000  0.02710000  0.65420000  1.0 -0.1225626745
O  O33  1  0.97290000  0.12630000  0.65420000  1.0 -0.1225626745
O  O34  1  0.84660000  0.87370000  0.84580000  1.0 -0.1225626745
O  O35  1  0.02710000  0.15340000  0.84580000  1.0 -0.1225626745
O  O36  1  0.12630000  0.97290000  0.84580000  1.0 -0.1225626745
O  O37  1  0.08630000  0.05020000  0.35490000  1.0 -0.2035691461
O  O38  1  0.94980000  0.03610000  0.35490000  1.0 -0.2035691461
O  O39  1  0.96390000  0.91370000  0.35490000  1.0 -0.2051627922
O  O40  1  0.05020000  0.08630000  0.14510000  1.0 -0.2035691461
O  O41  1  0.03610000  0.94980000  0.14510000  1.0 -0.2035691461
O  O42  1  0.91370000  0.96390000  0.14510000  1.0 -0.2035691461
O  O43  1  0.91370000  0.94980000  0.64510000  1.0 -0.2035691461
O  O44  1  0.05020000  0.96390000  0.64510000  1.0 -0.2051627922
O  O45  1  0.03610000  0.08630000  0.64510000  1.0 -0.2051627922
O  O46  1  0.94980000  0.91370000  0.85490000  1.0 -0.2035691461
O  O47  1  0.96390000  0.05020000  0.85490000  1.0 -0.2035691461
O  O48  1  0.08630000  0.03610000  0.85490000  1.0 -0.2035691461
O  O49  1  0.03470000  0.20230000  0.21324000  1.0 -0.5470930499
O  O50  1  0.79770000  0.83240000  0.21324000  1.0 -0.5470930499
O  O51  1  0.16760000  0.96530000  0.21324000  1.0 -0.5470930499
O  O52  1  0.20230000  0.03470000  0.28676000  1.0 -0.5470930499
O  O53  1  0.83240000  0.79770000  0.28676000  1.0 -0.5470930499
O  O54  1  0.96530000  0.16760000  0.28676000  1.0 -0.5470930499
O  O55  1  0.96530000  0.79770000  0.78676000  1.0 -0.5470930499
O  O56  1  0.20230000  0.16760000  0.78676000  1.0 -0.5470930499
O  O57  1  0.83240000  0.03470000  0.78676000  1.0 -0.5470930499
O  O58  1  0.79770000  0.96530000  0.71324000  1.0 -0.5470930499
O  O59  1  0.16760000  0.20230000  0.71324000  1.0 -0.5470930499
O  O60  1  0.03470000  0.83240000  0.71324000  1.0 -0.5470930499
O  O61  1  0.03010000  0.20050000  0.33701000  1.0 -0.5686645541
O  O62  1  0.79950000  0.82960000  0.33701000  1.0 -0.5686645541
O  O63  1  0.17040000  0.96990000  0.33701000  1.0 -0.5686645541
O  O64  1  0.20050000  0.03010000  0.16299000  1.0 -0.5686645541
O  O65  1  0.82960000  0.79950000  0.16299000  1.0 -0.5686645541
O  O66  1  0.96990000  0.17040000  0.16299000  1.0 -0.5686645541
O  O67  1  0.96990000  0.79950000  0.66299000  1.0 -0.5686645541
O  O68  1  0.20050000  0.17040000  0.66299000  1.0 -0.5686645541
O  O69  1  0.82960000  0.03010000  0.66299000  1.0 -0.5686645541
O  O70  1  0.79950000  0.96990000  0.83701000  1.0 -0.5686645541
O  O71  1  0.17040000  0.20050000  0.83701000  1.0 -0.5686645541
O  O72  1  0.03010000  0.82960000  0.83701000  1.0 -0.5686645541
O  O73  1  0.16840000  0.20890000  0.21881000  1.0 -0.5686645541
O  O74  1  0.79110000  0.95950000  0.21881000  1.0 -0.5686645541
O  O75  1  0.04050000  0.83160000  0.21881000  1.0 -0.561350014
O  O76  1  0.20890000  0.16840000  0.28119000  1.0 -0.5686645541
O  O77  1  0.95950000  0.79110000  0.28119000  1.0 -0.561350014
O  O78  1  0.83160000  0.04050000  0.28119000  1.0 -0.5686645541
O  O79  1  0.83160000  0.79110000  0.78119000  1.0 -0.5686645541
O  O80  1  0.20890000  0.04050000  0.78119000  1.0 -0.5686645541
O  O81  1  0.95950000  0.16840000  0.78119000  1.0 -0.561350014
O  O82  1  0.79110000  0.83160000  0.71881000  1.0 -0.5686645541
O  O83  1  0.04050000  0.20890000  0.71881000  1.0 -0.561350014
O  O84  1  0.16840000  0.95950000  0.71881000  1.0 -0.5686645541
O  O85  1  0.21000000  0.25390000  0.30607000  1.0 -0.5897747913
O  O86  1  0.74610000  0.95610000  0.30607000  1.0 -0.5897747913
O  O87  1  0.04390000  0.79000000  0.30607000  1.0 -0.5897747913
O  O88  1  0.25390000  0.21000000  0.19393000  1.0 -0.5897747913
O  O89  1  0.95610000  0.74610000  0.19393000  1.0 -0.5897747913
O  O90  1  0.79000000  0.04390000  0.19393000  1.0 -0.5897747913
O  O91  1  0.79000000  0.74610000  0.69393000  1.0 -0.5897747913
O  O92  1  0.25390000  0.04390000  0.69393000  1.0 -0.5897747913
O  O93  1  0.95610000  0.21000000  0.69393000  1.0 -0.5897747913
O  O94  1  0.74610000  0.79000000  0.80607000  1.0 -0.5897747913
O  O95  1  0.04390000  0.25390000  0.80607000  1.0 -0.5897747913
O  O96  1  0.21000000  0.95610000  0.80607000  1.0 -0.5897747913
O  O97  1  0.12230000  0.28930000  0.28633000  1.0 -0.5686645541
O  O98  1  0.71070000  0.83300000  0.28633000  1.0 -0.5686645541
O  O99  1  0.16700000  0.87770000  0.28633000  1.0 -0.5686645541
O  O100  1  0.28930000  0.12230000  0.21367000  1.0 -0.5686645541
O  O101  1  0.83300000  0.71070000  0.21367000  1.0 -0.5686645541
O  O102  1  0.87770000  0.16700000  0.21367000  1.0 -0.5686645541
O  O103  1  0.87770000  0.71070000  0.71367000  1.0 -0.5686645541
O  O104  1  0.28930000  0.16700000  0.71367000  1.0 -0.5686645541
O  O105  1  0.83300000  0.12230000  0.71367000  1.0 -0.5686645541
O  O106  1  0.71070000  0.87770000  0.78633000  1.0 -0.5686645541
O  O107  1  0.16700000  0.28930000  0.78633000  1.0 -0.5686645541
O  O108  1  0.12230000  0.83300000  0.78633000  1.0 -0.5686645541
O  O109  1  0.15550000  0.36940000  0.32685000  1.0 -0.5897747913
O  O110  1  0.63060000  0.78610000  0.32685000  1.0 -0.5897747913
O  O111  1  0.21390000  0.84450000  0.32685000  1.0 -0.5897747913
O  O112  1  0.36940000  0.15550000  0.17315000  1.0 -0.5897747913
O  O113  1  0.78610000  0.63060000  0.17315000  1.0 -0.5897747913
O  O114  1  0.84450000  0.21390000  0.17315000  1.0 -0.5897747913
O  O115  1  0.84450000  0.63060000  0.67315000  1.0 -0.5897747913
O  O116  1  0.36940000  0.21390000  0.67315000  1.0 -0.5897747913
O  O117  1  0.78610000  0.15550000  0.67315000  1.0 -0.5897747913
O  O118  1  0.63060000  0.84450000  0.82685000  1.0 -0.5897747913
O  O119  1  0.21390000  0.36940000  0.82685000  1.0 -0.5897747913
O  O120  1  0.15550000  0.78610000  0.82685000  1.0 -0.5897747913
O  O121  1  0.28060000  0.58450000  0.45703000  1.0 -0.8577611154
O  O122  1  0.41550000  0.69610000  0.45703000  1.0 -0.8577611154
O  O123  1  0.30390000  0.71940000  0.45703000  1.0 -0.8577611154
O  O124  1  0.58450000  0.28060000  0.04297000  1.0 -0.8577611154
O  O125  1  0.69610000  0.41550000  0.04297000  1.0 -0.8577611154
O  O126  1  0.71940000  0.30390000  0.04297000  1.0 -0.8577611154
O  O127  1  0.71940000  0.41550000  0.54297000  1.0 -0.8577611154
O  O128  1  0.58450000  0.30390000  0.54297000  1.0 -0.8577611154
O  O129  1  0.69610000  0.28060000  0.54297000  1.0 -0.8577611154
O  O130  1  0.41550000  0.71940000  0.95703000  1.0 -0.8577611154
O  O131  1  0.30390000  0.58450000  0.95703000  1.0 -0.8577611154
O  O132  1  0.28060000  0.69610000  0.95703000  1.0 -0.8577611154
O  O133  1  0.25260000  0.63810000  0.39898000  1.0 -0.8505723039
O  O134  1  0.36190000  0.61450000  0.39898000  1.0 -0.8505723039
O  O135  1  0.38550000  0.74740000  0.39898000  1.0 -0.8505723039
O  O136  1  0.63810000  0.25260000  0.10102000  1.0 -0.8505723039
O  O137  1  0.61450000  0.36190000  0.10102000  1.0 -0.8505723039
O  O138  1  0.74740000  0.38550000  0.10102000  1.0 -0.8505723039
O  O139  1  0.74740000  0.36190000  0.60102000  1.0 -0.8505723039
O  O140  1  0.63810000  0.38550000  0.60102000  1.0 -0.8505723039
O  O141  1  0.61450000  0.25260000  0.60102000  1.0 -0.8505723039
O  O142  1  0.36190000  0.74740000  0.89898000  1.0 -0.8505723039
O  O143  1  0.38550000  0.63810000  0.89898000  1.0 -0.8505723039
O  O144  1  0.25260000  0.61450000  0.89898000  1.0 -0.8505723039
O  O145  1  0.23490000  0.51010000  0.40006000  1.0 -0.8697983908
O  O146  1  0.48990000  0.72480000  0.40006000  1.0 -0.8697983908
O  O147  1  0.27520000  0.76510000  0.40006000  1.0 -0.8697983908
O  O148  1  0.51010000  0.23490000  0.09994000  1.0 -0.8697983908
O  O149  1  0.72480000  0.48990000  0.09994000  1.0 -0.8697983908
O  O150  1  0.76510000  0.27520000  0.09994000  1.0 -0.8697983908
O  O151  1  0.76510000  0.48990000  0.59994000  1.0 -0.8697983908
O  O152  1  0.51010000  0.27520000  0.59994000  1.0 -0.8697983908
O  O153  1  0.72480000  0.23490000  0.59994000  1.0 -0.8697983908
O  O154  1  0.48990000  0.76510000  0.90006000  1.0 -0.8697983908
O  O155  1  0.27520000  0.51010000  0.90006000  1.0 -0.8697983908
O  O156  1  0.23490000  0.72480000  0.90006000  1.0 -0.8697983908
O  O157  1  0.17250000  0.60740000  0.45329000  1.0 -0.8577611154
O  O158  1  0.39260000  0.56510000  0.45329000  1.0 -0.8577611154
O  O159  1  0.43490000  0.82750000  0.45329000  1.0 -0.8577611154
O  O160  1  0.60740000  0.17250000  0.04671000  1.0 -0.8577611154
O  O161  1  0.56510000  0.39260000  0.04671000  1.0 -0.8577611154
O  O162  1  0.82750000  0.43490000  0.04671000  1.0 -0.8577611154
O  O163  1  0.82750000  0.39260000  0.54671000  1.0 -0.8577611154
O  O164  1  0.60740000  0.43490000  0.54671000  1.0 -0.8577611154
O  O165  1  0.56510000  0.17250000  0.54671000  1.0 -0.8577611154
O  O166  1  0.39260000  0.82750000  0.95329000  1.0 -0.8577611154
O  O167  1  0.43490000  0.60740000  0.95329000  1.0 -0.8577611154
O  O168  1  0.17250000  0.56510000  0.95329000  1.0 -0.8577611154
O  O169  1  0.27010000  0.49020000  0.32384000  1.0 -0.5994433947
O  O170  1  0.50980000  0.77990000  0.32384000  1.0 -0.5994433947
O  O171  1  0.22010000  0.72990000  0.32384000  1.0 -0.5994433947
O  O172  1  0.49020000  0.27010000  0.17616000  1.0 -0.5994433947
O  O173  1  0.77990000  0.50980000  0.17616000  1.0 -0.5994433947
O  O174  1  0.72990000  0.22010000  0.17616000  1.0 -0.5994433947
O  O175  1  0.72990000  0.50980000  0.67616000  1.0 -0.5994433947
O  O176  1  0.49020000  0.22010000  0.67616000  1.0 -0.5994433947
O  O177  1  0.77990000  0.27010000  0.67616000  1.0 -0.5994433947
O  O178  1  0.50980000  0.72990000  0.82384000  1.0 -0.5994433947
O  O179  1  0.22010000  0.49020000  0.82384000  1.0 -0.5994433947
O  O180  1  0.27010000  0.77990000  0.82384000  1.0 -0.5994433947
O  O181  1  0.34330000  0.59470000  0.32682000  1.0 -0.5365348595
O  O182  1  0.40530000  0.74860000  0.32682000  1.0 -0.5365348595
O  O183  1  0.25140000  0.65670000  0.32682000  1.0 -0.5365348595
O  O184  1  0.59470000  0.34330000  0.17318000  1.0 -0.5365348595
O  O185  1  0.74860000  0.40530000  0.17318000  1.0 -0.5365348595
O  O186  1  0.65670000  0.25140000  0.17318000  1.0 -0.5365348595
O  O187  1  0.65670000  0.40530000  0.67318000  1.0 -0.5365348595
O  O188  1  0.59470000  0.25140000  0.67318000  1.0 -0.5365348595
O  O189  1  0.74860000  0.34330000  0.67318000  1.0 -0.5365348595
O  O190  1  0.40530000  0.65670000  0.82682000  1.0 -0.5365348595
O  O191  1  0.25140000  0.59470000  0.82682000  1.0 -0.5365348595
O  O192  1  0.34330000  0.74860000  0.82682000  1.0 -0.5365348595
O  O193  1  0.16620000  0.64230000  0.53046000  1.0 -0.5994433947
O  O194  1  0.35770000  0.52390000  0.53046000  1.0 -0.5994433947
O  O195  1  0.47610000  0.83380000  0.53046000  1.0 -0.5994433947
O  O196  1  0.64230000  0.16620000  0.96954000  1.0 -0.5994433947
O  O197  1  0.52390000  0.35770000  0.96954000  1.0 -0.5994433947
O  O198  1  0.83380000  0.47610000  0.96954000  1.0 -0.5994433947
O  O199  1  0.83380000  0.35770000  0.46954000  1.0 -0.5994433947
O  O200  1  0.64230000  0.47610000  0.46954000  1.0 -0.5994433947
O  O201  1  0.52390000  0.16620000  0.46954000  1.0 -0.5994433947
O  O202  1  0.35770000  0.83380000  0.03046000  1.0 -0.5994433947
O  O203  1  0.47610000  0.64230000  0.03046000  1.0 -0.5994433947
O  O204  1  0.16620000  0.52390000  0.03046000  1.0 -0.5994433947
O  O205  1  0.27360000  0.69610000  0.52840000  1.0 -0.5470930499
O  O206  1  0.30390000  0.57750000  0.52840000  1.0 -0.5470930499
O  O207  1  0.42250000  0.72640000  0.52840000  1.0 -0.5470930499
O  O208  1  0.69610000  0.27360000  0.97160000  1.0 -0.5470930499
O  O209  1  0.57750000  0.30390000  0.97160000  1.0 -0.5470930499
O  O210  1  0.72640000  0.42250000  0.97160000  1.0 -0.5470930499
O  O211  1  0.72640000  0.30390000  0.47160000  1.0 -0.5470930499
O  O212  1  0.69610000  0.42250000  0.47160000  1.0 -0.5470930499
O  O213  1  0.57750000  0.27360000  0.47160000  1.0 -0.5470930499
O  O214  1  0.30390000  0.72640000  0.02840000  1.0 -0.5470930499
O  O215  1  0.42250000  0.69610000  0.02840000  1.0 -0.5470930499
O  O216  1  0.27360000  0.57750000  0.02840000  1.0 -0.5470930499
O  O217  1  0.14330000  0.47690000  0.46152000  1.0 -0.561350014
O  O218  1  0.52310000  0.66640000  0.46152000  1.0 -0.561350014
O  O219  1  0.33360000  0.85670000  0.46152000  1.0 -0.561350014
O  O220  1  0.47690000  0.14330000  0.03848000  1.0 -0.561350014
O  O221  1  0.66640000  0.52310000  0.03848000  1.0 -0.561350014
O  O222  1  0.85670000  0.33360000  0.03848000  1.0 -0.561350014
O  O223  1  0.85670000  0.52310000  0.53848000  1.0 -0.561350014
O  O224  1  0.47690000  0.33360000  0.53848000  1.0 -0.561350014
O  O225  1  0.66640000  0.14330000  0.53848000  1.0 -0.561350014
O  O226  1  0.52310000  0.85670000  0.96152000  1.0 -0.561350014
O  O227  1  0.33360000  0.47690000  0.96152000  1.0 -0.561350014
O  O228  1  0.14330000  0.66640000  0.96152000  1.0 -0.561350014
O  O229  1  0.11330000  0.51430000  0.51081000  1.0 -0.5795641198
O  O230  1  0.48570000  0.59900000  0.51081000  1.0 -0.5795641198
O  O231  1  0.40100000  0.88670000  0.51081000  1.0 -0.5795641198
O  O232  1  0.51430000  0.11330000  0.98919000  1.0 -0.5795641198
O  O233  1  0.59900000  0.48570000  0.98919000  1.0 -0.5795641198
O  O234  1  0.88670000  0.40100000  0.98919000  1.0 -0.5795641198
O  O235  1  0.88670000  0.48570000  0.48919000  1.0 -0.5795641198
O  O236  1  0.51430000  0.40100000  0.48919000  1.0 -0.5795641198
O  O237  1  0.59900000  0.11330000  0.48919000  1.0 -0.5795641198
O  O238  1  0.48570000  0.88670000  0.01081000  1.0 -0.5795641198
O  O239  1  0.40100000  0.51430000  0.01081000  1.0 -0.5795641198
O  O240  1  0.11330000  0.59900000  0.01081000  1.0 -0.5795641198
O  O241  1  0.26180000  0.45260000  0.46178000  1.0 -0.561350014
O  O242  1  0.54740000  0.80920000  0.46178000  1.0 -0.561350014
O  O243  1  0.19080000  0.73820000  0.46178000  1.0 -0.5686645541
O  O244  1  0.45260000  0.26180000  0.03822000  1.0 -0.5686645541
O  O245  1  0.80920000  0.54740000  0.03822000  1.0 -0.561350014
O  O246  1  0.73820000  0.19080000  0.03822000  1.0 -0.5686645541
O  O247  1  0.73820000  0.54740000  0.53822000  1.0 -0.561350014
O  O248  1  0.45260000  0.19080000  0.53822000  1.0 -0.5686645541
O  O249  1  0.80920000  0.26180000  0.53822000  1.0 -0.5686645541
O  O250  1  0.54740000  0.73820000  0.96178000  1.0 -0.561350014
O  O251  1  0.19080000  0.45260000  0.96178000  1.0 -0.561350014
O  O252  1  0.26180000  0.80920000  0.96178000  1.0 -0.5686645541
O  O253  1  0.09210000  0.66170000  0.47718000  1.0 -0.5795641198
O  O254  1  0.33830000  0.43040000  0.47718000  1.0 -0.5795641198
O  O255  1  0.56960000  0.90790000  0.47718000  1.0 -0.5795641198
O  O256  1  0.66170000  0.09210000  0.02282000  1.0 -0.5795641198
O  O257  1  0.43040000  0.33830000  0.02282000  1.0 -0.5795641198
O  O258  1  0.90790000  0.56960000  0.02282000  1.0 -0.5795641198
O  O259  1  0.90790000  0.33830000  0.52282000  1.0 -0.5795641198
O  O260  1  0.66170000  0.56960000  0.52282000  1.0 -0.5795641198
O  O261  1  0.43040000  0.09210000  0.52282000  1.0 -0.5795641198
O  O262  1  0.33830000  0.90790000  0.97718000  1.0 -0.5795641198
O  O263  1  0.56960000  0.66170000  0.97718000  1.0 -0.5795641198
O  O264  1  0.09210000  0.43040000  0.97718000  1.0 -0.5795641198
O  O265  1  0.12680000  0.39300000  0.39553000  1.0 -0.5795641198
O  O266  1  0.60700000  0.73380000  0.39553000  1.0 -0.5795641198
O  O267  1  0.26620000  0.87320000  0.39553000  1.0 -0.5795641198
O  O268  1  0.39300000  0.12680000  0.10447000  1.0 -0.5686645541
O  O269  1  0.73380000  0.60700000  0.10447000  1.0 -0.5795641198
O  O270  1  0.87320000  0.26620000  0.10447000  1.0 -0.5795641198
O  O271  1  0.87320000  0.60700000  0.60447000  1.0 -0.5795641198
O  O272  1  0.39300000  0.26620000  0.60447000  1.0 -0.5795641198
O  O273  1  0.73380000  0.12680000  0.60447000  1.0 -0.5686645541
O  O274  1  0.60700000  0.87320000  0.89553000  1.0 -0.5795641198
O  O275  1  0.26620000  0.39300000  0.89553000  1.0 -0.5795641198
O  O276  1  0.12680000  0.73380000  0.89553000  1.0 -0.5795641198
O  O277  1  0.03530000  0.37830000  0.36990000  1.0 -0.5795641198
O  O278  1  0.62170000  0.65700000  0.36990000  1.0 -0.5795641198
O  O279  1  0.34300000  0.96470000  0.36990000  1.0 -0.5795641198
O  O280  1  0.37830000  0.03530000  0.13010000  1.0 -0.5795641198
O  O281  1  0.65700000  0.62170000  0.13010000  1.0 -0.5795641198
O  O282  1  0.96470000  0.34300000  0.13010000  1.0 -0.5795641198
O  O283  1  0.96470000  0.62170000  0.63010000  1.0 -0.5795641198
O  O284  1  0.37830000  0.34300000  0.63010000  1.0 -0.5795641198
O  O285  1  0.65700000  0.03530000  0.63010000  1.0 -0.5795641198
O  O286  1  0.62170000  0.96470000  0.86990000  1.0 -0.5795641198
O  O287  1  0.34300000  0.37830000  0.86990000  1.0 -0.5795641198
O  O288  1  0.03530000  0.65700000  0.86990000  1.0 -0.5795641198
O  O289  1  0.33860000  0.47860000  0.39494000  1.0 -0.6088900132
O  O290  1  0.52140000  0.86000000  0.39494000  1.0 -0.6088900132
O  O291  1  0.14000000  0.66140000  0.39494000  1.0 -0.6088900132
O  O292  1  0.47860000  0.33860000  0.10506000  1.0 -0.6088900132
O  O293  1  0.86000000  0.52140000  0.10506000  1.0 -0.6088900132
O  O294  1  0.66140000  0.14000000  0.10506000  1.0 -0.6088900132
O  O295  1  0.66140000  0.52140000  0.60506000  1.0 -0.6088900132
O  O296  1  0.47860000  0.14000000  0.60506000  1.0 -0.6088900132
O  O297  1  0.86000000  0.33860000  0.60506000  1.0 -0.6088900132
O  O298  1  0.52140000  0.66140000  0.89494000  1.0 -0.6088900132
O  O299  1  0.14000000  0.47860000  0.89494000  1.0 -0.6088900132
O  O300  1  0.33860000  0.86000000  0.89494000  1.0 -0.6088900132
O  O301  1  0.24260000  0.39830000  0.37896000  1.0 -0.561350014
O  O302  1  0.60170000  0.84430000  0.37896000  1.0 -0.561350014
O  O303  1  0.15570000  0.75740000  0.37896000  1.0 -0.561350014
O  O304  1  0.39830000  0.24260000  0.12104000  1.0 -0.561350014
O  O305  1  0.84430000  0.60170000  0.12104000  1.0 -0.561350014
O  O306  1  0.75740000  0.15570000  0.12104000  1.0 -0.561350014
O  O307  1  0.75740000  0.60170000  0.62104000  1.0 -0.561350014
O  O308  1  0.39830000  0.15570000  0.62104000  1.0 -0.561350014
O  O309  1  0.84430000  0.24260000  0.62104000  1.0 -0.561350014
O  O310  1  0.60170000  0.75740000  0.87896000  1.0 -0.561350014
O  O311  1  0.15570000  0.39830000  0.87896000  1.0 -0.561350014
O  O312  1  0.24260000  0.84430000  0.87896000  1.0 -0.561350014
O  O313  1  0.04360000  0.53300000  0.44851000  1.0 -0.5795641198
O  O314  1  0.46700000  0.51060000  0.44851000  1.0 -0.5795641198
O  O315  1  0.48940000  0.95640000  0.44851000  1.0 -0.5795641198
O  O316  1  0.53300000  0.04360000  0.05149000  1.0 -0.5897747913
O  O317  1  0.51060000  0.46700000  0.05149000  1.0 -0.5897747913
O  O318  1  0.95640000  0.48940000  0.05149000  1.0 -0.5897747913
O  O319  1  0.95640000  0.46700000  0.55149000  1.0 -0.5897747913
O  O320  1  0.53300000  0.48940000  0.55149000  1.0 -0.5897747913
O  O321  1  0.51060000  0.04360000  0.55149000  1.0 -0.5795641198
O  O322  1  0.46700000  0.95640000  0.94851000  1.0 -0.5795641198
O  O323  1  0.48940000  0.53300000  0.94851000  1.0 -0.5795641198
O  O324  1  0.04360000  0.51060000  0.94851000  1.0 -0.5795641198
O  O325  1  0.02810000  0.55680000  0.52315000  1.0 -0.5686645541
O  O326  1  0.44320000  0.47130000  0.52315000  1.0 -0.5686645541
O  O327  1  0.52870000  0.97190000  0.52315000  1.0 -0.5686645541
O  O328  1  0.55680000  0.02810000  0.97685000  1.0 -0.5686645541
O  O329  1  0.47130000  0.44320000  0.97685000  1.0 -0.5686645541
O  O330  1  0.97190000  0.52870000  0.97685000  1.0 -0.5686645541
O  O331  1  0.97190000  0.44320000  0.47685000  1.0 -0.5686645541
O  O332  1  0.55680000  0.52870000  0.47685000  1.0 -0.5686645541
O  O333  1  0.47130000  0.02810000  0.47685000  1.0 -0.5686645541
O  O334  1  0.44320000  0.97190000  0.02315000  1.0 -0.5686645541
O  O335  1  0.52870000  0.55680000  0.02315000  1.0 -0.5686645541
O  O336  1  0.02810000  0.47130000  0.02315000  1.0 -0.5686645541
O  O337  1  0.12850000  0.52880000  0.38383000  1.0 -0.6088900132
O  O338  1  0.47120000  0.59970000  0.38383000  1.0 -0.6088900132
O  O339  1  0.40030000  0.87150000  0.38383000  1.0 -0.6088900132
O  O340  1  0.52880000  0.12850000  0.11617000  1.0 -0.6088900132
O  O341  1  0.59970000  0.47120000  0.11617000  1.0 -0.6088900132
O  O342  1  0.87150000  0.40030000  0.11617000  1.0 -0.6088900132
O  O343  1  0.87150000  0.47120000  0.61617000  1.0 -0.6088900132
O  O344  1  0.52880000  0.40030000  0.61617000  1.0 -0.6088900132
O  O345  1  0.59970000  0.12850000  0.61617000  1.0 -0.6088900132
O  O346  1  0.47120000  0.87150000  0.88383000  1.0 -0.6088900132
O  O347  1  0.40030000  0.52880000  0.88383000  1.0 -0.6088900132
O  O348  1  0.12850000  0.59970000  0.88383000  1.0 -0.6088900132
O  O349  1  0.15660000  0.48920000  0.33472000  1.0 -0.561350014
O  O350  1  0.51080000  0.66740000  0.33472000  1.0 -0.561350014
O  O351  1  0.33260000  0.84340000  0.33472000  1.0 -0.561350014
O  O352  1  0.48920000  0.15660000  0.16528000  1.0 -0.561350014
O  O353  1  0.66740000  0.51080000  0.16528000  1.0 -0.561350014
O  O354  1  0.84340000  0.33260000  0.16528000  1.0 -0.561350014
O  O355  1  0.84340000  0.51080000  0.66528000  1.0 -0.561350014
O  O356  1  0.48920000  0.33260000  0.66528000  1.0 -0.561350014
O  O357  1  0.66740000  0.15660000  0.66528000  1.0 -0.561350014
O  O358  1  0.51080000  0.84340000  0.83472000  1.0 -0.561350014
O  O359  1  0.33260000  0.48920000  0.83472000  1.0 -0.561350014
O  O360  1  0.15660000  0.66740000  0.83472000  1.0 -0.561350014
O  O361  1  0.10160000  0.14580000  0.35570000  1.0 -0.0210360413
O  O362  1  0.85420000  0.95580000  0.35570000  1.0 -0.0210360413
O  O363  1  0.04420000  0.89840000  0.35570000  1.0 -0.0210360413
O  O364  1  0.14580000  0.10160000  0.14430000  1.0 -0.0210360413
O  O365  1  0.95580000  0.85420000  0.14430000  1.0 -0.0210360413
O  O366  1  0.89840000  0.04420000  0.14430000  1.0 -0.0210360413
O  O367  1  0.89840000  0.85420000  0.64430000  1.0 -0.0295627597
O  O368  1  0.14580000  0.04420000  0.64430000  1.0 -0.0210360413
O  O369  1  0.95580000  0.10160000  0.64430000  1.0 -0.0210360413
O  O370  1  0.85420000  0.89840000  0.85570000  1.0 -0.0210360413
O  O371  1  0.04420000  0.14580000  0.85570000  1.0 -0.0295627597
O  O372  1  0.10160000  0.95580000  0.85570000  1.0 -0.0295627597
O  O373  1  0.99170000  0.06900000  0.35900000  1.0 -0.179792891
O  O374  1  0.93100000  0.92270000  0.35900000  1.0 -0.179792891
O  O375  1  0.07730000  0.00830000  0.35900000  1.0 -0.179792891
O  O376  1  0.06900000  0.99170000  0.14100000  1.0 -0.179792891
O  O377  1  0.92270000  0.93100000  0.14100000  1.0 -0.179792891
O  O378  1  0.00830000  0.07730000  0.14100000  1.0 -0.179792891
O  O379  1  0.00830000  0.93100000  0.64100000  1.0 -0.179792891
O  O380  1  0.06900000  0.07730000  0.64100000  1.0 -0.179792891
O  O381  1  0.92270000  0.99170000  0.64100000  1.0 -0.179792891
O  O382  1  0.93100000  0.00830000  0.85900000  1.0 -0.179792891
O  O383  1  0.07730000  0.06900000  0.85900000  1.0 -0.179792891
O  O384  1  0.99170000  0.92270000  0.85900000  1.0 -0.179792891
