# DDEC6 charges by PACMAN v1.1 (https://github.com/mtap-research/PACMAN-charge/)
data_SAYROD_ASR_pacman
_symmetry_space_group_name_H-M   'P 1'
_cell_length_a   18.61090000
_cell_length_b   18.61090000
_cell_length_c   18.61090000
_cell_angle_alpha   60.00000000
_cell_angle_beta   60.00000000
_cell_angle_gamma   60.00000000
_symmetry_Int_Tables_number   1
_chemical_formula_structural   CuH2(C3O2)2
_chemical_formula_sum   'Cu12 H24 C72 O48'
_cell_volume   4558.13442496
_cell_formula_units_Z   12
loop_
 _symmetry_equiv_pos_site_id
 _symmetry_equiv_pos_as_xyz
  1  'x, y, z'
loop_
 _atom_site_type_symbol
 _atom_site_label
 _atom_site_symmetry_multiplicity
 _atom_site_fract_x
 _atom_site_fract_y
 _atom_site_fract_z
 _atom_site_occupancy
 _atom_site_charge
Cu  Cu1  1  0.92920000  0.50000000  0.07080000  1.0 0.8530936449
Cu  Cu2  1  0.07080000  0.50000000  0.92920000  1.0 0.8530936449
Cu  Cu3  1  0.50000000  0.92920000  0.50000000  1.0 0.8530936449
Cu  Cu4  1  0.50000000  0.07080000  0.50000000  1.0 0.8553820907
Cu  Cu5  1  0.50000000  0.07080000  0.92920000  1.0 0.8530936449
Cu  Cu6  1  0.50000000  0.92920000  0.07080000  1.0 0.8553820907
Cu  Cu7  1  0.92920000  0.50000000  0.50000000  1.0 0.8530936449
Cu  Cu8  1  0.07080000  0.50000000  0.50000000  1.0 0.8530936449
Cu  Cu9  1  0.07080000  0.92920000  0.50000000  1.0 0.8530936449
Cu  Cu10  1  0.92920000  0.07080000  0.50000000  1.0 0.8553820907
Cu  Cu11  1  0.50000000  0.50000000  0.92920000  1.0 0.8553820907
Cu  Cu12  1  0.50000000  0.50000000  0.07080000  1.0 0.8530936449
H  H1  1  0.77140000  0.46740000  0.98980000  1.0 0.137647313
H  H2  1  0.98980000  0.77140000  0.77140000  1.0 0.137647313
H  H3  1  0.46740000  0.77140000  0.77140000  1.0 0.137647313
H  H4  1  0.77140000  0.98980000  0.46740000  1.0 0.137647313
H  H5  1  0.46740000  0.98980000  0.77140000  1.0 0.137647313
H  H6  1  0.77140000  0.77140000  0.98980000  1.0 0.137647313
H  H7  1  0.77140000  0.77140000  0.46740000  1.0 0.137647313
H  H8  1  0.98980000  0.46740000  0.77140000  1.0 0.137647313
H  H9  1  0.98980000  0.77140000  0.46740000  1.0 0.137647313
H  H10  1  0.77140000  0.98980000  0.77140000  1.0 0.137647313
H  H11  1  0.77140000  0.46740000  0.77140000  1.0 0.137647313
H  H12  1  0.46740000  0.77140000  0.98980000  1.0 0.137647313
H  H13  1  0.22860000  0.22860000  0.01020000  1.0 0.137647313
H  H14  1  0.01020000  0.53260000  0.22860000  1.0 0.137647313
H  H15  1  0.53260000  0.01020000  0.22860000  1.0 0.137647313
H  H16  1  0.22860000  0.22860000  0.53260000  1.0 0.137647313
H  H17  1  0.53260000  0.22860000  0.22860000  1.0 0.137647313
H  H18  1  0.22860000  0.53260000  0.01020000  1.0 0.137647313
H  H19  1  0.22860000  0.01020000  0.53260000  1.0 0.137647313
H  H20  1  0.01020000  0.22860000  0.22860000  1.0 0.137647313
H  H21  1  0.01020000  0.22860000  0.53260000  1.0 0.137647313
H  H22  1  0.22860000  0.53260000  0.22860000  1.0 0.137647313
H  H23  1  0.22860000  0.01020000  0.22860000  1.0 0.137647313
H  H24  1  0.53260000  0.22860000  0.01020000  1.0 0.137647313
C  C1  1  0.80087000  0.46751000  0.93075000  1.0 -0.0912728909
C  C2  1  0.93075000  0.80087000  0.80087000  1.0 -0.0912728909
C  C3  1  0.46751000  0.80087000  0.80087000  1.0 -0.0912728909
C  C4  1  0.80087000  0.93075000  0.46751000  1.0 -0.0912728909
C  C5  1  0.46751000  0.93075000  0.80087000  1.0 -0.0912728909
C  C6  1  0.80087000  0.80087000  0.93075000  1.0 -0.0912728909
C  C7  1  0.80087000  0.80087000  0.46751000  1.0 -0.0912728909
C  C8  1  0.93075000  0.46751000  0.80087000  1.0 -0.0912728909
C  C9  1  0.93075000  0.80087000  0.46751000  1.0 -0.0912728909
C  C10  1  0.80087000  0.93075000  0.80087000  1.0 -0.0912728909
C  C11  1  0.80087000  0.46751000  0.80087000  1.0 -0.0912728909
C  C12  1  0.46751000  0.80087000  0.93075000  1.0 -0.0912728909
C  C13  1  0.19913000  0.19913000  0.06925000  1.0 -0.0912728909
C  C14  1  0.06925000  0.53249000  0.19913000  1.0 -0.0912728909
C  C15  1  0.53249000  0.06925000  0.19913000  1.0 -0.0912728909
C  C16  1  0.19913000  0.19913000  0.53249000  1.0 -0.0912728909
C  C17  1  0.53249000  0.19913000  0.19913000  1.0 -0.0912728909
C  C18  1  0.19913000  0.53249000  0.06925000  1.0 -0.0912728909
C  C19  1  0.19913000  0.06925000  0.53249000  1.0 -0.0912728909
C  C20  1  0.06925000  0.19913000  0.19913000  1.0 -0.0912728909
C  C21  1  0.06925000  0.19913000  0.53249000  1.0 -0.0912728909
C  C22  1  0.19913000  0.53249000  0.19913000  1.0 -0.0912728909
C  C23  1  0.19913000  0.06925000  0.19913000  1.0 -0.0912728909
C  C24  1  0.53249000  0.19913000  0.06925000  1.0 -0.0912728909
C  C25  1  0.88731000  0.46753000  0.88731000  1.0 -0.0187810659
C  C26  1  0.93106000  0.47666000  0.93106000  1.0 0.5808151448
C  C27  1  0.88731000  0.75785000  0.88731000  1.0 -0.0187810659
C  C28  1  0.93106000  0.66122000  0.93106000  1.0 0.5808151448
C  C29  1  0.46753000  0.88731000  0.75785000  1.0 -0.0187810659
C  C30  1  0.47666000  0.93106000  0.66122000  1.0 0.5808151448
C  C31  1  0.75785000  0.88731000  0.46753000  1.0 -0.0187810659
C  C32  1  0.66122000  0.93106000  0.47666000  1.0 0.5808151448
C  C33  1  0.46753000  0.88731000  0.88731000  1.0 -0.0187810659
C  C34  1  0.47666000  0.93106000  0.93106000  1.0 0.5808151448
C  C35  1  0.75785000  0.88731000  0.88731000  1.0 -0.0187810659
C  C36  1  0.66122000  0.93106000  0.93106000  1.0 0.5808151448
C  C37  1  0.88731000  0.75785000  0.46753000  1.0 -0.0187810659
C  C38  1  0.93106000  0.66122000  0.47666000  1.0 0.5808151448
C  C39  1  0.88731000  0.46753000  0.75785000  1.0 -0.0187810659
C  C40  1  0.93106000  0.47666000  0.66122000  1.0 0.5808151448
C  C41  1  0.88731000  0.88731000  0.46753000  1.0 -0.0187810659
C  C42  1  0.93106000  0.93106000  0.47666000  1.0 0.5808151448
C  C43  1  0.88731000  0.88731000  0.75785000  1.0 -0.0187810659
C  C44  1  0.93106000  0.93106000  0.66122000  1.0 0.5808151448
C  C45  1  0.75785000  0.46753000  0.88731000  1.0 -0.0187810659
C  C46  1  0.66122000  0.47666000  0.93106000  1.0 0.5808151448
C  C47  1  0.46753000  0.75785000  0.88731000  1.0 -0.0187810659
C  C48  1  0.47666000  0.66122000  0.93106000  1.0 0.5808151448
C  C49  1  0.11269000  0.24215000  0.11269000  1.0 -0.0187810659
C  C50  1  0.06894000  0.33878000  0.06894000  1.0 0.5808151448
C  C51  1  0.11269000  0.53247000  0.11269000  1.0 -0.0187810659
C  C52  1  0.06894000  0.52334000  0.06894000  1.0 0.5808151448
C  C53  1  0.53247000  0.11269000  0.24215000  1.0 -0.0187810659
C  C54  1  0.52334000  0.06894000  0.33878000  1.0 0.5808151448
C  C55  1  0.24215000  0.11269000  0.53247000  1.0 -0.0187810659
C  C56  1  0.33878000  0.06894000  0.52334000  1.0 0.5808151448
C  C57  1  0.53247000  0.24215000  0.11269000  1.0 -0.0187810659
C  C58  1  0.52334000  0.33878000  0.06894000  1.0 0.5808151448
C  C59  1  0.24215000  0.53247000  0.11269000  1.0 -0.0187810659
C  C60  1  0.33878000  0.52334000  0.06894000  1.0 0.5808151448
C  C61  1  0.11269000  0.11269000  0.53247000  1.0 -0.0187810659
C  C62  1  0.06894000  0.06894000  0.52334000  1.0 0.5808151448
C  C63  1  0.11269000  0.11269000  0.24215000  1.0 -0.0187810659
C  C64  1  0.06894000  0.06894000  0.33878000  1.0 0.5808151448
C  C65  1  0.11269000  0.24215000  0.53247000  1.0 -0.0187810659
C  C66  1  0.06894000  0.33878000  0.52334000  1.0 0.5808151448
C  C67  1  0.11269000  0.53247000  0.24215000  1.0 -0.0187810659
C  C68  1  0.06894000  0.52334000  0.33878000  1.0 0.5808151448
C  C69  1  0.24215000  0.11269000  0.11269000  1.0 -0.0187810659
C  C70  1  0.33878000  0.06894000  0.06894000  1.0 0.5808151448
C  C71  1  0.53247000  0.11269000  0.11269000  1.0 -0.0187810659
C  C72  1  0.52334000  0.06894000  0.06894000  1.0 0.5808151448
O  O1  1  0.88726000  0.47856000  0.00812000  1.0 -0.5176683655
O  O2  1  0.00812000  0.62606000  0.88726000  1.0 -0.5176683655
O  O3  1  0.47856000  0.88726000  0.62606000  1.0 -0.5176683655
O  O4  1  0.62606000  0.00812000  0.47856000  1.0 -0.5176683655
O  O5  1  0.47856000  0.00812000  0.88726000  1.0 -0.5176683655
O  O6  1  0.62606000  0.88726000  0.00812000  1.0 -0.5176683655
O  O7  1  0.88726000  0.62606000  0.47856000  1.0 -0.5176683655
O  O8  1  0.00812000  0.47856000  0.62606000  1.0 -0.5176683655
O  O9  1  0.00812000  0.88726000  0.47856000  1.0 -0.5176683655
O  O10  1  0.88726000  0.00812000  0.62606000  1.0 -0.5176683655
O  O11  1  0.62606000  0.47856000  0.88726000  1.0 -0.5176683655
O  O12  1  0.47856000  0.62606000  0.00812000  1.0 -0.5176683655
O  O13  1  0.11274000  0.37394000  0.99188000  1.0 -0.5176683655
O  O14  1  0.99188000  0.52144000  0.11274000  1.0 -0.5176683655
O  O15  1  0.52144000  0.99188000  0.37394000  1.0 -0.5176683655
O  O16  1  0.37394000  0.11274000  0.52144000  1.0 -0.5176683655
O  O17  1  0.52144000  0.37394000  0.11274000  1.0 -0.5176683655
O  O18  1  0.37394000  0.52144000  0.99188000  1.0 -0.5176683655
O  O19  1  0.11274000  0.99188000  0.52144000  1.0 -0.5176683655
O  O20  1  0.99188000  0.11274000  0.37394000  1.0 -0.5176683655
O  O21  1  0.99188000  0.37394000  0.52144000  1.0 -0.5176683655
O  O22  1  0.11274000  0.52144000  0.37394000  1.0 -0.5176683655
O  O23  1  0.37394000  0.99188000  0.11274000  1.0 -0.5176683655
O  O24  1  0.52144000  0.11274000  0.99188000  1.0 -0.5176683655
O  O25  1  0.11274000  0.52144000  0.99188000  1.0 -0.5176683655
O  O26  1  0.99188000  0.37394000  0.11274000  1.0 -0.5176683655
O  O27  1  0.52144000  0.11274000  0.37394000  1.0 -0.5176683655
O  O28  1  0.37394000  0.99188000  0.52144000  1.0 -0.5176683655
O  O29  1  0.52144000  0.99188000  0.11274000  1.0 -0.5176683655
O  O30  1  0.37394000  0.11274000  0.99188000  1.0 -0.5176683655
O  O31  1  0.11274000  0.37394000  0.52144000  1.0 -0.5176683655
O  O32  1  0.99188000  0.52144000  0.37394000  1.0 -0.5176683655
O  O33  1  0.99188000  0.11274000  0.52144000  1.0 -0.5176683655
O  O34  1  0.11274000  0.99188000  0.37394000  1.0 -0.5176683655
O  O35  1  0.37394000  0.52144000  0.11274000  1.0 -0.5176683655
O  O36  1  0.52144000  0.37394000  0.99188000  1.0 -0.5176683655
O  O37  1  0.88726000  0.62606000  0.00812000  1.0 -0.5176683655
O  O38  1  0.00812000  0.47856000  0.88726000  1.0 -0.5176683655
O  O39  1  0.47856000  0.00812000  0.62606000  1.0 -0.5176683655
O  O40  1  0.62606000  0.88726000  0.47856000  1.0 -0.5176683655
O  O41  1  0.47856000  0.62606000  0.88726000  1.0 -0.5176683655
O  O42  1  0.62606000  0.47856000  0.00812000  1.0 -0.5176683655
O  O43  1  0.88726000  0.00812000  0.47856000  1.0 -0.5176683655
O  O44  1  0.00812000  0.88726000  0.62606000  1.0 -0.5176683655
O  O45  1  0.00812000  0.62606000  0.47856000  1.0 -0.5176683655
O  O46  1  0.88726000  0.47856000  0.62606000  1.0 -0.5176683655
O  O47  1  0.62606000  0.00812000  0.88726000  1.0 -0.5176683655
O  O48  1  0.47856000  0.88726000  0.00812000  1.0 -0.5176683655
