# DDEC6 charges by PACMAN v1.1 (https://github.com/mtap-research/PACMAN-charge/)
data_SAZKAI_ASR_pacman
_symmetry_space_group_name_H-M   'P 1'
_cell_length_a   20.33520000
_cell_length_b   27.05030000
_cell_length_c   30.56370000
_cell_angle_alpha   90.00000000
_cell_angle_beta   90.00000000
_cell_angle_gamma   90.00000000
_symmetry_Int_Tables_number   1
_chemical_formula_structural   U3H24C23N3O11
_chemical_formula_sum   'U24 H192 C184 N24 O88'
_cell_volume   16812.27411378
_cell_formula_units_Z   8
loop_
 _symmetry_equiv_pos_site_id
 _symmetry_equiv_pos_as_xyz
  1  'x, y, z'
loop_
 _atom_site_type_symbol
 _atom_site_label
 _atom_site_symmetry_multiplicity
 _atom_site_fract_x
 _atom_site_fract_y
 _atom_site_fract_z
 _atom_site_occupancy
 _atom_site_charge
U  U1  1  0.87506000  0.29950000  0.84432000  1.0 2.2751667297
U  U2  1  0.07885000  0.28398000  0.83126000  1.0 2.239516238
U  U3  1  0.98771000  0.39805000  0.80389000  1.0 2.1353563719
U  U4  1  0.87506000  0.70050000  0.65568000  1.0 2.2713894642
U  U5  1  0.07885000  0.71602000  0.66874000  1.0 2.239516238
U  U6  1  0.98771000  0.60195000  0.69611000  1.0 2.1353563719
U  U7  1  0.37506000  0.79950000  0.65568000  1.0 2.2713894642
U  U8  1  0.57885000  0.78398000  0.66874000  1.0 2.239516238
U  U9  1  0.48771000  0.89805000  0.69611000  1.0 2.1353563719
U  U10  1  0.37506000  0.20050000  0.84432000  1.0 2.2713894642
U  U11  1  0.57885000  0.21602000  0.83126000  1.0 2.239516238
U  U12  1  0.48771000  0.10195000  0.80389000  1.0 2.1353563719
U  U13  1  0.62494000  0.20050000  0.34432000  1.0 2.2713894642
U  U14  1  0.42115000  0.21602000  0.33126000  1.0 2.239516238
U  U15  1  0.51229000  0.10195000  0.30389000  1.0 2.1353563719
U  U16  1  0.62494000  0.79950000  0.15568000  1.0 2.2713894642
U  U17  1  0.42115000  0.78398000  0.16874000  1.0 2.239516238
U  U18  1  0.51229000  0.89805000  0.19611000  1.0 2.1341128147
U  U19  1  0.12494000  0.70050000  0.15568000  1.0 2.2713894642
U  U20  1  0.92115000  0.71602000  0.16874000  1.0 2.239516238
U  U21  1  0.01229000  0.60195000  0.19611000  1.0 2.1353563719
U  U22  1  0.12494000  0.29950000  0.34432000  1.0 2.2713894642
U  U23  1  0.92115000  0.28398000  0.33126000  1.0 2.239516238
U  U24  1  0.01229000  0.39805000  0.30389000  1.0 2.1353563719
H  H1  1  0.71400000  0.68010000  0.83500000  1.0 0.1010631521
H  H2  1  0.70100000  0.59600000  0.82320000  1.0 0.1199621952
H  H3  1  0.71380000  0.57170000  0.95260000  1.0 0.0915243685
H  H4  1  0.72680000  0.65580000  0.96440000  1.0 0.1010631521
H  H5  1  0.88930000  0.06670000  0.93280000  1.0 0.0915243685
H  H6  1  0.02040000  0.03760000  0.83960000  1.0 0.1102066434
H  H7  1  0.02750000  0.12140000  0.82320000  1.0 0.1339156127
H  H8  1  0.96740000  0.98720000  0.93110000  1.0 0.1010631521
H  H9  1  0.98680000  0.97310000  0.88310000  1.0 0.1010631521
H  H10  1  0.86140000  0.98060000  0.91320000  1.0 0.2056423708
H  H11  1  0.87570000  0.97360000  0.86750000  1.0 0.2200676634
H  H12  1  0.81450000  0.74000000  0.92510000  1.0 0.2200676634
H  H13  1  0.80690000  0.74040000  0.87810000  1.0 0.2273270993
H  H14  1  0.89290000  0.15010000  0.91460000  1.0 0.1199621952
H  H15  1  0.91020000  0.90560000  0.92970000  1.0 0.0701115624
H  H16  1  0.91970000  0.89780000  0.87940000  1.0 0.0701115624
H  H17  1  0.79930000  0.89900000  0.92260000  1.0 0.0756210837
H  H18  1  0.80590000  0.89550000  0.87140000  1.0 0.0756210837
H  H19  1  0.86460000  0.82240000  0.92900000  1.0 0.0701115624
H  H20  1  0.86490000  0.81820000  0.87770000  1.0 0.0701115624
H  H21  1  0.69360000  0.74370000  0.88710000  1.0 0.0701115624
H  H22  1  0.70660000  0.73500000  0.93700000  1.0 0.0701115624
H  H23  1  0.75640000  0.81240000  0.93070000  1.0 0.0701115624
H  H24  1  0.75290000  0.81330000  0.87950000  1.0 0.0701115624
H  H25  1  0.71400000  0.31990000  0.66500000  1.0 0.1010631521
H  H26  1  0.70100000  0.40400000  0.67680000  1.0 0.1199621952
H  H27  1  0.71380000  0.42830000  0.54740000  1.0 0.0915243685
H  H28  1  0.72680000  0.34420000  0.53560000  1.0 0.1010631521
H  H29  1  0.88930000  0.93330000  0.56720000  1.0 0.0915243685
H  H30  1  0.02040000  0.96240000  0.66040000  1.0 0.1102066434
H  H31  1  0.02750000  0.87860000  0.67680000  1.0 0.1339156127
H  H32  1  0.96740000  0.01280000  0.56890000  1.0 0.1010631521
H  H33  1  0.98680000  0.02690000  0.61690000  1.0 0.1010631521
H  H34  1  0.86140000  0.01940000  0.58680000  1.0 0.2056423708
H  H35  1  0.87570000  0.02640000  0.63250000  1.0 0.2200676634
H  H36  1  0.81450000  0.26000000  0.57490000  1.0 0.2200676634
H  H37  1  0.80690000  0.25960000  0.62190000  1.0 0.2273270993
H  H38  1  0.89290000  0.84990000  0.58540000  1.0 0.1199621952
H  H39  1  0.91020000  0.09440000  0.57030000  1.0 0.0701115624
H  H40  1  0.91970000  0.10220000  0.62060000  1.0 0.0701115624
H  H41  1  0.79930000  0.10100000  0.57740000  1.0 0.0756210837
H  H42  1  0.80590000  0.10450000  0.62860000  1.0 0.0756210837
H  H43  1  0.86460000  0.17760000  0.57100000  1.0 0.0701115624
H  H44  1  0.86490000  0.18180000  0.62230000  1.0 0.0701115624
H  H45  1  0.69360000  0.25630000  0.61290000  1.0 0.0701115624
H  H46  1  0.70660000  0.26500000  0.56300000  1.0 0.0701115624
H  H47  1  0.75640000  0.18760000  0.56930000  1.0 0.0701115624
H  H48  1  0.75290000  0.18670000  0.62050000  1.0 0.0701115624
H  H49  1  0.21400000  0.18010000  0.66500000  1.0 0.1010631521
H  H50  1  0.20100000  0.09600000  0.67680000  1.0 0.1199621952
H  H51  1  0.21380000  0.07170000  0.54740000  1.0 0.0915243685
H  H52  1  0.22680000  0.15580000  0.53560000  1.0 0.1010631521
H  H53  1  0.38930000  0.56670000  0.56720000  1.0 0.0915243685
H  H54  1  0.52040000  0.53760000  0.66040000  1.0 0.1102066434
H  H55  1  0.52750000  0.62140000  0.67680000  1.0 0.1339156127
H  H56  1  0.46740000  0.48720000  0.56890000  1.0 0.1010631521
H  H57  1  0.48680000  0.47310000  0.61690000  1.0 0.1010631521
H  H58  1  0.36140000  0.48060000  0.58680000  1.0 0.2056423708
H  H59  1  0.37570000  0.47360000  0.63250000  1.0 0.2200676634
H  H60  1  0.31450000  0.24000000  0.57490000  1.0 0.2200676634
H  H61  1  0.30690000  0.24040000  0.62190000  1.0 0.2273270993
H  H62  1  0.39290000  0.65010000  0.58540000  1.0 0.1199621952
H  H63  1  0.41020000  0.40560000  0.57030000  1.0 0.0701115624
H  H64  1  0.41970000  0.39780000  0.62060000  1.0 0.0701115624
H  H65  1  0.29930000  0.39900000  0.57740000  1.0 0.0756210837
H  H66  1  0.30590000  0.39550000  0.62860000  1.0 0.0756210837
H  H67  1  0.36460000  0.32240000  0.57100000  1.0 0.0701115624
H  H68  1  0.36490000  0.31820000  0.62230000  1.0 0.0701115624
H  H69  1  0.19360000  0.24370000  0.61290000  1.0 0.0701115624
H  H70  1  0.20660000  0.23500000  0.56300000  1.0 0.0701115624
H  H71  1  0.25640000  0.31240000  0.56930000  1.0 0.0701115624
H  H72  1  0.25290000  0.31330000  0.62050000  1.0 0.0701115624
H  H73  1  0.21400000  0.81990000  0.83500000  1.0 0.1010631521
H  H74  1  0.20100000  0.90400000  0.82320000  1.0 0.1199621952
H  H75  1  0.21380000  0.92830000  0.95260000  1.0 0.0915243685
H  H76  1  0.22680000  0.84420000  0.96440000  1.0 0.1010631521
H  H77  1  0.38930000  0.43330000  0.93280000  1.0 0.0915243685
H  H78  1  0.52040000  0.46240000  0.83960000  1.0 0.1102066434
H  H79  1  0.52750000  0.37860000  0.82320000  1.0 0.1339156127
H  H80  1  0.46740000  0.51280000  0.93110000  1.0 0.1010631521
H  H81  1  0.48680000  0.52690000  0.88310000  1.0 0.1010631521
H  H82  1  0.36140000  0.51940000  0.91320000  1.0 0.2056423708
H  H83  1  0.37570000  0.52640000  0.86750000  1.0 0.2200676634
H  H84  1  0.31450000  0.76000000  0.92510000  1.0 0.2200676634
H  H85  1  0.30690000  0.75960000  0.87810000  1.0 0.2273270993
H  H86  1  0.39290000  0.34990000  0.91460000  1.0 0.1199621952
H  H87  1  0.41020000  0.59440000  0.92970000  1.0 0.0701115624
H  H88  1  0.41970000  0.60220000  0.87940000  1.0 0.0701115624
H  H89  1  0.29930000  0.60100000  0.92260000  1.0 0.0756210837
H  H90  1  0.30590000  0.60450000  0.87140000  1.0 0.0756210837
H  H91  1  0.36460000  0.67760000  0.92900000  1.0 0.0701115624
H  H92  1  0.36490000  0.68180000  0.87770000  1.0 0.0701115624
H  H93  1  0.19360000  0.75630000  0.88710000  1.0 0.0701115624
H  H94  1  0.20660000  0.76500000  0.93700000  1.0 0.0701115624
H  H95  1  0.25640000  0.68760000  0.93070000  1.0 0.0701115624
H  H96  1  0.25290000  0.68670000  0.87950000  1.0 0.0701115624
H  H97  1  0.78600000  0.81990000  0.33500000  1.0 0.1010631521
H  H98  1  0.79900000  0.90400000  0.32320000  1.0 0.1199621952
H  H99  1  0.78620000  0.92830000  0.45260000  1.0 0.0915243685
H  H100  1  0.77320000  0.84420000  0.46440000  1.0 0.1010631521
H  H101  1  0.61070000  0.43330000  0.43280000  1.0 0.0915243685
H  H102  1  0.47960000  0.46240000  0.33960000  1.0 0.1102066434
H  H103  1  0.47250000  0.37860000  0.32320000  1.0 0.1339156127
H  H104  1  0.53260000  0.51280000  0.43110000  1.0 0.1010631521
H  H105  1  0.51320000  0.52690000  0.38310000  1.0 0.1010631521
H  H106  1  0.63860000  0.51940000  0.41320000  1.0 0.2056423708
H  H107  1  0.62430000  0.52640000  0.36750000  1.0 0.2200676634
H  H108  1  0.68550000  0.76000000  0.42510000  1.0 0.2200676634
H  H109  1  0.69310000  0.75960000  0.37810000  1.0 0.2273270993
H  H110  1  0.60710000  0.34990000  0.41460000  1.0 0.1199621952
H  H111  1  0.58980000  0.59440000  0.42970000  1.0 0.0701115624
H  H112  1  0.58030000  0.60220000  0.37940000  1.0 0.0701115624
H  H113  1  0.70070000  0.60100000  0.42260000  1.0 0.0756210837
H  H114  1  0.69410000  0.60450000  0.37140000  1.0 0.0756210837
H  H115  1  0.63540000  0.67760000  0.42900000  1.0 0.0701115624
H  H116  1  0.63510000  0.68180000  0.37770000  1.0 0.0701115624
H  H117  1  0.80640000  0.75630000  0.38710000  1.0 0.0701115624
H  H118  1  0.79340000  0.76500000  0.43700000  1.0 0.0701115624
H  H119  1  0.74360000  0.68760000  0.43070000  1.0 0.0701115624
H  H120  1  0.74710000  0.68670000  0.37950000  1.0 0.0701115624
H  H121  1  0.78600000  0.18010000  0.16500000  1.0 0.1010631521
H  H122  1  0.79900000  0.09600000  0.17680000  1.0 0.1199621952
H  H123  1  0.78620000  0.07170000  0.04740000  1.0 0.0915243685
H  H124  1  0.77320000  0.15580000  0.03560000  1.0 0.1010631521
H  H125  1  0.61070000  0.56670000  0.06720000  1.0 0.0915243685
H  H126  1  0.47960000  0.53760000  0.16040000  1.0 0.1102066434
H  H127  1  0.47250000  0.62140000  0.17680000  1.0 0.1339156127
H  H128  1  0.53260000  0.48720000  0.06890000  1.0 0.1010631521
H  H129  1  0.51320000  0.47310000  0.11690000  1.0 0.1010631521
H  H130  1  0.63860000  0.48060000  0.08680000  1.0 0.2056423708
H  H131  1  0.62430000  0.47360000  0.13250000  1.0 0.2200676634
H  H132  1  0.68550000  0.24000000  0.07490000  1.0 0.2200676634
H  H133  1  0.69310000  0.24040000  0.12190000  1.0 0.2273270993
H  H134  1  0.60710000  0.65010000  0.08540000  1.0 0.1199621952
H  H135  1  0.58980000  0.40560000  0.07030000  1.0 0.0701115624
H  H136  1  0.58030000  0.39780000  0.12060000  1.0 0.0701115624
H  H137  1  0.70070000  0.39900000  0.07740000  1.0 0.0756210837
H  H138  1  0.69410000  0.39550000  0.12860000  1.0 0.0756210837
H  H139  1  0.63540000  0.32240000  0.07100000  1.0 0.0701115624
H  H140  1  0.63510000  0.31820000  0.12230000  1.0 0.0701115624
H  H141  1  0.80640000  0.24370000  0.11290000  1.0 0.0701115624
H  H142  1  0.79340000  0.23500000  0.06300000  1.0 0.0701115624
H  H143  1  0.74360000  0.31240000  0.06930000  1.0 0.0701115624
H  H144  1  0.74710000  0.31330000  0.12050000  1.0 0.0701115624
H  H145  1  0.28600000  0.31990000  0.16500000  1.0 0.1010631521
H  H146  1  0.29900000  0.40400000  0.17680000  1.0 0.1199621952
H  H147  1  0.28620000  0.42830000  0.04740000  1.0 0.0915243685
H  H148  1  0.27320000  0.34420000  0.03560000  1.0 0.1010631521
H  H149  1  0.11070000  0.93330000  0.06720000  1.0 0.0915243685
H  H150  1  0.97960000  0.96240000  0.16040000  1.0 0.1102066434
H  H151  1  0.97250000  0.87860000  0.17680000  1.0 0.1339156127
H  H152  1  0.03260000  0.01280000  0.06890000  1.0 0.1010631521
H  H153  1  0.01320000  0.02690000  0.11690000  1.0 0.1010631521
H  H154  1  0.13860000  0.01940000  0.08680000  1.0 0.2056423708
H  H155  1  0.12430000  0.02640000  0.13250000  1.0 0.2200676634
H  H156  1  0.18550000  0.26000000  0.07490000  1.0 0.2200676634
H  H157  1  0.19310000  0.25960000  0.12190000  1.0 0.2273270993
H  H158  1  0.10710000  0.84990000  0.08540000  1.0 0.1199621952
H  H159  1  0.08980000  0.09440000  0.07030000  1.0 0.0701115624
H  H160  1  0.08030000  0.10220000  0.12060000  1.0 0.0701115624
H  H161  1  0.20070000  0.10100000  0.07740000  1.0 0.0756210837
H  H162  1  0.19410000  0.10450000  0.12860000  1.0 0.0756210837
H  H163  1  0.13540000  0.17760000  0.07100000  1.0 0.0701115624
H  H164  1  0.13510000  0.18180000  0.12230000  1.0 0.0701115624
H  H165  1  0.30640000  0.25630000  0.11290000  1.0 0.0701115624
H  H166  1  0.29340000  0.26500000  0.06300000  1.0 0.0701115624
H  H167  1  0.24360000  0.18760000  0.06930000  1.0 0.0701115624
H  H168  1  0.24710000  0.18670000  0.12050000  1.0 0.0701115624
H  H169  1  0.28600000  0.68010000  0.33500000  1.0 0.1010631521
H  H170  1  0.29900000  0.59600000  0.32320000  1.0 0.1199621952
H  H171  1  0.28620000  0.57170000  0.45260000  1.0 0.0915243685
H  H172  1  0.27320000  0.65580000  0.46440000  1.0 0.1010631521
H  H173  1  0.11070000  0.06670000  0.43280000  1.0 0.0915243685
H  H174  1  0.97960000  0.03760000  0.33960000  1.0 0.1102066434
H  H175  1  0.97250000  0.12140000  0.32320000  1.0 0.1339156127
H  H176  1  0.03260000  0.98720000  0.43110000  1.0 0.1010631521
H  H177  1  0.01320000  0.97310000  0.38310000  1.0 0.1010631521
H  H178  1  0.13860000  0.98060000  0.41320000  1.0 0.2056423708
H  H179  1  0.12430000  0.97360000  0.36750000  1.0 0.2200676634
H  H180  1  0.18550000  0.74000000  0.42510000  1.0 0.2200676634
H  H181  1  0.19310000  0.74040000  0.37810000  1.0 0.2273270993
H  H182  1  0.10710000  0.15010000  0.41460000  1.0 0.1199621952
H  H183  1  0.08980000  0.90560000  0.42970000  1.0 0.0701115624
H  H184  1  0.08030000  0.89780000  0.37940000  1.0 0.0701115624
H  H185  1  0.20070000  0.89900000  0.42260000  1.0 0.0756210837
H  H186  1  0.19410000  0.89550000  0.37140000  1.0 0.0756210837
H  H187  1  0.13540000  0.82240000  0.42900000  1.0 0.0701115624
H  H188  1  0.13510000  0.81820000  0.37770000  1.0 0.0701115624
H  H189  1  0.30640000  0.74370000  0.38710000  1.0 0.0701115624
H  H190  1  0.29340000  0.73500000  0.43700000  1.0 0.0701115624
H  H191  1  0.24360000  0.81240000  0.43070000  1.0 0.0701115624
H  H192  1  0.24710000  0.81330000  0.37950000  1.0 0.0701115624
C  C1  1  0.72170000  0.67630000  0.90090000  1.0 0.0206776394
C  C2  1  0.71400000  0.65840000  0.85860000  1.0 -0.1866347293
C  C3  1  0.70620000  0.60800000  0.85150000  1.0 -0.1628991121
C  C4  1  0.70610000  0.57550000  0.88670000  1.0 0.0511788077
C  C5  1  0.71380000  0.59340000  0.92900000  1.0 -0.1866347293
C  C6  1  0.72160000  0.64380000  0.93611000  1.0 -0.1957974841
C  C7  1  0.96720000  0.19750000  0.85790000  1.0 0.616643945
C  C8  1  0.96170000  0.14350000  0.86740000  1.0 -0.0815234533
C  C9  1  0.91690000  0.07750000  0.91050000  1.0 -0.2109473401
C  C10  1  0.95460000  0.04410000  0.88850000  1.0 0.0621219317
C  C11  1  0.99540000  0.06030000  0.85530000  1.0 -0.1758999952
C  C12  1  0.99930000  0.11050000  0.84510000  1.0 -0.0815234533
C  C13  1  0.95450000  0.99040000  0.90070000  1.0 -0.1758999952
C  C14  1  0.91940000  0.12760000  0.89990000  1.0 -0.0887450619
C  C15  1  0.89100000  0.91230000  0.90120000  1.0 -0.1418274238
C  C16  1  0.82730000  0.88780000  0.89890000  1.0 -0.2543321454
C  C17  1  0.83940000  0.82940000  0.90270000  1.0 -0.2322944437
C  C18  1  0.72300000  0.72800000  0.90780000  1.0 -0.173124259
C  C19  1  0.77980000  0.80340000  0.90420000  1.0 -0.1527630647
C  C20  1  0.71320000  0.28580000  0.83610000  1.0 0.57971135
C  C21  1  0.73800000  0.23540000  0.84780000  1.0 0.57971135
C  C22  1  0.69410000  0.52030000  0.88240000  1.0 0.1896668396
C  C23  1  0.72170000  0.32370000  0.59910000  1.0 0.0206776394
C  C24  1  0.71400000  0.34160000  0.64140000  1.0 -0.1866347293
C  C25  1  0.70620000  0.39200000  0.64850000  1.0 -0.1628991121
C  C26  1  0.70610000  0.42450000  0.61330000  1.0 0.0511788077
C  C27  1  0.71380000  0.40660000  0.57100000  1.0 -0.1866347293
C  C28  1  0.72160000  0.35620000  0.56389000  1.0 -0.1957974841
C  C29  1  0.96720000  0.80250000  0.64210000  1.0 0.616643945
C  C30  1  0.96170000  0.85650000  0.63260000  1.0 -0.0815234533
C  C31  1  0.91690000  0.92250000  0.58950000  1.0 -0.2109473401
C  C32  1  0.95460000  0.95590000  0.61150000  1.0 0.0621219317
C  C33  1  0.99540000  0.93970000  0.64470000  1.0 -0.1758999952
C  C34  1  0.99930000  0.88950000  0.65490000  1.0 -0.0815234533
C  C35  1  0.95450000  0.00960000  0.59930000  1.0 -0.1758999952
C  C36  1  0.91940000  0.87240000  0.60010000  1.0 -0.0887450619
C  C37  1  0.89100000  0.08770000  0.59880000  1.0 -0.1418274238
C  C38  1  0.82730000  0.11220000  0.60110000  1.0 -0.2557556235
C  C39  1  0.83940000  0.17060000  0.59730000  1.0 -0.2322944437
C  C40  1  0.72300000  0.27200000  0.59220000  1.0 -0.173124259
C  C41  1  0.77980000  0.19660000  0.59580000  1.0 -0.1527630647
C  C42  1  0.71320000  0.71420000  0.66390000  1.0 0.57971135
C  C43  1  0.73800000  0.76460000  0.65220000  1.0 0.57971135
C  C44  1  0.69410000  0.47970000  0.61760000  1.0 0.1896668396
C  C45  1  0.22170000  0.17630000  0.59910000  1.0 0.0206776394
C  C46  1  0.21400000  0.15840000  0.64140000  1.0 -0.1866347293
C  C47  1  0.20620000  0.10800000  0.64850000  1.0 -0.1628991121
C  C48  1  0.20610000  0.07550000  0.61330000  1.0 0.0511788077
C  C49  1  0.21380000  0.09340000  0.57100000  1.0 -0.1866347293
C  C50  1  0.22160000  0.14380000  0.56389000  1.0 -0.1957974841
C  C51  1  0.46720000  0.69750000  0.64210000  1.0 0.616643945
C  C52  1  0.46170000  0.64350000  0.63260000  1.0 -0.0815234533
C  C53  1  0.41690000  0.57750000  0.58950000  1.0 -0.2109473401
C  C54  1  0.45460000  0.54410000  0.61150000  1.0 0.0621219317
C  C55  1  0.49540000  0.56030000  0.64470000  1.0 -0.1758999952
C  C56  1  0.49930000  0.61050000  0.65490000  1.0 -0.0815234533
C  C57  1  0.45450000  0.49040000  0.59930000  1.0 -0.1758999952
C  C58  1  0.41940000  0.62760000  0.60010000  1.0 -0.0887450619
C  C59  1  0.39100000  0.41230000  0.59880000  1.0 -0.1418274238
C  C60  1  0.32730000  0.38780000  0.60110000  1.0 -0.2543321454
C  C61  1  0.33940000  0.32940000  0.59730000  1.0 -0.2322944437
C  C62  1  0.22300000  0.22800000  0.59220000  1.0 -0.173124259
C  C63  1  0.27980000  0.30340000  0.59580000  1.0 -0.1527630647
C  C64  1  0.21320000  0.78580000  0.66390000  1.0 0.57971135
C  C65  1  0.23800000  0.73540000  0.65220000  1.0 0.57971135
C  C66  1  0.19410000  0.02030000  0.61760000  1.0 0.1896668396
C  C67  1  0.22170000  0.82370000  0.90090000  1.0 0.0206776394
C  C68  1  0.21400000  0.84160000  0.85860000  1.0 -0.1866347293
C  C69  1  0.20620000  0.89200000  0.85150000  1.0 -0.1628991121
C  C70  1  0.20610000  0.92450000  0.88670000  1.0 0.0511788077
C  C71  1  0.21380000  0.90660000  0.92900000  1.0 -0.1866347293
C  C72  1  0.22160000  0.85620000  0.93611000  1.0 -0.1957974841
C  C73  1  0.46720000  0.30250000  0.85790000  1.0 0.616643945
C  C74  1  0.46170000  0.35650000  0.86740000  1.0 -0.0815234533
C  C75  1  0.41690000  0.42250000  0.91050000  1.0 -0.2109473401
C  C76  1  0.45460000  0.45590000  0.88850000  1.0 0.0621219317
C  C77  1  0.49540000  0.43970000  0.85530000  1.0 -0.1758999952
C  C78  1  0.49930000  0.38950000  0.84510000  1.0 -0.0815234533
C  C79  1  0.45450000  0.50960000  0.90070000  1.0 -0.1758999952
C  C80  1  0.41940000  0.37240000  0.89990000  1.0 -0.0887450619
C  C81  1  0.39100000  0.58770000  0.90120000  1.0 -0.1418274238
C  C82  1  0.32730000  0.61220000  0.89890000  1.0 -0.2543321454
C  C83  1  0.33940000  0.67060000  0.90270000  1.0 -0.2322944437
C  C84  1  0.22300000  0.77200000  0.90780000  1.0 -0.173124259
C  C85  1  0.27980000  0.69660000  0.90420000  1.0 -0.1527630647
C  C86  1  0.21320000  0.21420000  0.83610000  1.0 0.57971135
C  C87  1  0.23800000  0.26460000  0.84780000  1.0 0.57971135
C  C88  1  0.19410000  0.97970000  0.88240000  1.0 0.1896668396
C  C89  1  0.02510000  0.50000000  0.75000000  1.0 0.6993537343
C  C90  1  0.94950000  0.50000000  0.75000000  1.0 0.710982377
C  C91  1  0.52510000  0.00000000  0.75000000  1.0 0.6993537343
C  C92  1  0.44950000  0.00000000  0.75000000  1.0 0.710982377
C  C93  1  0.77830000  0.82370000  0.40090000  1.0 0.0206776394
C  C94  1  0.78600000  0.84160000  0.35860000  1.0 -0.1866347293
C  C95  1  0.79380000  0.89200000  0.35150000  1.0 -0.1628991121
C  C96  1  0.79390000  0.92450000  0.38670000  1.0 0.0511788077
C  C97  1  0.78620000  0.90660000  0.42900000  1.0 -0.1866347293
C  C98  1  0.77840000  0.85620000  0.43611000  1.0 -0.1957974841
C  C99  1  0.53280000  0.30250000  0.35790000  1.0 0.616643945
C  C100  1  0.53830000  0.35650000  0.36740000  1.0 -0.0815234533
C  C101  1  0.58310000  0.42250000  0.41050000  1.0 -0.2109473401
C  C102  1  0.54540000  0.45590000  0.38850000  1.0 0.0621219317
C  C103  1  0.50460000  0.43970000  0.35530000  1.0 -0.1758999952
C  C104  1  0.50070000  0.38950000  0.34510000  1.0 -0.0815234533
C  C105  1  0.54550000  0.50960000  0.40070000  1.0 -0.1758999952
C  C106  1  0.58060000  0.37240000  0.39990000  1.0 -0.0887450619
C  C107  1  0.60900000  0.58770000  0.40120000  1.0 -0.1418274238
C  C108  1  0.67270000  0.61220000  0.39890000  1.0 -0.2543321454
C  C109  1  0.66060000  0.67060000  0.40270000  1.0 -0.2322944437
C  C110  1  0.77700000  0.77200000  0.40780000  1.0 -0.173124259
C  C111  1  0.72020000  0.69660000  0.40420000  1.0 -0.1527630647
C  C112  1  0.78680000  0.21420000  0.33610000  1.0 0.57971135
C  C113  1  0.76200000  0.26460000  0.34780000  1.0 0.57971135
C  C114  1  0.80590000  0.97970000  0.38240000  1.0 0.1896668396
C  C115  1  0.77830000  0.17630000  0.09910000  1.0 0.0206776394
C  C116  1  0.78600000  0.15840000  0.14140000  1.0 -0.1866347293
C  C117  1  0.79380000  0.10800000  0.14850000  1.0 -0.1628991121
C  C118  1  0.79390000  0.07550000  0.11330000  1.0 0.0511788077
C  C119  1  0.78620000  0.09340000  0.07100000  1.0 -0.1866347293
C  C120  1  0.77840000  0.14380000  0.06389000  1.0 -0.1957974841
C  C121  1  0.53280000  0.69750000  0.14210000  1.0 0.616643945
C  C122  1  0.53830000  0.64350000  0.13260000  1.0 -0.0815234533
C  C123  1  0.58310000  0.57750000  0.08950000  1.0 -0.2109473401
C  C124  1  0.54540000  0.54410000  0.11150000  1.0 0.0621219317
C  C125  1  0.50460000  0.56030000  0.14470000  1.0 -0.1758999952
C  C126  1  0.50070000  0.61050000  0.15490000  1.0 -0.0815234533
C  C127  1  0.54550000  0.49040000  0.09930000  1.0 -0.1758999952
C  C128  1  0.58060000  0.62760000  0.10010000  1.0 -0.0887450619
C  C129  1  0.60900000  0.41230000  0.09880000  1.0 -0.1418274238
C  C130  1  0.67270000  0.38780000  0.10110000  1.0 -0.2557556235
C  C131  1  0.66060000  0.32940000  0.09730000  1.0 -0.2322944437
C  C132  1  0.77700000  0.22800000  0.09220000  1.0 -0.173124259
C  C133  1  0.72020000  0.30340000  0.09580000  1.0 -0.1527630647
C  C134  1  0.78680000  0.78580000  0.16390000  1.0 0.57971135
C  C135  1  0.76200000  0.73540000  0.15220000  1.0 0.57971135
C  C136  1  0.80590000  0.02030000  0.11760000  1.0 0.1896668396
C  C137  1  0.27830000  0.32370000  0.09910000  1.0 0.0206776394
C  C138  1  0.28600000  0.34160000  0.14140000  1.0 -0.1866347293
C  C139  1  0.29380000  0.39200000  0.14850000  1.0 -0.1628991121
C  C140  1  0.29390000  0.42450000  0.11330000  1.0 0.0511788077
C  C141  1  0.28620000  0.40660000  0.07100000  1.0 -0.1866347293
C  C142  1  0.27840000  0.35620000  0.06389000  1.0 -0.1957974841
C  C143  1  0.03280000  0.80250000  0.14210000  1.0 0.616643945
C  C144  1  0.03830000  0.85650000  0.13260000  1.0 -0.0815234533
C  C145  1  0.08310000  0.92250000  0.08950000  1.0 -0.2109473401
C  C146  1  0.04540000  0.95590000  0.11150000  1.0 0.0621219317
C  C147  1  0.00460000  0.93970000  0.14470000  1.0 -0.1758999952
C  C148  1  0.00070000  0.88950000  0.15490000  1.0 -0.0815234533
C  C149  1  0.04550000  0.00960000  0.09930000  1.0 -0.1758999952
C  C150  1  0.08060000  0.87240000  0.10010000  1.0 -0.0887450619
C  C151  1  0.10900000  0.08770000  0.09880000  1.0 -0.1418274238
C  C152  1  0.17270000  0.11220000  0.10110000  1.0 -0.2557556235
C  C153  1  0.16060000  0.17060000  0.09730000  1.0 -0.2322944437
C  C154  1  0.27700000  0.27200000  0.09220000  1.0 -0.173124259
C  C155  1  0.22020000  0.19660000  0.09580000  1.0 -0.1527630647
C  C156  1  0.28680000  0.71420000  0.16390000  1.0 0.57971135
C  C157  1  0.26200000  0.76460000  0.15220000  1.0 0.57971135
C  C158  1  0.30590000  0.47970000  0.11760000  1.0 0.1896668396
C  C159  1  0.27830000  0.67630000  0.40090000  1.0 0.0206776394
C  C160  1  0.28600000  0.65840000  0.35860000  1.0 -0.1866347293
C  C161  1  0.29380000  0.60800000  0.35150000  1.0 -0.1628991121
C  C162  1  0.29390000  0.57550000  0.38670000  1.0 0.0511788077
C  C163  1  0.28620000  0.59340000  0.42900000  1.0 -0.1866347293
C  C164  1  0.27840000  0.64380000  0.43611000  1.0 -0.1957974841
C  C165  1  0.03280000  0.19750000  0.35790000  1.0 0.616643945
C  C166  1  0.03830000  0.14350000  0.36740000  1.0 -0.0815234533
C  C167  1  0.08310000  0.07750000  0.41050000  1.0 -0.2109473401
C  C168  1  0.04540000  0.04410000  0.38850000  1.0 0.0621219317
C  C169  1  0.00460000  0.06030000  0.35530000  1.0 -0.1758999952
C  C170  1  0.00070000  0.11050000  0.34510000  1.0 -0.0815234533
C  C171  1  0.04550000  0.99040000  0.40070000  1.0 -0.1758999952
C  C172  1  0.08060000  0.12760000  0.39990000  1.0 -0.0887450619
C  C173  1  0.10900000  0.91230000  0.40120000  1.0 -0.1418274238
C  C174  1  0.17270000  0.88780000  0.39890000  1.0 -0.2543321454
C  C175  1  0.16060000  0.82940000  0.40270000  1.0 -0.2322944437
C  C176  1  0.27700000  0.72800000  0.40780000  1.0 -0.173124259
C  C177  1  0.22020000  0.80340000  0.40420000  1.0 -0.1527630647
C  C178  1  0.28680000  0.28580000  0.33610000  1.0 0.57971135
C  C179  1  0.26200000  0.23540000  0.34780000  1.0 0.57971135
C  C180  1  0.30590000  0.52030000  0.38240000  1.0 0.1896668396
C  C181  1  0.47490000  0.00000000  0.25000000  1.0 0.6993537343
C  C182  1  0.55050000  0.00000000  0.25000000  1.0 0.710982377
C  C183  1  0.97490000  0.50000000  0.25000000  1.0 0.6993537343
C  C184  1  0.05050000  0.50000000  0.25000000  1.0 0.710982377
N  N1  1  0.88990000  0.96720000  0.89450000  1.0 -0.2322944437
N  N2  1  0.78860000  0.74970000  0.90330000  1.0 -0.240611281
N  N3  1  0.67060000  0.48420000  0.86690000  1.0 -0.4183895939
N  N4  1  0.88990000  0.03280000  0.60550000  1.0 -0.2322944437
N  N5  1  0.78860000  0.25030000  0.59670000  1.0 -0.240611281
N  N6  1  0.67060000  0.51580000  0.63310000  1.0 -0.4183895939
N  N7  1  0.38990000  0.46720000  0.60550000  1.0 -0.2322944437
N  N8  1  0.28860000  0.24970000  0.59670000  1.0 -0.240611281
N  N9  1  0.17060000  0.98420000  0.63310000  1.0 -0.4183895939
N  N10  1  0.38990000  0.53280000  0.89450000  1.0 -0.2322944437
N  N11  1  0.28860000  0.75030000  0.90330000  1.0 -0.240611281
N  N12  1  0.17060000  0.01580000  0.86690000  1.0 -0.4183895939
N  N13  1  0.61010000  0.53280000  0.39450000  1.0 -0.2322944437
N  N14  1  0.71140000  0.75030000  0.40330000  1.0 -0.240611281
N  N15  1  0.82940000  0.01580000  0.36690000  1.0 -0.4183895939
N  N16  1  0.61010000  0.46720000  0.10550000  1.0 -0.2322944437
N  N17  1  0.71140000  0.24970000  0.09670000  1.0 -0.240611281
N  N18  1  0.82940000  0.98420000  0.13310000  1.0 -0.4183895939
N  N19  1  0.11010000  0.03280000  0.10550000  1.0 -0.2322944437
N  N20  1  0.21140000  0.25030000  0.09670000  1.0 -0.240611281
N  N21  1  0.32940000  0.51580000  0.13310000  1.0 -0.4183895939
N  N22  1  0.11010000  0.96720000  0.39450000  1.0 -0.2322944437
N  N23  1  0.21140000  0.74970000  0.40330000  1.0 -0.240611281
N  N24  1  0.32940000  0.48420000  0.36690000  1.0 -0.4183895939
O  O1  1  0.97990000  0.32050000  0.83410000  1.0 -1.2509216272
O  O2  1  0.92860000  0.22754000  0.87561000  1.0 -0.6088791542
O  O3  1  0.01270000  0.21105000  0.83148000  1.0 -0.650333997
O  O4  1  0.92270000  0.46587000  0.77049000  1.0 -0.6302128338
O  O5  1  0.87600000  0.37780000  0.81338000  1.0 -1.1213400268
O  O6  1  0.09340000  0.36916000  0.82071000  1.0 -1.1587791645
O  O7  1  0.69750000  0.19973000  0.84266000  1.0 -0.6585721784
O  O8  1  0.65380000  0.29100000  0.82960000  1.0 -0.650333997
O  O9  1  0.75570000  0.32008000  0.83535000  1.0 -0.6585721784
O  O10  1  0.05310000  0.46687000  0.77133000  1.0 -0.6585721784
O  O11  1  0.79570000  0.23123000  0.86075000  1.0 -0.6729721033
O  O12  1  0.97990000  0.67950000  0.66590000  1.0 -1.2509216272
O  O13  1  0.92860000  0.77246000  0.62439000  1.0 -0.6088791542
O  O14  1  0.01270000  0.78895000  0.66852000  1.0 -0.650333997
O  O15  1  0.92270000  0.53413000  0.72951000  1.0 -0.6302128338
O  O16  1  0.87600000  0.62220000  0.68662000  1.0 -1.1213400268
O  O17  1  0.09340000  0.63084000  0.67929000  1.0 -1.1587791645
O  O18  1  0.69750000  0.80027000  0.65734000  1.0 -0.6585721784
O  O19  1  0.65380000  0.70900000  0.67040000  1.0 -0.650333997
O  O20  1  0.75570000  0.67992000  0.66465000  1.0 -0.6585721784
O  O21  1  0.05310000  0.53313000  0.72867000  1.0 -0.6585721784
O  O22  1  0.79570000  0.76877000  0.63925000  1.0 -0.6729721033
O  O23  1  0.47990000  0.82050000  0.66590000  1.0 -1.2509216272
O  O24  1  0.42860000  0.72754000  0.62439000  1.0 -0.6088791542
O  O25  1  0.51270000  0.71105000  0.66852000  1.0 -0.650333997
O  O26  1  0.42270000  0.96587000  0.72951000  1.0 -0.6302128338
O  O27  1  0.37600000  0.87780000  0.68662000  1.0 -1.1213400268
O  O28  1  0.59340000  0.86916000  0.67929000  1.0 -1.1587791645
O  O29  1  0.19750000  0.69973000  0.65734000  1.0 -0.6585721784
O  O30  1  0.15380000  0.79100000  0.67040000  1.0 -0.650333997
O  O31  1  0.25570000  0.82008000  0.66465000  1.0 -0.6585721784
O  O32  1  0.55310000  0.96687000  0.72867000  1.0 -0.650333997
O  O33  1  0.29570000  0.73123000  0.63925000  1.0 -0.6729721033
O  O34  1  0.47990000  0.17950000  0.83410000  1.0 -1.2509216272
O  O35  1  0.42860000  0.27246000  0.87561000  1.0 -0.6088791542
O  O36  1  0.51270000  0.28895000  0.83148000  1.0 -0.650333997
O  O37  1  0.42270000  0.03413000  0.77049000  1.0 -0.6302128338
O  O38  1  0.37600000  0.12220000  0.81338000  1.0 -1.1213400268
O  O39  1  0.59340000  0.13084000  0.82071000  1.0 -1.1587791645
O  O40  1  0.19750000  0.30027000  0.84266000  1.0 -0.6585721784
O  O41  1  0.15380000  0.20900000  0.82960000  1.0 -0.650333997
O  O42  1  0.25570000  0.17992000  0.83535000  1.0 -0.6585721784
O  O43  1  0.55310000  0.03313000  0.77133000  1.0 -0.6585721784
O  O44  1  0.29570000  0.26877000  0.86075000  1.0 -0.6729721033
O  O45  1  0.52010000  0.17950000  0.33410000  1.0 -1.2509216272
O  O46  1  0.57140000  0.27246000  0.37561000  1.0 -0.6088791542
O  O47  1  0.48730000  0.28895000  0.33148000  1.0 -0.650333997
O  O48  1  0.57730000  0.03413000  0.27049000  1.0 -0.6302128338
O  O49  1  0.62400000  0.12220000  0.31338000  1.0 -1.1213400268
O  O50  1  0.40660000  0.13084000  0.32071000  1.0 -1.1587791645
O  O51  1  0.80250000  0.30027000  0.34266000  1.0 -0.6585721784
O  O52  1  0.84620000  0.20900000  0.32960000  1.0 -0.650333997
O  O53  1  0.74430000  0.17992000  0.33535000  1.0 -0.6585721784
O  O54  1  0.44690000  0.03313000  0.27133000  1.0 -0.6585721784
O  O55  1  0.70430000  0.26877000  0.36075000  1.0 -0.6729721033
O  O56  1  0.52010000  0.82050000  0.16590000  1.0 -1.2509216272
O  O57  1  0.57140000  0.72754000  0.12439000  1.0 -0.6088791542
O  O58  1  0.48730000  0.71105000  0.16852000  1.0 -0.650333997
O  O59  1  0.57730000  0.96587000  0.22951000  1.0 -0.6302128338
O  O60  1  0.62400000  0.87780000  0.18662000  1.0 -1.1213400268
O  O61  1  0.40660000  0.86916000  0.17929000  1.0 -1.1587791645
O  O62  1  0.80250000  0.69973000  0.15734000  1.0 -0.6585721784
O  O63  1  0.84620000  0.79100000  0.17040000  1.0 -0.650333997
O  O64  1  0.74430000  0.82008000  0.16465000  1.0 -0.6585721784
O  O65  1  0.44690000  0.96687000  0.22867000  1.0 -0.650333997
O  O66  1  0.70430000  0.73123000  0.13925000  1.0 -0.6729721033
O  O67  1  0.02010000  0.67950000  0.16590000  1.0 -1.2509216272
O  O68  1  0.07140000  0.77246000  0.12439000  1.0 -0.6088791542
O  O69  1  0.98730000  0.78895000  0.16852000  1.0 -0.650333997
O  O70  1  0.07730000  0.53413000  0.22951000  1.0 -0.6302128338
O  O71  1  0.12400000  0.62220000  0.18662000  1.0 -1.1213400268
O  O72  1  0.90660000  0.63084000  0.17929000  1.0 -1.1587791645
O  O73  1  0.30250000  0.80027000  0.15734000  1.0 -0.6585721784
O  O74  1  0.34620000  0.70900000  0.17040000  1.0 -0.650333997
O  O75  1  0.24430000  0.67992000  0.16465000  1.0 -0.6585721784
O  O76  1  0.94690000  0.53313000  0.22867000  1.0 -0.650333997
O  O77  1  0.20430000  0.76877000  0.13925000  1.0 -0.6729721033
O  O78  1  0.02010000  0.32050000  0.33410000  1.0 -1.2509216272
O  O79  1  0.07140000  0.22754000  0.37561000  1.0 -0.6088791542
O  O80  1  0.98730000  0.21105000  0.33148000  1.0 -0.650333997
O  O81  1  0.07730000  0.46587000  0.27049000  1.0 -0.6302128338
O  O82  1  0.12400000  0.37780000  0.31338000  1.0 -1.1213400268
O  O83  1  0.90660000  0.36916000  0.32071000  1.0 -1.1587791645
O  O84  1  0.30250000  0.19973000  0.34266000  1.0 -0.6585721784
O  O85  1  0.34620000  0.29100000  0.32960000  1.0 -0.650333997
O  O86  1  0.24430000  0.32008000  0.33535000  1.0 -0.6585721784
O  O87  1  0.94690000  0.46687000  0.27133000  1.0 -0.650333997
O  O88  1  0.20430000  0.23123000  0.36075000  1.0 -0.6729721033
