# DDEC6 charges by PACMAN v1.1 (https://github.com/mtap-research/PACMAN-charge/)
data_SECWUW_ASR_pacman
_symmetry_space_group_name_H-M   'P 1'
_cell_length_a   16.49580000
_cell_length_b   16.49580000
_cell_length_c   15.58800000
_cell_angle_alpha   90.00000000
_cell_angle_beta   90.00000000
_cell_angle_gamma   117.54100000
_symmetry_Int_Tables_number   1
_chemical_formula_structural   CuH9C13(N2O)2
_chemical_formula_sum   'Cu4 H36 C52 N16 O8'
_cell_volume   3761.00720674
_cell_formula_units_Z   4
loop_
 _symmetry_equiv_pos_site_id
 _symmetry_equiv_pos_as_xyz
  1  'x, y, z'
loop_
 _atom_site_type_symbol
 _atom_site_label
 _atom_site_symmetry_multiplicity
 _atom_site_fract_x
 _atom_site_fract_y
 _atom_site_fract_z
 _atom_site_occupancy
 _atom_site_charge
Cu  Cu1  1  0.92236000  0.92236000  0.50000000  1.0 0.8385006124
Cu  Cu2  1  0.07764000  0.07764000  0.50000000  1.0 0.8385006124
Cu  Cu3  1  0.00000000  0.50000000  0.00000000  1.0 0.430013367
Cu  Cu4  1  0.50000000  0.00000000  0.00000000  1.0 0.430013367
H  H1  1  0.11838000  0.67718000  0.10537000  1.0 0.1112262849
H  H2  1  0.88479000  0.65619000  0.21279000  1.0 0.131050502
H  H3  1  0.84226000  0.52192000  0.11432000  1.0 0.1202248065
H  H4  1  0.98764000  0.77686000  0.30517000  1.0 0.1414977433
H  H5  1  0.88162000  0.32282000  0.10537000  1.0 0.1112262849
H  H6  1  0.11521000  0.34381000  0.21279000  1.0 0.131050502
H  H7  1  0.15774000  0.47808000  0.11432000  1.0 0.1202248065
H  H8  1  0.01236000  0.22314000  0.30517000  1.0 0.1414977433
H  H9  1  0.32282000  0.88162000  0.89463000  1.0 0.1112262849
H  H10  1  0.34381000  0.11521000  0.78721000  1.0 0.131050502
H  H11  1  0.47808000  0.15774000  0.88568000  1.0 0.1202248065
H  H12  1  0.22314000  0.01236000  0.69483000  1.0 0.1414977433
H  H13  1  0.67718000  0.11838000  0.89463000  1.0 0.1112262849
H  H14  1  0.65619000  0.88479000  0.78721000  1.0 0.131050502
H  H15  1  0.52192000  0.84226000  0.88568000  1.0 0.1202248065
H  H16  1  0.77686000  0.98764000  0.69483000  1.0 0.1414977433
H  H17  1  0.88162000  0.32282000  0.89463000  1.0 0.1112262849
H  H18  1  0.11521000  0.34381000  0.78721000  1.0 0.131050502
H  H19  1  0.15774000  0.47808000  0.88568000  1.0 0.1202248065
H  H20  1  0.01236000  0.22314000  0.69483000  1.0 0.1414977433
H  H21  1  0.11838000  0.67718000  0.89463000  1.0 0.1112262849
H  H22  1  0.88479000  0.65619000  0.78721000  1.0 0.131050502
H  H23  1  0.84226000  0.52192000  0.88568000  1.0 0.1202248065
H  H24  1  0.98764000  0.77686000  0.69483000  1.0 0.1414977433
H  H25  1  0.67718000  0.11838000  0.10537000  1.0 0.1112262849
H  H26  1  0.65619000  0.88479000  0.21279000  1.0 0.131050502
H  H27  1  0.52192000  0.84226000  0.11432000  1.0 0.1202248065
H  H28  1  0.77686000  0.98764000  0.30517000  1.0 0.1414977433
H  H29  1  0.32282000  0.88162000  0.10537000  1.0 0.1112262849
H  H30  1  0.34381000  0.11521000  0.21279000  1.0 0.131050502
H  H31  1  0.47808000  0.15774000  0.11432000  1.0 0.1202248065
H  H32  1  0.22314000  0.01236000  0.30517000  1.0 0.1414977433
H  H33  1  0.18526000  0.81474000  0.13719000  1.0 0.1202248065
H  H34  1  0.81474000  0.18526000  0.13719000  1.0 0.1202248065
H  H35  1  0.18526000  0.81474000  0.86281000  1.0 0.1202248065
H  H36  1  0.81474000  0.18526000  0.86281000  1.0 0.1202248065
C  C1  1  0.05705000  0.65595000  0.11940000  1.0 -0.0300641567
C  C2  1  0.92509000  0.64411000  0.18010000  1.0 -0.1103042373
C  C3  1  0.90110000  0.56830000  0.12440000  1.0 -0.0300641567
C  C4  1  0.07670000  0.78350000  0.21360000  1.0 0.1664111791
C  C5  1  0.04470000  0.81390000  0.28150000  1.0 -0.2039792677
C  C6  1  0.94295000  0.34405000  0.11940000  1.0 -0.0300641567
C  C7  1  0.07491000  0.35589000  0.18010000  1.0 -0.1103042373
C  C8  1  0.09890000  0.43170000  0.12440000  1.0 -0.0300641567
C  C9  1  0.92330000  0.21650000  0.21360000  1.0 0.1664111791
C  C10  1  0.95530000  0.18610000  0.28150000  1.0 -0.2039792677
C  C11  1  0.34405000  0.94295000  0.88060000  1.0 -0.0300641567
C  C12  1  0.35589000  0.07491000  0.81990000  1.0 -0.1103042373
C  C13  1  0.43170000  0.09890000  0.87560000  1.0 -0.0300641567
C  C14  1  0.21650000  0.92330000  0.78640000  1.0 0.1664111791
C  C15  1  0.18610000  0.95530000  0.71850000  1.0 -0.2039792677
C  C16  1  0.65595000  0.05705000  0.88060000  1.0 -0.0300641567
C  C17  1  0.64411000  0.92509000  0.81990000  1.0 -0.1103042373
C  C18  1  0.56830000  0.90110000  0.87560000  1.0 -0.0300641567
C  C19  1  0.78350000  0.07670000  0.78640000  1.0 0.1664111791
C  C20  1  0.81390000  0.04470000  0.71850000  1.0 -0.2039792677
C  C21  1  0.94295000  0.34405000  0.88060000  1.0 -0.0245836014
C  C22  1  0.07491000  0.35589000  0.81990000  1.0 -0.1103042373
C  C23  1  0.09890000  0.43170000  0.87560000  1.0 -0.0300641567
C  C24  1  0.92330000  0.21650000  0.78640000  1.0 0.1664111791
C  C25  1  0.95530000  0.18610000  0.71850000  1.0 -0.2039792677
C  C26  1  0.05705000  0.65595000  0.88060000  1.0 -0.0300641567
C  C27  1  0.92509000  0.64411000  0.81990000  1.0 -0.1103042373
C  C28  1  0.90110000  0.56830000  0.87560000  1.0 -0.0300641567
C  C29  1  0.07670000  0.78350000  0.78640000  1.0 0.1664111791
C  C30  1  0.04470000  0.81390000  0.71850000  1.0 -0.2039792677
C  C31  1  0.65595000  0.05705000  0.11940000  1.0 -0.0300641567
C  C32  1  0.64411000  0.92509000  0.18010000  1.0 -0.1103042373
C  C33  1  0.56830000  0.90110000  0.12440000  1.0 -0.0300641567
C  C34  1  0.78350000  0.07670000  0.21360000  1.0 0.1664111791
C  C35  1  0.81390000  0.04470000  0.28150000  1.0 -0.2039792677
C  C36  1  0.34405000  0.94295000  0.11940000  1.0 -0.0300641567
C  C37  1  0.35589000  0.07491000  0.18010000  1.0 -0.1103042373
C  C38  1  0.43170000  0.09890000  0.12440000  1.0 -0.0300641567
C  C39  1  0.21650000  0.92330000  0.21360000  1.0 0.1664111791
C  C40  1  0.18610000  0.95530000  0.28150000  1.0 -0.2039792677
C  C41  1  0.16300000  0.83700000  0.18120000  1.0 -0.2754419511
C  C42  1  0.09920000  0.90080000  0.31410000  1.0 0.0288766055
C  C43  1  0.06180000  0.93820000  0.38500000  1.0 0.5654950226
C  C44  1  0.83700000  0.16300000  0.18120000  1.0 -0.2745981878
C  C45  1  0.90080000  0.09920000  0.31410000  1.0 0.0288766055
C  C46  1  0.93820000  0.06180000  0.38500000  1.0 0.5654950226
C  C47  1  0.16300000  0.83700000  0.81880000  1.0 -0.2754419511
C  C48  1  0.09920000  0.90080000  0.68590000  1.0 0.0288766055
C  C49  1  0.06180000  0.93820000  0.61500000  1.0 0.5654950226
C  C50  1  0.83700000  0.16300000  0.81880000  1.0 -0.2745981878
C  C51  1  0.90080000  0.09920000  0.68590000  1.0 0.0288766055
C  C52  1  0.93820000  0.06180000  0.61500000  1.0 0.5654950226
N  N1  1  0.98263000  0.57557000  0.08690000  1.0 -0.3313600374
N  N2  1  0.02150000  0.69830000  0.17690000  1.0 0.013104473
N  N3  1  0.01737000  0.42443000  0.08690000  1.0 -0.3313600374
N  N4  1  0.97850000  0.30170000  0.17690000  1.0 0.013104473
N  N5  1  0.42443000  0.01737000  0.91310000  1.0 -0.3313600374
N  N6  1  0.30170000  0.97850000  0.82310000  1.0 0.013104473
N  N7  1  0.57557000  0.98263000  0.91310000  1.0 -0.3313600374
N  N8  1  0.69830000  0.02150000  0.82310000  1.0 0.013104473
N  N9  1  0.01737000  0.42443000  0.91310000  1.0 -0.3313600374
N  N10  1  0.97850000  0.30170000  0.82310000  1.0 0.013104473
N  N11  1  0.98263000  0.57557000  0.91310000  1.0 -0.3313600374
N  N12  1  0.02150000  0.69830000  0.82310000  1.0 0.013104473
N  N13  1  0.57557000  0.98263000  0.08690000  1.0 -0.3313600374
N  N14  1  0.69830000  0.02150000  0.17690000  1.0 0.013104473
N  N15  1  0.42443000  0.01737000  0.08690000  1.0 -0.3313600374
N  N16  1  0.30170000  0.97850000  0.17690000  1.0 0.013104473
O  O1  1  0.98408000  0.88572000  0.41080000  1.0 -0.5160935288
O  O2  1  0.01592000  0.11428000  0.41080000  1.0 -0.5160935288
O  O3  1  0.11428000  0.01592000  0.58920000  1.0 -0.5145962304
O  O4  1  0.88572000  0.98408000  0.58920000  1.0 -0.5145962304
O  O5  1  0.01592000  0.11428000  0.58920000  1.0 -0.5145962304
O  O6  1  0.98408000  0.88572000  0.58920000  1.0 -0.5145962304
O  O7  1  0.88572000  0.98408000  0.41080000  1.0 -0.5160935288
O  O8  1  0.11428000  0.01592000  0.41080000  1.0 -0.5160935288
