# DDEC6 charges by PACMAN v1.1 (https://github.com/mtap-research/PACMAN-charge/)
data_SEFBOV_ASR_pacman
_symmetry_space_group_name_H-M   'P 1'
_cell_length_a   10.29900000
_cell_length_b   11.82400000
_cell_length_c   20.37200000
_cell_angle_alpha   90.00000000
_cell_angle_beta   90.00000000
_cell_angle_gamma   90.00000000
_symmetry_Int_Tables_number   1
_chemical_formula_structural   Zn2H10C13O7
_chemical_formula_sum   'Zn8 H40 C52 O28'
_cell_volume   2480.80795987
_cell_formula_units_Z   4
loop_
 _symmetry_equiv_pos_site_id
 _symmetry_equiv_pos_as_xyz
  1  'x, y, z'
loop_
 _atom_site_type_symbol
 _atom_site_label
 _atom_site_symmetry_multiplicity
 _atom_site_fract_x
 _atom_site_fract_y
 _atom_site_fract_z
 _atom_site_occupancy
 _atom_site_charge
Zn  Zn1  1  0.96201000  0.08012000  0.99135000  1.0 0.9712929121
Zn  Zn2  1  0.53799000  0.91988000  0.49135000  1.0 0.9712929121
Zn  Zn3  1  0.03799000  0.58012000  0.50865000  1.0 0.9712929121
Zn  Zn4  1  0.46201000  0.41988000  0.00865000  1.0 0.9712929121
Zn  Zn5  1  0.64880000  0.17547000  0.99221000  1.0 0.9508413962
Zn  Zn6  1  0.85120000  0.82453000  0.49221000  1.0 0.9508413962
Zn  Zn7  1  0.35120000  0.67547000  0.50779000  1.0 0.9508413962
Zn  Zn8  1  0.14880000  0.32453000  0.00779000  1.0 0.9508413962
H  H1  1  0.74110000  0.47140000  0.01020000  1.0 0.0792937643
H  H2  1  0.75890000  0.52860000  0.51020000  1.0 0.0792937643
H  H3  1  0.25890000  0.97140000  0.48980000  1.0 0.0792937643
H  H4  1  0.24110000  0.02860000  0.98980000  1.0 0.0792937643
H  H5  1  0.65540000  0.45090000  0.11780000  1.0 0.1294746621
H  H6  1  0.84460000  0.54910000  0.61780000  1.0 0.1294746621
H  H7  1  0.34460000  0.95090000  0.38220000  1.0 0.1294746621
H  H8  1  0.15540000  0.04910000  0.88220000  1.0 0.1294746621
H  H9  1  0.80910000  0.44940000  0.12050000  1.0 0.1294746621
H  H10  1  0.69090000  0.55060000  0.62050000  1.0 0.1294746621
H  H11  1  0.19090000  0.94940000  0.37950000  1.0 0.1294746621
H  H12  1  0.30910000  0.05060000  0.87950000  1.0 0.1294746621
H  H13  1  0.73030000  0.33470000  0.12600000  1.0 0.1294746621
H  H14  1  0.76970000  0.66530000  0.62600000  1.0 0.1294746621
H  H15  1  0.26970000  0.83470000  0.37400000  1.0 0.1294746621
H  H16  1  0.23030000  0.16530000  0.87400000  1.0 0.1294746621
H  H17  1  0.95370000  0.99080000  0.78970000  1.0 0.1294746621
H  H18  1  0.54630000  0.00920000  0.28970000  1.0 0.1294746621
H  H19  1  0.04630000  0.49080000  0.71030000  1.0 0.1294746621
H  H20  1  0.45370000  0.50920000  0.21030000  1.0 0.1294746621
H  H21  1  0.59320000  0.11200000  0.79090000  1.0 0.0712391632
H  H22  1  0.90680000  0.88800000  0.29090000  1.0 0.0712391632
H  H23  1  0.40680000  0.61200000  0.70910000  1.0 0.0712391632
H  H24  1  0.09320000  0.38800000  0.20910000  1.0 0.0712391632
H  H25  1  0.57430000  0.07110000  0.68240000  1.0 0.0712391632
H  H26  1  0.92570000  0.92890000  0.18240000  1.0 0.0712391632
H  H27  1  0.42570000  0.57110000  0.81760000  1.0 0.0712391632
H  H28  1  0.07430000  0.42890000  0.31760000  1.0 0.0712391632
H  H29  1  0.93180000  0.95180000  0.67930000  1.0 0.1294746621
H  H30  1  0.56820000  0.04820000  0.17930000  1.0 0.1294746621
H  H31  1  0.06820000  0.45180000  0.82070000  1.0 0.1294746621
H  H32  1  0.43180000  0.54820000  0.32070000  1.0 0.1294746621
H  H33  1  0.57580000  0.02510000  0.80920000  1.0 0.0712391632
H  H34  1  0.92420000  0.97490000  0.30920000  1.0 0.0712391632
H  H35  1  0.42420000  0.52510000  0.69080000  1.0 0.0712391632
H  H36  1  0.07580000  0.47490000  0.19080000  1.0 0.0712391632
H  H37  1  0.95110000  0.01680000  0.19580000  1.0 0.0712391632
H  H38  1  0.54890000  0.98320000  0.69580000  1.0 0.0712391632
H  H39  1  0.04890000  0.51680000  0.30420000  1.0 0.0712391632
H  H40  1  0.45110000  0.48320000  0.80420000  1.0 0.0712391632
C  C1  1  0.85950000  0.33000000  0.01320000  1.0 0.5932209036
C  C2  1  0.64050000  0.67000000  0.51320000  1.0 0.5932209036
C  C3  1  0.14050000  0.83000000  0.48680000  1.0 0.5932209036
C  C4  1  0.35950000  0.17000000  0.98680000  1.0 0.5932209036
C  C5  1  0.73760000  0.39570000  0.03090000  1.0 0.0871031127
C  C6  1  0.76240000  0.60430000  0.53090000  1.0 0.0871031127
C  C7  1  0.26240000  0.89570000  0.46910000  1.0 0.0871031127
C  C8  1  0.23760000  0.10430000  0.96910000  1.0 0.0871031127
C  C9  1  0.73260000  0.40890000  0.10570000  1.0 -0.5002051377
C  C10  1  0.76740000  0.59110000  0.60570000  1.0 -0.5002051377
C  C11  1  0.26740000  0.90890000  0.39430000  1.0 -0.5002051377
C  C12  1  0.23260000  0.09110000  0.89430000  1.0 -0.5002051377
C  C13  1  0.78320000  0.06610000  0.87750000  1.0 0.576072014
C  C14  1  0.71680000  0.93390000  0.37750000  1.0 0.576072014
C  C15  1  0.21680000  0.56610000  0.62250000  1.0 0.576072014
C  C16  1  0.28320000  0.43390000  0.12250000  1.0 0.576072014
C  C17  1  0.76790000  0.03720000  0.80650000  1.0 -0.0279337111
C  C18  1  0.73210000  0.96280000  0.30650000  1.0 -0.0279337111
C  C19  1  0.23210000  0.53720000  0.69350000  1.0 -0.0279337111
C  C20  1  0.26790000  0.46280000  0.19350000  1.0 -0.0279337111
C  C21  1  0.87220000  0.99950000  0.76960000  1.0 -0.1589273148
C  C22  1  0.62780000  0.00050000  0.26960000  1.0 -0.1589273148
C  C23  1  0.12780000  0.49950000  0.73040000  1.0 -0.1589273148
C  C24  1  0.37220000  0.50050000  0.23040000  1.0 -0.1589273148
C  C25  1  0.65940000  0.07070000  0.77010000  1.0 -0.02102806
C  C26  1  0.84060000  0.92930000  0.27010000  1.0 -0.02102806
C  C27  1  0.34060000  0.57070000  0.72990000  1.0 -0.02102806
C  C28  1  0.15940000  0.42930000  0.22990000  1.0 -0.02102806
C  C29  1  0.72600000  0.94970000  0.60260000  1.0 0.576072014
C  C30  1  0.77400000  0.05030000  0.10260000  1.0 0.576072014
C  C31  1  0.27400000  0.44970000  0.89740000  1.0 0.576072014
C  C32  1  0.22600000  0.55030000  0.39740000  1.0 0.576072014
C  C33  1  0.74070000  0.98220000  0.67410000  1.0 -0.02102806
C  C34  1  0.75930000  0.01780000  0.17410000  1.0 -0.02102806
C  C35  1  0.25930000  0.48220000  0.82590000  1.0 -0.02102806
C  C36  1  0.24070000  0.51780000  0.32590000  1.0 -0.02102806
C  C37  1  0.64720000  0.04540000  0.70580000  1.0 -0.02102806
C  C38  1  0.85280000  0.95460000  0.20580000  1.0 -0.02102806
C  C39  1  0.35280000  0.54540000  0.79420000  1.0 -0.02102806
C  C40  1  0.14720000  0.45460000  0.29420000  1.0 -0.02102806
C  C41  1  0.85890000  0.97440000  0.70380000  1.0 -0.1668696412
C  C42  1  0.64110000  0.02560000  0.20380000  1.0 -0.1668696412
C  C43  1  0.14110000  0.47440000  0.79620000  1.0 -0.1668696412
C  C44  1  0.35890000  0.52560000  0.29620000  1.0 -0.1668696412
C  C45  1  0.64880000  0.01980000  0.78180000  1.0 -0.0089109376
C  C46  1  0.85120000  0.98020000  0.28180000  1.0 -0.0089109376
C  C47  1  0.35120000  0.51980000  0.71820000  1.0 -0.0089109376
C  C48  1  0.14880000  0.48020000  0.21820000  1.0 -0.0089109376
C  C49  1  0.86760000  0.00690000  0.21340000  1.0 -0.0043690446
C  C50  1  0.63240000  0.99310000  0.71340000  1.0 -0.0089109376
C  C51  1  0.13240000  0.50690000  0.28660000  1.0 -0.0089109376
C  C52  1  0.36760000  0.49310000  0.78660000  1.0 -0.0089109376
O  O1  1  0.84680000  0.22930000  0.99391000  1.0 -0.5935959526
O  O2  1  0.65320000  0.77070000  0.49391000  1.0 -0.5935959526
O  O3  1  0.15320000  0.72930000  0.50609000  1.0 -0.5935959526
O  O4  1  0.34680000  0.27070000  0.00609000  1.0 -0.5935959526
O  O5  1  0.62540000  0.33800000  0.00884000  1.0 -0.5969844618
O  O6  1  0.87460000  0.66200000  0.50884000  1.0 -0.5969844618
O  O7  1  0.37460000  0.83800000  0.49116000  1.0 -0.5969844618
O  O8  1  0.12540000  0.16200000  0.99116000  1.0 -0.5969844618
O  O9  1  0.96630000  0.38000000  0.01920000  1.0 -0.5002051377
O  O10  1  0.53370000  0.62000000  0.51920000  1.0 -0.5002051377
O  O11  1  0.03370000  0.88000000  0.48080000  1.0 -0.5002051377
O  O12  1  0.46630000  0.12000000  0.98080000  1.0 -0.5002051377
O  O13  1  0.88910000  0.04550000  0.90408000  1.0 -0.5476792285
O  O14  1  0.61090000  0.95450000  0.40408000  1.0 -0.5476792285
O  O15  1  0.11090000  0.54550000  0.59592000  1.0 -0.5476792285
O  O16  1  0.38910000  0.45450000  0.09592000  1.0 -0.5476792285
O  O17  1  0.68460000  0.10870000  0.90500000  1.0 -0.513143585
O  O18  1  0.81540000  0.89130000  0.40500000  1.0 -0.513143585
O  O19  1  0.31540000  0.60870000  0.59500000  1.0 -0.513143585
O  O20  1  0.18460000  0.39130000  0.09500000  1.0 -0.513143585
O  O21  1  0.61420000  0.95910000  0.57831000  1.0 -0.5394237263
O  O22  1  0.88580000  0.04090000  0.07831000  1.0 -0.5394237263
O  O23  1  0.38580000  0.45910000  0.92169000  1.0 -0.5394237263
O  O24  1  0.11420000  0.54090000  0.42169000  1.0 -0.5476792285
O  O25  1  0.82650000  0.91750000  0.57273000  1.0 -0.5394237263
O  O26  1  0.67350000  0.08250000  0.07273000  1.0 -0.5394237263
O  O27  1  0.17350000  0.41750000  0.92727000  1.0 -0.5394237263
O  O28  1  0.32650000  0.58250000  0.42727000  1.0 -0.5394237263
