# DDEC6 charges by PACMAN v1.1 (https://github.com/mtap-research/PACMAN-charge/)
data_SEFNIB_ion_pacman
_symmetry_space_group_name_H-M   'P 1'
_cell_length_a   32.81360000
_cell_length_b   31.69610000
_cell_length_c   10.04520000
_cell_angle_alpha   87.40620000
_cell_angle_beta   74.78650000
_cell_angle_gamma   17.80730000
_symmetry_Int_Tables_number   1
_chemical_formula_structural   ZnH18C17N4O11
_chemical_formula_sum   'Zn4 H72 C68 N16 O44'
_cell_volume   2221.85520676
_cell_formula_units_Z   4
loop_
 _symmetry_equiv_pos_site_id
 _symmetry_equiv_pos_as_xyz
  1  'x, y, z'
loop_
 _atom_site_type_symbol
 _atom_site_label
 _atom_site_symmetry_multiplicity
 _atom_site_fract_x
 _atom_site_fract_y
 _atom_site_fract_z
 _atom_site_occupancy
 _atom_site_charge
Zn  Zn1  1  0.70000000  0.76854000  0.10320000  1.0 0.9047334951
Zn  Zn2  1  0.42826000  0.10320000  0.76854000  1.0 0.9053563637
Zn  Zn3  1  0.48146000  0.55000000  0.82174000  1.0 0.9047334951
Zn  Zn4  1  0.14680000  0.82174000  0.55000000  1.0 0.9047334951
H  H1  1  0.99950000  0.91090000  0.98990000  1.0 0.159158164
H  H2  1  0.09970000  0.98990000  0.91090000  1.0 0.159158164
H  H3  1  0.33910000  0.25050000  0.15030000  1.0 0.159158164
H  H4  1  0.26010000  0.15030000  0.25050000  1.0 0.159158164
H  H5  1  0.92630000  0.66790000  0.30210000  1.0 0.159158164
H  H6  1  0.10370000  0.30210000  0.66790000  1.0 0.159158164
H  H7  1  0.58210000  0.32370000  0.14630000  1.0 0.159158164
H  H8  1  0.94790000  0.14630000  0.32370000  1.0 0.159158164
H  H9  1  0.16440000  0.68380000  0.27200000  1.0 0.1196493608
H  H10  1  0.87980000  0.27200000  0.68380000  1.0 0.1196493608
H  H11  1  0.56620000  0.08560000  0.37020000  1.0 0.1196493608
H  H12  1  0.97800000  0.37020000  0.08560000  1.0 0.1196493608
H  H13  1  0.03480000  0.87600000  0.35600000  1.0 0.152231687
H  H14  1  0.73320000  0.35600000  0.87600000  1.0 0.152231687
H  H15  1  0.37400000  0.21520000  0.51680000  1.0 0.152231687
H  H16  1  0.89400000  0.51680000  0.21520000  1.0 0.152231687
H  H17  1  0.02530000  0.72990000  0.17230000  1.0 0.1196493608
H  H18  1  0.07250000  0.17230000  0.72990000  1.0 0.1196493608
H  H19  1  0.52010000  0.22470000  0.17750000  1.0 0.1196493608
H  H20  1  0.07770000  0.17750000  0.22470000  1.0 0.1196493608
H  H21  1  0.11830000  0.64650000  0.96370000  1.0 0.1103923407
H  H22  1  0.27150000  0.96370000  0.64650000  1.0 0.1103923407
H  H23  1  0.60350000  0.13170000  0.97850000  1.0 0.1103923407
H  H24  1  0.28630000  0.97850000  0.13170000  1.0 0.1103923407
H  H25  1  0.18850000  0.50170000  0.78790000  1.0 0.1284970877
H  H26  1  0.52190000  0.78790000  0.50170000  1.0 0.1284970877
H  H27  1  0.74830000  0.06150000  0.72810000  1.0 0.1284970877
H  H28  1  0.46210000  0.72810000  0.06150000  1.0 0.1284970877
H  H29  1  0.02640000  0.59920000  0.85140000  1.0 0.1284970877
H  H30  1  0.52300000  0.85140000  0.59920000  1.0 0.1284970877
H  H31  1  0.65080000  0.22360000  0.72700000  1.0 0.1284970877
H  H32  1  0.39860000  0.72700000  0.22360000  1.0 0.1284970877
H  H33  1  0.12870000  0.71870000  0.89790000  1.0 0.1196493608
H  H34  1  0.25470000  0.89790000  0.71870000  1.0 0.1196493608
H  H35  1  0.53130000  0.12130000  0.99530000  1.0 0.1196493608
H  H36  1  0.35210000  0.99530000  0.12130000  1.0 0.1196493608
H  H37  1  0.84630000  0.11310000  0.22050000  1.0 0.152231687
H  H38  1  0.82010000  0.22050000  0.11310000  1.0 0.152231687
H  H39  1  0.13690000  0.40370000  0.42990000  1.0 0.152231687
H  H40  1  0.02950000  0.42990000  0.40370000  1.0 0.152231687
H  H41  1  0.86450000  0.09490000  0.36290000  1.0 0.152231687
H  H42  1  0.67770000  0.36290000  0.09490000  1.0 0.152231687
H  H43  1  0.15510000  0.38550000  0.57230000  1.0 0.152231687
H  H44  1  0.88710000  0.57230000  0.38550000  1.0 0.152231687
H  H45  1  0.07910000  0.57930000  0.25390000  1.0 0.1284970877
H  H46  1  0.08770000  0.25390000  0.57930000  1.0 0.1284970877
H  H47  1  0.67070000  0.17090000  0.16230000  1.0 0.1284970877
H  H48  1  0.99610000  0.16230000  0.17090000  1.0 0.1284970877
H  H49  1  0.30030000  0.42070000  0.04270000  1.0 0.1103923407
H  H50  1  0.23630000  0.04270000  0.42070000  1.0 0.1103923407
H  H51  1  0.82930000  0.94970000  0.01370000  1.0 0.1103923407
H  H52  1  0.20730000  0.01370000  0.94970000  1.0 0.1103923407
H  H53  1  0.37920000  0.34900000  0.84000000  1.0 0.1196493608
H  H54  1  0.43180000  0.84000000  0.34900000  1.0 0.1196493608
H  H55  1  0.90100000  0.87080000  0.81820000  1.0 0.1196493608
H  H56  1  0.41000000  0.81820000  0.87080000  1.0 0.1196493608
H  H57  1  0.80110000  0.74790000  0.23250000  1.0 0.159158164
H  H58  1  0.21850000  0.23250000  0.74790000  1.0 0.159158164
H  H59  1  0.50210000  0.44890000  0.03150000  1.0 0.159158164
H  H60  1  0.01750000  0.03150000  0.44890000  1.0 0.159158164
H  H61  1  0.78420000  0.78340000  0.09800000  1.0 0.152231687
H  H62  1  0.33440000  0.09800000  0.78340000  1.0 0.152231687
H  H63  1  0.46660000  0.46580000  0.91560000  1.0 0.152231687
H  H64  1  0.15200000  0.91560000  0.46580000  1.0 0.152231687
H  H65  1  0.37830000  0.42730000  0.86990000  1.0 0.1196493608
H  H66  1  0.32450000  0.86990000  0.42730000  1.0 0.1196493608
H  H67  1  0.82270000  0.87170000  0.92550000  1.0 0.1196493608
H  H68  1  0.38010000  0.92550000  0.87170000  1.0 0.1196493608
H  H69  1  0.29810000  0.49610000  0.07090000  1.0 0.1103923407
H  H70  1  0.13490000  0.07090000  0.49610000  1.0 0.1103923407
H  H71  1  0.75390000  0.95190000  0.11510000  1.0 0.1103923407
H  H72  1  0.17910000  0.11510000  0.95190000  1.0 0.1103923407
C  C1  1  0.09060000  0.90434000  0.10606000  1.0 0.6366835994
C  C2  1  0.89900000  0.10606000  0.90434000  1.0 0.6366835994
C  C3  1  0.34566000  0.15940000  0.35100000  1.0 0.6366835994
C  C4  1  0.14394000  0.35100000  0.15940000  1.0 0.6366835994
C  C5  1  0.02143000  0.51377000  0.95463000  1.0 0.6630243373
C  C6  1  0.51017000  0.95463000  0.51377000  1.0 0.6630243373
C  C7  1  0.73623000  0.22857000  0.73983000  1.0 0.6630243373
C  C8  1  0.29537000  0.73983000  0.22857000  1.0 0.6630243373
C  C9  1  0.03391000  0.86363000  0.04557000  1.0 -0.1620964296
C  C10  1  0.05689000  0.04557000  0.86363000  1.0 -0.1620964296
C  C11  1  0.38637000  0.21609000  0.19311000  1.0 -0.1620964296
C  C12  1  0.20443000  0.19311000  0.21609000  1.0 -0.1620964296
C  C13  1  0.97870000  0.63510000  0.19950000  1.0 -0.1412926378
C  C14  1  0.18670000  0.19950000  0.63510000  1.0 -0.1412926378
C  C15  1  0.61490000  0.27130000  0.06330000  1.0 -0.1412926378
C  C16  1  0.05050000  0.06330000  0.27130000  1.0 -0.1412926378
C  C17  1  0.00665000  0.90951000  0.18009000  1.0 0.1675153685
C  C18  1  0.90375000  0.18009000  0.90951000  1.0 0.1675153685
C  C19  1  0.34049000  0.24335000  0.34625000  1.0 0.1675153685
C  C20  1  0.06991000  0.34625000  0.24335000  1.0 0.1675153685
C  C21  1  0.96425000  0.64049000  0.08131000  1.0 0.159158164
C  C22  1  0.31395000  0.08131000  0.64049000  1.0 0.159158164
C  C23  1  0.60951000  0.28575000  0.93605000  1.0 0.159158164
C  C24  1  0.16869000  0.93605000  0.28575000  1.0 0.159158164
C  C25  1  0.13306000  0.72736000  0.21244000  1.0 -0.0074556405
C  C26  1  0.92714000  0.21244000  0.72736000  1.0 -0.0074556405
C  C27  1  0.52264000  0.11694000  0.32286000  1.0 -0.0074556405
C  C28  1  0.03756000  0.32286000  0.11694000  1.0 -0.0074556405
C  C29  1  0.05533000  0.84223000  0.26257000  1.0 -0.1620964296
C  C30  1  0.83987000  0.26257000  0.84223000  1.0 -0.1620964296
C  C31  1  0.40777000  0.19467000  0.41013000  1.0 -0.1620964296
C  C32  1  0.98743000  0.41013000  0.19467000  1.0 -0.1620964296
C  C33  1  0.14578000  0.61488000  0.03812000  1.0 -0.2163140873
C  C34  1  0.20122000  0.03812000  0.61488000  1.0 -0.2163140873
C  C35  1  0.63512000  0.10422000  0.04878000  1.0 -0.2163140873
C  C36  1  0.21188000  0.04878000  0.10422000  1.0 -0.2163140873
C  C37  1  0.13575000  0.53543000  0.89257000  1.0 -0.0461894597
C  C38  1  0.43625000  0.89257000  0.53543000  1.0 -0.0461894597
C  C39  1  0.71457000  0.11425000  0.81375000  1.0 -0.0461894597
C  C40  1  0.35743000  0.81375000  0.11425000  1.0 -0.0461894597
C  C41  1  0.03958000  0.59298000  0.93062000  1.0 -0.1620964296
C  C42  1  0.43682000  0.93062000  0.59298000  1.0 -0.1620964296
C  C43  1  0.65702000  0.21042000  0.81318000  1.0 -0.1620964296
C  C44  1  0.31938000  0.81318000  0.21042000  1.0 -0.1620964296
C  C45  1  0.11184000  0.74816000  0.99044000  1.0 -0.0030568475
C  C46  1  0.14956000  0.99044000  0.74816000  1.0 -0.0030568475
C  C47  1  0.50184000  0.13816000  0.10044000  1.0 -0.0030568475
C  C48  1  0.25956000  0.10044000  0.13816000  1.0 -0.0030568475
C  C49  1  0.93519000  0.02221000  0.23039000  1.0 -0.3895235459
C  C50  1  0.81221000  0.23039000  0.02221000  1.0 -0.3895235459
C  C51  1  0.22779000  0.31481000  0.43779000  1.0 -0.3895235459
C  C52  1  0.01961000  0.43779000  0.31481000  1.0 -0.3895235459
C  C53  1  0.07179000  0.58057000  0.16943000  1.0 0.0338833121
C  C54  1  0.17821000  0.16943000  0.58057000  1.0 0.0338833121
C  C55  1  0.66943000  0.17821000  0.07179000  1.0 0.0338833121
C  C56  1  0.08057000  0.07179000  0.17821000  1.0 0.0338833121
C  C57  1  0.26320000  0.45992000  0.97628000  1.0 -0.1113251882
C  C58  1  0.30060000  0.97628000  0.45992000  1.0 -0.1113251882
C  C59  1  0.79008000  0.98680000  0.94940000  1.0 -0.1113251882
C  C60  1  0.27372000  0.94940000  0.98680000  1.0 -0.1113251882
C  C61  1  0.87318000  0.69008000  0.10632000  1.0 -0.408430739
C  C62  1  0.33042000  0.10632000  0.69008000  1.0 -0.408430739
C  C63  1  0.55992000  0.37682000  0.91958000  1.0 -0.408430739
C  C64  1  0.14368000  0.91958000  0.37682000  1.0 -0.408430739
C  C65  1  0.26143000  0.53887000  0.00573000  1.0 -0.1113251882
C  C66  1  0.19397000  0.00573000  0.53887000  1.0 -0.1113251882
C  C67  1  0.71113000  0.98857000  0.05603000  1.0 -0.1113251882
C  C68  1  0.24427000  0.05603000  0.98857000  1.0 -0.1113251882
N  N1  1  0.16699000  0.67283000  0.06937000  1.0 0.0412775513
N  N2  1  0.09081000  0.06937000  0.67283000  1.0 0.0412775513
N  N3  1  0.57717000  0.08301000  0.15919000  1.0 0.0412775513
N  N4  1  0.18063000  0.15919000  0.08301000  1.0 0.0412775513
N  N5  1  0.15277000  0.52879000  0.01861000  1.0 0.0589406838
N  N6  1  0.29983000  0.01861000  0.52879000  1.0 0.0589406838
N  N7  1  0.72121000  0.09723000  0.95017000  1.0 0.0589406838
N  N8  1  0.23139000  0.95017000  0.09723000  1.0 0.0589406838
N  N9  1  0.69222000  0.69168000  0.08672000  1.0 0.6535968346
N  N10  1  0.52938000  0.08672000  0.69168000  1.0 0.6535968346
N  N11  1  0.55832000  0.55778000  0.72062000  1.0 0.6535968346
N  N12  1  0.16328000  0.72062000  0.55778000  1.0 0.6535968346
N  N13  1  0.58249000  0.53085000  0.33035000  1.0 0.6745729608
N  N14  1  0.55631000  0.33035000  0.53085000  1.0 0.6745729608
N  N15  1  0.71915000  0.66751000  0.69369000  1.0 0.6745729608
N  N16  1  0.91965000  0.69369000  0.66751000  1.0 0.6745729608
O  O1  1  0.95864000  0.54040000  0.96344000  1.0 -0.5221227842
O  O2  1  0.53752000  0.96344000  0.54040000  1.0 -0.5221227842
O  O3  1  0.70960000  0.29136000  0.71248000  1.0 -0.5221227842
O  O4  1  0.28656000  0.71248000  0.29136000  1.0 -0.5221227842
O  O5  1  0.19370000  0.35646000  0.83072000  1.0 -0.5465487677
O  O6  1  0.61912000  0.83072000  0.35646000  1.0 -0.5465487677
O  O7  1  0.89354000  0.05630000  0.63088000  1.0 -0.5465487677
O  O8  1  0.41928000  0.63088000  0.05630000  1.0 -0.5465487677
O  O9  1  0.26118000  0.72592000  0.97328000  1.0 -0.5221227842
O  O10  1  0.03962000  0.97328000  0.72592000  1.0 -0.5221227842
O  O11  1  0.52408000  0.98882000  0.21038000  1.0 -0.5221227842
O  O12  1  0.27672000  0.21038000  0.98882000  1.0 -0.5221227842
O  O13  1  0.83304000  0.57472000  0.02388000  1.0 -0.3800488922
O  O14  1  0.56836000  0.02388000  0.57472000  1.0 -0.3800488922
O  O15  1  0.67528000  0.41696000  0.68164000  1.0 -0.3800488922
O  O16  1  0.22612000  0.68164000  0.41696000  1.0 -0.3800488922
O  O17  1  0.03525000  0.99531000  0.14649000  1.0 -0.5280610162
O  O18  1  0.82295000  0.14649000  0.99531000  1.0 -0.5280610162
O  O19  1  0.25469000  0.21475000  0.42705000  1.0 -0.5280610162
O  O20  1  0.10351000  0.42705000  0.21475000  1.0 -0.5280610162
O  O21  1  0.54707000  0.85465000  0.15695000  1.0 -0.408430739
O  O22  1  0.44133000  0.15695000  0.85465000  1.0 -0.408430739
O  O23  1  0.39535000  0.70293000  0.80867000  1.0 -0.408430739
O  O24  1  0.09305000  0.80867000  0.70293000  1.0 -0.408430739
O  O25  1  0.78482000  0.68688000  0.83972000  1.0 0.0806262561
O  O26  1  0.68858000  0.83972000  0.68688000  1.0 0.0806262561
O  O27  1  0.56312000  0.46518000  0.56142000  1.0 0.0806262561
O  O28  1  0.41028000  0.56142000  0.46518000  1.0 0.0806262561
O  O29  1  0.69974000  0.64624000  0.08176000  1.0 -0.3895235459
O  O30  1  0.57226000  0.08176000  0.64624000  1.0 -0.3895235459
O  O31  1  0.60376000  0.55026000  0.67774000  1.0 -0.3895235459
O  O32  1  0.16824000  0.67774000  0.55026000  1.0 -0.3895235459
O  O33  1  0.60910000  0.53724000  0.24096000  1.0 -0.4589050698
O  O34  1  0.45866000  0.62558000  0.38862000  1.0 -0.3992591935
O  O35  1  0.68860000  0.41906000  0.35274000  1.0 -0.3992591935
O  O36  1  0.61270000  0.24096000  0.53724000  1.0 -0.4589050698
O  O37  1  0.52714000  0.38862000  0.62558000  1.0 -0.3992591935
O  O38  1  0.53960000  0.35274000  0.41906000  1.0 -0.3992591935
O  O39  1  0.71276000  0.64090000  0.63730000  1.0 -0.4589050698
O  O40  1  0.62442000  0.79134000  0.72286000  1.0 -0.3992591935
O  O41  1  0.83094000  0.56140000  0.71040000  1.0 -0.3992591935
O  O42  1  0.00904000  0.63730000  0.64090000  1.0 -0.4589050698
O  O43  1  0.86138000  0.72286000  0.79134000  1.0 -0.3992591935
O  O44  1  0.89726000  0.71040000  0.56140000  1.0 -0.3992591935
