# DDEC6 charges by PACMAN v1.1 (https://github.com/mtap-research/PACMAN-charge/)
data_SEHJAU_FSR_pacman
_symmetry_space_group_name_H-M   'P 1'
_cell_length_a   16.60300000
_cell_length_b   16.60300000
_cell_length_c   33.66870000
_cell_angle_alpha   90.00000000
_cell_angle_beta   90.00000000
_cell_angle_gamma   114.65000000
_symmetry_Int_Tables_number   1
_chemical_formula_structural   ZnH16C28N2O5
_chemical_formula_sum   'Zn8 H128 C224 N16 O40'
_cell_volume   8435.33707679
_cell_formula_units_Z   8
loop_
 _symmetry_equiv_pos_site_id
 _symmetry_equiv_pos_as_xyz
  1  'x, y, z'
loop_
 _atom_site_type_symbol
 _atom_site_label
 _atom_site_symmetry_multiplicity
 _atom_site_fract_x
 _atom_site_fract_y
 _atom_site_fract_z
 _atom_site_occupancy
 _atom_site_charge
Zn  Zn1  1  0.50000000  0.00000000  0.92729000  1.0 0.8530428924
Zn  Zn2  1  0.50000000  0.00000000  0.42729000  1.0 0.8530428924
Zn  Zn3  1  0.50000000  0.50000000  0.17721000  1.0 0.650335855
Zn  Zn4  1  0.00000000  0.00000000  0.67721000  1.0 0.650335855
Zn  Zn5  1  0.00000000  0.50000000  0.07271000  1.0 0.8530428924
Zn  Zn6  1  0.00000000  0.50000000  0.57271000  1.0 0.8530428924
Zn  Zn7  1  0.50000000  0.50000000  0.82279000  1.0 0.650335855
Zn  Zn8  1  0.00000000  0.00000000  0.32279000  1.0 0.650335855
H  H1  1  0.41031000  0.75315000  0.00039000  1.0 0.1199181431
H  H2  1  0.39776000  0.65102000  0.04922000  1.0 0.1199181431
H  H3  1  0.63955000  0.80463000  0.08810000  1.0 0.1142020823
H  H4  1  0.65491000  0.90583000  0.03858000  1.0 0.1199181431
H  H5  1  0.50713000  0.57635000  0.02959000  1.0 0.1199181431
H  H6  1  0.51281000  0.80507000  0.14126000  1.0 0.1199181431
H  H7  1  0.49784000  0.79860000  0.21374000  1.0 0.1142020823
H  H8  1  0.49496000  0.57094000  0.32524000  1.0 0.1199181431
H  H9  1  0.61576000  0.77810000  0.28963000  1.0 0.0913893635
H  H10  1  0.59218000  0.86092000  0.34116000  1.0 0.0998800706
H  H11  1  0.32980000  0.73556000  0.32930000  1.0 0.0680251666
H  H12  1  0.35201000  0.64605000  0.28218000  1.0 0.0913893635
H  H13  1  0.59882000  0.80950000  0.27414000  1.0 0.0913893635
H  H14  1  0.58551000  0.89317000  0.32792000  1.0 0.0913893635
H  H15  1  0.34447000  0.69605000  0.34971000  1.0 0.0680251666
H  H16  1  0.36099000  0.61199000  0.29718000  1.0 0.0824363829
H  H17  1  0.58969000  0.24685000  0.00039000  1.0 0.1199181431
H  H18  1  0.60224000  0.34898000  0.04922000  1.0 0.1199181431
H  H19  1  0.36045000  0.19537000  0.08810000  1.0 0.1142020823
H  H20  1  0.34509000  0.09417000  0.03858000  1.0 0.1199181431
H  H21  1  0.49287000  0.42365000  0.02959000  1.0 0.1199181431
H  H22  1  0.48719000  0.19493000  0.14126000  1.0 0.1199181431
H  H23  1  0.50216000  0.20140000  0.21374000  1.0 0.1142020823
H  H24  1  0.50504000  0.42906000  0.32524000  1.0 0.1199181431
H  H25  1  0.38424000  0.22190000  0.28963000  1.0 0.0913893635
H  H26  1  0.40782000  0.13908000  0.34116000  1.0 0.0998800706
H  H27  1  0.67020000  0.26444000  0.32930000  1.0 0.0680251666
H  H28  1  0.64799000  0.35395000  0.28218000  1.0 0.0913893635
H  H29  1  0.40118000  0.19050000  0.27414000  1.0 0.0913893635
H  H30  1  0.41449000  0.10683000  0.32792000  1.0 0.0913893635
H  H31  1  0.65553000  0.30395000  0.34971000  1.0 0.0680251666
H  H32  1  0.63901000  0.38801000  0.29718000  1.0 0.0824363829
H  H33  1  0.74685000  0.08969000  0.50039000  1.0 0.1199181431
H  H34  1  0.84898000  0.10224000  0.54922000  1.0 0.1199181431
H  H35  1  0.69537000  0.86045000  0.58810000  1.0 0.1142020823
H  H36  1  0.59417000  0.84509000  0.53858000  1.0 0.1199181431
H  H37  1  0.92365000  0.99287000  0.52959000  1.0 0.1199181431
H  H38  1  0.69493000  0.98719000  0.64126000  1.0 0.1199181431
H  H39  1  0.70140000  0.00216000  0.71374000  1.0 0.1142020823
H  H40  1  0.92906000  0.00504000  0.82524000  1.0 0.1199181431
H  H41  1  0.72190000  0.88424000  0.78963000  1.0 0.0913893635
H  H42  1  0.63908000  0.90782000  0.84116000  1.0 0.0998800706
H  H43  1  0.76444000  0.17020000  0.82930000  1.0 0.0680251666
H  H44  1  0.85395000  0.14799000  0.78218000  1.0 0.0913893635
H  H45  1  0.69050000  0.90118000  0.77414000  1.0 0.0913893635
H  H46  1  0.60683000  0.91449000  0.82792000  1.0 0.0913893635
H  H47  1  0.80395000  0.15553000  0.84971000  1.0 0.0680251666
H  H48  1  0.88801000  0.13901000  0.79718000  1.0 0.0824363829
H  H49  1  0.25315000  0.91031000  0.50039000  1.0 0.1199181431
H  H50  1  0.15102000  0.89776000  0.54922000  1.0 0.1199181431
H  H51  1  0.30463000  0.13955000  0.58810000  1.0 0.1142020823
H  H52  1  0.40583000  0.15491000  0.53858000  1.0 0.1199181431
H  H53  1  0.07635000  0.00713000  0.52959000  1.0 0.1199181431
H  H54  1  0.30507000  0.01281000  0.64126000  1.0 0.1199181431
H  H55  1  0.29860000  0.99784000  0.71374000  1.0 0.1142020823
H  H56  1  0.07094000  0.99496000  0.82524000  1.0 0.1199181431
H  H57  1  0.27810000  0.11576000  0.78963000  1.0 0.0913893635
H  H58  1  0.36092000  0.09218000  0.84116000  1.0 0.0998800706
H  H59  1  0.23556000  0.82980000  0.82930000  1.0 0.0680251666
H  H60  1  0.14605000  0.85201000  0.78218000  1.0 0.0913893635
H  H61  1  0.30950000  0.09882000  0.77414000  1.0 0.0913893635
H  H62  1  0.39317000  0.08551000  0.82792000  1.0 0.0913893635
H  H63  1  0.19605000  0.84447000  0.84971000  1.0 0.0680251666
H  H64  1  0.11199000  0.86099000  0.79718000  1.0 0.0824363829
H  H65  1  0.75315000  0.41031000  0.99961000  1.0 0.1199181431
H  H66  1  0.65102000  0.39776000  0.95078000  1.0 0.1199181431
H  H67  1  0.80463000  0.63955000  0.91190000  1.0 0.1142020823
H  H68  1  0.90583000  0.65491000  0.96142000  1.0 0.1199181431
H  H69  1  0.57635000  0.50713000  0.97041000  1.0 0.1199181431
H  H70  1  0.80507000  0.51281000  0.85874000  1.0 0.1199181431
H  H71  1  0.79860000  0.49784000  0.78626000  1.0 0.1142020823
H  H72  1  0.57094000  0.49496000  0.67476000  1.0 0.1199181431
H  H73  1  0.77810000  0.61576000  0.71037000  1.0 0.0913893635
H  H74  1  0.86092000  0.59218000  0.65884000  1.0 0.0998800706
H  H75  1  0.73556000  0.32980000  0.67070000  1.0 0.0680251666
H  H76  1  0.64605000  0.35201000  0.71782000  1.0 0.0913893635
H  H77  1  0.80950000  0.59882000  0.72586000  1.0 0.0913893635
H  H78  1  0.89317000  0.58551000  0.67208000  1.0 0.0913893635
H  H79  1  0.69605000  0.34447000  0.65029000  1.0 0.0680251666
H  H80  1  0.61199000  0.36099000  0.70282000  1.0 0.0824363829
H  H81  1  0.24685000  0.58969000  0.99961000  1.0 0.1199181431
H  H82  1  0.34898000  0.60224000  0.95078000  1.0 0.1199181431
H  H83  1  0.19537000  0.36045000  0.91190000  1.0 0.1142020823
H  H84  1  0.09417000  0.34509000  0.96142000  1.0 0.1199181431
H  H85  1  0.42365000  0.49287000  0.97041000  1.0 0.1199181431
H  H86  1  0.19493000  0.48719000  0.85874000  1.0 0.1199181431
H  H87  1  0.20140000  0.50216000  0.78626000  1.0 0.1142020823
H  H88  1  0.42906000  0.50504000  0.67476000  1.0 0.1199181431
H  H89  1  0.22190000  0.38424000  0.71037000  1.0 0.0913893635
H  H90  1  0.13908000  0.40782000  0.65884000  1.0 0.0998800706
H  H91  1  0.26444000  0.67020000  0.67070000  1.0 0.0680251666
H  H92  1  0.35395000  0.64799000  0.71782000  1.0 0.0913893635
H  H93  1  0.19050000  0.40118000  0.72586000  1.0 0.0913893635
H  H94  1  0.10683000  0.41449000  0.67208000  1.0 0.0913893635
H  H95  1  0.30395000  0.65553000  0.65029000  1.0 0.0680251666
H  H96  1  0.38801000  0.63901000  0.70282000  1.0 0.0824363829
H  H97  1  0.08969000  0.74685000  0.49961000  1.0 0.1199181431
H  H98  1  0.10224000  0.84898000  0.45078000  1.0 0.1199181431
H  H99  1  0.86045000  0.69537000  0.41190000  1.0 0.1142020823
H  H100  1  0.84509000  0.59417000  0.46142000  1.0 0.1199181431
H  H101  1  0.99287000  0.92365000  0.47041000  1.0 0.1199181431
H  H102  1  0.98719000  0.69493000  0.35874000  1.0 0.1199181431
H  H103  1  0.00216000  0.70140000  0.28626000  1.0 0.1142020823
H  H104  1  0.00504000  0.92906000  0.17476000  1.0 0.1199181431
H  H105  1  0.88424000  0.72190000  0.21037000  1.0 0.0913893635
H  H106  1  0.90782000  0.63908000  0.15884000  1.0 0.0998800706
H  H107  1  0.17020000  0.76444000  0.17070000  1.0 0.0680251666
H  H108  1  0.14799000  0.85395000  0.21782000  1.0 0.0913893635
H  H109  1  0.90118000  0.69050000  0.22586000  1.0 0.0913893635
H  H110  1  0.91449000  0.60683000  0.17208000  1.0 0.0913893635
H  H111  1  0.15553000  0.80395000  0.15029000  1.0 0.0680251666
H  H112  1  0.13901000  0.88801000  0.20282000  1.0 0.0824363829
H  H113  1  0.91031000  0.25315000  0.49961000  1.0 0.1199181431
H  H114  1  0.89776000  0.15102000  0.45078000  1.0 0.1199181431
H  H115  1  0.13955000  0.30463000  0.41190000  1.0 0.1142020823
H  H116  1  0.15491000  0.40583000  0.46142000  1.0 0.1199181431
H  H117  1  0.00713000  0.07635000  0.47041000  1.0 0.1199181431
H  H118  1  0.01281000  0.30507000  0.35874000  1.0 0.1199181431
H  H119  1  0.99784000  0.29860000  0.28626000  1.0 0.1142020823
H  H120  1  0.99496000  0.07094000  0.17476000  1.0 0.1199181431
H  H121  1  0.11576000  0.27810000  0.21037000  1.0 0.0913893635
H  H122  1  0.09218000  0.36092000  0.15884000  1.0 0.0998800706
H  H123  1  0.82980000  0.23556000  0.17070000  1.0 0.0680251666
H  H124  1  0.85201000  0.14605000  0.21782000  1.0 0.0913893635
H  H125  1  0.09882000  0.30950000  0.22586000  1.0 0.0913893635
H  H126  1  0.08551000  0.39317000  0.17208000  1.0 0.0913893635
H  H127  1  0.84447000  0.19605000  0.15029000  1.0 0.0680251666
H  H128  1  0.86099000  0.11199000  0.20282000  1.0 0.0824363829
C  C1  1  0.54237000  0.90923000  0.98373000  1.0 0.5477540932
C  C2  1  0.53335000  0.84085000  0.01458000  1.0 -0.0109366921
C  C3  1  0.45700000  0.76400000  0.01791000  1.0 -0.092275343
C  C4  1  0.44952000  0.70268000  0.04733000  1.0 -0.1568362199
C  C5  1  0.51718000  0.71702000  0.07363000  1.0 0.0680251666
C  C6  1  0.59341000  0.79379000  0.07028000  1.0 -0.1474952854
C  C7  1  0.60239000  0.85501000  0.04081000  1.0 -0.092275343
C  C8  1  0.50374000  0.54186000  0.05184000  1.0 -0.1897138542
C  C9  1  0.50570000  0.56850000  0.09267000  1.0 0.180794168
C  C10  1  0.51076000  0.65084000  0.10527000  1.0 -0.0799136075
C  C11  1  0.51037000  0.67643000  0.14479000  1.0 0.180794168
C  C12  1  0.50918000  0.75842000  0.15753000  1.0 -0.1897138542
C  C13  1  0.50173000  0.75527000  0.19736000  1.0 -0.2187081043
C  C14  1  0.50094000  0.67246000  0.20969000  1.0 0.180794168
C  C15  1  0.49498000  0.64442000  0.24951000  1.0 -0.1401483461
C  C16  1  0.49691000  0.56489000  0.26184000  1.0 0.180794168
C  C17  1  0.49750000  0.53890000  0.30298000  1.0 -0.2272125062
C  C18  1  0.48409000  0.70231000  0.28080000  1.0 0.0111869494
C  C19  1  0.45923000  0.80437000  0.34108000  1.0 -0.1106114116
C  C20  1  0.44500000  0.86200000  0.37391000  1.0 0.408034227
C  C21  1  0.55890000  0.76770000  0.29790000  1.0 -0.0109366921
C  C22  1  0.54360000  0.81740000  0.32870000  1.0 -0.0388688976
C  C23  1  0.38670000  0.74270000  0.32270000  1.0 -0.0109366921
C  C24  1  0.40120000  0.69100000  0.29370000  1.0 -0.0388688976
C  C25  1  0.54790000  0.78650000  0.28970000  1.0 -0.0308774244
C  C26  1  0.54000000  0.83900000  0.32110000  1.0 -0.0579307807
C  C27  1  0.39490000  0.71910000  0.33380000  1.0 -0.0109366921
C  C28  1  0.40530000  0.66770000  0.30290000  1.0 -0.0109366921
C  C29  1  0.45763000  0.09077000  0.98373000  1.0 0.5477540932
C  C30  1  0.46665000  0.15915000  0.01458000  1.0 -0.0183788927
C  C31  1  0.54300000  0.23600000  0.01791000  1.0 -0.092275343
C  C32  1  0.55048000  0.29732000  0.04733000  1.0 -0.1568362199
C  C33  1  0.48282000  0.28298000  0.07363000  1.0 0.0680251666
C  C34  1  0.40659000  0.20621000  0.07028000  1.0 -0.1474952854
C  C35  1  0.39761000  0.14499000  0.04081000  1.0 -0.0799136075
C  C36  1  0.49626000  0.45814000  0.05184000  1.0 -0.1897138542
C  C37  1  0.49430000  0.43150000  0.09267000  1.0 0.180794168
C  C38  1  0.48924000  0.34916000  0.10527000  1.0 -0.0799136075
C  C39  1  0.48963000  0.32357000  0.14479000  1.0 0.180794168
C  C40  1  0.49082000  0.24158000  0.15753000  1.0 -0.1897138542
C  C41  1  0.49827000  0.24473000  0.19736000  1.0 -0.2187081043
C  C42  1  0.49906000  0.32754000  0.20969000  1.0 0.180794168
C  C43  1  0.50502000  0.35558000  0.24951000  1.0 -0.1401483461
C  C44  1  0.50309000  0.43511000  0.26184000  1.0 0.180794168
C  C45  1  0.50250000  0.46110000  0.30298000  1.0 -0.2272125062
C  C46  1  0.51591000  0.29769000  0.28080000  1.0 0.0034315711
C  C47  1  0.54077000  0.19563000  0.34108000  1.0 -0.1036872846
C  C48  1  0.55500000  0.13800000  0.37391000  1.0 0.408034227
C  C49  1  0.44110000  0.23230000  0.29790000  1.0 -0.0109366921
C  C50  1  0.45640000  0.18260000  0.32870000  1.0 -0.0308774244
C  C51  1  0.61330000  0.25730000  0.32270000  1.0 -0.003016109
C  C52  1  0.59880000  0.30900000  0.29370000  1.0 -0.0388688976
C  C53  1  0.45210000  0.21350000  0.28970000  1.0 -0.0308774244
C  C54  1  0.46000000  0.16100000  0.32110000  1.0 -0.0579307807
C  C55  1  0.60510000  0.28090000  0.33380000  1.0 -0.003016109
C  C56  1  0.59470000  0.33230000  0.30290000  1.0 -0.0109366921
C  C57  1  0.59077000  0.95763000  0.48373000  1.0 0.5477540932
C  C58  1  0.65915000  0.96665000  0.51458000  1.0 -0.0109366921
C  C59  1  0.73600000  0.04300000  0.51791000  1.0 -0.092275343
C  C60  1  0.79732000  0.05048000  0.54733000  1.0 -0.1568362199
C  C61  1  0.78298000  0.98282000  0.57363000  1.0 0.0680251666
C  C62  1  0.70621000  0.90659000  0.57028000  1.0 -0.1474952854
C  C63  1  0.64499000  0.89761000  0.54081000  1.0 -0.0799136075
C  C64  1  0.95814000  0.99626000  0.55184000  1.0 -0.1897138542
C  C65  1  0.93150000  0.99430000  0.59267000  1.0 0.180794168
C  C66  1  0.84916000  0.98924000  0.60527000  1.0 -0.0799136075
C  C67  1  0.82357000  0.98963000  0.64479000  1.0 0.180794168
C  C68  1  0.74158000  0.99082000  0.65753000  1.0 -0.1897138542
C  C69  1  0.74473000  0.99827000  0.69736000  1.0 -0.2187081043
C  C70  1  0.82754000  0.99906000  0.70969000  1.0 0.180794168
C  C71  1  0.85558000  0.00502000  0.74951000  1.0 -0.1401483461
C  C72  1  0.93511000  0.00309000  0.76184000  1.0 0.180794168
C  C73  1  0.96110000  0.00250000  0.80298000  1.0 -0.2272125062
C  C74  1  0.79769000  0.01591000  0.78080000  1.0 0.0034315711
C  C75  1  0.69563000  0.04077000  0.84108000  1.0 -0.1106114116
C  C76  1  0.63800000  0.05500000  0.87391000  1.0 0.408034227
C  C77  1  0.73230000  0.94110000  0.79790000  1.0 -0.0183788927
C  C78  1  0.68260000  0.95640000  0.82870000  1.0 -0.0388688976
C  C79  1  0.75730000  0.11330000  0.82270000  1.0 -0.0109366921
C  C80  1  0.80900000  0.09880000  0.79370000  1.0 -0.0308774244
C  C81  1  0.71350000  0.95210000  0.78970000  1.0 -0.0308774244
C  C82  1  0.66100000  0.96000000  0.82110000  1.0 -0.0520732709
C  C83  1  0.78090000  0.10510000  0.83380000  1.0 -0.0109366921
C  C84  1  0.83230000  0.09470000  0.80290000  1.0 -0.0109366921
C  C85  1  0.40923000  0.04237000  0.48373000  1.0 0.5477540932
C  C86  1  0.34085000  0.03335000  0.51458000  1.0 -0.0109366921
C  C87  1  0.26400000  0.95700000  0.51791000  1.0 -0.092275343
C  C88  1  0.20268000  0.94952000  0.54733000  1.0 -0.1568362199
C  C89  1  0.21702000  0.01718000  0.57363000  1.0 0.0680251666
C  C90  1  0.29379000  0.09341000  0.57028000  1.0 -0.1474952854
C  C91  1  0.35501000  0.10239000  0.54081000  1.0 -0.0799136075
C  C92  1  0.04186000  0.00374000  0.55184000  1.0 -0.1897138542
C  C93  1  0.06850000  0.00570000  0.59267000  1.0 0.180794168
C  C94  1  0.15084000  0.01076000  0.60527000  1.0 -0.0799136075
C  C95  1  0.17643000  0.01037000  0.64479000  1.0 0.180794168
C  C96  1  0.25842000  0.00918000  0.65753000  1.0 -0.1897138542
C  C97  1  0.25527000  0.00173000  0.69736000  1.0 -0.2187081043
C  C98  1  0.17246000  0.00094000  0.70969000  1.0 0.180794168
C  C99  1  0.14442000  0.99498000  0.74951000  1.0 -0.1401483461
C  C100  1  0.06489000  0.99691000  0.76184000  1.0 0.180794168
C  C101  1  0.03890000  0.99750000  0.80298000  1.0 -0.2272125062
C  C102  1  0.20231000  0.98409000  0.78080000  1.0 0.0111869494
C  C103  1  0.30437000  0.95923000  0.84108000  1.0 -0.1106114116
C  C104  1  0.36200000  0.94500000  0.87391000  1.0 0.408034227
C  C105  1  0.26770000  0.05890000  0.79790000  1.0 -0.0183788927
C  C106  1  0.31740000  0.04360000  0.82870000  1.0 -0.0388688976
C  C107  1  0.24270000  0.88670000  0.82270000  1.0 -0.003016109
C  C108  1  0.19100000  0.90120000  0.79370000  1.0 -0.0308774244
C  C109  1  0.28650000  0.04790000  0.78970000  1.0 -0.0308774244
C  C110  1  0.33900000  0.04000000  0.82110000  1.0 -0.0520732709
C  C111  1  0.21910000  0.89490000  0.83380000  1.0 -0.0109366921
C  C112  1  0.16770000  0.90530000  0.80290000  1.0 -0.0183788927
C  C113  1  0.90923000  0.54237000  0.01627000  1.0 0.5477540932
C  C114  1  0.84085000  0.53335000  0.98542000  1.0 -0.0109366921
C  C115  1  0.76400000  0.45700000  0.98209000  1.0 -0.092275343
C  C116  1  0.70268000  0.44952000  0.95267000  1.0 -0.1568362199
C  C117  1  0.71702000  0.51718000  0.92637000  1.0 0.0680251666
C  C118  1  0.79379000  0.59341000  0.92972000  1.0 -0.1474952854
C  C119  1  0.85501000  0.60239000  0.95919000  1.0 -0.0799136075
C  C120  1  0.54186000  0.50374000  0.94816000  1.0 -0.1897138542
C  C121  1  0.56850000  0.50570000  0.90733000  1.0 0.180794168
C  C122  1  0.65084000  0.51076000  0.89473000  1.0 -0.0799136075
C  C123  1  0.67643000  0.51037000  0.85521000  1.0 0.180794168
C  C124  1  0.75842000  0.50918000  0.84247000  1.0 -0.1897138542
C  C125  1  0.75527000  0.50173000  0.80264000  1.0 -0.2187081043
C  C126  1  0.67246000  0.50094000  0.79031000  1.0 0.180794168
C  C127  1  0.64442000  0.49498000  0.75049000  1.0 -0.1401483461
C  C128  1  0.56489000  0.49691000  0.73816000  1.0 0.180794168
C  C129  1  0.53890000  0.49750000  0.69702000  1.0 -0.2272125062
C  C130  1  0.70231000  0.48409000  0.71920000  1.0 0.0034315711
C  C131  1  0.80437000  0.45923000  0.65892000  1.0 -0.1036872846
C  C132  1  0.86200000  0.44500000  0.62609000  1.0 0.408034227
C  C133  1  0.76770000  0.55890000  0.70210000  1.0 -0.0109366921
C  C134  1  0.81740000  0.54360000  0.67130000  1.0 -0.0388688976
C  C135  1  0.74270000  0.38670000  0.67730000  1.0 -0.003016109
C  C136  1  0.69100000  0.40120000  0.70630000  1.0 -0.0308774244
C  C137  1  0.78650000  0.54790000  0.71030000  1.0 -0.0183788927
C  C138  1  0.83900000  0.54000000  0.67890000  1.0 -0.0579307807
C  C139  1  0.71910000  0.39490000  0.66620000  1.0 -0.0109366921
C  C140  1  0.66770000  0.40530000  0.69710000  1.0 -0.0109366921
C  C141  1  0.09077000  0.45763000  0.01627000  1.0 0.5477540932
C  C142  1  0.15915000  0.46665000  0.98542000  1.0 -0.0183788927
C  C143  1  0.23600000  0.54300000  0.98209000  1.0 -0.092275343
C  C144  1  0.29732000  0.55048000  0.95267000  1.0 -0.1568362199
C  C145  1  0.28298000  0.48282000  0.92637000  1.0 0.0680251666
C  C146  1  0.20621000  0.40659000  0.92972000  1.0 -0.1474952854
C  C147  1  0.14499000  0.39761000  0.95919000  1.0 -0.0799136075
C  C148  1  0.45814000  0.49626000  0.94816000  1.0 -0.1897138542
C  C149  1  0.43150000  0.49430000  0.90733000  1.0 0.180794168
C  C150  1  0.34916000  0.48924000  0.89473000  1.0 -0.0799136075
C  C151  1  0.32357000  0.48963000  0.85521000  1.0 0.180794168
C  C152  1  0.24158000  0.49082000  0.84247000  1.0 -0.1897138542
C  C153  1  0.24473000  0.49827000  0.80264000  1.0 -0.2187081043
C  C154  1  0.32754000  0.49906000  0.79031000  1.0 0.180794168
C  C155  1  0.35558000  0.50502000  0.75049000  1.0 -0.1401483461
C  C156  1  0.43511000  0.50309000  0.73816000  1.0 0.180794168
C  C157  1  0.46110000  0.50250000  0.69702000  1.0 -0.2272125062
C  C158  1  0.29769000  0.51591000  0.71920000  1.0 0.0111869494
C  C159  1  0.19563000  0.54077000  0.65892000  1.0 -0.1106114116
C  C160  1  0.13800000  0.55500000  0.62609000  1.0 0.408034227
C  C161  1  0.23230000  0.44110000  0.70210000  1.0 -0.0183788927
C  C162  1  0.18260000  0.45640000  0.67130000  1.0 -0.0388688976
C  C163  1  0.25730000  0.61330000  0.67730000  1.0 -0.0109366921
C  C164  1  0.30900000  0.59880000  0.70630000  1.0 -0.0388688976
C  C165  1  0.21350000  0.45210000  0.71030000  1.0 -0.0183788927
C  C166  1  0.16100000  0.46000000  0.67890000  1.0 -0.0579307807
C  C167  1  0.28090000  0.60510000  0.66620000  1.0 -0.0109366921
C  C168  1  0.33230000  0.59470000  0.69710000  1.0 -0.0109366921
C  C169  1  0.95763000  0.59077000  0.51627000  1.0 0.5477540932
C  C170  1  0.96665000  0.65915000  0.48542000  1.0 -0.0109366921
C  C171  1  0.04300000  0.73600000  0.48209000  1.0 -0.092275343
C  C172  1  0.05048000  0.79732000  0.45267000  1.0 -0.1568362199
C  C173  1  0.98282000  0.78298000  0.42637000  1.0 0.0680251666
C  C174  1  0.90659000  0.70621000  0.42972000  1.0 -0.1474952854
C  C175  1  0.89761000  0.64499000  0.45919000  1.0 -0.0799136075
C  C176  1  0.99626000  0.95814000  0.44816000  1.0 -0.1897138542
C  C177  1  0.99430000  0.93150000  0.40733000  1.0 0.180794168
C  C178  1  0.98924000  0.84916000  0.39473000  1.0 -0.0799136075
C  C179  1  0.98963000  0.82357000  0.35521000  1.0 0.180794168
C  C180  1  0.99082000  0.74158000  0.34247000  1.0 -0.1897138542
C  C181  1  0.99827000  0.74473000  0.30264000  1.0 -0.2187081043
C  C182  1  0.99906000  0.82754000  0.29031000  1.0 0.180794168
C  C183  1  0.00502000  0.85558000  0.25049000  1.0 -0.1401483461
C  C184  1  0.00309000  0.93511000  0.23816000  1.0 0.180794168
C  C185  1  0.00250000  0.96110000  0.19702000  1.0 -0.2272125062
C  C186  1  0.01591000  0.79769000  0.21920000  1.0 0.0034315711
C  C187  1  0.04077000  0.69563000  0.15892000  1.0 -0.1106114116
C  C188  1  0.05500000  0.63800000  0.12609000  1.0 0.408034227
C  C189  1  0.94110000  0.73230000  0.20210000  1.0 -0.0109366921
C  C190  1  0.95640000  0.68260000  0.17130000  1.0 -0.0308774244
C  C191  1  0.11330000  0.75730000  0.17730000  1.0 -0.0109366921
C  C192  1  0.09880000  0.80900000  0.20630000  1.0 -0.0388688976
C  C193  1  0.95210000  0.71350000  0.21030000  1.0 -0.0183788927
C  C194  1  0.96000000  0.66100000  0.17890000  1.0 -0.0579307807
C  C195  1  0.10510000  0.78090000  0.16620000  1.0 -0.003016109
C  C196  1  0.09470000  0.83230000  0.19710000  1.0 -0.0183788927
C  C197  1  0.04237000  0.40923000  0.51627000  1.0 0.5477540932
C  C198  1  0.03335000  0.34085000  0.48542000  1.0 -0.0183788927
C  C199  1  0.95700000  0.26400000  0.48209000  1.0 -0.092275343
C  C200  1  0.94952000  0.20268000  0.45267000  1.0 -0.1568362199
C  C201  1  0.01718000  0.21702000  0.42637000  1.0 0.0680251666
C  C202  1  0.09341000  0.29379000  0.42972000  1.0 -0.1474952854
C  C203  1  0.10239000  0.35501000  0.45919000  1.0 -0.0799136075
C  C204  1  0.00374000  0.04186000  0.44816000  1.0 -0.1897138542
C  C205  1  0.00570000  0.06850000  0.40733000  1.0 0.180794168
C  C206  1  0.01076000  0.15084000  0.39473000  1.0 -0.0799136075
C  C207  1  0.01037000  0.17643000  0.35521000  1.0 0.180794168
C  C208  1  0.00918000  0.25842000  0.34247000  1.0 -0.1897138542
C  C209  1  0.00173000  0.25527000  0.30264000  1.0 -0.2187081043
C  C210  1  0.00094000  0.17246000  0.29031000  1.0 0.180794168
C  C211  1  0.99498000  0.14442000  0.25049000  1.0 -0.1401483461
C  C212  1  0.99691000  0.06489000  0.23816000  1.0 0.180794168
C  C213  1  0.99750000  0.03890000  0.19702000  1.0 -0.2272125062
C  C214  1  0.98409000  0.20231000  0.21920000  1.0 0.0034315711
C  C215  1  0.95923000  0.30437000  0.15892000  1.0 -0.1036872846
C  C216  1  0.94500000  0.36200000  0.12609000  1.0 0.408034227
C  C217  1  0.05890000  0.26770000  0.20210000  1.0 -0.0183788927
C  C218  1  0.04360000  0.31740000  0.17130000  1.0 -0.0308774244
C  C219  1  0.88670000  0.24270000  0.17730000  1.0 -0.003016109
C  C220  1  0.90120000  0.19100000  0.20630000  1.0 -0.0388688976
C  C221  1  0.04790000  0.28650000  0.21030000  1.0 -0.0308774244
C  C222  1  0.04000000  0.33900000  0.17890000  1.0 -0.0579307807
C  C223  1  0.89490000  0.21910000  0.16620000  1.0 -0.003016109
C  C224  1  0.90530000  0.16770000  0.19710000  1.0 -0.0183788927
N  N1  1  0.50671000  0.62565000  0.17750000  1.0 -0.3626304525
N  N2  1  0.49329000  0.37435000  0.17750000  1.0 -0.3626304525
N  N3  1  0.87435000  0.99329000  0.67750000  1.0 -0.3626304525
N  N4  1  0.12565000  0.00671000  0.67750000  1.0 -0.3626304525
N  N5  1  0.50000000  0.50000000  0.11690000  1.0 -0.3626304525
N  N6  1  0.50000000  0.50000000  0.23764000  1.0 -0.3297996752
N  N7  1  0.00000000  0.00000000  0.61690000  1.0 -0.3626304525
N  N8  1  0.00000000  0.00000000  0.73764000  1.0 -0.3297996752
N  N9  1  0.62565000  0.50671000  0.82250000  1.0 -0.3626304525
N  N10  1  0.37435000  0.49329000  0.82250000  1.0 -0.3626304525
N  N11  1  0.99329000  0.87435000  0.32250000  1.0 -0.3626304525
N  N12  1  0.00671000  0.12565000  0.32250000  1.0 -0.3626304525
N  N13  1  0.50000000  0.50000000  0.88310000  1.0 -0.3626304525
N  N14  1  0.50000000  0.50000000  0.76236000  1.0 -0.3297996752
N  N15  1  0.00000000  0.00000000  0.38310000  1.0 -0.3626304525
N  N16  1  0.00000000  0.00000000  0.26236000  1.0 -0.3297996752
O  O1  1  0.47755000  0.89475000  0.96128000  1.0 -0.5099641972
O  O2  1  0.61330000  0.97680000  0.98172000  1.0 -0.5029613905
O  O3  1  0.51134000  0.91626000  0.38851000  1.0 -0.416799181
O  O4  1  0.36730000  0.86490000  0.37620000  1.0 -0.1209743984
O  O5  1  0.37910000  0.82390000  0.39730000  1.0 -0.0308774244
O  O6  1  0.52245000  0.10525000  0.96128000  1.0 -0.5099641972
O  O7  1  0.38670000  0.02320000  0.98172000  1.0 -0.5029613905
O  O8  1  0.48866000  0.08374000  0.38851000  1.0 -0.416799181
O  O9  1  0.63270000  0.13510000  0.37620000  1.0 -0.1106114116
O  O10  1  0.62090000  0.17610000  0.39730000  1.0 -0.0388688976
O  O11  1  0.60525000  0.02245000  0.46128000  1.0 -0.5099641972
O  O12  1  0.52320000  0.88670000  0.48172000  1.0 -0.5099641972
O  O13  1  0.58374000  0.98866000  0.88851000  1.0 -0.416799181
O  O14  1  0.63510000  0.13270000  0.87620000  1.0 -0.1106114116
O  O15  1  0.67610000  0.12090000  0.89730000  1.0 -0.0388688976
O  O16  1  0.39475000  0.97755000  0.46128000  1.0 -0.5099641972
O  O17  1  0.47680000  0.11330000  0.48172000  1.0 -0.5029613905
O  O18  1  0.41626000  0.01134000  0.88851000  1.0 -0.416799181
O  O19  1  0.36490000  0.86730000  0.87620000  1.0 -0.1209743984
O  O20  1  0.32390000  0.87910000  0.89730000  1.0 -0.0388688976
O  O21  1  0.89475000  0.47755000  0.03872000  1.0 -0.5099641972
O  O22  1  0.97680000  0.61330000  0.01828000  1.0 -0.5099641972
O  O23  1  0.91626000  0.51134000  0.61149000  1.0 -0.4131453864
O  O24  1  0.86490000  0.36730000  0.62380000  1.0 -0.1209743984
O  O25  1  0.82390000  0.37910000  0.60270000  1.0 -0.0388688976
O  O26  1  0.10525000  0.52245000  0.03872000  1.0 -0.5099641972
O  O27  1  0.02320000  0.38670000  0.01828000  1.0 -0.5029613905
O  O28  1  0.08374000  0.48866000  0.61149000  1.0 -0.416799181
O  O29  1  0.13510000  0.63270000  0.62380000  1.0 -0.1209743984
O  O30  1  0.17610000  0.62090000  0.60270000  1.0 -0.0388688976
O  O31  1  0.02245000  0.60525000  0.53872000  1.0 -0.5099641972
O  O32  1  0.88670000  0.52320000  0.51828000  1.0 -0.5029613905
O  O33  1  0.98866000  0.58374000  0.11149000  1.0 -0.4131453864
O  O34  1  0.13270000  0.63510000  0.12380000  1.0 -0.1106114116
O  O35  1  0.12090000  0.67610000  0.10270000  1.0 -0.0388688976
O  O36  1  0.97755000  0.39475000  0.53872000  1.0 -0.5099641972
O  O37  1  0.11330000  0.47680000  0.51828000  1.0 -0.5029613905
O  O38  1  0.01134000  0.41626000  0.11149000  1.0 -0.4131453864
O  O39  1  0.86730000  0.36490000  0.12380000  1.0 -0.1209743984
O  O40  1  0.87910000  0.32390000  0.10270000  1.0 -0.0388688976
