# DDEC6 charges by PACMAN v1.1 (https://github.com/mtap-research/PACMAN-charge/)
data_SEHYOW_FSR_pacman
_symmetry_space_group_name_H-M   'P 1'
_cell_length_a   8.71040000
_cell_length_b   13.48910000
_cell_length_c   15.04620000
_cell_angle_alpha   104.03100000
_cell_angle_beta   92.47200000
_cell_angle_gamma   103.39300000
_symmetry_Int_Tables_number   1
_chemical_formula_structural   AgH21C28SN3(O5F2)2
_chemical_formula_sum   'Ag2 H42 C56 S2 N6 O20 F8'
_cell_volume   1659.21271699
_cell_formula_units_Z   2
loop_
 _symmetry_equiv_pos_site_id
 _symmetry_equiv_pos_as_xyz
  1  'x, y, z'
loop_
 _atom_site_type_symbol
 _atom_site_label
 _atom_site_symmetry_multiplicity
 _atom_site_fract_x
 _atom_site_fract_y
 _atom_site_fract_z
 _atom_site_occupancy
 _atom_site_charge
Ag  Ag1  1  0.22628000  0.51931000  0.68548000  1.0 0.3199990021
Ag  Ag2  1  0.77372000  0.48069000  0.31452000  1.0 0.3199990021
H  H1  1  0.15450000  0.64340000  0.53680000  1.0 0.0994452175
H  H2  1  0.04200000  0.77590000  0.51670000  1.0 0.128094474
H  H3  1  0.93290000  0.81710000  0.77920000  1.0 0.1397391932
H  H4  1  0.04080000  0.68030000  0.79130000  1.0 0.1095795953
H  H5  1  0.69360000  0.96790000  0.56580000  1.0 0.0994452175
H  H6  1  0.85690000  0.04950000  0.56010000  1.0 0.1095795953
H  H7  1  0.25150000  0.49290000  0.46700000  1.0 0.0994452175
H  H8  1  0.33550000  0.39270000  0.34030000  1.0 0.128094474
H  H9  1  0.49990000  0.23790000  0.50790000  1.0 0.128094474
H  H10  1  0.41030000  0.34280000  0.62900000  1.0 0.093803627
H  H11  1  0.45580000  0.03790000  0.23370000  1.0 0.1095795953
H  H12  1  0.62640000  0.11460000  0.23270000  1.0 0.1095795953
H  H13  1  0.24140000  0.61440000  0.90260000  1.0 0.1095795953
H  H14  1  0.42290000  0.68120000  0.03380000  1.0 0.1220853498
H  H15  1  0.73810000  0.55060000  0.89190000  1.0 0.128094474
H  H16  1  0.55160000  0.49110000  0.76350000  1.0 0.093803627
H  H17  1  0.80510000  0.71410000  0.23790000  1.0 0.0994452175
H  H18  1  0.90580000  0.79850000  0.19000000  1.0 0.0994452175
H  H19  1  0.84250000  0.82760000  0.38940000  1.0 0.1220853498
H  H20  1  0.64620000  0.07650000  0.44590000  1.0 0.1220853498
H  H21  1  0.64810000  0.91580000  0.18130000  1.0 0.1220853498
H  H22  1  0.84550000  0.35660000  0.46320000  1.0 0.0994452175
H  H23  1  0.95800000  0.22410000  0.48330000  1.0 0.128094474
H  H24  1  0.06710000  0.18290000  0.22080000  1.0 0.1397391932
H  H25  1  0.95920000  0.31970000  0.20870000  1.0 0.1095795953
H  H26  1  0.30640000  0.03210000  0.43420000  1.0 0.0994452175
H  H27  1  0.14310000  0.95050000  0.43990000  1.0 0.1095795953
H  H28  1  0.74850000  0.50710000  0.53300000  1.0 0.0994452175
H  H29  1  0.66450000  0.60730000  0.65970000  1.0 0.128094474
H  H30  1  0.50010000  0.76210000  0.49210000  1.0 0.128094474
H  H31  1  0.58970000  0.65720000  0.37100000  1.0 0.0994452175
H  H32  1  0.54420000  0.96210000  0.76630000  1.0 0.1095795953
H  H33  1  0.37360000  0.88540000  0.76730000  1.0 0.1095795953
H  H34  1  0.75860000  0.38560000  0.09740000  1.0 0.1095795953
H  H35  1  0.57710000  0.31880000  0.96620000  1.0 0.1220853498
H  H36  1  0.26190000  0.44940000  0.10810000  1.0 0.128094474
H  H37  1  0.44840000  0.50890000  0.23650000  1.0 0.093803627
H  H38  1  0.19490000  0.28590000  0.76210000  1.0 0.0994452175
H  H39  1  0.09420000  0.20150000  0.81000000  1.0 0.0994452175
H  H40  1  0.15750000  0.17240000  0.61060000  1.0 0.1220853498
H  H41  1  0.35380000  0.92350000  0.55410000  1.0 0.1220853498
H  H42  1  0.35190000  0.08420000  0.81870000  1.0 0.1220853498
C  C1  1  0.10780000  0.67900000  0.58670000  1.0 0.0693166053
C  C2  1  0.04230000  0.75840000  0.57420000  1.0 -0.1421343756
C  C3  1  0.97660000  0.81240000  0.64640000  1.0 -0.0022774365
C  C4  1  0.97760000  0.78170000  0.72810000  1.0 -0.1512356492
C  C5  1  0.04280000  0.70070000  0.73510000  1.0 0.0693166053
C  C6  1  0.89800000  0.89720000  0.63880000  1.0 0.4942579644
C  C7  1  0.79200000  0.97630000  0.53490000  1.0 -0.0673709708
C  C8  1  0.30180000  0.43990000  0.47510000  1.0 0.0693166053
C  C9  1  0.35150000  0.38050000  0.39920000  1.0 -0.1512356492
C  C10  1  0.42500000  0.30300000  0.40960000  1.0 -0.0022774365
C  C11  1  0.44810000  0.28950000  0.49760000  1.0 -0.162535995
C  C12  1  0.39420000  0.35260000  0.56920000  1.0 0.0759016724
C  C13  1  0.46880000  0.23360000  0.32640000  1.0 0.4942579644
C  C14  1  0.55610000  0.07930000  0.27190000  1.0 -0.0673709708
C  C15  1  0.34450000  0.60240000  0.89970000  1.0 0.0994452175
C  C16  1  0.45200000  0.64190000  0.97860000  1.0 -0.1512356492
C  C17  1  0.59920000  0.62360000  0.97590000  1.0 0.0199210348
C  C18  1  0.63710000  0.56590000  0.89550000  1.0 -0.1512356492
C  C19  1  0.52460000  0.53040000  0.81940000  1.0 0.0693166053
C  C20  1  0.72110000  0.66060000  0.05810000  1.0 0.5096660035
C  C21  1  0.79950000  0.77130000  0.20820000  1.0 -0.0673709708
C  C22  1  0.75090000  0.85840000  0.27450000  1.0 0.1095795953
C  C23  1  0.78980000  0.87340000  0.36870000  1.0 -0.2202339487
C  C24  1  0.75140000  0.95530000  0.43250000  1.0 0.1095795953
C  C25  1  0.67360000  0.02120000  0.40230000  1.0 -0.2202339487
C  C26  1  0.63480000  0.00750000  0.30870000  1.0 0.0994452175
C  C27  1  0.67420000  0.92560000  0.24530000  1.0 -0.2108589334
C  C28  1  0.75500000  0.28250000  0.74600000  1.0 0.3961069214
C  C29  1  0.89220000  0.32100000  0.41330000  1.0 0.0693166053
C  C30  1  0.95770000  0.24160000  0.42580000  1.0 -0.1421343756
C  C31  1  0.02340000  0.18760000  0.35360000  1.0 -0.0022774365
C  C32  1  0.02240000  0.21830000  0.27190000  1.0 -0.1512356492
C  C33  1  0.95720000  0.29930000  0.26490000  1.0 0.0693166053
C  C34  1  0.10200000  0.10280000  0.36120000  1.0 0.4942579644
C  C35  1  0.20800000  0.02370000  0.46510000  1.0 -0.0673709708
C  C36  1  0.69820000  0.56010000  0.52490000  1.0 0.0693166053
C  C37  1  0.64850000  0.61950000  0.60080000  1.0 -0.1512356492
C  C38  1  0.57500000  0.69700000  0.59040000  1.0 -0.0022774365
C  C39  1  0.55190000  0.71050000  0.50240000  1.0 -0.162535995
C  C40  1  0.60580000  0.64740000  0.43080000  1.0 0.0759016724
C  C41  1  0.53120000  0.76640000  0.67360000  1.0 0.4942579644
C  C42  1  0.44390000  0.92070000  0.72810000  1.0 -0.0673709708
C  C43  1  0.65550000  0.39760000  0.10030000  1.0 0.0994452175
C  C44  1  0.54800000  0.35810000  0.02140000  1.0 -0.1512356492
C  C45  1  0.40080000  0.37640000  0.02410000  1.0 0.0199210348
C  C46  1  0.36290000  0.43410000  0.10450000  1.0 -0.1512356492
C  C47  1  0.47540000  0.46960000  0.18060000  1.0 0.0693166053
C  C48  1  0.27890000  0.33940000  0.94190000  1.0 0.5096660035
C  C49  1  0.20050000  0.22870000  0.79180000  1.0 -0.0673709708
C  C50  1  0.24910000  0.14160000  0.72550000  1.0 0.1095795953
C  C51  1  0.21020000  0.12660000  0.63130000  1.0 -0.2202339487
C  C52  1  0.24860000  0.04470000  0.56750000  1.0 0.1095795953
C  C53  1  0.32640000  0.97880000  0.59770000  1.0 -0.2202339487
C  C54  1  0.36520000  0.99250000  0.69130000  1.0 0.0994452175
C  C55  1  0.32580000  0.07440000  0.75470000  1.0 -0.2108589334
C  C56  1  0.24500000  0.71750000  0.25400000  1.0 0.3961069214
S  S1  1  0.86100000  0.36962000  0.68865000  1.0 0.9552224057
S  S2  1  0.13900000  0.63038000  0.31135000  1.0 0.9552224057
N  N1  1  0.10990000  0.64850000  0.66560000  1.0 -0.2108589334
N  N2  1  0.32090000  0.42650000  0.56030000  1.0 -0.2108589334
N  N3  1  0.38070000  0.54860000  0.82050000  1.0 -0.1951540036
N  N4  1  0.89010000  0.35150000  0.33440000  1.0 -0.2108589334
N  N5  1  0.67910000  0.57350000  0.43970000  1.0 -0.2108589334
N  N6  1  0.61930000  0.45140000  0.17950000  1.0 -0.1948346568
O  O1  1  0.92950000  0.46360000  0.78720000  1.0 -0.5357485635
O  O2  1  0.85220000  0.95180000  0.70220000  1.0 -0.4500604692
O  O3  1  0.87930000  0.90260000  0.55126000  1.0 -0.2202339487
O  O4  1  0.45180000  0.24400000  0.25000000  1.0 -0.457757972
O  O5  1  0.52390000  0.15730000  0.34810000  1.0 -0.2202339487
O  O6  1  0.84060000  0.63190000  0.06120000  1.0 -0.4500604692
O  O7  1  0.68360000  0.73060000  0.12730000  1.0 -0.2313956244
O  O8  1  0.00260000  0.34900000  0.66930000  1.0 -0.4295437632
O  O9  1  0.77660000  0.42280000  0.65780000  1.0 -0.3665502889
O  O10  1  0.76020000  0.26150000  0.59230000  1.0 -0.4295437632
O  O11  1  0.07050000  0.53640000  0.21280000  1.0 -0.5357485635
O  O12  1  0.14780000  0.04820000  0.29780000  1.0 -0.4500604692
O  O13  1  0.12070000  0.09740000  0.44874000  1.0 -0.2202339487
O  O14  1  0.54820000  0.75600000  0.75000000  1.0 -0.457757972
O  O15  1  0.47610000  0.84270000  0.65190000  1.0 -0.2202339487
O  O16  1  0.15940000  0.36810000  0.93880000  1.0 -0.457757972
O  O17  1  0.31640000  0.26940000  0.87270000  1.0 -0.2313956244
O  O18  1  0.99740000  0.65100000  0.33070000  1.0 -0.4295437632
O  O19  1  0.22340000  0.57720000  0.34220000  1.0 -0.3665502889
O  O20  1  0.23980000  0.73850000  0.40770000  1.0 -0.4295437632
F  F1  1  0.62050000  0.29410000  0.76810000  1.0 -0.162535995
F  F2  1  0.81000000  0.22110000  0.77490000  1.0 -0.0871822534
F  F3  1  0.82480000  0.34970000  0.84310000  1.0 0.05373792
F  F4  1  0.68950000  0.19770000  0.66010000  1.0 0.0386180544
F  F5  1  0.37950000  0.70590000  0.23190000  1.0 -0.162535995
F  F6  1  0.19000000  0.77890000  0.22510000  1.0 -0.0871822534
F  F7  1  0.17520000  0.65030000  0.15690000  1.0 0.05373792
F  F8  1  0.31050000  0.80230000  0.33990000  1.0 0.0386180544
