# DDEC6 charges by PACMAN v1.1 (https://github.com/mtap-research/PACMAN-charge/)
data_SEJHEX_ASR_pacman
_symmetry_space_group_name_H-M   'P 1'
_cell_length_a   27.83880000
_cell_length_b   27.83880000
_cell_length_c   27.83880000
_cell_angle_alpha   60.00000000
_cell_angle_beta   60.00000000
_cell_angle_gamma   60.00000000
_symmetry_Int_Tables_number   1
_chemical_formula_structural   Mn7H60C64S8(N14O13)2
_chemical_formula_sum   'Mn42 H360 C384 S48 N168 O156'
_cell_volume   15255.85439296
_cell_formula_units_Z   6
loop_
 _symmetry_equiv_pos_site_id
 _symmetry_equiv_pos_as_xyz
  1  'x, y, z'
loop_
 _atom_site_type_symbol
 _atom_site_label
 _atom_site_symmetry_multiplicity
 _atom_site_fract_x
 _atom_site_fract_y
 _atom_site_fract_z
 _atom_site_occupancy
 _atom_site_charge
Mn  Mn1  1  0.29992000  0.42630000  0.61360000  1.0 0.9319500421
Mn  Mn2  1  0.42630000  0.29992000  0.66018000  1.0 0.9319500421
Mn  Mn3  1  0.61360000  0.66018000  0.29992000  1.0 0.9319500421
Mn  Mn4  1  0.66018000  0.61360000  0.42630000  1.0 0.9319500421
Mn  Mn5  1  0.61360000  0.29992000  0.42630000  1.0 0.9319500421
Mn  Mn6  1  0.66018000  0.42630000  0.29992000  1.0 0.9319500421
Mn  Mn7  1  0.29992000  0.61360000  0.66018000  1.0 0.9319500421
Mn  Mn8  1  0.42630000  0.66018000  0.61360000  1.0 0.9319500421
Mn  Mn9  1  0.42630000  0.61360000  0.29992000  1.0 0.9319500421
Mn  Mn10  1  0.29992000  0.66018000  0.42630000  1.0 0.9319500421
Mn  Mn11  1  0.66018000  0.29992000  0.61360000  1.0 0.9319500421
Mn  Mn12  1  0.61360000  0.42630000  0.66018000  1.0 0.9319500421
Mn  Mn13  1  0.92630000  0.79992000  0.11360000  1.0 0.9319500421
Mn  Mn14  1  0.79992000  0.92630000  0.16018000  1.0 0.9319500421
Mn  Mn15  1  0.16018000  0.11360000  0.79992000  1.0 0.9319500421
Mn  Mn16  1  0.11360000  0.16018000  0.92630000  1.0 0.9319500421
Mn  Mn17  1  0.79992000  0.11360000  0.92630000  1.0 0.9319500421
Mn  Mn18  1  0.92630000  0.16018000  0.79992000  1.0 0.9319500421
Mn  Mn19  1  0.11360000  0.79992000  0.16018000  1.0 0.9319500421
Mn  Mn20  1  0.16018000  0.92630000  0.11360000  1.0 0.9319500421
Mn  Mn21  1  0.11360000  0.92630000  0.79992000  1.0 0.9319500421
Mn  Mn22  1  0.16018000  0.79992000  0.92630000  1.0 0.9319500421
Mn  Mn23  1  0.79992000  0.16018000  0.11360000  1.0 0.9319500421
Mn  Mn24  1  0.92630000  0.11360000  0.16018000  1.0 0.9319500421
Mn  Mn25  1  0.14619000  0.14619000  0.14619000  1.0 0.6200106661
Mn  Mn26  1  0.14619000  0.14619000  0.56143000  1.0 0.6200106661
Mn  Mn27  1  0.14619000  0.56143000  0.14619000  1.0 0.6200106661
Mn  Mn28  1  0.56143000  0.14619000  0.14619000  1.0 0.6200106661
Mn  Mn29  1  0.64619000  0.64619000  0.64619000  1.0 0.6200106661
Mn  Mn30  1  0.64619000  0.64619000  0.06143000  1.0 0.6200106661
Mn  Mn31  1  0.06143000  0.64619000  0.64619000  1.0 0.6200106661
Mn  Mn32  1  0.64619000  0.06143000  0.64619000  1.0 0.6200106661
Mn  Mn33  1  0.24272000  0.58576000  0.58576000  1.0 0.8275093207
Mn  Mn34  1  0.58576000  0.24272000  0.58576000  1.0 0.8275093207
Mn  Mn35  1  0.58576000  0.58576000  0.24272000  1.0 0.8275093207
Mn  Mn36  1  0.58576000  0.58576000  0.58576000  1.0 0.8275093207
Mn  Mn37  1  0.08576000  0.74272000  0.08576000  1.0 0.8275093207
Mn  Mn38  1  0.74272000  0.08576000  0.08576000  1.0 0.8275093207
Mn  Mn39  1  0.08576000  0.08576000  0.74272000  1.0 0.8275093207
Mn  Mn40  1  0.08576000  0.08576000  0.08576000  1.0 0.8275093207
Mn  Mn41  1  0.50000000  0.50000000  0.50000000  1.0 0.5778146083
Mn  Mn42  1  0.00000000  0.00000000  0.00000000  1.0 0.5778146083
H  H1  1  0.03780000  0.29360000  0.25620000  1.0 0.1187345973
H  H2  1  0.05320000  0.20520000  0.24260000  1.0 0.0805657153
H  H3  1  0.17670000  0.28030000  0.03370000  1.0 0.1251608128
H  H4  1  0.17110000  0.33530000  0.03830000  1.0 0.2489218682
H  H5  1  0.31370000  0.28830000  0.84770000  1.0 0.1187345973
H  H6  1  0.25370000  0.24430000  0.93970000  1.0 0.1187345973
H  H7  1  0.13600000  0.28920000  0.86600000  1.0 0.1187345973
H  H8  1  0.19460000  0.33860000  0.77480000  1.0 0.1101640383
H  H9  1  0.32930000  0.53390000  0.44690000  1.0 0.0805657153
H  H10  1  0.40470000  0.46290000  0.53810000  1.0 0.1744814212
H  H11  1  0.98330000  0.34610000  0.16070000  1.0 0.1456788579
H  H12  1  0.04110000  0.26930000  0.11210000  1.0 0.1187345973
H  H13  1  0.19270000  0.20070000  0.20110000  1.0 0.2489218682
H  H14  1  0.17540000  0.25980000  0.20580000  1.0 0.1030507803
H  H15  1  0.39300000  0.47460000  0.55820000  1.0 0.1766901061
H  H16  1  0.29360000  0.03780000  0.41240000  1.0 0.1187345973
H  H17  1  0.20520000  0.05320000  0.49900000  1.0 0.0805657153
H  H18  1  0.28030000  0.17670000  0.50930000  1.0 0.1251608128
H  H19  1  0.33530000  0.17110000  0.45530000  1.0 0.2489218682
H  H20  1  0.28830000  0.31370000  0.55030000  1.0 0.1187345973
H  H21  1  0.24430000  0.25370000  0.56230000  1.0 0.1187345973
H  H22  1  0.28920000  0.13600000  0.70880000  1.0 0.1187345973
H  H23  1  0.33860000  0.19460000  0.69200000  1.0 0.1101640383
H  H24  1  0.53390000  0.32930000  0.68990000  1.0 0.0805657153
H  H25  1  0.46290000  0.40470000  0.59430000  1.0 0.1744814212
H  H26  1  0.34610000  0.98330000  0.50990000  1.0 0.1456788579
H  H27  1  0.26930000  0.04110000  0.57750000  1.0 0.1187345973
H  H28  1  0.20070000  0.19270000  0.40550000  1.0 0.2489218682
H  H29  1  0.25980000  0.17540000  0.35900000  1.0 0.1030507803
H  H30  1  0.47460000  0.39300000  0.57420000  1.0 0.1766901061
H  H31  1  0.25620000  0.41240000  0.03780000  1.0 0.1187345973
H  H32  1  0.24260000  0.49900000  0.05320000  1.0 0.0805657153
H  H33  1  0.03370000  0.50930000  0.17670000  1.0 0.1251608128
H  H34  1  0.03830000  0.45530000  0.17110000  1.0 0.2489218682
H  H35  1  0.84770000  0.55030000  0.31370000  1.0 0.1187345973
H  H36  1  0.93970000  0.56230000  0.25370000  1.0 0.1187345973
H  H37  1  0.86600000  0.70880000  0.13600000  1.0 0.1187345973
H  H38  1  0.77480000  0.69200000  0.19460000  1.0 0.1101640383
H  H39  1  0.44690000  0.68990000  0.32930000  1.0 0.0805657153
H  H40  1  0.53810000  0.59430000  0.40470000  1.0 0.1744814212
H  H41  1  0.16070000  0.50990000  0.98330000  1.0 0.1456788579
H  H42  1  0.11210000  0.57750000  0.04110000  1.0 0.1187345973
H  H43  1  0.20110000  0.40550000  0.19270000  1.0 0.2489218682
H  H44  1  0.20580000  0.35900000  0.17540000  1.0 0.1030507803
H  H45  1  0.55820000  0.57420000  0.39300000  1.0 0.1766901061
H  H46  1  0.41240000  0.25620000  0.29360000  1.0 0.1187345973
H  H47  1  0.49900000  0.24260000  0.20520000  1.0 0.0805657153
H  H48  1  0.50930000  0.03370000  0.28030000  1.0 0.1251608128
H  H49  1  0.45530000  0.03830000  0.33530000  1.0 0.2489218682
H  H50  1  0.55030000  0.84770000  0.28830000  1.0 0.1187345973
H  H51  1  0.56230000  0.93970000  0.24430000  1.0 0.1187345973
H  H52  1  0.70880000  0.86600000  0.28920000  1.0 0.1187345973
H  H53  1  0.69200000  0.77480000  0.33860000  1.0 0.1101640383
H  H54  1  0.68990000  0.44690000  0.53390000  1.0 0.0805657153
H  H55  1  0.59430000  0.53810000  0.46290000  1.0 0.1744814212
H  H56  1  0.50990000  0.16070000  0.34610000  1.0 0.1456788579
H  H57  1  0.57750000  0.11210000  0.26930000  1.0 0.1187345973
H  H58  1  0.40550000  0.20110000  0.20070000  1.0 0.2489218682
H  H59  1  0.35900000  0.20580000  0.25980000  1.0 0.1030507803
H  H60  1  0.57420000  0.55820000  0.47460000  1.0 0.1766901061
H  H61  1  0.25620000  0.03780000  0.29360000  1.0 0.1187345973
H  H62  1  0.24260000  0.05320000  0.20520000  1.0 0.0805657153
H  H63  1  0.03370000  0.17670000  0.28030000  1.0 0.1251608128
H  H64  1  0.03830000  0.17110000  0.33530000  1.0 0.2489218682
H  H65  1  0.84770000  0.31370000  0.28830000  1.0 0.1187345973
H  H66  1  0.93970000  0.25370000  0.24430000  1.0 0.1187345973
H  H67  1  0.86600000  0.13600000  0.28920000  1.0 0.1187345973
H  H68  1  0.77480000  0.19460000  0.33860000  1.0 0.1101640383
H  H69  1  0.44690000  0.32930000  0.53390000  1.0 0.0805657153
H  H70  1  0.53810000  0.40470000  0.46290000  1.0 0.1744814212
H  H71  1  0.16070000  0.98330000  0.34610000  1.0 0.1456788579
H  H72  1  0.11210000  0.04110000  0.26930000  1.0 0.1187345973
H  H73  1  0.20110000  0.19270000  0.20070000  1.0 0.2489218682
H  H74  1  0.20580000  0.17540000  0.25980000  1.0 0.1030507803
H  H75  1  0.55820000  0.39300000  0.47460000  1.0 0.1766901061
H  H76  1  0.41240000  0.29360000  0.03780000  1.0 0.1187345973
H  H77  1  0.49900000  0.20520000  0.05320000  1.0 0.0805657153
H  H78  1  0.50930000  0.28030000  0.17670000  1.0 0.1251608128
H  H79  1  0.45530000  0.33530000  0.17110000  1.0 0.2489218682
H  H80  1  0.55030000  0.28830000  0.31370000  1.0 0.1187345973
H  H81  1  0.56230000  0.24430000  0.25370000  1.0 0.1187345973
H  H82  1  0.70880000  0.28920000  0.13600000  1.0 0.1187345973
H  H83  1  0.69200000  0.33860000  0.19460000  1.0 0.1101640383
H  H84  1  0.68990000  0.53390000  0.32930000  1.0 0.0805657153
H  H85  1  0.59430000  0.46290000  0.40470000  1.0 0.1744814212
H  H86  1  0.50990000  0.34610000  0.98330000  1.0 0.1456788579
H  H87  1  0.57750000  0.26930000  0.04110000  1.0 0.1187345973
H  H88  1  0.40550000  0.20070000  0.19270000  1.0 0.2489218682
H  H89  1  0.35900000  0.25980000  0.17540000  1.0 0.1030507803
H  H90  1  0.57420000  0.47460000  0.39300000  1.0 0.1766901061
H  H91  1  0.03780000  0.25620000  0.41240000  1.0 0.1187345973
H  H92  1  0.05320000  0.24260000  0.49900000  1.0 0.0805657153
H  H93  1  0.17670000  0.03370000  0.50930000  1.0 0.1251608128
H  H94  1  0.17110000  0.03830000  0.45530000  1.0 0.2489218682
H  H95  1  0.31370000  0.84770000  0.55030000  1.0 0.1187345973
H  H96  1  0.25370000  0.93970000  0.56230000  1.0 0.1187345973
H  H97  1  0.13600000  0.86600000  0.70880000  1.0 0.1187345973
H  H98  1  0.19460000  0.77480000  0.69200000  1.0 0.1101640383
H  H99  1  0.32930000  0.44690000  0.68990000  1.0 0.0805657153
H  H100  1  0.40470000  0.53810000  0.59430000  1.0 0.1744814212
H  H101  1  0.98330000  0.16070000  0.50990000  1.0 0.1456788579
H  H102  1  0.04110000  0.11210000  0.57750000  1.0 0.1187345973
H  H103  1  0.19270000  0.20110000  0.40550000  1.0 0.2489218682
H  H104  1  0.17540000  0.20580000  0.35900000  1.0 0.1030507803
H  H105  1  0.39300000  0.55820000  0.57420000  1.0 0.1766901061
H  H106  1  0.29360000  0.41240000  0.25620000  1.0 0.1187345973
H  H107  1  0.20520000  0.49900000  0.24260000  1.0 0.0805657153
H  H108  1  0.28030000  0.50930000  0.03370000  1.0 0.1251608128
H  H109  1  0.33530000  0.45530000  0.03830000  1.0 0.2489218682
H  H110  1  0.28830000  0.55030000  0.84770000  1.0 0.1187345973
H  H111  1  0.24430000  0.56230000  0.93970000  1.0 0.1187345973
H  H112  1  0.28920000  0.70880000  0.86600000  1.0 0.1187345973
H  H113  1  0.33860000  0.69200000  0.77480000  1.0 0.1101640383
H  H114  1  0.53390000  0.68990000  0.44690000  1.0 0.0805657153
H  H115  1  0.46290000  0.59430000  0.53810000  1.0 0.1744814212
H  H116  1  0.34610000  0.50990000  0.16070000  1.0 0.1456788579
H  H117  1  0.26930000  0.57750000  0.11210000  1.0 0.1187345973
H  H118  1  0.20070000  0.40550000  0.20110000  1.0 0.2489218682
H  H119  1  0.25980000  0.35900000  0.20580000  1.0 0.1030507803
H  H120  1  0.47460000  0.57420000  0.55820000  1.0 0.1766901061
H  H121  1  0.29360000  0.25620000  0.03780000  1.0 0.1187345973
H  H122  1  0.20520000  0.24260000  0.05320000  1.0 0.0805657153
H  H123  1  0.28030000  0.03370000  0.17670000  1.0 0.1251608128
H  H124  1  0.33530000  0.03830000  0.17110000  1.0 0.2489218682
H  H125  1  0.28830000  0.84770000  0.31370000  1.0 0.1187345973
H  H126  1  0.24430000  0.93970000  0.25370000  1.0 0.1187345973
H  H127  1  0.28920000  0.86600000  0.13600000  1.0 0.1187345973
H  H128  1  0.33860000  0.77480000  0.19460000  1.0 0.1101640383
H  H129  1  0.53390000  0.44690000  0.32930000  1.0 0.0805657153
H  H130  1  0.46290000  0.53810000  0.40470000  1.0 0.1744814212
H  H131  1  0.34610000  0.16070000  0.98330000  1.0 0.1447234298
H  H132  1  0.26930000  0.11210000  0.04110000  1.0 0.1187345973
H  H133  1  0.20070000  0.20110000  0.19270000  1.0 0.2489218682
H  H134  1  0.25980000  0.20580000  0.17540000  1.0 0.1030507803
H  H135  1  0.47460000  0.55820000  0.39300000  1.0 0.1766901061
H  H136  1  0.03780000  0.41240000  0.29360000  1.0 0.1187345973
H  H137  1  0.05320000  0.49900000  0.20520000  1.0 0.0805657153
H  H138  1  0.17670000  0.50930000  0.28030000  1.0 0.1251608128
H  H139  1  0.17110000  0.45530000  0.33530000  1.0 0.2489218682
H  H140  1  0.31370000  0.55030000  0.28830000  1.0 0.1187345973
H  H141  1  0.25370000  0.56230000  0.24430000  1.0 0.1187345973
H  H142  1  0.13600000  0.70880000  0.28920000  1.0 0.1187345973
H  H143  1  0.19460000  0.69200000  0.33860000  1.0 0.1101640383
H  H144  1  0.32930000  0.68990000  0.53390000  1.0 0.0805657153
H  H145  1  0.40470000  0.59430000  0.46290000  1.0 0.1744814212
H  H146  1  0.98330000  0.50990000  0.34610000  1.0 0.1456788579
H  H147  1  0.04110000  0.57750000  0.26930000  1.0 0.1187345973
H  H148  1  0.19270000  0.40550000  0.20070000  1.0 0.2489218682
H  H149  1  0.17540000  0.35900000  0.25980000  1.0 0.1030507803
H  H150  1  0.39300000  0.57420000  0.47460000  1.0 0.1766901061
H  H151  1  0.41240000  0.03780000  0.25620000  1.0 0.1187345973
H  H152  1  0.49900000  0.05320000  0.24260000  1.0 0.0805657153
H  H153  1  0.50930000  0.17670000  0.03370000  1.0 0.1251608128
H  H154  1  0.45530000  0.17110000  0.03830000  1.0 0.2489218682
H  H155  1  0.55030000  0.31370000  0.84770000  1.0 0.1187345973
H  H156  1  0.56230000  0.25370000  0.93970000  1.0 0.1187345973
H  H157  1  0.70880000  0.13600000  0.86600000  1.0 0.1187345973
H  H158  1  0.69200000  0.19460000  0.77480000  1.0 0.1101640383
H  H159  1  0.68990000  0.32930000  0.44690000  1.0 0.0805657153
H  H160  1  0.59430000  0.40470000  0.53810000  1.0 0.1744814212
H  H161  1  0.50990000  0.98330000  0.16070000  1.0 0.1456788579
H  H162  1  0.57750000  0.04110000  0.11210000  1.0 0.1187345973
H  H163  1  0.40550000  0.19270000  0.20110000  1.0 0.2489218682
H  H164  1  0.35900000  0.17540000  0.20580000  1.0 0.1030507803
H  H165  1  0.57420000  0.39300000  0.55820000  1.0 0.1766901061
H  H166  1  0.25620000  0.29360000  0.41240000  1.0 0.1187345973
H  H167  1  0.24260000  0.20520000  0.49900000  1.0 0.0805657153
H  H168  1  0.03370000  0.28030000  0.50930000  1.0 0.1251608128
H  H169  1  0.03830000  0.33530000  0.45530000  1.0 0.2489218682
H  H170  1  0.84770000  0.28830000  0.55030000  1.0 0.1187345973
H  H171  1  0.93970000  0.24430000  0.56230000  1.0 0.1187345973
H  H172  1  0.86600000  0.28920000  0.70880000  1.0 0.1187345973
H  H173  1  0.77480000  0.33860000  0.69200000  1.0 0.1101640383
H  H174  1  0.44690000  0.53390000  0.68990000  1.0 0.0805657153
H  H175  1  0.53810000  0.46290000  0.59430000  1.0 0.1744814212
H  H176  1  0.16070000  0.34610000  0.50990000  1.0 0.1456788579
H  H177  1  0.11210000  0.26930000  0.57750000  1.0 0.1187345973
H  H178  1  0.20110000  0.20070000  0.40550000  1.0 0.2489218682
H  H179  1  0.20580000  0.25980000  0.35900000  1.0 0.1030507803
H  H180  1  0.55820000  0.47460000  0.57420000  1.0 0.1766901061
H  H181  1  0.79360000  0.53780000  0.75620000  1.0 0.1187345973
H  H182  1  0.70520000  0.55320000  0.74260000  1.0 0.0805657153
H  H183  1  0.78030000  0.67670000  0.53370000  1.0 0.1251608128
H  H184  1  0.83530000  0.67110000  0.53830000  1.0 0.2489218682
H  H185  1  0.78830000  0.81370000  0.34770000  1.0 0.1187345973
H  H186  1  0.74430000  0.75370000  0.43970000  1.0 0.1187345973
H  H187  1  0.78920000  0.63600000  0.36600000  1.0 0.1187345973
H  H188  1  0.83860000  0.69460000  0.27480000  1.0 0.1101640383
H  H189  1  0.03390000  0.82930000  0.94690000  1.0 0.0805657153
H  H190  1  0.96290000  0.90470000  0.03810000  1.0 0.1744814212
H  H191  1  0.84610000  0.48330000  0.66070000  1.0 0.1456788579
H  H192  1  0.76930000  0.54110000  0.61210000  1.0 0.1187345973
H  H193  1  0.70070000  0.69270000  0.70110000  1.0 0.2489218682
H  H194  1  0.75980000  0.67540000  0.70580000  1.0 0.1030507803
H  H195  1  0.97460000  0.89300000  0.05820000  1.0 0.1766901061
H  H196  1  0.53780000  0.79360000  0.91240000  1.0 0.1187345973
H  H197  1  0.55320000  0.70520000  0.99900000  1.0 0.0805657153
H  H198  1  0.67670000  0.78030000  0.00930000  1.0 0.1251608128
H  H199  1  0.67110000  0.83530000  0.95530000  1.0 0.2489218682
H  H200  1  0.81370000  0.78830000  0.05030000  1.0 0.1187345973
H  H201  1  0.75370000  0.74430000  0.06230000  1.0 0.1187345973
H  H202  1  0.63600000  0.78920000  0.20880000  1.0 0.1187345973
H  H203  1  0.69460000  0.83860000  0.19200000  1.0 0.1101640383
H  H204  1  0.82930000  0.03390000  0.18990000  1.0 0.0805657153
H  H205  1  0.90470000  0.96290000  0.09430000  1.0 0.1744814212
H  H206  1  0.48330000  0.84610000  0.00990000  1.0 0.1456788579
H  H207  1  0.54110000  0.76930000  0.07750000  1.0 0.1187345973
H  H208  1  0.69270000  0.70070000  0.90550000  1.0 0.2489218682
H  H209  1  0.67540000  0.75980000  0.85900000  1.0 0.1030507803
H  H210  1  0.89300000  0.97460000  0.07420000  1.0 0.1766901061
H  H211  1  0.91240000  0.75620000  0.53780000  1.0 0.1187345973
H  H212  1  0.99900000  0.74260000  0.55320000  1.0 0.0805657153
H  H213  1  0.00930000  0.53370000  0.67670000  1.0 0.1251608128
H  H214  1  0.95530000  0.53830000  0.67110000  1.0 0.2489218682
H  H215  1  0.05030000  0.34770000  0.81370000  1.0 0.1187345973
H  H216  1  0.06230000  0.43970000  0.75370000  1.0 0.1187345973
H  H217  1  0.20880000  0.36600000  0.63600000  1.0 0.1187345973
H  H218  1  0.19200000  0.27480000  0.69460000  1.0 0.1101640383
H  H219  1  0.18990000  0.94690000  0.82930000  1.0 0.0805657153
H  H220  1  0.09430000  0.03810000  0.90470000  1.0 0.1744814212
H  H221  1  0.00990000  0.66070000  0.48330000  1.0 0.1456788579
H  H222  1  0.07750000  0.61210000  0.54110000  1.0 0.1187345973
H  H223  1  0.90550000  0.70110000  0.69270000  1.0 0.2489218682
H  H224  1  0.85900000  0.70580000  0.67540000  1.0 0.1030507803
H  H225  1  0.07420000  0.05820000  0.89300000  1.0 0.1766901061
H  H226  1  0.75620000  0.91240000  0.79360000  1.0 0.1187345973
H  H227  1  0.74260000  0.99900000  0.70520000  1.0 0.0805657153
H  H228  1  0.53370000  0.00930000  0.78030000  1.0 0.1251608128
H  H229  1  0.53830000  0.95530000  0.83530000  1.0 0.2489218682
H  H230  1  0.34770000  0.05030000  0.78830000  1.0 0.1187345973
H  H231  1  0.43970000  0.06230000  0.74430000  1.0 0.1187345973
H  H232  1  0.36600000  0.20880000  0.78920000  1.0 0.1187345973
H  H233  1  0.27480000  0.19200000  0.83860000  1.0 0.1101640383
H  H234  1  0.94690000  0.18990000  0.03390000  1.0 0.0805657153
H  H235  1  0.03810000  0.09430000  0.96290000  1.0 0.1744814212
H  H236  1  0.66070000  0.00990000  0.84610000  1.0 0.1456788579
H  H237  1  0.61210000  0.07750000  0.76930000  1.0 0.1187345973
H  H238  1  0.70110000  0.90550000  0.70070000  1.0 0.2489218682
H  H239  1  0.70580000  0.85900000  0.75980000  1.0 0.1030507803
H  H240  1  0.05820000  0.07420000  0.97460000  1.0 0.1766901061
H  H241  1  0.53780000  0.75620000  0.79360000  1.0 0.1187345973
H  H242  1  0.55320000  0.74260000  0.70520000  1.0 0.0805657153
H  H243  1  0.67670000  0.53370000  0.78030000  1.0 0.1251608128
H  H244  1  0.67110000  0.53830000  0.83530000  1.0 0.2489218682
H  H245  1  0.81370000  0.34770000  0.78830000  1.0 0.1187345973
H  H246  1  0.75370000  0.43970000  0.74430000  1.0 0.1187345973
H  H247  1  0.63600000  0.36600000  0.78920000  1.0 0.1187345973
H  H248  1  0.69460000  0.27480000  0.83860000  1.0 0.1101640383
H  H249  1  0.82930000  0.94690000  0.03390000  1.0 0.0805657153
H  H250  1  0.90470000  0.03810000  0.96290000  1.0 0.1744814212
H  H251  1  0.48330000  0.66070000  0.84610000  1.0 0.1456788579
H  H252  1  0.54110000  0.61210000  0.76930000  1.0 0.1187345973
H  H253  1  0.69270000  0.70110000  0.70070000  1.0 0.2489218682
H  H254  1  0.67540000  0.70580000  0.75980000  1.0 0.1030507803
H  H255  1  0.89300000  0.05820000  0.97460000  1.0 0.1766901061
H  H256  1  0.79360000  0.91240000  0.53780000  1.0 0.1187345973
H  H257  1  0.70520000  0.99900000  0.55320000  1.0 0.0805657153
H  H258  1  0.78030000  0.00930000  0.67670000  1.0 0.1251608128
H  H259  1  0.83530000  0.95530000  0.67110000  1.0 0.2489218682
H  H260  1  0.78830000  0.05030000  0.81370000  1.0 0.1187345973
H  H261  1  0.74430000  0.06230000  0.75370000  1.0 0.1187345973
H  H262  1  0.78920000  0.20880000  0.63600000  1.0 0.1187345973
H  H263  1  0.83860000  0.19200000  0.69460000  1.0 0.1101640383
H  H264  1  0.03390000  0.18990000  0.82930000  1.0 0.0805657153
H  H265  1  0.96290000  0.09430000  0.90470000  1.0 0.1744814212
H  H266  1  0.84610000  0.00990000  0.48330000  1.0 0.1456788579
H  H267  1  0.76930000  0.07750000  0.54110000  1.0 0.1187345973
H  H268  1  0.70070000  0.90550000  0.69270000  1.0 0.2489218682
H  H269  1  0.75980000  0.85900000  0.67540000  1.0 0.1030507803
H  H270  1  0.97460000  0.07420000  0.89300000  1.0 0.1766901061
H  H271  1  0.75620000  0.53780000  0.91240000  1.0 0.1187345973
H  H272  1  0.74260000  0.55320000  0.99900000  1.0 0.0805657153
H  H273  1  0.53370000  0.67670000  0.00930000  1.0 0.1251608128
H  H274  1  0.53830000  0.67110000  0.95530000  1.0 0.2489218682
H  H275  1  0.34770000  0.81370000  0.05030000  1.0 0.1187345973
H  H276  1  0.43970000  0.75370000  0.06230000  1.0 0.1187345973
H  H277  1  0.36600000  0.63600000  0.20880000  1.0 0.1187345973
H  H278  1  0.27480000  0.69460000  0.19200000  1.0 0.1101640383
H  H279  1  0.94690000  0.82930000  0.18990000  1.0 0.0805657153
H  H280  1  0.03810000  0.90470000  0.09430000  1.0 0.1744814212
H  H281  1  0.66070000  0.48330000  0.00990000  1.0 0.1456788579
H  H282  1  0.61210000  0.54110000  0.07750000  1.0 0.1187345973
H  H283  1  0.70110000  0.69270000  0.90550000  1.0 0.2489218682
H  H284  1  0.70580000  0.67540000  0.85900000  1.0 0.1030507803
H  H285  1  0.05820000  0.89300000  0.07420000  1.0 0.1766901061
H  H286  1  0.91240000  0.79360000  0.75620000  1.0 0.1187345973
H  H287  1  0.99900000  0.70520000  0.74260000  1.0 0.0805657153
H  H288  1  0.00930000  0.78030000  0.53370000  1.0 0.1251608128
H  H289  1  0.95530000  0.83530000  0.53830000  1.0 0.2489218682
H  H290  1  0.05030000  0.78830000  0.34770000  1.0 0.1187345973
H  H291  1  0.06230000  0.74430000  0.43970000  1.0 0.1187345973
H  H292  1  0.20880000  0.78920000  0.36600000  1.0 0.1187345973
H  H293  1  0.19200000  0.83860000  0.27480000  1.0 0.1101640383
H  H294  1  0.18990000  0.03390000  0.94690000  1.0 0.0805657153
H  H295  1  0.09430000  0.96290000  0.03810000  1.0 0.1744814212
H  H296  1  0.00990000  0.84610000  0.66070000  1.0 0.1456788579
H  H297  1  0.07750000  0.76930000  0.61210000  1.0 0.1187345973
H  H298  1  0.90550000  0.70070000  0.70110000  1.0 0.2489218682
H  H299  1  0.85900000  0.75980000  0.70580000  1.0 0.1030507803
H  H300  1  0.07420000  0.97460000  0.05820000  1.0 0.1766901061
H  H301  1  0.75620000  0.79360000  0.53780000  1.0 0.1187345973
H  H302  1  0.74260000  0.70520000  0.55320000  1.0 0.0805657153
H  H303  1  0.53370000  0.78030000  0.67670000  1.0 0.1251608128
H  H304  1  0.53830000  0.83530000  0.67110000  1.0 0.2489218682
H  H305  1  0.34770000  0.78830000  0.81370000  1.0 0.1187345973
H  H306  1  0.43970000  0.74430000  0.75370000  1.0 0.1187345973
H  H307  1  0.36600000  0.78920000  0.63600000  1.0 0.1187345973
H  H308  1  0.27480000  0.83860000  0.69460000  1.0 0.1101640383
H  H309  1  0.94690000  0.03390000  0.82930000  1.0 0.0805657153
H  H310  1  0.03810000  0.96290000  0.90470000  1.0 0.1744814212
H  H311  1  0.66070000  0.84610000  0.48330000  1.0 0.1456788579
H  H312  1  0.61210000  0.76930000  0.54110000  1.0 0.1187345973
H  H313  1  0.70110000  0.70070000  0.69270000  1.0 0.2489218682
H  H314  1  0.70580000  0.75980000  0.67540000  1.0 0.1030507803
H  H315  1  0.05820000  0.97460000  0.89300000  1.0 0.1766901061
H  H316  1  0.91240000  0.53780000  0.79360000  1.0 0.1187345973
H  H317  1  0.99900000  0.55320000  0.70520000  1.0 0.0805657153
H  H318  1  0.00930000  0.67670000  0.78030000  1.0 0.1251608128
H  H319  1  0.95530000  0.67110000  0.83530000  1.0 0.2489218682
H  H320  1  0.05030000  0.81370000  0.78830000  1.0 0.1187345973
H  H321  1  0.06230000  0.75370000  0.74430000  1.0 0.1187345973
H  H322  1  0.20880000  0.63600000  0.78920000  1.0 0.1187345973
H  H323  1  0.19200000  0.69460000  0.83860000  1.0 0.1101640383
H  H324  1  0.18990000  0.82930000  0.03390000  1.0 0.0805657153
H  H325  1  0.09430000  0.90470000  0.96290000  1.0 0.1744814212
H  H326  1  0.00990000  0.48330000  0.84610000  1.0 0.1456788579
H  H327  1  0.07750000  0.54110000  0.76930000  1.0 0.1187345973
H  H328  1  0.90550000  0.69270000  0.70070000  1.0 0.2489218682
H  H329  1  0.85900000  0.67540000  0.75980000  1.0 0.1030507803
H  H330  1  0.07420000  0.89300000  0.97460000  1.0 0.1766901061
H  H331  1  0.53780000  0.91240000  0.75620000  1.0 0.1187345973
H  H332  1  0.55320000  0.99900000  0.74260000  1.0 0.0805657153
H  H333  1  0.67670000  0.00930000  0.53370000  1.0 0.1187345973
H  H334  1  0.67110000  0.95530000  0.53830000  1.0 0.2489218682
H  H335  1  0.81370000  0.05030000  0.34770000  1.0 0.1187345973
H  H336  1  0.75370000  0.06230000  0.43970000  1.0 0.1187345973
H  H337  1  0.63600000  0.20880000  0.36600000  1.0 0.1187345973
H  H338  1  0.69460000  0.19200000  0.27480000  1.0 0.1101640383
H  H339  1  0.82930000  0.18990000  0.94690000  1.0 0.0805657153
H  H340  1  0.90470000  0.09430000  0.03810000  1.0 0.1744814212
H  H341  1  0.48330000  0.00990000  0.66070000  1.0 0.1456788579
H  H342  1  0.54110000  0.07750000  0.61210000  1.0 0.1187345973
H  H343  1  0.69270000  0.90550000  0.70110000  1.0 0.2489218682
H  H344  1  0.67540000  0.85900000  0.70580000  1.0 0.1030507803
H  H345  1  0.89300000  0.07420000  0.05820000  1.0 0.1766901061
H  H346  1  0.79360000  0.75620000  0.91240000  1.0 0.1187345973
H  H347  1  0.70520000  0.74260000  0.99900000  1.0 0.0805657153
H  H348  1  0.78030000  0.53370000  0.00930000  1.0 0.1187345973
H  H349  1  0.83530000  0.53830000  0.95530000  1.0 0.2489218682
H  H350  1  0.78830000  0.34770000  0.05030000  1.0 0.1187345973
H  H351  1  0.74430000  0.43970000  0.06230000  1.0 0.1187345973
H  H352  1  0.78920000  0.36600000  0.20880000  1.0 0.1187345973
H  H353  1  0.83860000  0.27480000  0.19200000  1.0 0.1101640383
H  H354  1  0.03390000  0.94690000  0.18990000  1.0 0.0805657153
H  H355  1  0.96290000  0.03810000  0.09430000  1.0 0.1744814212
H  H356  1  0.84610000  0.66070000  0.00990000  1.0 0.1456788579
H  H357  1  0.76930000  0.61210000  0.07750000  1.0 0.1187345973
H  H358  1  0.70070000  0.70110000  0.90550000  1.0 0.2489218682
H  H359  1  0.75980000  0.70580000  0.85900000  1.0 0.1030507803
H  H360  1  0.97460000  0.05820000  0.07420000  1.0 0.1766901061
C  C1  1  0.12350000  0.28510000  0.11990000  1.0 0.0644711332
C  C2  1  0.06120000  0.28620000  0.21980000  1.0 -0.0906309098
C  C3  1  0.06960000  0.23500000  0.21220000  1.0 -0.1311603504
C  C4  1  0.30056000  0.33954000  0.74280000  1.0 0.5858638481
C  C5  1  0.26027000  0.31581000  0.80227000  1.0 -0.037904731
C  C6  1  0.27773000  0.28859000  0.85139000  1.0 -0.1067079013
C  C7  1  0.24246000  0.26168000  0.90598000  1.0 -0.1311603504
C  C8  1  0.19132000  0.26010000  0.91114000  1.0 0.0404934332
C  C9  1  0.17185000  0.28903000  0.86239000  1.0 -0.1311603504
C  C10  1  0.20743000  0.31771000  0.80795000  1.0 -0.0906309098
C  C11  1  0.15852000  0.22676000  0.96794000  1.0 0.2489218682
C  C12  1  0.31244000  0.52928000  0.48764000  1.0 0.2705734616
C  C13  1  0.41720000  0.43500000  0.57100000  1.0 0.2379431042
C  C14  1  0.12000000  0.26400000  0.17020000  1.0 0.0873036205
C  C15  1  0.02260000  0.32140000  0.15840000  1.0 -0.2236630449
C  C16  1  0.05360000  0.27440000  0.13500000  1.0 -0.0588982293
C  C17  1  0.28510000  0.12350000  0.47150000  1.0 0.0644711332
C  C18  1  0.28620000  0.06120000  0.43280000  1.0 -0.0906309098
C  C19  1  0.23500000  0.06960000  0.48320000  1.0 -0.1311603504
C  C20  1  0.33954000  0.30056000  0.61710000  1.0 0.5858638481
C  C21  1  0.31581000  0.26027000  0.62165000  1.0 -0.037904731
C  C22  1  0.28859000  0.27773000  0.58229000  1.0 -0.1067079013
C  C23  1  0.26168000  0.24246000  0.58988000  1.0 -0.1311603504
C  C24  1  0.26010000  0.19132000  0.63744000  1.0 0.0404934332
C  C25  1  0.28903000  0.17185000  0.67673000  1.0 -0.1311603504
C  C26  1  0.31771000  0.20743000  0.66691000  1.0 -0.0906309098
C  C27  1  0.22676000  0.15852000  0.64678000  1.0 0.2489218682
C  C28  1  0.52928000  0.31244000  0.67064000  1.0 0.2705734616
C  C29  1  0.43500000  0.41720000  0.57680000  1.0 0.2379431042
C  C30  1  0.26400000  0.12000000  0.44580000  1.0 0.0805657153
C  C31  1  0.32140000  0.02260000  0.49760000  1.0 -0.2236630449
C  C32  1  0.27440000  0.05360000  0.53700000  1.0 -0.0588982293
C  C33  1  0.11990000  0.47150000  0.12350000  1.0 0.0644711332
C  C34  1  0.21980000  0.43280000  0.06120000  1.0 -0.0906309098
C  C35  1  0.21220000  0.48320000  0.06960000  1.0 -0.1311603504
C  C36  1  0.74280000  0.61710000  0.30056000  1.0 0.5858638481
C  C37  1  0.80227000  0.62165000  0.26027000  1.0 -0.037904731
C  C38  1  0.85139000  0.58229000  0.27773000  1.0 -0.1067079013
C  C39  1  0.90598000  0.58988000  0.24246000  1.0 -0.1311603504
C  C40  1  0.91114000  0.63744000  0.19132000  1.0 0.0404934332
C  C41  1  0.86239000  0.67673000  0.17185000  1.0 -0.1311603504
C  C42  1  0.80795000  0.66691000  0.20743000  1.0 -0.0906309098
C  C43  1  0.96794000  0.64678000  0.15852000  1.0 0.2489218682
C  C44  1  0.48764000  0.67064000  0.31244000  1.0 0.2705734616
C  C45  1  0.57100000  0.57680000  0.41720000  1.0 0.2379431042
C  C46  1  0.17020000  0.44580000  0.12000000  1.0 0.0805657153
C  C47  1  0.15840000  0.49760000  0.02260000  1.0 -0.2236630449
C  C48  1  0.13500000  0.53700000  0.05360000  1.0 -0.0588982293
C  C49  1  0.47150000  0.11990000  0.28510000  1.0 0.0644711332
C  C50  1  0.43280000  0.21980000  0.28620000  1.0 -0.0906309098
C  C51  1  0.48320000  0.21220000  0.23500000  1.0 -0.1311603504
C  C52  1  0.61710000  0.74280000  0.33954000  1.0 0.5858638481
C  C53  1  0.62165000  0.80227000  0.31581000  1.0 -0.037904731
C  C54  1  0.58229000  0.85139000  0.28859000  1.0 -0.1067079013
C  C55  1  0.58988000  0.90598000  0.26168000  1.0 -0.1311603504
C  C56  1  0.63744000  0.91114000  0.26010000  1.0 0.0404934332
C  C57  1  0.67673000  0.86239000  0.28903000  1.0 -0.1311603504
C  C58  1  0.66691000  0.80795000  0.31771000  1.0 -0.0906309098
C  C59  1  0.64678000  0.96794000  0.22676000  1.0 0.2489218682
C  C60  1  0.67064000  0.48764000  0.52928000  1.0 0.2705734616
C  C61  1  0.57680000  0.57100000  0.43500000  1.0 0.2379431042
C  C62  1  0.44580000  0.17020000  0.26400000  1.0 0.0805657153
C  C63  1  0.49760000  0.15840000  0.32140000  1.0 -0.2236630449
C  C64  1  0.53700000  0.13500000  0.27440000  1.0 -0.0588982293
C  C65  1  0.11990000  0.12350000  0.28510000  1.0 0.0644711332
C  C66  1  0.21980000  0.06120000  0.28620000  1.0 -0.0906309098
C  C67  1  0.21220000  0.06960000  0.23500000  1.0 -0.1311603504
C  C68  1  0.74280000  0.30056000  0.33954000  1.0 0.5858638481
C  C69  1  0.80227000  0.26027000  0.31581000  1.0 -0.037904731
C  C70  1  0.85139000  0.27773000  0.28859000  1.0 -0.1067079013
C  C71  1  0.90598000  0.24246000  0.26168000  1.0 -0.1311603504
C  C72  1  0.91114000  0.19132000  0.26010000  1.0 0.0404934332
C  C73  1  0.86239000  0.17185000  0.28903000  1.0 -0.1311603504
C  C74  1  0.80795000  0.20743000  0.31771000  1.0 -0.0906309098
C  C75  1  0.96794000  0.15852000  0.22676000  1.0 0.2489218682
C  C76  1  0.48764000  0.31244000  0.52928000  1.0 0.2705734616
C  C77  1  0.57100000  0.41720000  0.43500000  1.0 0.2379431042
C  C78  1  0.17020000  0.12000000  0.26400000  1.0 0.0873036205
C  C79  1  0.15840000  0.02260000  0.32140000  1.0 -0.2254652833
C  C80  1  0.13500000  0.05360000  0.27440000  1.0 -0.0588982293
C  C81  1  0.47150000  0.28510000  0.12350000  1.0 0.0644711332
C  C82  1  0.43280000  0.28620000  0.06120000  1.0 -0.0906309098
C  C83  1  0.48320000  0.23500000  0.06960000  1.0 -0.1311603504
C  C84  1  0.61710000  0.33954000  0.30056000  1.0 0.5858638481
C  C85  1  0.62165000  0.31581000  0.26027000  1.0 -0.037904731
C  C86  1  0.58229000  0.28859000  0.27773000  1.0 -0.1067079013
C  C87  1  0.58988000  0.26168000  0.24246000  1.0 -0.1311603504
C  C88  1  0.63744000  0.26010000  0.19132000  1.0 0.0404934332
C  C89  1  0.67673000  0.28903000  0.17185000  1.0 -0.1311603504
C  C90  1  0.66691000  0.31771000  0.20743000  1.0 -0.0906309098
C  C91  1  0.64678000  0.22676000  0.15852000  1.0 0.2489218682
C  C92  1  0.67064000  0.52928000  0.31244000  1.0 0.2705734616
C  C93  1  0.57680000  0.43500000  0.41720000  1.0 0.2379431042
C  C94  1  0.44580000  0.26400000  0.12000000  1.0 0.0873036205
C  C95  1  0.49760000  0.32140000  0.02260000  1.0 -0.2236630449
C  C96  1  0.53700000  0.27440000  0.05360000  1.0 -0.0588982293
C  C97  1  0.12350000  0.11990000  0.47150000  1.0 0.0644711332
C  C98  1  0.06120000  0.21980000  0.43280000  1.0 -0.0906309098
C  C99  1  0.06960000  0.21220000  0.48320000  1.0 -0.1311603504
C  C100  1  0.30056000  0.74280000  0.61710000  1.0 0.5858638481
C  C101  1  0.26027000  0.80227000  0.62165000  1.0 -0.037904731
C  C102  1  0.27773000  0.85139000  0.58229000  1.0 -0.1067079013
C  C103  1  0.24246000  0.90598000  0.58988000  1.0 -0.1311603504
C  C104  1  0.19132000  0.91114000  0.63744000  1.0 0.0404934332
C  C105  1  0.17185000  0.86239000  0.67673000  1.0 -0.1311603504
C  C106  1  0.20743000  0.80795000  0.66691000  1.0 -0.0906309098
C  C107  1  0.15852000  0.96794000  0.64678000  1.0 0.2489218682
C  C108  1  0.31244000  0.48764000  0.67064000  1.0 0.2705734616
C  C109  1  0.41720000  0.57100000  0.57680000  1.0 0.2379431042
C  C110  1  0.12000000  0.17020000  0.44580000  1.0 0.0805657153
C  C111  1  0.02260000  0.15840000  0.49760000  1.0 -0.2236630449
C  C112  1  0.05360000  0.13500000  0.53700000  1.0 -0.0588982293
C  C113  1  0.28510000  0.47150000  0.11990000  1.0 0.0644711332
C  C114  1  0.28620000  0.43280000  0.21980000  1.0 -0.0906309098
C  C115  1  0.23500000  0.48320000  0.21220000  1.0 -0.1311603504
C  C116  1  0.33954000  0.61710000  0.74280000  1.0 0.5858638481
C  C117  1  0.31581000  0.62165000  0.80227000  1.0 -0.037904731
C  C118  1  0.28859000  0.58229000  0.85139000  1.0 -0.1067079013
C  C119  1  0.26168000  0.58988000  0.90598000  1.0 -0.1311603504
C  C120  1  0.26010000  0.63744000  0.91114000  1.0 0.0404934332
C  C121  1  0.28903000  0.67673000  0.86239000  1.0 -0.1311603504
C  C122  1  0.31771000  0.66691000  0.80795000  1.0 -0.0906309098
C  C123  1  0.22676000  0.64678000  0.96794000  1.0 0.2489218682
C  C124  1  0.52928000  0.67064000  0.48764000  1.0 0.2705734616
C  C125  1  0.43500000  0.57680000  0.57100000  1.0 0.2379431042
C  C126  1  0.26400000  0.44580000  0.17020000  1.0 0.0873036205
C  C127  1  0.32140000  0.49760000  0.15840000  1.0 -0.2236630449
C  C128  1  0.27440000  0.53700000  0.13500000  1.0 -0.0588982293
C  C129  1  0.28510000  0.11990000  0.12350000  1.0 0.0644711332
C  C130  1  0.28620000  0.21980000  0.06120000  1.0 -0.0906309098
C  C131  1  0.23500000  0.21220000  0.06960000  1.0 -0.1311603504
C  C132  1  0.33954000  0.74280000  0.30056000  1.0 0.5858638481
C  C133  1  0.31581000  0.80227000  0.26027000  1.0 -0.037904731
C  C134  1  0.28859000  0.85139000  0.27773000  1.0 -0.1067079013
C  C135  1  0.26168000  0.90598000  0.24246000  1.0 -0.1311603504
C  C136  1  0.26010000  0.91114000  0.19132000  1.0 0.0404934332
C  C137  1  0.28903000  0.86239000  0.17185000  1.0 -0.1311603504
C  C138  1  0.31771000  0.80795000  0.20743000  1.0 -0.0906309098
C  C139  1  0.22676000  0.96794000  0.15852000  1.0 0.2489218682
C  C140  1  0.52928000  0.48764000  0.31244000  1.0 0.2705734616
C  C141  1  0.43500000  0.57100000  0.41720000  1.0 0.2379431042
C  C142  1  0.26400000  0.17020000  0.12000000  1.0 0.0873036205
C  C143  1  0.32140000  0.15840000  0.02260000  1.0 -0.2236630449
C  C144  1  0.27440000  0.13500000  0.05360000  1.0 -0.0588982293
C  C145  1  0.12350000  0.47150000  0.28510000  1.0 0.0644711332
C  C146  1  0.06120000  0.43280000  0.28620000  1.0 -0.0906309098
C  C147  1  0.06960000  0.48320000  0.23500000  1.0 -0.1311603504
C  C148  1  0.30056000  0.61710000  0.33954000  1.0 0.5858638481
C  C149  1  0.26027000  0.62165000  0.31581000  1.0 -0.037904731
C  C150  1  0.27773000  0.58229000  0.28859000  1.0 -0.1067079013
C  C151  1  0.24246000  0.58988000  0.26168000  1.0 -0.1311603504
C  C152  1  0.19132000  0.63744000  0.26010000  1.0 0.0404934332
C  C153  1  0.17185000  0.67673000  0.28903000  1.0 -0.1311603504
C  C154  1  0.20743000  0.66691000  0.31771000  1.0 -0.0906309098
C  C155  1  0.15852000  0.64678000  0.22676000  1.0 0.2489218682
C  C156  1  0.31244000  0.67064000  0.52928000  1.0 0.2705734616
C  C157  1  0.41720000  0.57680000  0.43500000  1.0 0.2379431042
C  C158  1  0.12000000  0.44580000  0.26400000  1.0 0.0805657153
C  C159  1  0.02260000  0.49760000  0.32140000  1.0 -0.2236630449
C  C160  1  0.05360000  0.53700000  0.27440000  1.0 -0.0588982293
C  C161  1  0.47150000  0.12350000  0.11990000  1.0 0.0644711332
C  C162  1  0.43280000  0.06120000  0.21980000  1.0 -0.0906309098
C  C163  1  0.48320000  0.06960000  0.21220000  1.0 -0.1311603504
C  C164  1  0.61710000  0.30056000  0.74280000  1.0 0.5858638481
C  C165  1  0.62165000  0.26027000  0.80227000  1.0 -0.037904731
C  C166  1  0.58229000  0.27773000  0.85139000  1.0 -0.1067079013
C  C167  1  0.58988000  0.24246000  0.90598000  1.0 -0.1311603504
C  C168  1  0.63744000  0.19132000  0.91114000  1.0 0.0404934332
C  C169  1  0.67673000  0.17185000  0.86239000  1.0 -0.1311603504
C  C170  1  0.66691000  0.20743000  0.80795000  1.0 -0.0906309098
C  C171  1  0.64678000  0.15852000  0.96794000  1.0 0.2489218682
C  C172  1  0.67064000  0.31244000  0.48764000  1.0 0.2705734616
C  C173  1  0.57680000  0.41720000  0.57100000  1.0 0.2379431042
C  C174  1  0.44580000  0.12000000  0.17020000  1.0 0.0873036205
C  C175  1  0.49760000  0.02260000  0.15840000  1.0 -0.2254652833
C  C176  1  0.53700000  0.05360000  0.13500000  1.0 -0.0588982293
C  C177  1  0.11990000  0.28510000  0.47150000  1.0 0.0644711332
C  C178  1  0.21980000  0.28620000  0.43280000  1.0 -0.0906309098
C  C179  1  0.21220000  0.23500000  0.48320000  1.0 -0.1311603504
C  C180  1  0.74280000  0.33954000  0.61710000  1.0 0.5858638481
C  C181  1  0.80227000  0.31581000  0.62165000  1.0 -0.037904731
C  C182  1  0.85139000  0.28859000  0.58229000  1.0 -0.1067079013
C  C183  1  0.90598000  0.26168000  0.58988000  1.0 -0.1311603504
C  C184  1  0.91114000  0.26010000  0.63744000  1.0 0.0404934332
C  C185  1  0.86239000  0.28903000  0.67673000  1.0 -0.1311603504
C  C186  1  0.80795000  0.31771000  0.66691000  1.0 -0.0906309098
C  C187  1  0.96794000  0.22676000  0.64678000  1.0 0.2489218682
C  C188  1  0.48764000  0.52928000  0.67064000  1.0 0.2705734616
C  C189  1  0.57100000  0.43500000  0.57680000  1.0 0.2379431042
C  C190  1  0.17020000  0.26400000  0.44580000  1.0 0.0873036205
C  C191  1  0.15840000  0.32140000  0.49760000  1.0 -0.2236630449
C  C192  1  0.13500000  0.27440000  0.53700000  1.0 -0.0588982293
C  C193  1  0.78510000  0.62350000  0.61990000  1.0 0.0644711332
C  C194  1  0.78620000  0.56120000  0.71980000  1.0 -0.0906309098
C  C195  1  0.73500000  0.56960000  0.71220000  1.0 -0.1311603504
C  C196  1  0.83954000  0.80056000  0.24280000  1.0 0.5858638481
C  C197  1  0.81581000  0.76027000  0.30227000  1.0 -0.037904731
C  C198  1  0.78859000  0.77773000  0.35139000  1.0 -0.1067079013
C  C199  1  0.76168000  0.74246000  0.40598000  1.0 -0.1311603504
C  C200  1  0.76010000  0.69132000  0.41114000  1.0 0.0404934332
C  C201  1  0.78903000  0.67185000  0.36239000  1.0 -0.1311603504
C  C202  1  0.81771000  0.70743000  0.30795000  1.0 -0.0906309098
C  C203  1  0.72676000  0.65852000  0.46794000  1.0 0.2489218682
C  C204  1  0.02928000  0.81244000  0.98764000  1.0 0.2705734616
C  C205  1  0.93500000  0.91720000  0.07100000  1.0 0.2379431042
C  C206  1  0.76400000  0.62000000  0.67020000  1.0 0.0873036205
C  C207  1  0.82140000  0.52260000  0.65840000  1.0 -0.2236630449
C  C208  1  0.77440000  0.55360000  0.63500000  1.0 -0.0588982293
C  C209  1  0.62350000  0.78510000  0.97150000  1.0 0.0644711332
C  C210  1  0.56120000  0.78620000  0.93280000  1.0 -0.0906309098
C  C211  1  0.56960000  0.73500000  0.98320000  1.0 -0.1311603504
C  C212  1  0.80056000  0.83954000  0.11710000  1.0 0.5858638481
C  C213  1  0.76027000  0.81581000  0.12165000  1.0 -0.037904731
C  C214  1  0.77773000  0.78859000  0.08229000  1.0 -0.1067079013
C  C215  1  0.74246000  0.76168000  0.08988000  1.0 -0.1311603504
C  C216  1  0.69132000  0.76010000  0.13744000  1.0 0.0404934332
C  C217  1  0.67185000  0.78903000  0.17673000  1.0 -0.1311603504
C  C218  1  0.70743000  0.81771000  0.16691000  1.0 -0.0906309098
C  C219  1  0.65852000  0.72676000  0.14678000  1.0 0.2489218682
C  C220  1  0.81244000  0.02928000  0.17064000  1.0 0.2705734616
C  C221  1  0.91720000  0.93500000  0.07680000  1.0 0.2379431042
C  C222  1  0.62000000  0.76400000  0.94580000  1.0 0.0873036205
C  C223  1  0.52260000  0.82140000  0.99760000  1.0 -0.2236630449
C  C224  1  0.55360000  0.77440000  0.03700000  1.0 -0.0588982293
C  C225  1  0.97150000  0.61990000  0.62350000  1.0 0.0644711332
C  C226  1  0.93280000  0.71980000  0.56120000  1.0 -0.0906309098
C  C227  1  0.98320000  0.71220000  0.56960000  1.0 -0.1311603504
C  C228  1  0.11710000  0.24280000  0.80056000  1.0 0.5858638481
C  C229  1  0.12165000  0.30227000  0.76027000  1.0 -0.037904731
C  C230  1  0.08229000  0.35139000  0.77773000  1.0 -0.1067079013
C  C231  1  0.08988000  0.40598000  0.74246000  1.0 -0.1311603504
C  C232  1  0.13744000  0.41114000  0.69132000  1.0 0.0404934332
C  C233  1  0.17673000  0.36239000  0.67185000  1.0 -0.1311603504
C  C234  1  0.16691000  0.30795000  0.70743000  1.0 -0.0906309098
C  C235  1  0.14678000  0.46794000  0.65852000  1.0 0.2489218682
C  C236  1  0.17064000  0.98764000  0.81244000  1.0 0.2705734616
C  C237  1  0.07680000  0.07100000  0.91720000  1.0 0.2379431042
C  C238  1  0.94580000  0.67020000  0.62000000  1.0 0.0873036205
C  C239  1  0.99760000  0.65840000  0.52260000  1.0 -0.2236630449
C  C240  1  0.03700000  0.63500000  0.55360000  1.0 -0.0588982293
C  C241  1  0.61990000  0.97150000  0.78510000  1.0 0.0644711332
C  C242  1  0.71980000  0.93280000  0.78620000  1.0 -0.0906309098
C  C243  1  0.71220000  0.98320000  0.73500000  1.0 -0.1311603504
C  C244  1  0.24280000  0.11710000  0.83954000  1.0 0.5858638481
C  C245  1  0.30227000  0.12165000  0.81581000  1.0 -0.037904731
C  C246  1  0.35139000  0.08229000  0.78859000  1.0 -0.1067079013
C  C247  1  0.40598000  0.08988000  0.76168000  1.0 -0.1311603504
C  C248  1  0.41114000  0.13744000  0.76010000  1.0 0.0404934332
C  C249  1  0.36239000  0.17673000  0.78903000  1.0 -0.1311603504
C  C250  1  0.30795000  0.16691000  0.81771000  1.0 -0.0906309098
C  C251  1  0.46794000  0.14678000  0.72676000  1.0 0.2489218682
C  C252  1  0.98764000  0.17064000  0.02928000  1.0 0.2705734616
C  C253  1  0.07100000  0.07680000  0.93500000  1.0 0.2379431042
C  C254  1  0.67020000  0.94580000  0.76400000  1.0 0.0873036205
C  C255  1  0.65840000  0.99760000  0.82140000  1.0 -0.2254652833
C  C256  1  0.63500000  0.03700000  0.77440000  1.0 -0.0588982293
C  C257  1  0.62350000  0.61990000  0.78510000  1.0 0.0644711332
C  C258  1  0.56120000  0.71980000  0.78620000  1.0 -0.0906309098
C  C259  1  0.56960000  0.71220000  0.73500000  1.0 -0.1311603504
C  C260  1  0.80056000  0.24280000  0.83954000  1.0 0.5858638481
C  C261  1  0.76027000  0.30227000  0.81581000  1.0 -0.037904731
C  C262  1  0.77773000  0.35139000  0.78859000  1.0 -0.1067079013
C  C263  1  0.74246000  0.40598000  0.76168000  1.0 -0.1311603504
C  C264  1  0.69132000  0.41114000  0.76010000  1.0 0.0404934332
C  C265  1  0.67185000  0.36239000  0.78903000  1.0 -0.1311603504
C  C266  1  0.70743000  0.30795000  0.81771000  1.0 -0.0906309098
C  C267  1  0.65852000  0.46794000  0.72676000  1.0 0.2489218682
C  C268  1  0.81244000  0.98764000  0.02928000  1.0 0.2705734616
C  C269  1  0.91720000  0.07100000  0.93500000  1.0 0.2379431042
C  C270  1  0.62000000  0.67020000  0.76400000  1.0 0.0873036205
C  C271  1  0.52260000  0.65840000  0.82140000  1.0 -0.2254652833
C  C272  1  0.55360000  0.63500000  0.77440000  1.0 -0.0588982293
C  C273  1  0.78510000  0.97150000  0.62350000  1.0 0.0644711332
C  C274  1  0.78620000  0.93280000  0.56120000  1.0 -0.0906309098
C  C275  1  0.73500000  0.98320000  0.56960000  1.0 -0.1311603504
C  C276  1  0.83954000  0.11710000  0.80056000  1.0 0.5858638481
C  C277  1  0.81581000  0.12165000  0.76027000  1.0 -0.037904731
C  C278  1  0.78859000  0.08229000  0.77773000  1.0 -0.1067079013
C  C279  1  0.76168000  0.08988000  0.74246000  1.0 -0.1311603504
C  C280  1  0.76010000  0.13744000  0.69132000  1.0 0.0404934332
C  C281  1  0.78903000  0.17673000  0.67185000  1.0 -0.1311603504
C  C282  1  0.81771000  0.16691000  0.70743000  1.0 -0.0906309098
C  C283  1  0.72676000  0.14678000  0.65852000  1.0 0.2489218682
C  C284  1  0.02928000  0.17064000  0.81244000  1.0 0.2705734616
C  C285  1  0.93500000  0.07680000  0.91720000  1.0 0.2379431042
C  C286  1  0.76400000  0.94580000  0.62000000  1.0 0.0873036205
C  C287  1  0.82140000  0.99760000  0.52260000  1.0 -0.2254652833
C  C288  1  0.77440000  0.03700000  0.55360000  1.0 -0.0588982293
C  C289  1  0.61990000  0.62350000  0.97150000  1.0 0.0644711332
C  C290  1  0.71980000  0.56120000  0.93280000  1.0 -0.0906309098
C  C291  1  0.71220000  0.56960000  0.98320000  1.0 -0.1311603504
C  C292  1  0.24280000  0.80056000  0.11710000  1.0 0.5858638481
C  C293  1  0.30227000  0.76027000  0.12165000  1.0 -0.037904731
C  C294  1  0.35139000  0.77773000  0.08229000  1.0 -0.1067079013
C  C295  1  0.40598000  0.74246000  0.08988000  1.0 -0.1311603504
C  C296  1  0.41114000  0.69132000  0.13744000  1.0 0.0404934332
C  C297  1  0.36239000  0.67185000  0.17673000  1.0 -0.1311603504
C  C298  1  0.30795000  0.70743000  0.16691000  1.0 -0.0906309098
C  C299  1  0.46794000  0.65852000  0.14678000  1.0 0.2489218682
C  C300  1  0.98764000  0.81244000  0.17064000  1.0 0.2705734616
C  C301  1  0.07100000  0.91720000  0.07680000  1.0 0.2379431042
C  C302  1  0.67020000  0.62000000  0.94580000  1.0 0.0873036205
C  C303  1  0.65840000  0.52260000  0.99760000  1.0 -0.2236630449
C  C304  1  0.63500000  0.55360000  0.03700000  1.0 -0.0588982293
C  C305  1  0.97150000  0.78510000  0.61990000  1.0 0.0644711332
C  C306  1  0.93280000  0.78620000  0.71980000  1.0 -0.0906309098
C  C307  1  0.98320000  0.73500000  0.71220000  1.0 -0.1311603504
C  C308  1  0.11710000  0.83954000  0.24280000  1.0 0.5858638481
C  C309  1  0.12165000  0.81581000  0.30227000  1.0 -0.037904731
C  C310  1  0.08229000  0.78859000  0.35139000  1.0 -0.1067079013
C  C311  1  0.08988000  0.76168000  0.40598000  1.0 -0.1311603504
C  C312  1  0.13744000  0.76010000  0.41114000  1.0 0.0404934332
C  C313  1  0.17673000  0.78903000  0.36239000  1.0 -0.1311603504
C  C314  1  0.16691000  0.81771000  0.30795000  1.0 -0.0906309098
C  C315  1  0.14678000  0.72676000  0.46794000  1.0 0.2489218682
C  C316  1  0.17064000  0.02928000  0.98764000  1.0 0.2705734616
C  C317  1  0.07680000  0.93500000  0.07100000  1.0 0.2379431042
C  C318  1  0.94580000  0.76400000  0.67020000  1.0 0.0873036205
C  C319  1  0.99760000  0.82140000  0.65840000  1.0 -0.2236630449
C  C320  1  0.03700000  0.77440000  0.63500000  1.0 -0.0588982293
C  C321  1  0.61990000  0.78510000  0.62350000  1.0 0.0644711332
C  C322  1  0.71980000  0.78620000  0.56120000  1.0 -0.0906309098
C  C323  1  0.71220000  0.73500000  0.56960000  1.0 -0.1311603504
C  C324  1  0.24280000  0.83954000  0.80056000  1.0 0.5858638481
C  C325  1  0.30227000  0.81581000  0.76027000  1.0 -0.037904731
C  C326  1  0.35139000  0.78859000  0.77773000  1.0 -0.1067079013
C  C327  1  0.40598000  0.76168000  0.74246000  1.0 -0.1311603504
C  C328  1  0.41114000  0.76010000  0.69132000  1.0 0.0404934332
C  C329  1  0.36239000  0.78903000  0.67185000  1.0 -0.1311603504
C  C330  1  0.30795000  0.81771000  0.70743000  1.0 -0.0906309098
C  C331  1  0.46794000  0.72676000  0.65852000  1.0 0.2489218682
C  C332  1  0.98764000  0.02928000  0.81244000  1.0 0.2705734616
C  C333  1  0.07100000  0.93500000  0.91720000  1.0 0.2379431042
C  C334  1  0.67020000  0.76400000  0.62000000  1.0 0.0873036205
C  C335  1  0.65840000  0.82140000  0.52260000  1.0 -0.2236630449
C  C336  1  0.63500000  0.77440000  0.55360000  1.0 -0.0588982293
C  C337  1  0.97150000  0.62350000  0.78510000  1.0 0.0644711332
C  C338  1  0.93280000  0.56120000  0.78620000  1.0 -0.0906309098
C  C339  1  0.98320000  0.56960000  0.73500000  1.0 -0.1311603504
C  C340  1  0.11710000  0.80056000  0.83954000  1.0 0.5858638481
C  C341  1  0.12165000  0.76027000  0.81581000  1.0 -0.037904731
C  C342  1  0.08229000  0.77773000  0.78859000  1.0 -0.1067079013
C  C343  1  0.08988000  0.74246000  0.76168000  1.0 -0.1311603504
C  C344  1  0.13744000  0.69132000  0.76010000  1.0 0.0404934332
C  C345  1  0.17673000  0.67185000  0.78903000  1.0 -0.1311603504
C  C346  1  0.16691000  0.70743000  0.81771000  1.0 -0.0906309098
C  C347  1  0.14678000  0.65852000  0.72676000  1.0 0.2489218682
C  C348  1  0.17064000  0.81244000  0.02928000  1.0 0.2705734616
C  C349  1  0.07680000  0.91720000  0.93500000  1.0 0.2379431042
C  C350  1  0.94580000  0.62000000  0.76400000  1.0 0.0873036205
C  C351  1  0.99760000  0.52260000  0.82140000  1.0 -0.2236630449
C  C352  1  0.03700000  0.55360000  0.77440000  1.0 -0.0588982293
C  C353  1  0.62350000  0.97150000  0.61990000  1.0 0.0644711332
C  C354  1  0.56120000  0.93280000  0.71980000  1.0 -0.0906309098
C  C355  1  0.56960000  0.98320000  0.71220000  1.0 -0.1311603504
C  C356  1  0.80056000  0.11710000  0.24280000  1.0 0.5858638481
C  C357  1  0.76027000  0.12165000  0.30227000  1.0 -0.037904731
C  C358  1  0.77773000  0.08229000  0.35139000  1.0 -0.1067079013
C  C359  1  0.74246000  0.08988000  0.40598000  1.0 -0.1311603504
C  C360  1  0.69132000  0.13744000  0.41114000  1.0 0.0404934332
C  C361  1  0.67185000  0.17673000  0.36239000  1.0 -0.1311603504
C  C362  1  0.70743000  0.16691000  0.30795000  1.0 -0.0906309098
C  C363  1  0.65852000  0.14678000  0.46794000  1.0 0.2489218682
C  C364  1  0.81244000  0.17064000  0.98764000  1.0 0.2705734616
C  C365  1  0.91720000  0.07680000  0.07100000  1.0 0.2379431042
C  C366  1  0.62000000  0.94580000  0.67020000  1.0 0.0873036205
C  C367  1  0.52260000  0.99760000  0.65840000  1.0 -0.2254652833
C  C368  1  0.55360000  0.03700000  0.63500000  1.0 -0.0588982293
C  C369  1  0.78510000  0.61990000  0.97150000  1.0 0.0644711332
C  C370  1  0.78620000  0.71980000  0.93280000  1.0 -0.0906309098
C  C371  1  0.73500000  0.71220000  0.98320000  1.0 -0.1311603504
C  C372  1  0.83954000  0.24280000  0.11710000  1.0 0.5858638481
C  C373  1  0.81581000  0.30227000  0.12165000  1.0 -0.037904731
C  C374  1  0.78859000  0.35139000  0.08229000  1.0 -0.1067079013
C  C375  1  0.76168000  0.40598000  0.08988000  1.0 -0.1311603504
C  C376  1  0.76010000  0.41114000  0.13744000  1.0 0.0404934332
C  C377  1  0.78903000  0.36239000  0.17673000  1.0 -0.1311603504
C  C378  1  0.81771000  0.30795000  0.16691000  1.0 -0.0906309098
C  C379  1  0.72676000  0.46794000  0.14678000  1.0 0.2489218682
C  C380  1  0.02928000  0.98764000  0.17064000  1.0 0.2705734616
C  C381  1  0.93500000  0.07100000  0.07680000  1.0 0.2379431042
C  C382  1  0.76400000  0.67020000  0.94580000  1.0 0.0805657153
C  C383  1  0.82140000  0.65840000  0.99760000  1.0 -0.2254652833
C  C384  1  0.77440000  0.63500000  0.03700000  1.0 -0.0588982293
S  S1  1  0.09620000  0.33300000  0.15900000  1.0 0.0873036205
S  S2  1  0.06430000  0.33070000  0.18010000  1.0 0.0805657153
S  S3  1  0.33300000  0.09620000  0.41180000  1.0 0.0873036205
S  S4  1  0.33070000  0.06430000  0.42490000  1.0 0.0805657153
S  S5  1  0.15900000  0.41180000  0.09620000  1.0 0.0873036205
S  S6  1  0.18010000  0.42490000  0.06430000  1.0 0.0873036205
S  S7  1  0.41180000  0.15900000  0.33300000  1.0 0.0873036205
S  S8  1  0.42490000  0.18010000  0.33070000  1.0 0.0873036205
S  S9  1  0.15900000  0.09620000  0.33300000  1.0 0.0873036205
S  S10  1  0.18010000  0.06430000  0.33070000  1.0 0.0873036205
S  S11  1  0.41180000  0.33300000  0.09620000  1.0 0.0873036205
S  S12  1  0.42490000  0.33070000  0.06430000  1.0 0.0873036205
S  S13  1  0.09620000  0.15900000  0.41180000  1.0 0.0873036205
S  S14  1  0.06430000  0.18010000  0.42490000  1.0 0.0873036205
S  S15  1  0.33300000  0.41180000  0.15900000  1.0 0.0873036205
S  S16  1  0.33070000  0.42490000  0.18010000  1.0 0.0873036205
S  S17  1  0.33300000  0.15900000  0.09620000  1.0 0.0873036205
S  S18  1  0.33070000  0.18010000  0.06430000  1.0 0.0805657153
S  S19  1  0.09620000  0.41180000  0.33300000  1.0 0.0873036205
S  S20  1  0.06430000  0.42490000  0.33070000  1.0 0.0873036205
S  S21  1  0.41180000  0.09620000  0.15900000  1.0 0.0873036205
S  S22  1  0.42490000  0.06430000  0.18010000  1.0 0.0873036205
S  S23  1  0.15900000  0.33300000  0.41180000  1.0 0.0873036205
S  S24  1  0.18010000  0.33070000  0.42490000  1.0 0.0805657153
S  S25  1  0.83300000  0.59620000  0.65900000  1.0 0.0873036205
S  S26  1  0.83070000  0.56430000  0.68010000  1.0 0.0873036205
S  S27  1  0.59620000  0.83300000  0.91180000  1.0 0.0873036205
S  S28  1  0.56430000  0.83070000  0.92490000  1.0 0.0805657153
S  S29  1  0.91180000  0.65900000  0.59620000  1.0 0.0873036205
S  S30  1  0.92490000  0.68010000  0.56430000  1.0 0.0873036205
S  S31  1  0.65900000  0.91180000  0.83300000  1.0 0.0873036205
S  S32  1  0.68010000  0.92490000  0.83070000  1.0 0.0873036205
S  S33  1  0.59620000  0.65900000  0.83300000  1.0 0.0873036205
S  S34  1  0.56430000  0.68010000  0.83070000  1.0 0.0873036205
S  S35  1  0.83300000  0.91180000  0.59620000  1.0 0.0873036205
S  S36  1  0.83070000  0.92490000  0.56430000  1.0 0.0873036205
S  S37  1  0.65900000  0.59620000  0.91180000  1.0 0.0873036205
S  S38  1  0.68010000  0.56430000  0.92490000  1.0 0.0873036205
S  S39  1  0.91180000  0.83300000  0.65900000  1.0 0.0873036205
S  S40  1  0.92490000  0.83070000  0.68010000  1.0 0.0873036205
S  S41  1  0.65900000  0.83300000  0.59620000  1.0 0.0873036205
S  S42  1  0.68010000  0.83070000  0.56430000  1.0 0.0873036205
S  S43  1  0.91180000  0.59620000  0.83300000  1.0 0.0873036205
S  S44  1  0.92490000  0.56430000  0.83070000  1.0 0.0805657153
S  S45  1  0.59620000  0.91180000  0.65900000  1.0 0.0873036205
S  S46  1  0.56430000  0.92490000  0.68010000  1.0 0.0873036205
S  S47  1  0.83300000  0.65900000  0.91180000  1.0 0.0873036205
S  S48  1  0.83070000  0.68010000  0.92490000  1.0 0.0873036205
N  N1  1  0.10605000  0.23375000  0.15255000  1.0 -0.1738200435
N  N2  1  0.16280000  0.30280000  0.05460000  1.0 -0.570441331
N  N3  1  0.13039000  0.19367000  0.97793000  1.0 -0.2674434178
N  N4  1  0.11262000  0.16764000  0.03730000  1.0 -0.0702581138
N  N5  1  0.12896000  0.18538000  0.06030000  1.0 -0.037904731
N  N6  1  0.15771000  0.22277000  0.01843000  1.0 -0.2236630449
N  N7  1  0.17020000  0.23780000  0.19600000  1.0 -0.3486317699
N  N8  1  0.23375000  0.10605000  0.50765000  1.0 -0.1738200435
N  N9  1  0.30280000  0.16280000  0.47980000  1.0 -0.570441331
N  N10  1  0.19367000  0.13039000  0.69801000  1.0 -0.2674434178
N  N11  1  0.16764000  0.11262000  0.68244000  1.0 -0.0702581138
N  N12  1  0.18538000  0.12896000  0.62536000  1.0 -0.037904731
N  N13  1  0.22277000  0.15771000  0.60109000  1.0 -0.2236630449
N  N14  1  0.23780000  0.17020000  0.39600000  1.0 -0.3486317699
N  N15  1  0.15255000  0.50765000  0.10605000  1.0 -0.1738200435
N  N16  1  0.05460000  0.47980000  0.16280000  1.0 -0.570441331
N  N17  1  0.97793000  0.69801000  0.13039000  1.0 -0.2674434178
N  N18  1  0.03730000  0.68244000  0.11262000  1.0 -0.0702581138
N  N19  1  0.06030000  0.62536000  0.12896000  1.0 -0.037904731
N  N20  1  0.01843000  0.60109000  0.15771000  1.0 -0.2236630449
N  N21  1  0.19600000  0.39600000  0.17020000  1.0 -0.3486317699
N  N22  1  0.50765000  0.15255000  0.23375000  1.0 -0.1738200435
N  N23  1  0.47980000  0.05460000  0.30280000  1.0 -0.570441331
N  N24  1  0.69801000  0.97793000  0.19367000  1.0 -0.2674434178
N  N25  1  0.68244000  0.03730000  0.16764000  1.0 -0.0702581138
N  N26  1  0.62536000  0.06030000  0.18538000  1.0 -0.037904731
N  N27  1  0.60109000  0.01843000  0.22277000  1.0 -0.2236630449
N  N28  1  0.39600000  0.19600000  0.23780000  1.0 -0.3486317699
N  N29  1  0.15255000  0.10605000  0.23375000  1.0 -0.1738200435
N  N30  1  0.05460000  0.16280000  0.30280000  1.0 -0.570441331
N  N31  1  0.97793000  0.13039000  0.19367000  1.0 -0.2674434178
N  N32  1  0.03730000  0.11262000  0.16764000  1.0 -0.0702581138
N  N33  1  0.06030000  0.12896000  0.18538000  1.0 -0.037904731
N  N34  1  0.01843000  0.15771000  0.22277000  1.0 -0.2236630449
N  N35  1  0.19600000  0.17020000  0.23780000  1.0 -0.3486317699
N  N36  1  0.50765000  0.23375000  0.10605000  1.0 -0.1738200435
N  N37  1  0.47980000  0.30280000  0.16280000  1.0 -0.570441331
N  N38  1  0.69801000  0.19367000  0.13039000  1.0 -0.2674434178
N  N39  1  0.68244000  0.16764000  0.11262000  1.0 -0.0702581138
N  N40  1  0.62536000  0.18538000  0.12896000  1.0 -0.037904731
N  N41  1  0.60109000  0.22277000  0.15771000  1.0 -0.2236630449
N  N42  1  0.39600000  0.23780000  0.17020000  1.0 -0.3486317699
N  N43  1  0.10605000  0.15255000  0.50765000  1.0 -0.1738200435
N  N44  1  0.16280000  0.05460000  0.47980000  1.0 -0.570441331
N  N45  1  0.13039000  0.97793000  0.69801000  1.0 -0.2674434178
N  N46  1  0.11262000  0.03730000  0.68244000  1.0 -0.0702581138
N  N47  1  0.12896000  0.06030000  0.62536000  1.0 -0.037904731
N  N48  1  0.15771000  0.01843000  0.60109000  1.0 -0.2236630449
N  N49  1  0.17020000  0.19600000  0.39600000  1.0 -0.3486317699
N  N50  1  0.23375000  0.50765000  0.15255000  1.0 -0.1738200435
N  N51  1  0.30280000  0.47980000  0.05460000  1.0 -0.570441331
N  N52  1  0.19367000  0.69801000  0.97793000  1.0 -0.2674434178
N  N53  1  0.16764000  0.68244000  0.03730000  1.0 -0.0702581138
N  N54  1  0.18538000  0.62536000  0.06030000  1.0 -0.037904731
N  N55  1  0.22277000  0.60109000  0.01843000  1.0 -0.2236630449
N  N56  1  0.23780000  0.39600000  0.19600000  1.0 -0.3486317699
N  N57  1  0.23375000  0.15255000  0.10605000  1.0 -0.1738200435
N  N58  1  0.30280000  0.05460000  0.16280000  1.0 -0.570441331
N  N59  1  0.19367000  0.97793000  0.13039000  1.0 -0.2674434178
N  N60  1  0.16764000  0.03730000  0.11262000  1.0 -0.0702581138
N  N61  1  0.18538000  0.06030000  0.12896000  1.0 -0.037904731
N  N62  1  0.22277000  0.01843000  0.15771000  1.0 -0.2236630449
N  N63  1  0.23780000  0.19600000  0.17020000  1.0 -0.3486317699
N  N64  1  0.10605000  0.50765000  0.23375000  1.0 -0.1738200435
N  N65  1  0.16280000  0.47980000  0.30280000  1.0 -0.570441331
N  N66  1  0.13039000  0.69801000  0.19367000  1.0 -0.2674434178
N  N67  1  0.11262000  0.68244000  0.16764000  1.0 -0.0702581138
N  N68  1  0.12896000  0.62536000  0.18538000  1.0 -0.037904731
N  N69  1  0.15771000  0.60109000  0.22277000  1.0 -0.2236630449
N  N70  1  0.17020000  0.39600000  0.23780000  1.0 -0.3486317699
N  N71  1  0.50765000  0.10605000  0.15255000  1.0 -0.1738200435
N  N72  1  0.47980000  0.16280000  0.05460000  1.0 -0.570441331
N  N73  1  0.69801000  0.13039000  0.97793000  1.0 -0.2674434178
N  N74  1  0.68244000  0.11262000  0.03730000  1.0 -0.0702581138
N  N75  1  0.62536000  0.12896000  0.06030000  1.0 -0.037904731
N  N76  1  0.60109000  0.15771000  0.01843000  1.0 -0.2236630449
N  N77  1  0.39600000  0.17020000  0.19600000  1.0 -0.3486317699
N  N78  1  0.15255000  0.23375000  0.50765000  1.0 -0.1738200435
N  N79  1  0.05460000  0.30280000  0.47980000  1.0 -0.570441331
N  N80  1  0.97793000  0.19367000  0.69801000  1.0 -0.2674434178
N  N81  1  0.03730000  0.16764000  0.68244000  1.0 -0.0702581138
N  N82  1  0.06030000  0.18538000  0.62536000  1.0 -0.037904731
N  N83  1  0.01843000  0.22277000  0.60109000  1.0 -0.2236630449
N  N84  1  0.19600000  0.23780000  0.39600000  1.0 -0.3486317699
N  N85  1  0.73375000  0.60605000  0.65255000  1.0 -0.1738200435
N  N86  1  0.80280000  0.66280000  0.55460000  1.0 -0.570441331
N  N87  1  0.69367000  0.63039000  0.47793000  1.0 -0.2674434178
N  N88  1  0.66764000  0.61262000  0.53730000  1.0 -0.0702581138
N  N89  1  0.68538000  0.62896000  0.56030000  1.0 -0.037904731
N  N90  1  0.72277000  0.65771000  0.51843000  1.0 -0.2236630449
N  N91  1  0.73780000  0.67020000  0.69600000  1.0 -0.3486317699
N  N92  1  0.60605000  0.73375000  0.00765000  1.0 -0.1738200435
N  N93  1  0.66280000  0.80280000  0.97980000  1.0 -0.570441331
N  N94  1  0.63039000  0.69367000  0.19801000  1.0 -0.2674434178
N  N95  1  0.61262000  0.66764000  0.18244000  1.0 -0.0702581138
N  N96  1  0.62896000  0.68538000  0.12536000  1.0 -0.037904731
N  N97  1  0.65771000  0.72277000  0.10109000  1.0 -0.2236630449
N  N98  1  0.67020000  0.73780000  0.89600000  1.0 -0.3486317699
N  N99  1  0.00765000  0.65255000  0.60605000  1.0 -0.1738200435
N  N100  1  0.97980000  0.55460000  0.66280000  1.0 -0.570441331
N  N101  1  0.19801000  0.47793000  0.63039000  1.0 -0.2674434178
N  N102  1  0.18244000  0.53730000  0.61262000  1.0 -0.0702581138
N  N103  1  0.12536000  0.56030000  0.62896000  1.0 -0.037904731
N  N104  1  0.10109000  0.51843000  0.65771000  1.0 -0.2236630449
N  N105  1  0.89600000  0.69600000  0.67020000  1.0 -0.3486317699
N  N106  1  0.65255000  0.00765000  0.73375000  1.0 -0.1738200435
N  N107  1  0.55460000  0.97980000  0.80280000  1.0 -0.570441331
N  N108  1  0.47793000  0.19801000  0.69367000  1.0 -0.2674434178
N  N109  1  0.53730000  0.18244000  0.66764000  1.0 -0.0702581138
N  N110  1  0.56030000  0.12536000  0.68538000  1.0 -0.037904731
N  N111  1  0.51843000  0.10109000  0.72277000  1.0 -0.2236630449
N  N112  1  0.69600000  0.89600000  0.73780000  1.0 -0.3486317699
N  N113  1  0.60605000  0.65255000  0.73375000  1.0 -0.1738200435
N  N114  1  0.66280000  0.55460000  0.80280000  1.0 -0.570441331
N  N115  1  0.63039000  0.47793000  0.69367000  1.0 -0.2674434178
N  N116  1  0.61262000  0.53730000  0.66764000  1.0 -0.0702581138
N  N117  1  0.62896000  0.56030000  0.68538000  1.0 -0.037904731
N  N118  1  0.65771000  0.51843000  0.72277000  1.0 -0.2236630449
N  N119  1  0.67020000  0.69600000  0.73780000  1.0 -0.3486317699
N  N120  1  0.73375000  0.00765000  0.60605000  1.0 -0.1738200435
N  N121  1  0.80280000  0.97980000  0.66280000  1.0 -0.570441331
N  N122  1  0.69367000  0.19801000  0.63039000  1.0 -0.2674434178
N  N123  1  0.66764000  0.18244000  0.61262000  1.0 -0.0702581138
N  N124  1  0.68538000  0.12536000  0.62896000  1.0 -0.037904731
N  N125  1  0.72277000  0.10109000  0.65771000  1.0 -0.2236630449
N  N126  1  0.73780000  0.89600000  0.67020000  1.0 -0.3486317699
N  N127  1  0.65255000  0.60605000  0.00765000  1.0 -0.1738200435
N  N128  1  0.55460000  0.66280000  0.97980000  1.0 -0.570441331
N  N129  1  0.47793000  0.63039000  0.19801000  1.0 -0.2674434178
N  N130  1  0.53730000  0.61262000  0.18244000  1.0 -0.0702581138
N  N131  1  0.56030000  0.62896000  0.12536000  1.0 -0.037904731
N  N132  1  0.51843000  0.65771000  0.10109000  1.0 -0.2236630449
N  N133  1  0.69600000  0.67020000  0.89600000  1.0 -0.3486317699
N  N134  1  0.00765000  0.73375000  0.65255000  1.0 -0.1738200435
N  N135  1  0.97980000  0.80280000  0.55460000  1.0 -0.570441331
N  N136  1  0.19801000  0.69367000  0.47793000  1.0 -0.2674434178
N  N137  1  0.18244000  0.66764000  0.53730000  1.0 -0.0702581138
N  N138  1  0.12536000  0.68538000  0.56030000  1.0 -0.037904731
N  N139  1  0.10109000  0.72277000  0.51843000  1.0 -0.2236630449
N  N140  1  0.89600000  0.73780000  0.69600000  1.0 -0.3486317699
N  N141  1  0.65255000  0.73375000  0.60605000  1.0 -0.1738200435
N  N142  1  0.55460000  0.80280000  0.66280000  1.0 -0.570441331
N  N143  1  0.47793000  0.69367000  0.63039000  1.0 -0.2674434178
N  N144  1  0.53730000  0.66764000  0.61262000  1.0 -0.0702581138
N  N145  1  0.56030000  0.68538000  0.62896000  1.0 -0.037904731
N  N146  1  0.51843000  0.72277000  0.65771000  1.0 -0.2236630449
N  N147  1  0.69600000  0.73780000  0.67020000  1.0 -0.3486317699
N  N148  1  0.00765000  0.60605000  0.73375000  1.0 -0.1738200435
N  N149  1  0.97980000  0.66280000  0.80280000  1.0 -0.570441331
N  N150  1  0.19801000  0.63039000  0.69367000  1.0 -0.2674434178
N  N151  1  0.18244000  0.61262000  0.66764000  1.0 -0.0702581138
N  N152  1  0.12536000  0.62896000  0.68538000  1.0 -0.037904731
N  N153  1  0.10109000  0.65771000  0.72277000  1.0 -0.2236630449
N  N154  1  0.89600000  0.67020000  0.73780000  1.0 -0.3486317699
N  N155  1  0.60605000  0.00765000  0.65255000  1.0 -0.1738200435
N  N156  1  0.66280000  0.97980000  0.55460000  1.0 -0.570441331
N  N157  1  0.63039000  0.19801000  0.47793000  1.0 -0.2674434178
N  N158  1  0.61262000  0.18244000  0.53730000  1.0 -0.0702581138
N  N159  1  0.62896000  0.12536000  0.56030000  1.0 -0.037904731
N  N160  1  0.65771000  0.10109000  0.51843000  1.0 -0.2236630449
N  N161  1  0.67020000  0.89600000  0.69600000  1.0 -0.3486317699
N  N162  1  0.73375000  0.65255000  0.00765000  1.0 -0.1738200435
N  N163  1  0.80280000  0.55460000  0.97980000  1.0 -0.570441331
N  N164  1  0.69367000  0.47793000  0.19801000  1.0 -0.2674434178
N  N165  1  0.66764000  0.53730000  0.18244000  1.0 -0.0702581138
N  N166  1  0.68538000  0.56030000  0.12536000  1.0 -0.037904731
N  N167  1  0.72277000  0.51843000  0.10109000  1.0 -0.2236630449
N  N168  1  0.73780000  0.69600000  0.89600000  1.0 -0.3486317699
O  O1  1  0.27639000  0.37897000  0.70401000  1.0 -0.5762692298
O  O2  1  0.35416000  0.31994000  0.73494000  1.0 -0.5570019588
O  O3  1  0.31283000  0.47863000  0.52273000  1.0 -0.5300168003
O  O4  1  0.29210000  0.57498000  0.50032000  1.0 -0.570441331
O  O5  1  0.47220000  0.42280000  0.55360000  1.0 -0.0588982293
O  O6  1  0.45380000  0.43980000  0.57720000  1.0 -0.0588982293
O  O7  1  0.37897000  0.27639000  0.64063000  1.0 -0.5762692298
O  O8  1  0.31994000  0.35416000  0.59096000  1.0 -0.5570019588
O  O9  1  0.47863000  0.31283000  0.68581000  1.0 -0.5300168003
O  O10  1  0.57498000  0.29210000  0.63260000  1.0 -0.570441331
O  O11  1  0.42280000  0.47220000  0.55140000  1.0 -0.0588982293
O  O12  1  0.43980000  0.45380000  0.52920000  1.0 -0.0588982293
O  O13  1  0.70401000  0.64063000  0.27639000  1.0 -0.5762692298
O  O14  1  0.73494000  0.59096000  0.35416000  1.0 -0.5570019588
O  O15  1  0.52273000  0.68581000  0.31283000  1.0 -0.5300168003
O  O16  1  0.50032000  0.63260000  0.29210000  1.0 -0.570441331
O  O17  1  0.55360000  0.55140000  0.47220000  1.0 -0.0588982293
O  O18  1  0.57720000  0.52920000  0.45380000  1.0 -0.0588982293
O  O19  1  0.64063000  0.70401000  0.37897000  1.0 -0.5762692298
O  O20  1  0.59096000  0.73494000  0.31994000  1.0 -0.5570019588
O  O21  1  0.68581000  0.52273000  0.47863000  1.0 -0.5300168003
O  O22  1  0.63260000  0.50032000  0.57498000  1.0 -0.570441331
O  O23  1  0.55140000  0.55360000  0.42280000  1.0 -0.0588982293
O  O24  1  0.52920000  0.57720000  0.43980000  1.0 -0.0588982293
O  O25  1  0.70401000  0.27639000  0.37897000  1.0 -0.5762692298
O  O26  1  0.73494000  0.35416000  0.31994000  1.0 -0.5570019588
O  O27  1  0.52273000  0.31283000  0.47863000  1.0 -0.5300168003
O  O28  1  0.50032000  0.29210000  0.57498000  1.0 -0.570441331
O  O29  1  0.55360000  0.47220000  0.42280000  1.0 -0.0588982293
O  O30  1  0.57720000  0.45380000  0.43980000  1.0 -0.0588982293
O  O31  1  0.64063000  0.37897000  0.27639000  1.0 -0.5762692298
O  O32  1  0.59096000  0.31994000  0.35416000  1.0 -0.5570019588
O  O33  1  0.68581000  0.47863000  0.31283000  1.0 -0.5300168003
O  O34  1  0.63260000  0.57498000  0.29210000  1.0 -0.570441331
O  O35  1  0.55140000  0.42280000  0.47220000  1.0 -0.0588982293
O  O36  1  0.52920000  0.43980000  0.45380000  1.0 -0.0588982293
O  O37  1  0.27639000  0.70401000  0.64063000  1.0 -0.5762692298
O  O38  1  0.35416000  0.73494000  0.59096000  1.0 -0.5570019588
O  O39  1  0.31283000  0.52273000  0.68581000  1.0 -0.5300168003
O  O40  1  0.29210000  0.50032000  0.63260000  1.0 -0.570441331
O  O41  1  0.47220000  0.55360000  0.55140000  1.0 -0.0588982293
O  O42  1  0.45380000  0.57720000  0.52920000  1.0 -0.0588982293
O  O43  1  0.37897000  0.64063000  0.70401000  1.0 -0.5762692298
O  O44  1  0.31994000  0.59096000  0.73494000  1.0 -0.5570019588
O  O45  1  0.47863000  0.68581000  0.52273000  1.0 -0.5300168003
O  O46  1  0.57498000  0.63260000  0.50032000  1.0 -0.570441331
O  O47  1  0.42280000  0.55140000  0.55360000  1.0 -0.0588982293
O  O48  1  0.43980000  0.52920000  0.57720000  1.0 -0.0588982293
O  O49  1  0.37897000  0.70401000  0.27639000  1.0 -0.5762692298
O  O50  1  0.31994000  0.73494000  0.35416000  1.0 -0.5570019588
O  O51  1  0.47863000  0.52273000  0.31283000  1.0 -0.5300168003
O  O52  1  0.57498000  0.50032000  0.29210000  1.0 -0.570441331
O  O53  1  0.42280000  0.55360000  0.47220000  1.0 -0.0588982293
O  O54  1  0.43980000  0.57720000  0.45380000  1.0 -0.0588982293
O  O55  1  0.27639000  0.64063000  0.37897000  1.0 -0.5762692298
O  O56  1  0.35416000  0.59096000  0.31994000  1.0 -0.5570019588
O  O57  1  0.31283000  0.68581000  0.47863000  1.0 -0.5300168003
O  O58  1  0.29210000  0.63260000  0.57498000  1.0 -0.570441331
O  O59  1  0.47220000  0.55140000  0.42280000  1.0 -0.0588982293
O  O60  1  0.45380000  0.52920000  0.43980000  1.0 -0.0588982293
O  O61  1  0.64063000  0.27639000  0.70401000  1.0 -0.5762692298
O  O62  1  0.59096000  0.35416000  0.73494000  1.0 -0.5570019588
O  O63  1  0.68581000  0.31283000  0.52273000  1.0 -0.5300168003
O  O64  1  0.63260000  0.29210000  0.50032000  1.0 -0.570441331
O  O65  1  0.55140000  0.47220000  0.55360000  1.0 -0.0588982293
O  O66  1  0.52920000  0.45380000  0.57720000  1.0 -0.0588982293
O  O67  1  0.70401000  0.37897000  0.64063000  1.0 -0.5762692298
O  O68  1  0.73494000  0.31994000  0.59096000  1.0 -0.5570019588
O  O69  1  0.52273000  0.47863000  0.68581000  1.0 -0.5300168003
O  O70  1  0.50032000  0.57498000  0.63260000  1.0 -0.570441331
O  O71  1  0.55360000  0.42280000  0.55140000  1.0 -0.0588982293
O  O72  1  0.57720000  0.43980000  0.52920000  1.0 -0.0588982293
O  O73  1  0.87897000  0.77639000  0.20401000  1.0 -0.5762692298
O  O74  1  0.81994000  0.85416000  0.23494000  1.0 -0.5570019588
O  O75  1  0.97863000  0.81283000  0.02273000  1.0 -0.5300168003
O  O76  1  0.07498000  0.79210000  0.00032000  1.0 -0.570441331
O  O77  1  0.92280000  0.97220000  0.05360000  1.0 -0.0588982293
O  O78  1  0.93980000  0.95380000  0.07720000  1.0 -0.0588982293
O  O79  1  0.77639000  0.87897000  0.14063000  1.0 -0.5762692298
O  O80  1  0.85416000  0.81994000  0.09096000  1.0 -0.5570019588
O  O81  1  0.81283000  0.97863000  0.18581000  1.0 -0.5300168003
O  O82  1  0.79210000  0.07498000  0.13260000  1.0 -0.570441331
O  O83  1  0.97220000  0.92280000  0.05140000  1.0 -0.0588982293
O  O84  1  0.95380000  0.93980000  0.02920000  1.0 -0.0588982293
O  O85  1  0.14063000  0.20401000  0.77639000  1.0 -0.5762692298
O  O86  1  0.09096000  0.23494000  0.85416000  1.0 -0.5570019588
O  O87  1  0.18581000  0.02273000  0.81283000  1.0 -0.5300168003
O  O88  1  0.13260000  0.00032000  0.79210000  1.0 -0.570441331
O  O89  1  0.05140000  0.05360000  0.97220000  1.0 -0.0588982293
O  O90  1  0.02920000  0.07720000  0.95380000  1.0 -0.0588982293
O  O91  1  0.20401000  0.14063000  0.87897000  1.0 -0.5762692298
O  O92  1  0.23494000  0.09096000  0.81994000  1.0 -0.5570019588
O  O93  1  0.02273000  0.18581000  0.97863000  1.0 -0.5300168003
O  O94  1  0.00032000  0.13260000  0.07498000  1.0 -0.570441331
O  O95  1  0.05360000  0.05140000  0.92280000  1.0 -0.0588982293
O  O96  1  0.07720000  0.02920000  0.93980000  1.0 -0.0588982293
O  O97  1  0.77639000  0.20401000  0.87897000  1.0 -0.5762692298
O  O98  1  0.85416000  0.23494000  0.81994000  1.0 -0.5570019588
O  O99  1  0.81283000  0.02273000  0.97863000  1.0 -0.5300168003
O  O100  1  0.79210000  0.00032000  0.07498000  1.0 -0.570441331
O  O101  1  0.97220000  0.05360000  0.92280000  1.0 -0.0588982293
O  O102  1  0.95380000  0.07720000  0.93980000  1.0 -0.0588982293
O  O103  1  0.87897000  0.14063000  0.77639000  1.0 -0.5762692298
O  O104  1  0.81994000  0.09096000  0.85416000  1.0 -0.5570019588
O  O105  1  0.97863000  0.18581000  0.81283000  1.0 -0.5300168003
O  O106  1  0.07498000  0.13260000  0.79210000  1.0 -0.570441331
O  O107  1  0.92280000  0.05140000  0.97220000  1.0 -0.0588982293
O  O108  1  0.93980000  0.02920000  0.95380000  1.0 -0.0588982293
O  O109  1  0.20401000  0.77639000  0.14063000  1.0 -0.5762692298
O  O110  1  0.23494000  0.85416000  0.09096000  1.0 -0.5570019588
O  O111  1  0.02273000  0.81283000  0.18581000  1.0 -0.5300168003
O  O112  1  0.00032000  0.79210000  0.13260000  1.0 -0.570441331
O  O113  1  0.05360000  0.97220000  0.05140000  1.0 -0.0588982293
O  O114  1  0.07720000  0.95380000  0.02920000  1.0 -0.0588982293
O  O115  1  0.14063000  0.87897000  0.20401000  1.0 -0.5762692298
O  O116  1  0.09096000  0.81994000  0.23494000  1.0 -0.5570019588
O  O117  1  0.18581000  0.97863000  0.02273000  1.0 -0.5300168003
O  O118  1  0.13260000  0.07498000  0.00032000  1.0 -0.570441331
O  O119  1  0.05140000  0.92280000  0.05360000  1.0 -0.0588982293
O  O120  1  0.02920000  0.93980000  0.07720000  1.0 -0.0588982293
O  O121  1  0.20401000  0.87897000  0.77639000  1.0 -0.5762692298
O  O122  1  0.23494000  0.81994000  0.85416000  1.0 -0.5570019588
O  O123  1  0.02273000  0.97863000  0.81283000  1.0 -0.5300168003
O  O124  1  0.00032000  0.07498000  0.79210000  1.0 -0.570441331
O  O125  1  0.05360000  0.92280000  0.97220000  1.0 -0.0588982293
O  O126  1  0.07720000  0.93980000  0.95380000  1.0 -0.0588982293
O  O127  1  0.14063000  0.77639000  0.87897000  1.0 -0.5762692298
O  O128  1  0.09096000  0.85416000  0.81994000  1.0 -0.5570019588
O  O129  1  0.18581000  0.81283000  0.97863000  1.0 -0.5300168003
O  O130  1  0.13260000  0.79210000  0.07498000  1.0 -0.570441331
O  O131  1  0.05140000  0.97220000  0.92280000  1.0 -0.0588982293
O  O132  1  0.02920000  0.95380000  0.93980000  1.0 -0.0588982293
O  O133  1  0.77639000  0.14063000  0.20401000  1.0 -0.5762692298
O  O134  1  0.85416000  0.09096000  0.23494000  1.0 -0.5570019588
O  O135  1  0.81283000  0.18581000  0.02273000  1.0 -0.5300168003
O  O136  1  0.79210000  0.13260000  0.00032000  1.0 -0.570441331
O  O137  1  0.97220000  0.05140000  0.05360000  1.0 -0.0588982293
O  O138  1  0.95380000  0.02920000  0.07720000  1.0 -0.0588982293
O  O139  1  0.87897000  0.20401000  0.14063000  1.0 -0.5762692298
O  O140  1  0.81994000  0.23494000  0.09096000  1.0 -0.5570019588
O  O141  1  0.97863000  0.02273000  0.18581000  1.0 -0.5300168003
O  O142  1  0.07498000  0.00032000  0.13260000  1.0 -0.570441331
O  O143  1  0.92280000  0.05360000  0.05140000  1.0 -0.0588982293
O  O144  1  0.93980000  0.07720000  0.02920000  1.0 -0.0588982293
O  O145  1  0.39346000  0.39346000  0.60654000  1.0 -0.4211697236
O  O146  1  0.60654000  0.60654000  0.39346000  1.0 -0.4211697236
O  O147  1  0.60654000  0.39346000  0.39346000  1.0 -0.4211697236
O  O148  1  0.39346000  0.60654000  0.60654000  1.0 -0.4211697236
O  O149  1  0.39346000  0.60654000  0.39346000  1.0 -0.4211697236
O  O150  1  0.60654000  0.39346000  0.60654000  1.0 -0.4211697236
O  O151  1  0.89346000  0.89346000  0.10654000  1.0 -0.4211697236
O  O152  1  0.10654000  0.10654000  0.89346000  1.0 -0.4211697236
O  O153  1  0.89346000  0.10654000  0.89346000  1.0 -0.4211697236
O  O154  1  0.10654000  0.89346000  0.10654000  1.0 -0.4211697236
O  O155  1  0.10654000  0.89346000  0.89346000  1.0 -0.4211697236
O  O156  1  0.89346000  0.10654000  0.10654000  1.0 -0.4211697236
