# DDEC6 charges by PACMAN v1.1 (https://github.com/mtap-research/PACMAN-charge/)
data_SEJHUN_FSR_pacman
_symmetry_space_group_name_H-M   'P 1'
_cell_length_a   28.03000000
_cell_length_b   28.03000000
_cell_length_c   28.03000000
_cell_angle_alpha   60.00000000
_cell_angle_beta   60.00000000
_cell_angle_gamma   60.00000000
_symmetry_Int_Tables_number   1
_chemical_formula_structural   Mn7H36C40(N8O15)2
_chemical_formula_sum   'Mn42 H216 C240 N96 O180'
_cell_volume   15572.35499145
_cell_formula_units_Z   6
loop_
 _symmetry_equiv_pos_site_id
 _symmetry_equiv_pos_as_xyz
  1  'x, y, z'
loop_
 _atom_site_type_symbol
 _atom_site_label
 _atom_site_symmetry_multiplicity
 _atom_site_fract_x
 _atom_site_fract_y
 _atom_site_fract_z
 _atom_site_occupancy
 _atom_site_charge
Mn  Mn1  1  0.61632000  0.65752000  0.42662000  1.0 0.9339042479
Mn  Mn2  1  0.65752000  0.61632000  0.29954000  1.0 0.9339042479
Mn  Mn3  1  0.42662000  0.29954000  0.61632000  1.0 0.9339042479
Mn  Mn4  1  0.29954000  0.42662000  0.65752000  1.0 0.9339042479
Mn  Mn5  1  0.29954000  0.65752000  0.61632000  1.0 0.9339042479
Mn  Mn6  1  0.42662000  0.61632000  0.65752000  1.0 0.9339042479
Mn  Mn7  1  0.65752000  0.29954000  0.42662000  1.0 0.9339042479
Mn  Mn8  1  0.61632000  0.42662000  0.29954000  1.0 0.9339042479
Mn  Mn9  1  0.42662000  0.65752000  0.29954000  1.0 0.9339042479
Mn  Mn10  1  0.29954000  0.61632000  0.42662000  1.0 0.9339042479
Mn  Mn11  1  0.61632000  0.29954000  0.65752000  1.0 0.9339042479
Mn  Mn12  1  0.65752000  0.42662000  0.61632000  1.0 0.9339042479
Mn  Mn13  1  0.11632000  0.15752000  0.79954000  1.0 0.9339042479
Mn  Mn14  1  0.15752000  0.11632000  0.92662000  1.0 0.9339042479
Mn  Mn15  1  0.92662000  0.79954000  0.15752000  1.0 0.9339042479
Mn  Mn16  1  0.79954000  0.92662000  0.11632000  1.0 0.9339042479
Mn  Mn17  1  0.79954000  0.15752000  0.92662000  1.0 0.9339042479
Mn  Mn18  1  0.92662000  0.11632000  0.79954000  1.0 0.9339042479
Mn  Mn19  1  0.15752000  0.79954000  0.11632000  1.0 0.9339042479
Mn  Mn20  1  0.11632000  0.92662000  0.15752000  1.0 0.9339042479
Mn  Mn21  1  0.92662000  0.15752000  0.11632000  1.0 0.9339042479
Mn  Mn22  1  0.79954000  0.11632000  0.15752000  1.0 0.9339042479
Mn  Mn23  1  0.11632000  0.79954000  0.92662000  1.0 0.9339042479
Mn  Mn24  1  0.15752000  0.92662000  0.79954000  1.0 0.9339042479
Mn  Mn25  1  0.56401000  0.14533000  0.14533000  1.0 0.8294511015
Mn  Mn26  1  0.14533000  0.56401000  0.14533000  1.0 0.8294511015
Mn  Mn27  1  0.14533000  0.14533000  0.56401000  1.0 0.8294511015
Mn  Mn28  1  0.14533000  0.14533000  0.14533000  1.0 0.8294511015
Mn  Mn29  1  0.06401000  0.64533000  0.64533000  1.0 0.8294511015
Mn  Mn30  1  0.64533000  0.06401000  0.64533000  1.0 0.8294511015
Mn  Mn31  1  0.64533000  0.64533000  0.64533000  1.0 0.8294511015
Mn  Mn32  1  0.64533000  0.64533000  0.06401000  1.0 0.8294511015
Mn  Mn33  1  0.58593000  0.58593000  0.58593000  1.0 0.8294511015
Mn  Mn34  1  0.58593000  0.58593000  0.24221000  1.0 0.8294511015
Mn  Mn35  1  0.58593000  0.24221000  0.58593000  1.0 0.8294511015
Mn  Mn36  1  0.24221000  0.58593000  0.58593000  1.0 0.8294511015
Mn  Mn37  1  0.08593000  0.08593000  0.74221000  1.0 0.8294511015
Mn  Mn38  1  0.08593000  0.08593000  0.08593000  1.0 0.8294511015
Mn  Mn39  1  0.08593000  0.74221000  0.08593000  1.0 0.8246108765
Mn  Mn40  1  0.74221000  0.08593000  0.08593000  1.0 0.8246108765
Mn  Mn41  1  0.50000000  0.50000000  0.50000000  1.0 0.541871714
Mn  Mn42  1  0.00000000  0.00000000  0.00000000  1.0 0.541871714
H  H1  1  0.47010000  0.24390000  0.16790000  1.0 0.373426819
H  H2  1  0.51810000  0.26410000  0.13010000  1.0 0.402752798
H  H3  1  0.56570000  0.93630000  0.26110000  1.0 0.1086547243
H  H4  1  0.55260000  0.84660000  0.31900000  1.0 0.1155775141
H  H5  1  0.69080000  0.77680000  0.19680000  1.0 0.1086547243
H  H6  1  0.70660000  0.86580000  0.14100000  1.0 0.1155775141
H  H7  1  0.44910000  0.68930000  0.53170000  1.0 0.0680662188
H  H8  1  0.58270000  0.55310000  0.39350000  1.0 0.2066759641
H  H9  1  0.56890000  0.56830000  0.38990000  1.0 0.2028256679
H  H10  1  0.24390000  0.47010000  0.11810000  1.0 0.373426819
H  H11  1  0.26410000  0.51810000  0.08770000  1.0 0.402752798
H  H12  1  0.93630000  0.56570000  0.23690000  1.0 0.1086547243
H  H13  1  0.84660000  0.55260000  0.28180000  1.0 0.1155775141
H  H14  1  0.77680000  0.69080000  0.33560000  1.0 0.1086547243
H  H15  1  0.86580000  0.70660000  0.28660000  1.0 0.1155775141
H  H16  1  0.68930000  0.44910000  0.32990000  1.0 0.0680662188
H  H17  1  0.55310000  0.58270000  0.47070000  1.0 0.2066759641
H  H18  1  0.56830000  0.56890000  0.47290000  1.0 0.2028256679
H  H19  1  0.16790000  0.11810000  0.47010000  1.0 0.3762173071
H  H20  1  0.13010000  0.08770000  0.51810000  1.0 0.402752798
H  H21  1  0.26110000  0.23690000  0.56570000  1.0 0.1086547243
H  H22  1  0.31900000  0.28180000  0.55260000  1.0 0.1155775141
H  H23  1  0.19680000  0.33560000  0.69080000  1.0 0.1086547243
H  H24  1  0.14100000  0.28660000  0.70660000  1.0 0.1086547243
H  H25  1  0.53170000  0.32990000  0.44910000  1.0 0.0680662188
H  H26  1  0.39350000  0.47070000  0.58270000  1.0 0.2066759641
H  H27  1  0.38990000  0.47290000  0.56890000  1.0 0.2028256679
H  H28  1  0.11810000  0.16790000  0.24390000  1.0 0.373426819
H  H29  1  0.08770000  0.13010000  0.26410000  1.0 0.402752798
H  H30  1  0.23690000  0.26110000  0.93630000  1.0 0.1086547243
H  H31  1  0.28180000  0.31900000  0.84660000  1.0 0.1155775141
H  H32  1  0.33560000  0.19680000  0.77680000  1.0 0.1086547243
H  H33  1  0.28660000  0.14100000  0.86580000  1.0 0.1086547243
H  H34  1  0.32990000  0.53170000  0.68930000  1.0 0.0680662188
H  H35  1  0.47070000  0.39350000  0.55310000  1.0 0.2066759641
H  H36  1  0.47290000  0.38990000  0.56830000  1.0 0.2028256679
H  H37  1  0.11810000  0.24390000  0.47010000  1.0 0.3762173071
H  H38  1  0.08770000  0.26410000  0.51810000  1.0 0.402752798
H  H39  1  0.23690000  0.93630000  0.56570000  1.0 0.1086547243
H  H40  1  0.28180000  0.84660000  0.55260000  1.0 0.1155775141
H  H41  1  0.33560000  0.77680000  0.69080000  1.0 0.1086547243
H  H42  1  0.28660000  0.86580000  0.70660000  1.0 0.1155775141
H  H43  1  0.32990000  0.68930000  0.44910000  1.0 0.0680662188
H  H44  1  0.47070000  0.55310000  0.58270000  1.0 0.2066759641
H  H45  1  0.47290000  0.56830000  0.56890000  1.0 0.2028256679
H  H46  1  0.16790000  0.47010000  0.24390000  1.0 0.373426819
H  H47  1  0.13010000  0.51810000  0.26410000  1.0 0.402752798
H  H48  1  0.26110000  0.56570000  0.93630000  1.0 0.1086547243
H  H49  1  0.31900000  0.55260000  0.84660000  1.0 0.1155775141
H  H50  1  0.19680000  0.69080000  0.77680000  1.0 0.1086547243
H  H51  1  0.14100000  0.70660000  0.86580000  1.0 0.1155775141
H  H52  1  0.53170000  0.44910000  0.68930000  1.0 0.0680662188
H  H53  1  0.39350000  0.58270000  0.55310000  1.0 0.2066759641
H  H54  1  0.38990000  0.56890000  0.56830000  1.0 0.2028256679
H  H55  1  0.24390000  0.11810000  0.16790000  1.0 0.3762173071
H  H56  1  0.26410000  0.08770000  0.13010000  1.0 0.402752798
H  H57  1  0.93630000  0.23690000  0.26110000  1.0 0.1086547243
H  H58  1  0.84660000  0.28180000  0.31900000  1.0 0.1155775141
H  H59  1  0.77680000  0.33560000  0.19680000  1.0 0.1086547243
H  H60  1  0.86580000  0.28660000  0.14100000  1.0 0.1155775141
H  H61  1  0.68930000  0.32990000  0.53170000  1.0 0.0680662188
H  H62  1  0.55310000  0.47070000  0.39350000  1.0 0.2066759641
H  H63  1  0.56830000  0.47290000  0.38990000  1.0 0.2028256679
H  H64  1  0.47010000  0.16790000  0.11810000  1.0 0.373426819
H  H65  1  0.51810000  0.13010000  0.08770000  1.0 0.402752798
H  H66  1  0.56570000  0.26110000  0.23690000  1.0 0.1086547243
H  H67  1  0.55260000  0.31900000  0.28180000  1.0 0.1155775141
H  H68  1  0.69080000  0.19680000  0.33560000  1.0 0.1086547243
H  H69  1  0.70660000  0.14100000  0.28660000  1.0 0.1155775141
H  H70  1  0.44910000  0.53170000  0.32990000  1.0 0.0680662188
H  H71  1  0.58270000  0.39350000  0.47070000  1.0 0.2066759641
H  H72  1  0.56890000  0.38990000  0.47290000  1.0 0.2028256679
H  H73  1  0.16790000  0.24390000  0.11810000  1.0 0.3762173071
H  H74  1  0.13010000  0.26410000  0.08770000  1.0 0.402752798
H  H75  1  0.26110000  0.93630000  0.23690000  1.0 0.1086547243
H  H76  1  0.31900000  0.84660000  0.28180000  1.0 0.1155775141
H  H77  1  0.19680000  0.77680000  0.33560000  1.0 0.1086547243
H  H78  1  0.14100000  0.86580000  0.28660000  1.0 0.1155775141
H  H79  1  0.53170000  0.68930000  0.32990000  1.0 0.0680662188
H  H80  1  0.39350000  0.55310000  0.47070000  1.0 0.2066759641
H  H81  1  0.38990000  0.56830000  0.47290000  1.0 0.2028256679
H  H82  1  0.11810000  0.47010000  0.16790000  1.0 0.3762173071
H  H83  1  0.08770000  0.51810000  0.13010000  1.0 0.402752798
H  H84  1  0.23690000  0.56570000  0.26110000  1.0 0.1086547243
H  H85  1  0.28180000  0.55260000  0.31900000  1.0 0.1155775141
H  H86  1  0.33560000  0.69080000  0.19680000  1.0 0.1086547243
H  H87  1  0.28660000  0.70660000  0.14100000  1.0 0.1155775141
H  H88  1  0.32990000  0.44910000  0.53170000  1.0 0.0680662188
H  H89  1  0.47070000  0.58270000  0.39350000  1.0 0.2066759641
H  H90  1  0.47290000  0.56890000  0.38990000  1.0 0.2028256679
H  H91  1  0.47010000  0.11810000  0.24390000  1.0 0.3762173071
H  H92  1  0.51810000  0.08770000  0.26410000  1.0 0.402752798
H  H93  1  0.56570000  0.23690000  0.93630000  1.0 0.1086547243
H  H94  1  0.55260000  0.28180000  0.84660000  1.0 0.1155775141
H  H95  1  0.69080000  0.33560000  0.77680000  1.0 0.1086547243
H  H96  1  0.70660000  0.28660000  0.86580000  1.0 0.1086547243
H  H97  1  0.44910000  0.32990000  0.68930000  1.0 0.0680662188
H  H98  1  0.58270000  0.47070000  0.55310000  1.0 0.2066759641
H  H99  1  0.56890000  0.47290000  0.56830000  1.0 0.2028256679
H  H100  1  0.24390000  0.16790000  0.47010000  1.0 0.373426819
H  H101  1  0.26410000  0.13010000  0.51810000  1.0 0.402752798
H  H102  1  0.93630000  0.26110000  0.56570000  1.0 0.1086547243
H  H103  1  0.84660000  0.31900000  0.55260000  1.0 0.1155775141
H  H104  1  0.77680000  0.19680000  0.69080000  1.0 0.1086547243
H  H105  1  0.86580000  0.14100000  0.70660000  1.0 0.1086547243
H  H106  1  0.68930000  0.53170000  0.44910000  1.0 0.0680662188
H  H107  1  0.55310000  0.39350000  0.58270000  1.0 0.2066759641
H  H108  1  0.56830000  0.38990000  0.56890000  1.0 0.2028256679
H  H109  1  0.97010000  0.74390000  0.61810000  1.0 0.3762173071
H  H110  1  0.01810000  0.76410000  0.58770000  1.0 0.402752798
H  H111  1  0.06570000  0.43630000  0.73690000  1.0 0.1086547243
H  H112  1  0.05260000  0.34660000  0.78180000  1.0 0.1155775141
H  H113  1  0.19080000  0.27680000  0.83560000  1.0 0.1086547243
H  H114  1  0.20660000  0.36580000  0.78660000  1.0 0.1086547243
H  H115  1  0.94910000  0.18930000  0.82990000  1.0 0.0680662188
H  H116  1  0.08270000  0.05310000  0.97070000  1.0 0.2066759641
H  H117  1  0.06890000  0.06830000  0.97290000  1.0 0.2028256679
H  H118  1  0.74390000  0.97010000  0.66790000  1.0 0.373426819
H  H119  1  0.76410000  0.01810000  0.63010000  1.0 0.402752798
H  H120  1  0.43630000  0.06570000  0.76110000  1.0 0.1086547243
H  H121  1  0.34660000  0.05260000  0.81900000  1.0 0.1155775141
H  H122  1  0.27680000  0.19080000  0.69680000  1.0 0.1086547243
H  H123  1  0.36580000  0.20660000  0.64100000  1.0 0.1155775141
H  H124  1  0.18930000  0.94910000  0.03170000  1.0 0.0680662188
H  H125  1  0.05310000  0.08270000  0.89350000  1.0 0.2066759641
H  H126  1  0.06830000  0.06890000  0.88990000  1.0 0.2028256679
H  H127  1  0.66790000  0.61810000  0.74390000  1.0 0.3762173071
H  H128  1  0.63010000  0.58770000  0.76410000  1.0 0.402752798
H  H129  1  0.76110000  0.73690000  0.43630000  1.0 0.1086547243
H  H130  1  0.81900000  0.78180000  0.34660000  1.0 0.1155775141
H  H131  1  0.69680000  0.83560000  0.27680000  1.0 0.1086547243
H  H132  1  0.64100000  0.78660000  0.36580000  1.0 0.1155775141
H  H133  1  0.03170000  0.82990000  0.18930000  1.0 0.0680662188
H  H134  1  0.89350000  0.97070000  0.05310000  1.0 0.2066759641
H  H135  1  0.88990000  0.97290000  0.06830000  1.0 0.2028256679
H  H136  1  0.61810000  0.66790000  0.97010000  1.0 0.3762173071
H  H137  1  0.58770000  0.63010000  0.01810000  1.0 0.402752798
H  H138  1  0.73690000  0.76110000  0.06570000  1.0 0.1086547243
H  H139  1  0.78180000  0.81900000  0.05260000  1.0 0.1155775141
H  H140  1  0.83560000  0.69680000  0.19080000  1.0 0.1086547243
H  H141  1  0.78660000  0.64100000  0.20660000  1.0 0.1155775141
H  H142  1  0.82990000  0.03170000  0.94910000  1.0 0.0680662188
H  H143  1  0.97070000  0.89350000  0.08270000  1.0 0.2066759641
H  H144  1  0.97290000  0.88990000  0.06890000  1.0 0.2028256679
H  H145  1  0.61810000  0.74390000  0.66790000  1.0 0.373426819
H  H146  1  0.58770000  0.76410000  0.63010000  1.0 0.402752798
H  H147  1  0.73690000  0.43630000  0.76110000  1.0 0.1086547243
H  H148  1  0.78180000  0.34660000  0.81900000  1.0 0.1155775141
H  H149  1  0.83560000  0.27680000  0.69680000  1.0 0.1086547243
H  H150  1  0.78660000  0.36580000  0.64100000  1.0 0.1086547243
H  H151  1  0.82990000  0.18930000  0.03170000  1.0 0.0680662188
H  H152  1  0.97070000  0.05310000  0.89350000  1.0 0.2066759641
H  H153  1  0.97290000  0.06830000  0.88990000  1.0 0.2028256679
H  H154  1  0.66790000  0.97010000  0.61810000  1.0 0.3762173071
H  H155  1  0.63010000  0.01810000  0.58770000  1.0 0.402752798
H  H156  1  0.76110000  0.06570000  0.73690000  1.0 0.1086547243
H  H157  1  0.81900000  0.05260000  0.78180000  1.0 0.1155775141
H  H158  1  0.69680000  0.19080000  0.83560000  1.0 0.1086547243
H  H159  1  0.64100000  0.20660000  0.78660000  1.0 0.1086547243
H  H160  1  0.03170000  0.94910000  0.82990000  1.0 0.0680662188
H  H161  1  0.89350000  0.08270000  0.97070000  1.0 0.2066759641
H  H162  1  0.88990000  0.06890000  0.97290000  1.0 0.2028256679
H  H163  1  0.74390000  0.61810000  0.97010000  1.0 0.3762173071
H  H164  1  0.76410000  0.58770000  0.01810000  1.0 0.402752798
H  H165  1  0.43630000  0.73690000  0.06570000  1.0 0.1086547243
H  H166  1  0.34660000  0.78180000  0.05260000  1.0 0.1155775141
H  H167  1  0.27680000  0.83560000  0.19080000  1.0 0.1086547243
H  H168  1  0.36580000  0.78660000  0.20660000  1.0 0.1155775141
H  H169  1  0.18930000  0.82990000  0.94910000  1.0 0.0680662188
H  H170  1  0.05310000  0.97070000  0.08270000  1.0 0.2066759641
H  H171  1  0.06830000  0.97290000  0.06890000  1.0 0.2028256679
H  H172  1  0.97010000  0.66790000  0.74390000  1.0 0.3762173071
H  H173  1  0.01810000  0.63010000  0.76410000  1.0 0.402752798
H  H174  1  0.06570000  0.76110000  0.43630000  1.0 0.1086547243
H  H175  1  0.05260000  0.81900000  0.34660000  1.0 0.1155775141
H  H176  1  0.19080000  0.69680000  0.27680000  1.0 0.1086547243
H  H177  1  0.20660000  0.64100000  0.36580000  1.0 0.1155775141
H  H178  1  0.94910000  0.03170000  0.18930000  1.0 0.0680662188
H  H179  1  0.08270000  0.89350000  0.05310000  1.0 0.2066759641
H  H180  1  0.06890000  0.88990000  0.06830000  1.0 0.2028256679
H  H181  1  0.66790000  0.74390000  0.97010000  1.0 0.3762173071
H  H182  1  0.63010000  0.76410000  0.01810000  1.0 0.402752798
H  H183  1  0.76110000  0.43630000  0.06570000  1.0 0.1086547243
H  H184  1  0.81900000  0.34660000  0.05260000  1.0 0.1155775141
H  H185  1  0.69680000  0.27680000  0.19080000  1.0 0.1086547243
H  H186  1  0.64100000  0.36580000  0.20660000  1.0 0.1155775141
H  H187  1  0.03170000  0.18930000  0.94910000  1.0 0.0680662188
H  H188  1  0.89350000  0.05310000  0.08270000  1.0 0.2066759641
H  H189  1  0.88990000  0.06830000  0.06890000  1.0 0.2028256679
H  H190  1  0.61810000  0.97010000  0.74390000  1.0 0.3762173071
H  H191  1  0.58770000  0.01810000  0.76410000  1.0 0.402752798
H  H192  1  0.73690000  0.06570000  0.43630000  1.0 0.1086547243
H  H193  1  0.78180000  0.05260000  0.34660000  1.0 0.1155775141
H  H194  1  0.83560000  0.19080000  0.27680000  1.0 0.1086547243
H  H195  1  0.78660000  0.20660000  0.36580000  1.0 0.1155775141
H  H196  1  0.82990000  0.94910000  0.18930000  1.0 0.0680662188
H  H197  1  0.97070000  0.08270000  0.05310000  1.0 0.2066759641
H  H198  1  0.97290000  0.06890000  0.06830000  1.0 0.2028256679
H  H199  1  0.97010000  0.61810000  0.66790000  1.0 0.373426819
H  H200  1  0.01810000  0.58770000  0.63010000  1.0 0.402752798
H  H201  1  0.06570000  0.73690000  0.76110000  1.0 0.1086547243
H  H202  1  0.05260000  0.78180000  0.81900000  1.0 0.1155775141
H  H203  1  0.19080000  0.83560000  0.69680000  1.0 0.1086547243
H  H204  1  0.20660000  0.78660000  0.64100000  1.0 0.1155775141
H  H205  1  0.94910000  0.82990000  0.03170000  1.0 0.0680662188
H  H206  1  0.08270000  0.97070000  0.89350000  1.0 0.2066759641
H  H207  1  0.06890000  0.97290000  0.88990000  1.0 0.2028256679
H  H208  1  0.74390000  0.66790000  0.61810000  1.0 0.3762173071
H  H209  1  0.76410000  0.63010000  0.58770000  1.0 0.402752798
H  H210  1  0.43630000  0.76110000  0.73690000  1.0 0.1086547243
H  H211  1  0.34660000  0.81900000  0.78180000  1.0 0.1155775141
H  H212  1  0.27680000  0.69680000  0.83560000  1.0 0.1086547243
H  H213  1  0.36580000  0.64100000  0.78660000  1.0 0.1155775141
H  H214  1  0.18930000  0.03170000  0.82990000  1.0 0.0680662188
H  H215  1  0.05310000  0.89350000  0.97070000  1.0 0.2066759641
H  H216  1  0.06830000  0.88990000  0.97290000  1.0 0.2028256679
C  C1  1  0.64717000  0.96711000  0.16375000  1.0 0.2562022333
C  C2  1  0.63837000  0.90965000  0.19659000  1.0 0.051359733
C  C3  1  0.59217000  0.90323000  0.24877000  1.0 -0.133510874
C  C4  1  0.58400000  0.85040000  0.28284000  1.0 -0.118306732
C  C5  1  0.62219000  0.80165000  0.26413000  1.0 -0.0392807968
C  C6  1  0.66622000  0.80904000  0.21072000  1.0 -0.0998369384
C  C7  1  0.67533000  0.86183000  0.17719000  1.0 -0.133510874
C  C8  1  0.61755000  0.74267000  0.30253000  1.0 0.5776377792
C  C9  1  0.48931000  0.67015000  0.52773000  1.0 0.2327210501
C  C10  1  0.57704000  0.57304000  0.41616000  1.0 0.2208648876
C  C11  1  0.96711000  0.64717000  0.22197000  1.0 0.2562022333
C  C12  1  0.90965000  0.63837000  0.25539000  1.0 0.051359733
C  C13  1  0.90323000  0.59217000  0.25583000  1.0 -0.133510874
C  C14  1  0.85040000  0.58400000  0.28276000  1.0 -0.118306732
C  C15  1  0.80165000  0.62219000  0.31203000  1.0 -0.0392807968
C  C16  1  0.80904000  0.66622000  0.31402000  1.0 -0.0998369384
C  C17  1  0.86183000  0.67533000  0.28565000  1.0 -0.133510874
C  C18  1  0.74267000  0.61755000  0.33725000  1.0 0.5776377792
C  C19  1  0.67015000  0.48931000  0.31281000  1.0 0.2327210501
C  C20  1  0.57304000  0.57704000  0.43376000  1.0 0.2208648876
C  C21  1  0.16375000  0.22197000  0.64717000  1.0 0.2562022333
C  C22  1  0.19659000  0.25539000  0.63837000  1.0 0.051359733
C  C23  1  0.24877000  0.25583000  0.59217000  1.0 -0.133510874
C  C24  1  0.28284000  0.28276000  0.58400000  1.0 -0.118306732
C  C25  1  0.26413000  0.31203000  0.62219000  1.0 -0.0392807968
C  C26  1  0.21072000  0.31402000  0.66622000  1.0 -0.0998369384
C  C27  1  0.17719000  0.28565000  0.67533000  1.0 -0.133510874
C  C28  1  0.30253000  0.33725000  0.61755000  1.0 0.5776377792
C  C29  1  0.52773000  0.31281000  0.48931000  1.0 0.2327210501
C  C30  1  0.41616000  0.43376000  0.57704000  1.0 0.2208648876
C  C31  1  0.22197000  0.16375000  0.96711000  1.0 0.2562022333
C  C32  1  0.25539000  0.19659000  0.90965000  1.0 0.051359733
C  C33  1  0.25583000  0.24877000  0.90323000  1.0 -0.133510874
C  C34  1  0.28276000  0.28284000  0.85040000  1.0 -0.118306732
C  C35  1  0.31203000  0.26413000  0.80165000  1.0 -0.0392807968
C  C36  1  0.31402000  0.21072000  0.80904000  1.0 -0.0998369384
C  C37  1  0.28565000  0.17719000  0.86183000  1.0 -0.133510874
C  C38  1  0.33725000  0.30253000  0.74267000  1.0 0.5776377792
C  C39  1  0.31281000  0.52773000  0.67015000  1.0 0.2327210501
C  C40  1  0.43376000  0.41616000  0.57304000  1.0 0.2208648876
C  C41  1  0.22197000  0.96711000  0.64717000  1.0 0.2562022333
C  C42  1  0.25539000  0.90965000  0.63837000  1.0 0.051359733
C  C43  1  0.25583000  0.90323000  0.59217000  1.0 -0.133510874
C  C44  1  0.28276000  0.85040000  0.58400000  1.0 -0.118306732
C  C45  1  0.31203000  0.80165000  0.62219000  1.0 -0.0392807968
C  C46  1  0.31402000  0.80904000  0.66622000  1.0 -0.0998369384
C  C47  1  0.28565000  0.86183000  0.67533000  1.0 -0.133510874
C  C48  1  0.33725000  0.74267000  0.61755000  1.0 0.5776377792
C  C49  1  0.31281000  0.67015000  0.48931000  1.0 0.2327210501
C  C50  1  0.43376000  0.57304000  0.57704000  1.0 0.2208648876
C  C51  1  0.16375000  0.64717000  0.96711000  1.0 0.2562022333
C  C52  1  0.19659000  0.63837000  0.90965000  1.0 0.051359733
C  C53  1  0.24877000  0.59217000  0.90323000  1.0 -0.133510874
C  C54  1  0.28284000  0.58400000  0.85040000  1.0 -0.118306732
C  C55  1  0.26413000  0.62219000  0.80165000  1.0 -0.0392807968
C  C56  1  0.21072000  0.66622000  0.80904000  1.0 -0.0998369384
C  C57  1  0.17719000  0.67533000  0.86183000  1.0 -0.133510874
C  C58  1  0.30253000  0.61755000  0.74267000  1.0 0.5776377792
C  C59  1  0.52773000  0.48931000  0.67015000  1.0 0.2327210501
C  C60  1  0.41616000  0.57704000  0.57304000  1.0 0.2208648876
C  C61  1  0.96711000  0.22197000  0.16375000  1.0 0.2562022333
C  C62  1  0.90965000  0.25539000  0.19659000  1.0 0.051359733
C  C63  1  0.90323000  0.25583000  0.24877000  1.0 -0.133510874
C  C64  1  0.85040000  0.28276000  0.28284000  1.0 -0.118306732
C  C65  1  0.80165000  0.31203000  0.26413000  1.0 -0.0392807968
C  C66  1  0.80904000  0.31402000  0.21072000  1.0 -0.0998369384
C  C67  1  0.86183000  0.28565000  0.17719000  1.0 -0.133510874
C  C68  1  0.74267000  0.33725000  0.30253000  1.0 0.5776377792
C  C69  1  0.67015000  0.31281000  0.52773000  1.0 0.2327210501
C  C70  1  0.57304000  0.43376000  0.41616000  1.0 0.2208648876
C  C71  1  0.64717000  0.16375000  0.22197000  1.0 0.2562022333
C  C72  1  0.63837000  0.19659000  0.25539000  1.0 0.051359733
C  C73  1  0.59217000  0.24877000  0.25583000  1.0 -0.133510874
C  C74  1  0.58400000  0.28284000  0.28276000  1.0 -0.118306732
C  C75  1  0.62219000  0.26413000  0.31203000  1.0 -0.0392807968
C  C76  1  0.66622000  0.21072000  0.31402000  1.0 -0.0998369384
C  C77  1  0.67533000  0.17719000  0.28565000  1.0 -0.133510874
C  C78  1  0.61755000  0.30253000  0.33725000  1.0 0.5776377792
C  C79  1  0.48931000  0.52773000  0.31281000  1.0 0.2327210501
C  C80  1  0.57704000  0.41616000  0.43376000  1.0 0.2208648876
C  C81  1  0.16375000  0.96711000  0.22197000  1.0 0.2562022333
C  C82  1  0.19659000  0.90965000  0.25539000  1.0 0.051359733
C  C83  1  0.24877000  0.90323000  0.25583000  1.0 -0.133510874
C  C84  1  0.28284000  0.85040000  0.28276000  1.0 -0.118306732
C  C85  1  0.26413000  0.80165000  0.31203000  1.0 -0.0392807968
C  C86  1  0.21072000  0.80904000  0.31402000  1.0 -0.0998369384
C  C87  1  0.17719000  0.86183000  0.28565000  1.0 -0.133510874
C  C88  1  0.30253000  0.74267000  0.33725000  1.0 0.5776377792
C  C89  1  0.52773000  0.67015000  0.31281000  1.0 0.2327210501
C  C90  1  0.41616000  0.57304000  0.43376000  1.0 0.2208648876
C  C91  1  0.22197000  0.64717000  0.16375000  1.0 0.2562022333
C  C92  1  0.25539000  0.63837000  0.19659000  1.0 0.051359733
C  C93  1  0.25583000  0.59217000  0.24877000  1.0 -0.133510874
C  C94  1  0.28276000  0.58400000  0.28284000  1.0 -0.118306732
C  C95  1  0.31203000  0.62219000  0.26413000  1.0 -0.0392807968
C  C96  1  0.31402000  0.66622000  0.21072000  1.0 -0.0998369384
C  C97  1  0.28565000  0.67533000  0.17719000  1.0 -0.133510874
C  C98  1  0.33725000  0.61755000  0.30253000  1.0 0.5776377792
C  C99  1  0.31281000  0.48931000  0.52773000  1.0 0.2327210501
C  C100  1  0.43376000  0.57704000  0.41616000  1.0 0.2208648876
C  C101  1  0.64717000  0.22197000  0.96711000  1.0 0.2562022333
C  C102  1  0.63837000  0.25539000  0.90965000  1.0 0.051359733
C  C103  1  0.59217000  0.25583000  0.90323000  1.0 -0.133510874
C  C104  1  0.58400000  0.28276000  0.85040000  1.0 -0.118306732
C  C105  1  0.62219000  0.31203000  0.80165000  1.0 -0.0392807968
C  C106  1  0.66622000  0.31402000  0.80904000  1.0 -0.0998369384
C  C107  1  0.67533000  0.28565000  0.86183000  1.0 -0.133510874
C  C108  1  0.61755000  0.33725000  0.74267000  1.0 0.5776377792
C  C109  1  0.48931000  0.31281000  0.67015000  1.0 0.2327210501
C  C110  1  0.57704000  0.43376000  0.57304000  1.0 0.2208648876
C  C111  1  0.96711000  0.16375000  0.64717000  1.0 0.2562022333
C  C112  1  0.90965000  0.19659000  0.63837000  1.0 0.051359733
C  C113  1  0.90323000  0.24877000  0.59217000  1.0 -0.133510874
C  C114  1  0.85040000  0.28284000  0.58400000  1.0 -0.118306732
C  C115  1  0.80165000  0.26413000  0.62219000  1.0 -0.0392807968
C  C116  1  0.80904000  0.21072000  0.66622000  1.0 -0.0998369384
C  C117  1  0.86183000  0.17719000  0.67533000  1.0 -0.133510874
C  C118  1  0.74267000  0.30253000  0.61755000  1.0 0.5776377792
C  C119  1  0.67015000  0.52773000  0.48931000  1.0 0.2327210501
C  C120  1  0.57304000  0.41616000  0.57704000  1.0 0.2208648876
C  C121  1  0.14717000  0.46711000  0.72197000  1.0 0.2562022333
C  C122  1  0.13837000  0.40965000  0.75539000  1.0 0.051359733
C  C123  1  0.09217000  0.40323000  0.75583000  1.0 -0.133510874
C  C124  1  0.08400000  0.35040000  0.78276000  1.0 -0.118306732
C  C125  1  0.12219000  0.30165000  0.81203000  1.0 -0.0392807968
C  C126  1  0.16622000  0.30904000  0.81402000  1.0 -0.0998369384
C  C127  1  0.17533000  0.36183000  0.78565000  1.0 -0.133510874
C  C128  1  0.11755000  0.24267000  0.83725000  1.0 0.5776377792
C  C129  1  0.98931000  0.17015000  0.81281000  1.0 0.2358494351
C  C130  1  0.07704000  0.07304000  0.93376000  1.0 0.2208648876
C  C131  1  0.46711000  0.14717000  0.66375000  1.0 0.2562022333
C  C132  1  0.40965000  0.13837000  0.69659000  1.0 0.051359733
C  C133  1  0.40323000  0.09217000  0.74877000  1.0 -0.133510874
C  C134  1  0.35040000  0.08400000  0.78284000  1.0 -0.118306732
C  C135  1  0.30165000  0.12219000  0.76413000  1.0 -0.0392807968
C  C136  1  0.30904000  0.16622000  0.71072000  1.0 -0.0998369384
C  C137  1  0.36183000  0.17533000  0.67719000  1.0 -0.133510874
C  C138  1  0.24267000  0.11755000  0.80253000  1.0 0.5776377792
C  C139  1  0.17015000  0.98931000  0.02773000  1.0 0.2327210501
C  C140  1  0.07304000  0.07704000  0.91616000  1.0 0.2208648876
C  C141  1  0.66375000  0.72197000  0.46711000  1.0 0.2562022333
C  C142  1  0.69659000  0.75539000  0.40965000  1.0 0.051359733
C  C143  1  0.74877000  0.75583000  0.40323000  1.0 -0.133510874
C  C144  1  0.78284000  0.78276000  0.35040000  1.0 -0.118306732
C  C145  1  0.76413000  0.81203000  0.30165000  1.0 -0.0392807968
C  C146  1  0.71072000  0.81402000  0.30904000  1.0 -0.0998369384
C  C147  1  0.67719000  0.78565000  0.36183000  1.0 -0.133510874
C  C148  1  0.80253000  0.83725000  0.24267000  1.0 0.5776377792
C  C149  1  0.02773000  0.81281000  0.17015000  1.0 0.2327210501
C  C150  1  0.91616000  0.93376000  0.07304000  1.0 0.2208648876
C  C151  1  0.72197000  0.66375000  0.14717000  1.0 0.2562022333
C  C152  1  0.75539000  0.69659000  0.13837000  1.0 0.051359733
C  C153  1  0.75583000  0.74877000  0.09217000  1.0 -0.133510874
C  C154  1  0.78276000  0.78284000  0.08400000  1.0 -0.118306732
C  C155  1  0.81203000  0.76413000  0.12219000  1.0 -0.0392807968
C  C156  1  0.81402000  0.71072000  0.16622000  1.0 -0.0998369384
C  C157  1  0.78565000  0.67719000  0.17533000  1.0 -0.133510874
C  C158  1  0.83725000  0.80253000  0.11755000  1.0 0.5776377792
C  C159  1  0.81281000  0.02773000  0.98931000  1.0 0.2327210501
C  C160  1  0.93376000  0.91616000  0.07704000  1.0 0.2208648876
C  C161  1  0.72197000  0.46711000  0.66375000  1.0 0.2562022333
C  C162  1  0.75539000  0.40965000  0.69659000  1.0 0.051359733
C  C163  1  0.75583000  0.40323000  0.74877000  1.0 -0.133510874
C  C164  1  0.78276000  0.35040000  0.78284000  1.0 -0.118306732
C  C165  1  0.81203000  0.30165000  0.76413000  1.0 -0.0392807968
C  C166  1  0.81402000  0.30904000  0.71072000  1.0 -0.0998369384
C  C167  1  0.78565000  0.36183000  0.67719000  1.0 -0.133510874
C  C168  1  0.83725000  0.24267000  0.80253000  1.0 0.5776377792
C  C169  1  0.81281000  0.17015000  0.02773000  1.0 0.2358494351
C  C170  1  0.93376000  0.07304000  0.91616000  1.0 0.2208648876
C  C171  1  0.66375000  0.14717000  0.72197000  1.0 0.2562022333
C  C172  1  0.69659000  0.13837000  0.75539000  1.0 0.051359733
C  C173  1  0.74877000  0.09217000  0.75583000  1.0 -0.133510874
C  C174  1  0.78284000  0.08400000  0.78276000  1.0 -0.118306732
C  C175  1  0.76413000  0.12219000  0.81203000  1.0 -0.0392807968
C  C176  1  0.71072000  0.16622000  0.81402000  1.0 -0.0998369384
C  C177  1  0.67719000  0.17533000  0.78565000  1.0 -0.133510874
C  C178  1  0.80253000  0.11755000  0.83725000  1.0 0.5776377792
C  C179  1  0.02773000  0.98931000  0.81281000  1.0 0.2327210501
C  C180  1  0.91616000  0.07704000  0.93376000  1.0 0.2208648876
C  C181  1  0.46711000  0.72197000  0.14717000  1.0 0.2562022333
C  C182  1  0.40965000  0.75539000  0.13837000  1.0 0.051359733
C  C183  1  0.40323000  0.75583000  0.09217000  1.0 -0.133510874
C  C184  1  0.35040000  0.78276000  0.08400000  1.0 -0.118306732
C  C185  1  0.30165000  0.81203000  0.12219000  1.0 -0.0392807968
C  C186  1  0.30904000  0.81402000  0.16622000  1.0 -0.0998369384
C  C187  1  0.36183000  0.78565000  0.17533000  1.0 -0.133510874
C  C188  1  0.24267000  0.83725000  0.11755000  1.0 0.5776377792
C  C189  1  0.17015000  0.81281000  0.98931000  1.0 0.2327210501
C  C190  1  0.07304000  0.93376000  0.07704000  1.0 0.2208648876
C  C191  1  0.14717000  0.66375000  0.46711000  1.0 0.2562022333
C  C192  1  0.13837000  0.69659000  0.40965000  1.0 0.051359733
C  C193  1  0.09217000  0.74877000  0.40323000  1.0 -0.133510874
C  C194  1  0.08400000  0.78284000  0.35040000  1.0 -0.118306732
C  C195  1  0.12219000  0.76413000  0.30165000  1.0 -0.0392807968
C  C196  1  0.16622000  0.71072000  0.30904000  1.0 -0.0998369384
C  C197  1  0.17533000  0.67719000  0.36183000  1.0 -0.133510874
C  C198  1  0.11755000  0.80253000  0.24267000  1.0 0.5776377792
C  C199  1  0.98931000  0.02773000  0.17015000  1.0 0.2327210501
C  C200  1  0.07704000  0.91616000  0.07304000  1.0 0.2208648876
C  C201  1  0.66375000  0.46711000  0.14717000  1.0 0.2562022333
C  C202  1  0.69659000  0.40965000  0.13837000  1.0 0.051359733
C  C203  1  0.74877000  0.40323000  0.09217000  1.0 -0.133510874
C  C204  1  0.78284000  0.35040000  0.08400000  1.0 -0.118306732
C  C205  1  0.76413000  0.30165000  0.12219000  1.0 -0.0392807968
C  C206  1  0.71072000  0.30904000  0.16622000  1.0 -0.0998369384
C  C207  1  0.67719000  0.36183000  0.17533000  1.0 -0.133510874
C  C208  1  0.80253000  0.24267000  0.11755000  1.0 0.5776377792
C  C209  1  0.02773000  0.17015000  0.98931000  1.0 0.2327210501
C  C210  1  0.91616000  0.07304000  0.07704000  1.0 0.2208648876
C  C211  1  0.72197000  0.14717000  0.46711000  1.0 0.2562022333
C  C212  1  0.75539000  0.13837000  0.40965000  1.0 0.051359733
C  C213  1  0.75583000  0.09217000  0.40323000  1.0 -0.133510874
C  C214  1  0.78276000  0.08400000  0.35040000  1.0 -0.118306732
C  C215  1  0.81203000  0.12219000  0.30165000  1.0 -0.0392807968
C  C216  1  0.81402000  0.16622000  0.30904000  1.0 -0.0998369384
C  C217  1  0.78565000  0.17533000  0.36183000  1.0 -0.133510874
C  C218  1  0.83725000  0.11755000  0.24267000  1.0 0.5776377792
C  C219  1  0.81281000  0.98931000  0.17015000  1.0 0.2327210501
C  C220  1  0.93376000  0.07704000  0.07304000  1.0 0.2208648876
C  C221  1  0.14717000  0.72197000  0.66375000  1.0 0.2562022333
C  C222  1  0.13837000  0.75539000  0.69659000  1.0 0.051359733
C  C223  1  0.09217000  0.75583000  0.74877000  1.0 -0.133510874
C  C224  1  0.08400000  0.78276000  0.78284000  1.0 -0.118306732
C  C225  1  0.12219000  0.81203000  0.76413000  1.0 -0.0392807968
C  C226  1  0.16622000  0.81402000  0.71072000  1.0 -0.0998369384
C  C227  1  0.17533000  0.78565000  0.67719000  1.0 -0.133510874
C  C228  1  0.11755000  0.83725000  0.80253000  1.0 0.5776377792
C  C229  1  0.98931000  0.81281000  0.02773000  1.0 0.2327210501
C  C230  1  0.07704000  0.93376000  0.91616000  1.0 0.2208648876
C  C231  1  0.46711000  0.66375000  0.72197000  1.0 0.2562022333
C  C232  1  0.40965000  0.69659000  0.75539000  1.0 0.051359733
C  C233  1  0.40323000  0.74877000  0.75583000  1.0 -0.133510874
C  C234  1  0.35040000  0.78284000  0.78276000  1.0 -0.118306732
C  C235  1  0.30165000  0.76413000  0.81203000  1.0 -0.0392807968
C  C236  1  0.30904000  0.71072000  0.81402000  1.0 -0.0998369384
C  C237  1  0.36183000  0.67719000  0.78565000  1.0 -0.133510874
C  C238  1  0.24267000  0.80253000  0.83725000  1.0 0.5776377792
C  C239  1  0.17015000  0.02773000  0.81281000  1.0 0.2327210501
C  C240  1  0.07304000  0.91616000  0.93376000  1.0 0.2208648876
N  N1  1  0.60185000  0.01597000  0.16419000  1.0 -0.3185942099
N  N2  1  0.62545000  0.05841000  0.13389000  1.0 -0.118306732
N  N3  1  0.68222000  0.03560000  0.11624000  1.0 -0.07971233
N  N4  1  0.69803000  0.97687000  0.13391000  1.0 -0.2615853188
N  N5  1  0.01597000  0.60185000  0.21799000  1.0 -0.3185942099
N  N6  1  0.05841000  0.62545000  0.18225000  1.0 -0.118306732
N  N7  1  0.03560000  0.68222000  0.16594000  1.0 -0.07971233
N  N8  1  0.97687000  0.69803000  0.19119000  1.0 -0.2615853188
N  N9  1  0.16419000  0.21799000  0.60185000  1.0 -0.3185942099
N  N10  1  0.13389000  0.18225000  0.62545000  1.0 -0.118306732
N  N11  1  0.11624000  0.16594000  0.68222000  1.0 -0.07971233
N  N12  1  0.13391000  0.19119000  0.69803000  1.0 -0.2615853188
N  N13  1  0.21799000  0.16419000  0.01597000  1.0 -0.3185942099
N  N14  1  0.18225000  0.13389000  0.05841000  1.0 -0.118306732
N  N15  1  0.16594000  0.11624000  0.03560000  1.0 -0.07971233
N  N16  1  0.19119000  0.13391000  0.97687000  1.0 -0.2615853188
N  N17  1  0.21799000  0.01597000  0.60185000  1.0 -0.3185942099
N  N18  1  0.18225000  0.05841000  0.62545000  1.0 -0.118306732
N  N19  1  0.16594000  0.03560000  0.68222000  1.0 -0.07971233
N  N20  1  0.19119000  0.97687000  0.69803000  1.0 -0.2615853188
N  N21  1  0.16419000  0.60185000  0.01597000  1.0 -0.3185942099
N  N22  1  0.13389000  0.62545000  0.05841000  1.0 -0.118306732
N  N23  1  0.11624000  0.68222000  0.03560000  1.0 -0.07971233
N  N24  1  0.13391000  0.69803000  0.97687000  1.0 -0.2615853188
N  N25  1  0.01597000  0.21799000  0.16419000  1.0 -0.3185942099
N  N26  1  0.05841000  0.18225000  0.13389000  1.0 -0.118306732
N  N27  1  0.03560000  0.16594000  0.11624000  1.0 -0.07971233
N  N28  1  0.97687000  0.19119000  0.13391000  1.0 -0.2615853188
N  N29  1  0.60185000  0.16419000  0.21799000  1.0 -0.3185942099
N  N30  1  0.62545000  0.13389000  0.18225000  1.0 -0.118306732
N  N31  1  0.68222000  0.11624000  0.16594000  1.0 -0.07971233
N  N32  1  0.69803000  0.13391000  0.19119000  1.0 -0.2615853188
N  N33  1  0.16419000  0.01597000  0.21799000  1.0 -0.3185942099
N  N34  1  0.13389000  0.05841000  0.18225000  1.0 -0.118306732
N  N35  1  0.11624000  0.03560000  0.16594000  1.0 -0.07971233
N  N36  1  0.13391000  0.97687000  0.19119000  1.0 -0.2615853188
N  N37  1  0.21799000  0.60185000  0.16419000  1.0 -0.3185942099
N  N38  1  0.18225000  0.62545000  0.13389000  1.0 -0.118306732
N  N39  1  0.16594000  0.68222000  0.11624000  1.0 -0.07971233
N  N40  1  0.19119000  0.69803000  0.13391000  1.0 -0.2615853188
N  N41  1  0.60185000  0.21799000  0.01597000  1.0 -0.3185942099
N  N42  1  0.62545000  0.18225000  0.05841000  1.0 -0.118306732
N  N43  1  0.68222000  0.16594000  0.03560000  1.0 -0.07971233
N  N44  1  0.69803000  0.19119000  0.97687000  1.0 -0.2615853188
N  N45  1  0.01597000  0.16419000  0.60185000  1.0 -0.3185942099
N  N46  1  0.05841000  0.13389000  0.62545000  1.0 -0.118306732
N  N47  1  0.03560000  0.11624000  0.68222000  1.0 -0.07971233
N  N48  1  0.97687000  0.13391000  0.69803000  1.0 -0.2615853188
N  N49  1  0.10185000  0.51597000  0.71799000  1.0 -0.3185942099
N  N50  1  0.12545000  0.55841000  0.68225000  1.0 -0.118306732
N  N51  1  0.18222000  0.53560000  0.66594000  1.0 -0.07971233
N  N52  1  0.19803000  0.47687000  0.69119000  1.0 -0.2615853188
N  N53  1  0.51597000  0.10185000  0.66419000  1.0 -0.3185942099
N  N54  1  0.55841000  0.12545000  0.63389000  1.0 -0.118306732
N  N55  1  0.53560000  0.18222000  0.61624000  1.0 -0.07971233
N  N56  1  0.47687000  0.19803000  0.63391000  1.0 -0.2615853188
N  N57  1  0.66419000  0.71799000  0.51597000  1.0 -0.3185942099
N  N58  1  0.63389000  0.68225000  0.55841000  1.0 -0.118306732
N  N59  1  0.61624000  0.66594000  0.53560000  1.0 -0.07971233
N  N60  1  0.63391000  0.69119000  0.47687000  1.0 -0.2615853188
N  N61  1  0.71799000  0.66419000  0.10185000  1.0 -0.3185942099
N  N62  1  0.68225000  0.63389000  0.12545000  1.0 -0.118306732
N  N63  1  0.66594000  0.61624000  0.18222000  1.0 -0.07971233
N  N64  1  0.69119000  0.63391000  0.19803000  1.0 -0.2615853188
N  N65  1  0.71799000  0.51597000  0.66419000  1.0 -0.3185942099
N  N66  1  0.68225000  0.55841000  0.63389000  1.0 -0.118306732
N  N67  1  0.66594000  0.53560000  0.61624000  1.0 -0.07971233
N  N68  1  0.69119000  0.47687000  0.63391000  1.0 -0.2615853188
N  N69  1  0.66419000  0.10185000  0.71799000  1.0 -0.3185942099
N  N70  1  0.63389000  0.12545000  0.68225000  1.0 -0.118306732
N  N71  1  0.61624000  0.18222000  0.66594000  1.0 -0.07971233
N  N72  1  0.63391000  0.19803000  0.69119000  1.0 -0.2615853188
N  N73  1  0.51597000  0.71799000  0.10185000  1.0 -0.3185942099
N  N74  1  0.55841000  0.68225000  0.12545000  1.0 -0.118306732
N  N75  1  0.53560000  0.66594000  0.18222000  1.0 -0.07971233
N  N76  1  0.47687000  0.69119000  0.19803000  1.0 -0.2615853188
N  N77  1  0.10185000  0.66419000  0.51597000  1.0 -0.3185942099
N  N78  1  0.12545000  0.63389000  0.55841000  1.0 -0.118306732
N  N79  1  0.18222000  0.61624000  0.53560000  1.0 -0.07971233
N  N80  1  0.19803000  0.63391000  0.47687000  1.0 -0.2615853188
N  N81  1  0.66419000  0.51597000  0.10185000  1.0 -0.3185942099
N  N82  1  0.63389000  0.55841000  0.12545000  1.0 -0.118306732
N  N83  1  0.61624000  0.53560000  0.18222000  1.0 -0.07971233
N  N84  1  0.63391000  0.47687000  0.19803000  1.0 -0.2615853188
N  N85  1  0.71799000  0.10185000  0.51597000  1.0 -0.3185942099
N  N86  1  0.68225000  0.12545000  0.55841000  1.0 -0.118306732
N  N87  1  0.66594000  0.18222000  0.53560000  1.0 -0.07971233
N  N88  1  0.69119000  0.19803000  0.47687000  1.0 -0.2615853188
N  N89  1  0.10185000  0.71799000  0.66419000  1.0 -0.3185942099
N  N90  1  0.12545000  0.68225000  0.63389000  1.0 -0.118306732
N  N91  1  0.18222000  0.66594000  0.61624000  1.0 -0.07971233
N  N92  1  0.19803000  0.69119000  0.63391000  1.0 -0.2615853188
N  N93  1  0.51597000  0.66419000  0.71799000  1.0 -0.3185942099
N  N94  1  0.55841000  0.63389000  0.68225000  1.0 -0.118306732
N  N95  1  0.53560000  0.61624000  0.66594000  1.0 -0.07971233
N  N96  1  0.47687000  0.63391000  0.69119000  1.0 -0.2615853188
O  O1  1  0.63946000  0.70532000  0.27828000  1.0 -0.5764296515
O  O2  1  0.59300000  0.73328000  0.35738000  1.0 -0.5764296515
O  O3  1  0.52522000  0.68354000  0.47774000  1.0 -0.532060576
O  O4  1  0.50168000  0.63316000  0.57386000  1.0 -0.5885610109
O  O5  1  0.55760000  0.54520000  0.47040000  1.0 -0.07971233
O  O6  1  0.50829000  0.23183000  0.14837000  1.0 -0.6664319759
O  O7  1  0.54100000  0.56560000  0.46680000  1.0 -0.0591988887
O  O8  1  0.70532000  0.63946000  0.37694000  1.0 -0.5764296515
O  O9  1  0.73328000  0.59300000  0.31634000  1.0 -0.5764296515
O  O10  1  0.68354000  0.52522000  0.31350000  1.0 -0.532060576
O  O11  1  0.63316000  0.50168000  0.29130000  1.0 -0.5885610109
O  O12  1  0.54520000  0.55760000  0.42680000  1.0 -0.07971233
O  O13  1  0.23183000  0.50829000  0.11151000  1.0 -0.6664319759
O  O14  1  0.56560000  0.54100000  0.42660000  1.0 -0.0591988887
O  O15  1  0.27828000  0.37694000  0.63946000  1.0 -0.5764296515
O  O16  1  0.35738000  0.31634000  0.59300000  1.0 -0.5764296515
O  O17  1  0.47774000  0.31350000  0.52522000  1.0 -0.532060576
O  O18  1  0.57386000  0.29130000  0.50168000  1.0 -0.5885610109
O  O19  1  0.47040000  0.42680000  0.55760000  1.0 -0.07971233
O  O20  1  0.14837000  0.11151000  0.50829000  1.0 -0.6664319759
O  O21  1  0.46680000  0.42660000  0.54100000  1.0 -0.0591988887
O  O22  1  0.37694000  0.27828000  0.70532000  1.0 -0.5764296515
O  O23  1  0.31634000  0.35738000  0.73328000  1.0 -0.5764296515
O  O24  1  0.31350000  0.47774000  0.68354000  1.0 -0.532060576
O  O25  1  0.29130000  0.57386000  0.63316000  1.0 -0.5885610109
O  O26  1  0.42680000  0.47040000  0.54520000  1.0 -0.07971233
O  O27  1  0.11151000  0.14837000  0.23183000  1.0 -0.6664319759
O  O28  1  0.42660000  0.46680000  0.56560000  1.0 -0.0591988887
O  O29  1  0.37694000  0.70532000  0.63946000  1.0 -0.5764296515
O  O30  1  0.31634000  0.73328000  0.59300000  1.0 -0.5764296515
O  O31  1  0.31350000  0.68354000  0.52522000  1.0 -0.532060576
O  O32  1  0.29130000  0.63316000  0.50168000  1.0 -0.5885610109
O  O33  1  0.42680000  0.54520000  0.55760000  1.0 -0.07971233
O  O34  1  0.11151000  0.23183000  0.50829000  1.0 -0.6664319759
O  O35  1  0.42660000  0.56560000  0.54100000  1.0 -0.0591988887
O  O36  1  0.27828000  0.63946000  0.70532000  1.0 -0.5764296515
O  O37  1  0.35738000  0.59300000  0.73328000  1.0 -0.5764296515
O  O38  1  0.47774000  0.52522000  0.68354000  1.0 -0.532060576
O  O39  1  0.57386000  0.50168000  0.63316000  1.0 -0.5885610109
O  O40  1  0.47040000  0.55760000  0.54520000  1.0 -0.07971233
O  O41  1  0.14837000  0.50829000  0.23183000  1.0 -0.6664319759
O  O42  1  0.46680000  0.54100000  0.56560000  1.0 -0.0591988887
O  O43  1  0.70532000  0.37694000  0.27828000  1.0 -0.5764296515
O  O44  1  0.73328000  0.31634000  0.35738000  1.0 -0.5764296515
O  O45  1  0.68354000  0.31350000  0.47774000  1.0 -0.532060576
O  O46  1  0.63316000  0.29130000  0.57386000  1.0 -0.5885610109
O  O47  1  0.54520000  0.42680000  0.47040000  1.0 -0.07971233
O  O48  1  0.23183000  0.11151000  0.14837000  1.0 -0.6664319759
O  O49  1  0.56560000  0.42660000  0.46680000  1.0 -0.0591988887
O  O50  1  0.63946000  0.27828000  0.37694000  1.0 -0.5764296515
O  O51  1  0.59300000  0.35738000  0.31634000  1.0 -0.5764296515
O  O52  1  0.52522000  0.47774000  0.31350000  1.0 -0.532060576
O  O53  1  0.50168000  0.57386000  0.29130000  1.0 -0.5885610109
O  O54  1  0.55760000  0.47040000  0.42680000  1.0 -0.07971233
O  O55  1  0.50829000  0.14837000  0.11151000  1.0 -0.6664319759
O  O56  1  0.54100000  0.46680000  0.42660000  1.0 -0.0591988887
O  O57  1  0.27828000  0.70532000  0.37694000  1.0 -0.5764296515
O  O58  1  0.35738000  0.73328000  0.31634000  1.0 -0.5764296515
O  O59  1  0.47774000  0.68354000  0.31350000  1.0 -0.532060576
O  O60  1  0.57386000  0.63316000  0.29130000  1.0 -0.5885610109
O  O61  1  0.47040000  0.54520000  0.42680000  1.0 -0.07971233
O  O62  1  0.14837000  0.23183000  0.11151000  1.0 -0.6664319759
O  O63  1  0.46680000  0.56560000  0.42660000  1.0 -0.0591988887
O  O64  1  0.37694000  0.63946000  0.27828000  1.0 -0.5764296515
O  O65  1  0.31634000  0.59300000  0.35738000  1.0 -0.5764296515
O  O66  1  0.31350000  0.52522000  0.47774000  1.0 -0.532060576
O  O67  1  0.29130000  0.50168000  0.57386000  1.0 -0.5885610109
O  O68  1  0.42680000  0.55760000  0.47040000  1.0 -0.07971233
O  O69  1  0.11151000  0.50829000  0.14837000  1.0 -0.6664319759
O  O70  1  0.42660000  0.54100000  0.46680000  1.0 -0.0591988887
O  O71  1  0.63946000  0.37694000  0.70532000  1.0 -0.5764296515
O  O72  1  0.59300000  0.31634000  0.73328000  1.0 -0.5764296515
O  O73  1  0.52522000  0.31350000  0.68354000  1.0 -0.532060576
O  O74  1  0.50168000  0.29130000  0.63316000  1.0 -0.5885610109
O  O75  1  0.55760000  0.42680000  0.54520000  1.0 -0.07971233
O  O76  1  0.50829000  0.11151000  0.23183000  1.0 -0.6664319759
O  O77  1  0.54100000  0.42660000  0.56560000  1.0 -0.0591988887
O  O78  1  0.70532000  0.27828000  0.63946000  1.0 -0.5764296515
O  O79  1  0.73328000  0.35738000  0.59300000  1.0 -0.5764296515
O  O80  1  0.68354000  0.47774000  0.52522000  1.0 -0.532060576
O  O81  1  0.63316000  0.57386000  0.50168000  1.0 -0.5885610109
O  O82  1  0.54520000  0.47040000  0.55760000  1.0 -0.07971233
O  O83  1  0.23183000  0.14837000  0.50829000  1.0 -0.6664319759
O  O84  1  0.56560000  0.46680000  0.54100000  1.0 -0.0591988887
O  O85  1  0.13946000  0.20532000  0.87694000  1.0 -0.5764296515
O  O86  1  0.09300000  0.23328000  0.81634000  1.0 -0.5764296515
O  O87  1  0.02522000  0.18354000  0.81350000  1.0 -0.532060576
O  O88  1  0.00168000  0.13316000  0.79130000  1.0 -0.5885610109
O  O89  1  0.05760000  0.04520000  0.92680000  1.0 -0.07971233
O  O90  1  0.00829000  0.73183000  0.61151000  1.0 -0.6664319759
O  O91  1  0.04100000  0.06560000  0.92660000  1.0 -0.0591988887
O  O92  1  0.20532000  0.13946000  0.77828000  1.0 -0.5764296515
O  O93  1  0.23328000  0.09300000  0.85738000  1.0 -0.5764296515
O  O94  1  0.18354000  0.02522000  0.97774000  1.0 -0.532060576
O  O95  1  0.13316000  0.00168000  0.07386000  1.0 -0.5885610109
O  O96  1  0.04520000  0.05760000  0.97040000  1.0 -0.07971233
O  O97  1  0.73183000  0.00829000  0.64837000  1.0 -0.6664319759
O  O98  1  0.06560000  0.04100000  0.96680000  1.0 -0.0591988887
O  O99  1  0.77828000  0.87694000  0.20532000  1.0 -0.5764296515
O  O100  1  0.85738000  0.81634000  0.23328000  1.0 -0.5764296515
O  O101  1  0.97774000  0.81350000  0.18354000  1.0 -0.532060576
O  O102  1  0.07386000  0.79130000  0.13316000  1.0 -0.5885610109
O  O103  1  0.97040000  0.92680000  0.04520000  1.0 -0.07971233
O  O104  1  0.64837000  0.61151000  0.73183000  1.0 -0.6664319759
O  O105  1  0.96680000  0.92660000  0.06560000  1.0 -0.0591988887
O  O106  1  0.87694000  0.77828000  0.13946000  1.0 -0.5764296515
O  O107  1  0.81634000  0.85738000  0.09300000  1.0 -0.5764296515
O  O108  1  0.81350000  0.97774000  0.02522000  1.0 -0.532060576
O  O109  1  0.79130000  0.07386000  0.00168000  1.0 -0.5885610109
O  O110  1  0.92680000  0.97040000  0.05760000  1.0 -0.0747015378
O  O111  1  0.61151000  0.64837000  0.00829000  1.0 -0.6664319759
O  O112  1  0.92660000  0.96680000  0.04100000  1.0 -0.0591988887
O  O113  1  0.87694000  0.20532000  0.77828000  1.0 -0.5764296515
O  O114  1  0.81634000  0.23328000  0.85738000  1.0 -0.5764296515
O  O115  1  0.81350000  0.18354000  0.97774000  1.0 -0.532060576
O  O116  1  0.79130000  0.13316000  0.07386000  1.0 -0.5885610109
O  O117  1  0.92680000  0.04520000  0.97040000  1.0 -0.07971233
O  O118  1  0.61151000  0.73183000  0.64837000  1.0 -0.6664319759
O  O119  1  0.92660000  0.06560000  0.96680000  1.0 -0.0591988887
O  O120  1  0.77828000  0.13946000  0.87694000  1.0 -0.5764296515
O  O121  1  0.85738000  0.09300000  0.81634000  1.0 -0.5764296515
O  O122  1  0.97774000  0.02522000  0.81350000  1.0 -0.532060576
O  O123  1  0.07386000  0.00168000  0.79130000  1.0 -0.5885610109
O  O124  1  0.97040000  0.05760000  0.92680000  1.0 -0.07971233
O  O125  1  0.64837000  0.00829000  0.61151000  1.0 -0.6664319759
O  O126  1  0.96680000  0.04100000  0.92660000  1.0 -0.0591988887
O  O127  1  0.20532000  0.87694000  0.13946000  1.0 -0.5764296515
O  O128  1  0.23328000  0.81634000  0.09300000  1.0 -0.5764296515
O  O129  1  0.18354000  0.81350000  0.02522000  1.0 -0.532060576
O  O130  1  0.13316000  0.79130000  0.00168000  1.0 -0.5885610109
O  O131  1  0.04520000  0.92680000  0.05760000  1.0 -0.0747015378
O  O132  1  0.73183000  0.61151000  0.00829000  1.0 -0.6664319759
O  O133  1  0.06560000  0.92660000  0.04100000  1.0 -0.0591988887
O  O134  1  0.13946000  0.77828000  0.20532000  1.0 -0.5764296515
O  O135  1  0.09300000  0.85738000  0.23328000  1.0 -0.5764296515
O  O136  1  0.02522000  0.97774000  0.18354000  1.0 -0.532060576
O  O137  1  0.00168000  0.07386000  0.13316000  1.0 -0.5885610109
O  O138  1  0.05760000  0.97040000  0.04520000  1.0 -0.0747015378
O  O139  1  0.00829000  0.64837000  0.73183000  1.0 -0.6664319759
O  O140  1  0.04100000  0.96680000  0.06560000  1.0 -0.0591988887
O  O141  1  0.77828000  0.20532000  0.13946000  1.0 -0.5764296515
O  O142  1  0.85738000  0.23328000  0.09300000  1.0 -0.5764296515
O  O143  1  0.97774000  0.18354000  0.02522000  1.0 -0.532060576
O  O144  1  0.07386000  0.13316000  0.00168000  1.0 -0.5885610109
O  O145  1  0.97040000  0.04520000  0.05760000  1.0 -0.07971233
O  O146  1  0.64837000  0.73183000  0.00829000  1.0 -0.6664319759
O  O147  1  0.96680000  0.06560000  0.04100000  1.0 -0.0591988887
O  O148  1  0.87694000  0.13946000  0.20532000  1.0 -0.5764296515
O  O149  1  0.81634000  0.09300000  0.23328000  1.0 -0.5764296515
O  O150  1  0.81350000  0.02522000  0.18354000  1.0 -0.532060576
O  O151  1  0.79130000  0.00168000  0.13316000  1.0 -0.5885610109
O  O152  1  0.92680000  0.05760000  0.04520000  1.0 -0.07971233
O  O153  1  0.61151000  0.00829000  0.73183000  1.0 -0.6664319759
O  O154  1  0.92660000  0.04100000  0.06560000  1.0 -0.0591988887
O  O155  1  0.13946000  0.87694000  0.77828000  1.0 -0.5764296515
O  O156  1  0.09300000  0.81634000  0.85738000  1.0 -0.5764296515
O  O157  1  0.02522000  0.81350000  0.97774000  1.0 -0.532060576
O  O158  1  0.00168000  0.79130000  0.07386000  1.0 -0.5885610109
O  O159  1  0.05760000  0.92680000  0.97040000  1.0 -0.07971233
O  O160  1  0.00829000  0.61151000  0.64837000  1.0 -0.6664319759
O  O161  1  0.04100000  0.92660000  0.96680000  1.0 -0.0591988887
O  O162  1  0.20532000  0.77828000  0.87694000  1.0 -0.5764296515
O  O163  1  0.23328000  0.85738000  0.81634000  1.0 -0.5764296515
O  O164  1  0.18354000  0.97774000  0.81350000  1.0 -0.532060576
O  O165  1  0.13316000  0.07386000  0.79130000  1.0 -0.5885610109
O  O166  1  0.04520000  0.97040000  0.92680000  1.0 -0.07971233
O  O167  1  0.73183000  0.64837000  0.61151000  1.0 -0.6664319759
O  O168  1  0.06560000  0.96680000  0.92660000  1.0 -0.0591988887
O  O169  1  0.60596000  0.60596000  0.39404000  1.0 -0.3835299314
O  O170  1  0.39404000  0.39404000  0.60596000  1.0 -0.3835299314
O  O171  1  0.39404000  0.60596000  0.60596000  1.0 -0.3835299314
O  O172  1  0.60596000  0.39404000  0.39404000  1.0 -0.3835299314
O  O173  1  0.39404000  0.60596000  0.39404000  1.0 -0.3835299314
O  O174  1  0.60596000  0.39404000  0.60596000  1.0 -0.3835299314
O  O175  1  0.10596000  0.10596000  0.89404000  1.0 -0.3835299314
O  O176  1  0.89404000  0.89404000  0.10596000  1.0 -0.3835299314
O  O177  1  0.89404000  0.10596000  0.89404000  1.0 -0.3835299314
O  O178  1  0.10596000  0.89404000  0.10596000  1.0 -0.3835299314
O  O179  1  0.89404000  0.10596000  0.10596000  1.0 -0.3835299314
O  O180  1  0.10596000  0.89404000  0.89404000  1.0 -0.3835299314
