# DDEC6 charges by PACMAN v1.1 (https://github.com/mtap-research/PACMAN-charge/)
data_SEJHAT_ASR_pacman
_symmetry_space_group_name_H-M   'P 1'
_cell_length_a   27.88620000
_cell_length_b   27.88620000
_cell_length_c   27.88620000
_cell_angle_alpha   60.00000000
_cell_angle_beta   60.00000000
_cell_angle_gamma   60.00000000
_symmetry_Int_Tables_number   1
_chemical_formula_structural   Mn7H40C48(N10O13)2
_chemical_formula_sum   'Mn42 H240 C288 N120 O156'
_cell_volume   15333.91373140
_cell_formula_units_Z   6
loop_
 _symmetry_equiv_pos_site_id
 _symmetry_equiv_pos_as_xyz
  1  'x, y, z'
loop_
 _atom_site_type_symbol
 _atom_site_label
 _atom_site_symmetry_multiplicity
 _atom_site_fract_x
 _atom_site_fract_y
 _atom_site_fract_z
 _atom_site_occupancy
 _atom_site_charge
Mn  Mn1  1  0.57392000  0.33962000  0.38674000  1.0 0.9387153651
Mn  Mn2  1  0.33962000  0.57392000  0.69972000  1.0 0.9387153651
Mn  Mn3  1  0.38674000  0.69972000  0.57392000  1.0 0.9387153651
Mn  Mn4  1  0.69972000  0.38674000  0.33962000  1.0 0.9387153651
Mn  Mn5  1  0.69972000  0.33962000  0.57392000  1.0 0.9387153651
Mn  Mn6  1  0.38674000  0.57392000  0.33962000  1.0 0.9387153651
Mn  Mn7  1  0.33962000  0.69972000  0.38674000  1.0 0.9387153651
Mn  Mn8  1  0.57392000  0.38674000  0.69972000  1.0 0.9387153651
Mn  Mn9  1  0.38674000  0.33962000  0.69972000  1.0 0.9387153651
Mn  Mn10  1  0.69972000  0.57392000  0.38674000  1.0 0.9387153651
Mn  Mn11  1  0.57392000  0.69972000  0.33962000  1.0 0.9387153651
Mn  Mn12  1  0.33962000  0.38674000  0.57392000  1.0 0.9387153651
Mn  Mn13  1  0.07392000  0.83962000  0.19972000  1.0 0.9387153651
Mn  Mn14  1  0.83962000  0.07392000  0.88674000  1.0 0.9387153651
Mn  Mn15  1  0.88674000  0.19972000  0.83962000  1.0 0.9387153651
Mn  Mn16  1  0.19972000  0.88674000  0.07392000  1.0 0.9387153651
Mn  Mn17  1  0.19972000  0.83962000  0.88674000  1.0 0.9387153651
Mn  Mn18  1  0.88674000  0.07392000  0.19972000  1.0 0.9387153651
Mn  Mn19  1  0.83962000  0.19972000  0.07392000  1.0 0.9387153651
Mn  Mn20  1  0.07392000  0.88674000  0.83962000  1.0 0.9387153651
Mn  Mn21  1  0.88674000  0.83962000  0.07392000  1.0 0.9387153651
Mn  Mn22  1  0.19972000  0.07392000  0.83962000  1.0 0.9387153651
Mn  Mn23  1  0.07392000  0.19972000  0.88674000  1.0 0.9387153651
Mn  Mn24  1  0.83962000  0.88674000  0.19972000  1.0 0.9387153651
Mn  Mn25  1  0.85476000  0.43572000  0.85476000  1.0 0.7596704479
Mn  Mn26  1  0.43572000  0.85476000  0.85476000  1.0 0.7596704479
Mn  Mn27  1  0.85476000  0.85476000  0.85476000  1.0 0.7596704479
Mn  Mn28  1  0.85476000  0.85476000  0.43572000  1.0 0.7596704479
Mn  Mn29  1  0.35476000  0.93572000  0.35476000  1.0 0.7596704479
Mn  Mn30  1  0.93572000  0.35476000  0.35476000  1.0 0.7596704479
Mn  Mn31  1  0.35476000  0.35476000  0.93572000  1.0 0.7596704479
Mn  Mn32  1  0.35476000  0.35476000  0.35476000  1.0 0.7596704479
Mn  Mn33  1  0.41441000  0.41441000  0.41441000  1.0 0.8418185007
Mn  Mn34  1  0.41441000  0.41441000  0.75677000  1.0 0.8418185007
Mn  Mn35  1  0.41441000  0.75677000  0.41441000  1.0 0.8418185007
Mn  Mn36  1  0.75677000  0.41441000  0.41441000  1.0 0.8418185007
Mn  Mn37  1  0.91441000  0.91441000  0.25677000  1.0 0.8418185007
Mn  Mn38  1  0.91441000  0.91441000  0.91441000  1.0 0.8418185007
Mn  Mn39  1  0.91441000  0.25677000  0.91441000  1.0 0.8418185007
Mn  Mn40  1  0.25677000  0.91441000  0.91441000  1.0 0.8418185007
Mn  Mn41  1  0.50000000  0.50000000  0.50000000  1.0 0.5636405464
Mn  Mn42  1  0.00000000  0.00000000  0.00000000  1.0 0.5636405464
H  H1  1  0.75440000  0.43820000  0.06100000  1.0 0.1192760521
H  H2  1  0.71070000  0.44990000  0.15270000  1.0 0.1192760521
H  H3  1  0.66160000  0.30740000  0.22480000  1.0 0.1094174721
H  H4  1  0.71130000  0.29110000  0.13470000  1.0 0.1192760521
H  H5  1  0.46650000  0.31010000  0.55290000  1.0 0.07290623
H  H6  1  0.94500000  0.58600000  0.65500000  1.0 0.1716568014
H  H7  1  0.98980000  0.54500000  0.69120000  1.0 0.1471742445
H  H8  1  0.98770000  0.52210000  0.65010000  1.0 0.1587670523
H  H9  1  0.59620000  0.46080000  0.40560000  1.0 0.1716568014
H  H10  1  0.60680000  0.44180000  0.42560000  1.0 0.1790234115
H  H11  1  0.43820000  0.75440000  0.74640000  1.0 0.1192760521
H  H12  1  0.44990000  0.71070000  0.68670000  1.0 0.1192760521
H  H13  1  0.30740000  0.66160000  0.80620000  1.0 0.1094174721
H  H14  1  0.29110000  0.71130000  0.86290000  1.0 0.1192760521
H  H15  1  0.31010000  0.46650000  0.67050000  1.0 0.07290623
H  H16  1  0.58600000  0.94500000  0.81400000  1.0 0.1716568014
H  H17  1  0.54500000  0.98980000  0.77400000  1.0 0.1471742445
H  H18  1  0.52210000  0.98770000  0.84010000  1.0 0.1587670523
H  H19  1  0.46080000  0.59620000  0.53740000  1.0 0.1716568014
H  H20  1  0.44180000  0.60680000  0.52580000  1.0 0.1790234115
H  H21  1  0.06100000  0.74640000  0.75440000  1.0 0.1192760521
H  H22  1  0.15270000  0.68670000  0.71070000  1.0 0.1192760521
H  H23  1  0.22480000  0.80620000  0.66160000  1.0 0.1094174721
H  H24  1  0.13470000  0.86290000  0.71130000  1.0 0.1192760521
H  H25  1  0.55290000  0.67050000  0.46650000  1.0 0.07290623
H  H26  1  0.65500000  0.81400000  0.94500000  1.0 0.1716568014
H  H27  1  0.69120000  0.77400000  0.98980000  1.0 0.1471742445
H  H28  1  0.65010000  0.84010000  0.98770000  1.0 0.1587670523
H  H29  1  0.40560000  0.53740000  0.59620000  1.0 0.1716568014
H  H30  1  0.42560000  0.52580000  0.60680000  1.0 0.1790234115
H  H31  1  0.74640000  0.06100000  0.43820000  1.0 0.1192760521
H  H32  1  0.68670000  0.15270000  0.44990000  1.0 0.1192760521
H  H33  1  0.80620000  0.22480000  0.30740000  1.0 0.1094174721
H  H34  1  0.86290000  0.13470000  0.29110000  1.0 0.1192760521
H  H35  1  0.67050000  0.55290000  0.31010000  1.0 0.07290623
H  H36  1  0.81400000  0.65500000  0.58600000  1.0 0.1716568014
H  H37  1  0.77400000  0.69120000  0.54500000  1.0 0.1471742445
H  H38  1  0.84010000  0.65010000  0.52210000  1.0 0.1587670523
H  H39  1  0.53740000  0.40560000  0.46080000  1.0 0.1716568014
H  H40  1  0.52580000  0.42560000  0.44180000  1.0 0.1790234115
H  H41  1  0.74640000  0.43820000  0.75440000  1.0 0.1192760521
H  H42  1  0.68670000  0.44990000  0.71070000  1.0 0.1192760521
H  H43  1  0.80620000  0.30740000  0.66160000  1.0 0.1094174721
H  H44  1  0.86290000  0.29110000  0.71130000  1.0 0.1192760521
H  H45  1  0.67050000  0.31010000  0.46650000  1.0 0.07290623
H  H46  1  0.81400000  0.58600000  0.94500000  1.0 0.1716568014
H  H47  1  0.77400000  0.54500000  0.98980000  1.0 0.1471742445
H  H48  1  0.84010000  0.52210000  0.98770000  1.0 0.1587670523
H  H49  1  0.53740000  0.46080000  0.59620000  1.0 0.1716568014
H  H50  1  0.52580000  0.44180000  0.60680000  1.0 0.1790234115
H  H51  1  0.06100000  0.75440000  0.43820000  1.0 0.1192760521
H  H52  1  0.15270000  0.71070000  0.44990000  1.0 0.1192760521
H  H53  1  0.22480000  0.66160000  0.30740000  1.0 0.1094174721
H  H54  1  0.13470000  0.71130000  0.29110000  1.0 0.1192760521
H  H55  1  0.55290000  0.46650000  0.31010000  1.0 0.07290623
H  H56  1  0.65500000  0.94500000  0.58600000  1.0 0.1716568014
H  H57  1  0.69120000  0.98980000  0.54500000  1.0 0.1471742445
H  H58  1  0.65010000  0.98770000  0.52210000  1.0 0.1587670523
H  H59  1  0.40560000  0.59620000  0.46080000  1.0 0.1716568014
H  H60  1  0.42560000  0.60680000  0.44180000  1.0 0.1790234115
H  H61  1  0.43820000  0.74640000  0.06100000  1.0 0.1192760521
H  H62  1  0.44990000  0.68670000  0.15270000  1.0 0.1192760521
H  H63  1  0.30740000  0.80620000  0.22480000  1.0 0.1094174721
H  H64  1  0.29110000  0.86290000  0.13470000  1.0 0.1192760521
H  H65  1  0.31010000  0.67050000  0.55290000  1.0 0.07290623
H  H66  1  0.58600000  0.81400000  0.65500000  1.0 0.1716568014
H  H67  1  0.54500000  0.77400000  0.69120000  1.0 0.1471742445
H  H68  1  0.52210000  0.84010000  0.65010000  1.0 0.1587670523
H  H69  1  0.46080000  0.53740000  0.40560000  1.0 0.1716568014
H  H70  1  0.44180000  0.52580000  0.42560000  1.0 0.1790234115
H  H71  1  0.75440000  0.06100000  0.74640000  1.0 0.1192760521
H  H72  1  0.71070000  0.15270000  0.68670000  1.0 0.1192760521
H  H73  1  0.66160000  0.22480000  0.80620000  1.0 0.1094174721
H  H74  1  0.71130000  0.13470000  0.86290000  1.0 0.1192760521
H  H75  1  0.46650000  0.55290000  0.67050000  1.0 0.07290623
H  H76  1  0.94500000  0.65500000  0.81400000  1.0 0.1716568014
H  H77  1  0.98980000  0.69120000  0.77400000  1.0 0.1471742445
H  H78  1  0.98770000  0.65010000  0.84010000  1.0 0.1587670523
H  H79  1  0.59620000  0.40560000  0.53740000  1.0 0.1716568014
H  H80  1  0.60680000  0.42560000  0.52580000  1.0 0.1790234115
H  H81  1  0.06100000  0.43820000  0.74640000  1.0 0.1192760521
H  H82  1  0.15270000  0.44990000  0.68670000  1.0 0.1192760521
H  H83  1  0.22480000  0.30740000  0.80620000  1.0 0.1094174721
H  H84  1  0.13470000  0.29110000  0.86290000  1.0 0.1192760521
H  H85  1  0.55290000  0.31010000  0.67050000  1.0 0.07290623
H  H86  1  0.65500000  0.58600000  0.81400000  1.0 0.1716568014
H  H87  1  0.69120000  0.54500000  0.77400000  1.0 0.1471742445
H  H88  1  0.65010000  0.52210000  0.84010000  1.0 0.1587670523
H  H89  1  0.40560000  0.46080000  0.53740000  1.0 0.1716568014
H  H90  1  0.42560000  0.44180000  0.52580000  1.0 0.1790234115
H  H91  1  0.74640000  0.75440000  0.06100000  1.0 0.1192760521
H  H92  1  0.68670000  0.71070000  0.15270000  1.0 0.1192760521
H  H93  1  0.80620000  0.66160000  0.22480000  1.0 0.1094174721
H  H94  1  0.86290000  0.71130000  0.13470000  1.0 0.1192760521
H  H95  1  0.67050000  0.46650000  0.55290000  1.0 0.07290623
H  H96  1  0.81400000  0.94500000  0.65500000  1.0 0.1716568014
H  H97  1  0.77400000  0.98980000  0.69120000  1.0 0.1471742445
H  H98  1  0.84010000  0.98770000  0.65010000  1.0 0.1587670523
H  H99  1  0.53740000  0.59620000  0.40560000  1.0 0.1716568014
H  H100  1  0.52580000  0.60680000  0.42560000  1.0 0.1790234115
H  H101  1  0.75440000  0.74640000  0.43820000  1.0 0.1192760521
H  H102  1  0.71070000  0.68670000  0.44990000  1.0 0.1192760521
H  H103  1  0.66160000  0.80620000  0.30740000  1.0 0.1094174721
H  H104  1  0.71130000  0.86290000  0.29110000  1.0 0.1192760521
H  H105  1  0.46650000  0.67050000  0.31010000  1.0 0.07290623
H  H106  1  0.94500000  0.81400000  0.58600000  1.0 0.1716568014
H  H107  1  0.98980000  0.77400000  0.54500000  1.0 0.1471742445
H  H108  1  0.98770000  0.84010000  0.52210000  1.0 0.1587670523
H  H109  1  0.59620000  0.53740000  0.46080000  1.0 0.1716568014
H  H110  1  0.60680000  0.52580000  0.44180000  1.0 0.1790234115
H  H111  1  0.43820000  0.06100000  0.75440000  1.0 0.1192760521
H  H112  1  0.44990000  0.15270000  0.71070000  1.0 0.1192760521
H  H113  1  0.30740000  0.22480000  0.66160000  1.0 0.1094174721
H  H114  1  0.29110000  0.13470000  0.71130000  1.0 0.1192760521
H  H115  1  0.31010000  0.55290000  0.46650000  1.0 0.07290623
H  H116  1  0.58600000  0.65500000  0.94500000  1.0 0.1716568014
H  H117  1  0.54500000  0.69120000  0.98980000  1.0 0.1471742445
H  H118  1  0.52210000  0.65010000  0.98770000  1.0 0.1587670523
H  H119  1  0.46080000  0.40560000  0.59620000  1.0 0.1716568014
H  H120  1  0.44180000  0.42560000  0.60680000  1.0 0.1790234115
H  H121  1  0.25440000  0.93820000  0.24640000  1.0 0.1192760521
H  H122  1  0.21070000  0.94990000  0.18670000  1.0 0.1192760521
H  H123  1  0.16160000  0.80740000  0.30620000  1.0 0.1094174721
H  H124  1  0.21130000  0.79110000  0.36290000  1.0 0.1192760521
H  H125  1  0.96650000  0.81010000  0.17050000  1.0 0.07290623
H  H126  1  0.44500000  0.08600000  0.31400000  1.0 0.1716568014
H  H127  1  0.48980000  0.04500000  0.27400000  1.0 0.1471742445
H  H128  1  0.48770000  0.02210000  0.34010000  1.0 0.1587670523
H  H129  1  0.09620000  0.96080000  0.03740000  1.0 0.1716568014
H  H130  1  0.10680000  0.94180000  0.02580000  1.0 0.1790234115
H  H131  1  0.93820000  0.25440000  0.56100000  1.0 0.1192760521
H  H132  1  0.94990000  0.21070000  0.65270000  1.0 0.1192760521
H  H133  1  0.80740000  0.16160000  0.72480000  1.0 0.1094174721
H  H134  1  0.79110000  0.21130000  0.63470000  1.0 0.1192760521
H  H135  1  0.81010000  0.96650000  0.05290000  1.0 0.07290623
H  H136  1  0.08600000  0.44500000  0.15500000  1.0 0.1716568014
H  H137  1  0.04500000  0.48980000  0.19120000  1.0 0.1471742445
H  H138  1  0.02210000  0.48770000  0.15010000  1.0 0.1587670523
H  H139  1  0.96080000  0.09620000  0.90560000  1.0 0.1716568014
H  H140  1  0.94180000  0.10680000  0.92560000  1.0 0.1790234115
H  H141  1  0.56100000  0.24640000  0.93820000  1.0 0.1192760521
H  H142  1  0.65270000  0.18670000  0.94990000  1.0 0.1192760521
H  H143  1  0.72480000  0.30620000  0.80740000  1.0 0.1094174721
H  H144  1  0.63470000  0.36290000  0.79110000  1.0 0.1192760521
H  H145  1  0.05290000  0.17050000  0.81010000  1.0 0.07290623
H  H146  1  0.15500000  0.31400000  0.08600000  1.0 0.1716568014
H  H147  1  0.19120000  0.27400000  0.04500000  1.0 0.1471742445
H  H148  1  0.15010000  0.34010000  0.02210000  1.0 0.1587670523
H  H149  1  0.90560000  0.03740000  0.96080000  1.0 0.1716568014
H  H150  1  0.92560000  0.02580000  0.94180000  1.0 0.1790234115
H  H151  1  0.24640000  0.56100000  0.25440000  1.0 0.1192760521
H  H152  1  0.18670000  0.65270000  0.21070000  1.0 0.1192760521
H  H153  1  0.30620000  0.72480000  0.16160000  1.0 0.1094174721
H  H154  1  0.36290000  0.63470000  0.21130000  1.0 0.1192760521
H  H155  1  0.17050000  0.05290000  0.96650000  1.0 0.07290623
H  H156  1  0.31400000  0.15500000  0.44500000  1.0 0.1716568014
H  H157  1  0.27400000  0.19120000  0.48980000  1.0 0.1471742445
H  H158  1  0.34010000  0.15010000  0.48770000  1.0 0.1587670523
H  H159  1  0.03740000  0.90560000  0.09620000  1.0 0.1716568014
H  H160  1  0.02580000  0.92560000  0.10680000  1.0 0.1790234115
H  H161  1  0.24640000  0.93820000  0.56100000  1.0 0.1192760521
H  H162  1  0.18670000  0.94990000  0.65270000  1.0 0.1192760521
H  H163  1  0.30620000  0.80740000  0.72480000  1.0 0.1094174721
H  H164  1  0.36290000  0.79110000  0.63470000  1.0 0.1192760521
H  H165  1  0.17050000  0.81010000  0.05290000  1.0 0.07290623
H  H166  1  0.31400000  0.08600000  0.15500000  1.0 0.1716568014
H  H167  1  0.27400000  0.04500000  0.19120000  1.0 0.1471742445
H  H168  1  0.34010000  0.02210000  0.15010000  1.0 0.1587670523
H  H169  1  0.03740000  0.96080000  0.90560000  1.0 0.1716568014
H  H170  1  0.02580000  0.94180000  0.92560000  1.0 0.1790234115
H  H171  1  0.56100000  0.25440000  0.24640000  1.0 0.1192760521
H  H172  1  0.65270000  0.21070000  0.18670000  1.0 0.1192760521
H  H173  1  0.72480000  0.16160000  0.30620000  1.0 0.1094174721
H  H174  1  0.63470000  0.21130000  0.36290000  1.0 0.1192760521
H  H175  1  0.05290000  0.96650000  0.17050000  1.0 0.07290623
H  H176  1  0.15500000  0.44500000  0.31400000  1.0 0.1716568014
H  H177  1  0.19120000  0.48980000  0.27400000  1.0 0.1471742445
H  H178  1  0.15010000  0.48770000  0.34010000  1.0 0.1587670523
H  H179  1  0.90560000  0.09620000  0.03740000  1.0 0.1716568014
H  H180  1  0.92560000  0.10680000  0.02580000  1.0 0.1790234115
H  H181  1  0.93820000  0.24640000  0.25440000  1.0 0.1192760521
H  H182  1  0.94990000  0.18670000  0.21070000  1.0 0.1192760521
H  H183  1  0.80740000  0.30620000  0.16160000  1.0 0.1094174721
H  H184  1  0.79110000  0.36290000  0.21130000  1.0 0.1192760521
H  H185  1  0.81010000  0.17050000  0.96650000  1.0 0.07290623
H  H186  1  0.08600000  0.31400000  0.44500000  1.0 0.1716568014
H  H187  1  0.04500000  0.27400000  0.48980000  1.0 0.1471742445
H  H188  1  0.02210000  0.34010000  0.48770000  1.0 0.1587670523
H  H189  1  0.96080000  0.03740000  0.09620000  1.0 0.1716568014
H  H190  1  0.94180000  0.02580000  0.10680000  1.0 0.1790234115
H  H191  1  0.25440000  0.56100000  0.93820000  1.0 0.1192760521
H  H192  1  0.21070000  0.65270000  0.94990000  1.0 0.1192760521
H  H193  1  0.16160000  0.72480000  0.80740000  1.0 0.1094174721
H  H194  1  0.21130000  0.63470000  0.79110000  1.0 0.1192760521
H  H195  1  0.96650000  0.05290000  0.81010000  1.0 0.07290623
H  H196  1  0.44500000  0.15500000  0.08600000  1.0 0.1716568014
H  H197  1  0.48980000  0.19120000  0.04500000  1.0 0.1471742445
H  H198  1  0.48770000  0.15010000  0.02210000  1.0 0.1587670523
H  H199  1  0.09620000  0.90560000  0.96080000  1.0 0.1716568014
H  H200  1  0.10680000  0.92560000  0.94180000  1.0 0.1790234115
H  H201  1  0.56100000  0.93820000  0.25440000  1.0 0.1192760521
H  H202  1  0.65270000  0.94990000  0.21070000  1.0 0.1192760521
H  H203  1  0.72480000  0.80740000  0.16160000  1.0 0.1094174721
H  H204  1  0.63470000  0.79110000  0.21130000  1.0 0.1192760521
H  H205  1  0.05290000  0.81010000  0.96650000  1.0 0.07290623
H  H206  1  0.15500000  0.08600000  0.44500000  1.0 0.1716568014
H  H207  1  0.19120000  0.04500000  0.48980000  1.0 0.1471742445
H  H208  1  0.15010000  0.02210000  0.48770000  1.0 0.1587670523
H  H209  1  0.90560000  0.96080000  0.09620000  1.0 0.1716568014
H  H210  1  0.92560000  0.94180000  0.10680000  1.0 0.1790234115
H  H211  1  0.24640000  0.25440000  0.93820000  1.0 0.1192760521
H  H212  1  0.18670000  0.21070000  0.94990000  1.0 0.1192760521
H  H213  1  0.30620000  0.16160000  0.80740000  1.0 0.1094174721
H  H214  1  0.36290000  0.21130000  0.79110000  1.0 0.1192760521
H  H215  1  0.17050000  0.96650000  0.81010000  1.0 0.07290623
H  H216  1  0.31400000  0.44500000  0.08600000  1.0 0.1716568014
H  H217  1  0.27400000  0.48980000  0.04500000  1.0 0.1471742445
H  H218  1  0.34010000  0.48770000  0.02210000  1.0 0.1587670523
H  H219  1  0.03740000  0.09620000  0.96080000  1.0 0.1716568014
H  H220  1  0.02580000  0.10680000  0.94180000  1.0 0.1790234115
H  H221  1  0.25440000  0.24640000  0.56100000  1.0 0.1192760521
H  H222  1  0.21070000  0.18670000  0.65270000  1.0 0.1192760521
H  H223  1  0.16160000  0.30620000  0.72480000  1.0 0.1094174721
H  H224  1  0.21130000  0.36290000  0.63470000  1.0 0.1192760521
H  H225  1  0.96650000  0.17050000  0.05290000  1.0 0.07290623
H  H226  1  0.44500000  0.31400000  0.15500000  1.0 0.1716568014
H  H227  1  0.48980000  0.27400000  0.19120000  1.0 0.1471742445
H  H228  1  0.48770000  0.34010000  0.15010000  1.0 0.1587670523
H  H229  1  0.09620000  0.03740000  0.90560000  1.0 0.1716568014
H  H230  1  0.10680000  0.02580000  0.92560000  1.0 0.1790234115
H  H231  1  0.93820000  0.56100000  0.24640000  1.0 0.1192760521
H  H232  1  0.94990000  0.65270000  0.18670000  1.0 0.1192760521
H  H233  1  0.80740000  0.72480000  0.30620000  1.0 0.1094174721
H  H234  1  0.79110000  0.63470000  0.36290000  1.0 0.1192760521
H  H235  1  0.81010000  0.05290000  0.17050000  1.0 0.07290623
H  H236  1  0.08600000  0.15500000  0.31400000  1.0 0.1716568014
H  H237  1  0.04500000  0.19120000  0.27400000  1.0 0.1471742445
H  H238  1  0.02210000  0.15010000  0.34010000  1.0 0.1587670523
H  H239  1  0.96080000  0.90560000  0.03740000  1.0 0.1716568014
H  H240  1  0.94180000  0.92560000  0.02580000  1.0 0.1790234115
C  C1  1  0.77356000  0.35286000  0.03178000  1.0 0.2580321453
C  C2  1  0.73926000  0.36168000  0.08990000  1.0 0.0559481063
C  C3  1  0.73744000  0.41044000  0.09472000  1.0 -0.140551811
C  C4  1  0.71076000  0.41780000  0.14888000  1.0 -0.1135366459
C  C5  1  0.68390000  0.37812000  0.19790000  1.0 -0.0345611736
C  C6  1  0.68238000  0.33256000  0.19196000  1.0 -0.0981283967
C  C7  1  0.71101000  0.32337000  0.13831000  1.0 -0.140551811
C  C8  1  0.65989000  0.38251000  0.25775000  1.0 0.5849029239
C  C9  1  0.47110000  0.32936000  0.51230000  1.0 0.2544154361
C  C10  1  0.58292000  0.42848000  0.42328000  1.0 0.2355303671
C  C11  1  0.91780000  0.51920000  0.72780000  1.0 0.3709970491
C  C12  1  0.96420000  0.54540000  0.67640000  1.0 -0.5372331813
C  C13  1  0.35286000  0.77356000  0.84180000  1.0 0.2580321453
C  C14  1  0.36168000  0.73926000  0.80916000  1.0 0.0559481063
C  C15  1  0.41044000  0.73744000  0.75740000  1.0 -0.140551811
C  C16  1  0.41780000  0.71076000  0.72256000  1.0 -0.1135366459
C  C17  1  0.37812000  0.68390000  0.74008000  1.0 -0.0395708496
C  C18  1  0.33256000  0.68238000  0.79310000  1.0 -0.0981283967
C  C19  1  0.32337000  0.71101000  0.82731000  1.0 -0.140551811
C  C20  1  0.38251000  0.65989000  0.69985000  1.0 0.5849029239
C  C21  1  0.32936000  0.47110000  0.68724000  1.0 0.2544154361
C  C22  1  0.42848000  0.58292000  0.56532000  1.0 0.2341565903
C  C23  1  0.51920000  0.91780000  0.83520000  1.0 0.3709970491
C  C24  1  0.54540000  0.96420000  0.81400000  1.0 -0.5372331813
C  C25  1  0.03178000  0.84180000  0.77356000  1.0 0.2580321453
C  C26  1  0.08990000  0.80916000  0.73926000  1.0 0.0559481063
C  C27  1  0.09472000  0.75740000  0.73744000  1.0 -0.140551811
C  C28  1  0.14888000  0.72256000  0.71076000  1.0 -0.1135366459
C  C29  1  0.19790000  0.74008000  0.68390000  1.0 -0.0395708496
C  C30  1  0.19196000  0.79310000  0.68238000  1.0 -0.0981283967
C  C31  1  0.13831000  0.82731000  0.71101000  1.0 -0.140551811
C  C32  1  0.25775000  0.69985000  0.65989000  1.0 0.5849029239
C  C33  1  0.51230000  0.68724000  0.47110000  1.0 0.2544154361
C  C34  1  0.42328000  0.56532000  0.58292000  1.0 0.2355303671
C  C35  1  0.72780000  0.83520000  0.91780000  1.0 0.3709970491
C  C36  1  0.67640000  0.81400000  0.96420000  1.0 -0.5372331813
C  C37  1  0.84180000  0.03178000  0.35286000  1.0 0.2580321453
C  C38  1  0.80916000  0.08990000  0.36168000  1.0 0.0559481063
C  C39  1  0.75740000  0.09472000  0.41044000  1.0 -0.140551811
C  C40  1  0.72256000  0.14888000  0.41780000  1.0 -0.1135366459
C  C41  1  0.74008000  0.19790000  0.37812000  1.0 -0.0395708496
C  C42  1  0.79310000  0.19196000  0.33256000  1.0 -0.0981283967
C  C43  1  0.82731000  0.13831000  0.32337000  1.0 -0.140551811
C  C44  1  0.69985000  0.25775000  0.38251000  1.0 0.5849029239
C  C45  1  0.68724000  0.51230000  0.32936000  1.0 0.2544154361
C  C46  1  0.56532000  0.42328000  0.42848000  1.0 0.2355303671
C  C47  1  0.83520000  0.72780000  0.51920000  1.0 0.3709970491
C  C48  1  0.81400000  0.67640000  0.54540000  1.0 -0.5275764857
C  C49  1  0.84180000  0.35286000  0.77356000  1.0 0.2580321453
C  C50  1  0.80916000  0.36168000  0.73926000  1.0 0.0559481063
C  C51  1  0.75740000  0.41044000  0.73744000  1.0 -0.140551811
C  C52  1  0.72256000  0.41780000  0.71076000  1.0 -0.1135366459
C  C53  1  0.74008000  0.37812000  0.68390000  1.0 -0.0395708496
C  C54  1  0.79310000  0.33256000  0.68238000  1.0 -0.0981283967
C  C55  1  0.82731000  0.32337000  0.71101000  1.0 -0.140551811
C  C56  1  0.69985000  0.38251000  0.65989000  1.0 0.5849029239
C  C57  1  0.68724000  0.32936000  0.47110000  1.0 0.2580321453
C  C58  1  0.56532000  0.42848000  0.58292000  1.0 0.2341565903
C  C59  1  0.83520000  0.51920000  0.91780000  1.0 0.3709970491
C  C60  1  0.81400000  0.54540000  0.96420000  1.0 -0.5275764857
C  C61  1  0.03178000  0.77356000  0.35286000  1.0 0.2580321453
C  C62  1  0.08990000  0.73926000  0.36168000  1.0 0.0559481063
C  C63  1  0.09472000  0.73744000  0.41044000  1.0 -0.140551811
C  C64  1  0.14888000  0.71076000  0.41780000  1.0 -0.1135366459
C  C65  1  0.19790000  0.68390000  0.37812000  1.0 -0.0395708496
C  C66  1  0.19196000  0.68238000  0.33256000  1.0 -0.0981283967
C  C67  1  0.13831000  0.71101000  0.32337000  1.0 -0.140551811
C  C68  1  0.25775000  0.65989000  0.38251000  1.0 0.5849029239
C  C69  1  0.51230000  0.47110000  0.32936000  1.0 0.2544154361
C  C70  1  0.42328000  0.58292000  0.42848000  1.0 0.2355303671
C  C71  1  0.72780000  0.91780000  0.51920000  1.0 0.3709970491
C  C72  1  0.67640000  0.96420000  0.54540000  1.0 -0.5275764857
C  C73  1  0.35286000  0.84180000  0.03178000  1.0 0.2580321453
C  C74  1  0.36168000  0.80916000  0.08990000  1.0 0.0559481063
C  C75  1  0.41044000  0.75740000  0.09472000  1.0 -0.140551811
C  C76  1  0.41780000  0.72256000  0.14888000  1.0 -0.1135366459
C  C77  1  0.37812000  0.74008000  0.19790000  1.0 -0.0395708496
C  C78  1  0.33256000  0.79310000  0.19196000  1.0 -0.0981283967
C  C79  1  0.32337000  0.82731000  0.13831000  1.0 -0.140551811
C  C80  1  0.38251000  0.69985000  0.25775000  1.0 0.5849029239
C  C81  1  0.32936000  0.68724000  0.51230000  1.0 0.2544154361
C  C82  1  0.42848000  0.56532000  0.42328000  1.0 0.2341565903
C  C83  1  0.51920000  0.83520000  0.72780000  1.0 0.3709970491
C  C84  1  0.54540000  0.81400000  0.67640000  1.0 -0.5372331813
C  C85  1  0.77356000  0.03178000  0.84180000  1.0 0.2580321453
C  C86  1  0.73926000  0.08990000  0.80916000  1.0 0.0559481063
C  C87  1  0.73744000  0.09472000  0.75740000  1.0 -0.140551811
C  C88  1  0.71076000  0.14888000  0.72256000  1.0 -0.1135366459
C  C89  1  0.68390000  0.19790000  0.74008000  1.0 -0.0395708496
C  C90  1  0.68238000  0.19196000  0.79310000  1.0 -0.0981283967
C  C91  1  0.71101000  0.13831000  0.82731000  1.0 -0.140551811
C  C92  1  0.65989000  0.25775000  0.69985000  1.0 0.5849029239
C  C93  1  0.47110000  0.51230000  0.68724000  1.0 0.2544154361
C  C94  1  0.58292000  0.42328000  0.56532000  1.0 0.2355303671
C  C95  1  0.91780000  0.72780000  0.83520000  1.0 0.3709970491
C  C96  1  0.96420000  0.67640000  0.81400000  1.0 -0.5372331813
C  C97  1  0.03178000  0.35286000  0.84180000  1.0 0.2580321453
C  C98  1  0.08990000  0.36168000  0.80916000  1.0 0.0559481063
C  C99  1  0.09472000  0.41044000  0.75740000  1.0 -0.140551811
C  C100  1  0.14888000  0.41780000  0.72256000  1.0 -0.1135366459
C  C101  1  0.19790000  0.37812000  0.74008000  1.0 -0.0395708496
C  C102  1  0.19196000  0.33256000  0.79310000  1.0 -0.0981283967
C  C103  1  0.13831000  0.32337000  0.82731000  1.0 -0.140551811
C  C104  1  0.25775000  0.38251000  0.69985000  1.0 0.5849029239
C  C105  1  0.51230000  0.32936000  0.68724000  1.0 0.2544154361
C  C106  1  0.42328000  0.42848000  0.56532000  1.0 0.2355303671
C  C107  1  0.72780000  0.51920000  0.83520000  1.0 0.3709970491
C  C108  1  0.67640000  0.54540000  0.81400000  1.0 -0.5275764857
C  C109  1  0.84180000  0.77356000  0.03178000  1.0 0.2580321453
C  C110  1  0.80916000  0.73926000  0.08990000  1.0 0.0559481063
C  C111  1  0.75740000  0.73744000  0.09472000  1.0 -0.140551811
C  C112  1  0.72256000  0.71076000  0.14888000  1.0 -0.1135366459
C  C113  1  0.74008000  0.68390000  0.19790000  1.0 -0.0395708496
C  C114  1  0.79310000  0.68238000  0.19196000  1.0 -0.0981283967
C  C115  1  0.82731000  0.71101000  0.13831000  1.0 -0.140551811
C  C116  1  0.69985000  0.65989000  0.25775000  1.0 0.5849029239
C  C117  1  0.68724000  0.47110000  0.51230000  1.0 0.2544154361
C  C118  1  0.56532000  0.58292000  0.42328000  1.0 0.2341565903
C  C119  1  0.83520000  0.91780000  0.72780000  1.0 0.3709970491
C  C120  1  0.81400000  0.96420000  0.67640000  1.0 -0.5372331813
C  C121  1  0.77356000  0.84180000  0.35286000  1.0 0.2580321453
C  C122  1  0.73926000  0.80916000  0.36168000  1.0 0.0559481063
C  C123  1  0.73744000  0.75740000  0.41044000  1.0 -0.140551811
C  C124  1  0.71076000  0.72256000  0.41780000  1.0 -0.1135366459
C  C125  1  0.68390000  0.74008000  0.37812000  1.0 -0.0395708496
C  C126  1  0.68238000  0.79310000  0.33256000  1.0 -0.0981283967
C  C127  1  0.71101000  0.82731000  0.32337000  1.0 -0.140551811
C  C128  1  0.65989000  0.69985000  0.38251000  1.0 0.5849029239
C  C129  1  0.47110000  0.68724000  0.32936000  1.0 0.2580321453
C  C130  1  0.58292000  0.56532000  0.42848000  1.0 0.2355303671
C  C131  1  0.91780000  0.83520000  0.51920000  1.0 0.3709970491
C  C132  1  0.96420000  0.81400000  0.54540000  1.0 -0.5372331813
C  C133  1  0.35286000  0.03178000  0.77356000  1.0 0.2580321453
C  C134  1  0.36168000  0.08990000  0.73926000  1.0 0.0559481063
C  C135  1  0.41044000  0.09472000  0.73744000  1.0 -0.140551811
C  C136  1  0.41780000  0.14888000  0.71076000  1.0 -0.1135366459
C  C137  1  0.37812000  0.19790000  0.68390000  1.0 -0.0395708496
C  C138  1  0.33256000  0.19196000  0.68238000  1.0 -0.0981283967
C  C139  1  0.32337000  0.13831000  0.71101000  1.0 -0.140551811
C  C140  1  0.38251000  0.25775000  0.65989000  1.0 0.5849029239
C  C141  1  0.32936000  0.51230000  0.47110000  1.0 0.2544154361
C  C142  1  0.42848000  0.42328000  0.58292000  1.0 0.2355303671
C  C143  1  0.51920000  0.72780000  0.91780000  1.0 0.3709970491
C  C144  1  0.54540000  0.67640000  0.96420000  1.0 -0.5275764857
C  C145  1  0.27356000  0.85286000  0.34180000  1.0 0.2580321453
C  C146  1  0.23926000  0.86168000  0.30916000  1.0 0.0559481063
C  C147  1  0.23744000  0.91044000  0.25740000  1.0 -0.140551811
C  C148  1  0.21076000  0.91780000  0.22256000  1.0 -0.1135366459
C  C149  1  0.18390000  0.87812000  0.24008000  1.0 -0.0395708496
C  C150  1  0.18238000  0.83256000  0.29310000  1.0 -0.0981283967
C  C151  1  0.21101000  0.82337000  0.32731000  1.0 -0.140551811
C  C152  1  0.15989000  0.88251000  0.19985000  1.0 0.5849029239
C  C153  1  0.97110000  0.82936000  0.18724000  1.0 0.2580321453
C  C154  1  0.08292000  0.92848000  0.06532000  1.0 0.2355303671
C  C155  1  0.41780000  0.01920000  0.33520000  1.0 0.3709970491
C  C156  1  0.46420000  0.04540000  0.31400000  1.0 -0.5275764857
C  C157  1  0.85286000  0.27356000  0.53178000  1.0 0.2580321453
C  C158  1  0.86168000  0.23926000  0.58990000  1.0 0.0559481063
C  C159  1  0.91044000  0.23744000  0.59472000  1.0 -0.140551811
C  C160  1  0.91780000  0.21076000  0.64888000  1.0 -0.1135366459
C  C161  1  0.87812000  0.18390000  0.69790000  1.0 -0.0395708496
C  C162  1  0.83256000  0.18238000  0.69196000  1.0 -0.0981283967
C  C163  1  0.82337000  0.21101000  0.63831000  1.0 -0.140551811
C  C164  1  0.88251000  0.15989000  0.75775000  1.0 0.5849029239
C  C165  1  0.82936000  0.97110000  0.01230000  1.0 0.2580321453
C  C166  1  0.92848000  0.08292000  0.92328000  1.0 0.2355303671
C  C167  1  0.01920000  0.41780000  0.22780000  1.0 0.3709970491
C  C168  1  0.04540000  0.46420000  0.17640000  1.0 -0.5275764857
C  C169  1  0.53178000  0.34180000  0.85286000  1.0 0.2580321453
C  C170  1  0.58990000  0.30916000  0.86168000  1.0 0.0559481063
C  C171  1  0.59472000  0.25740000  0.91044000  1.0 -0.140551811
C  C172  1  0.64888000  0.22256000  0.91780000  1.0 -0.1135366459
C  C173  1  0.69790000  0.24008000  0.87812000  1.0 -0.0395708496
C  C174  1  0.69196000  0.29310000  0.83256000  1.0 -0.0981283967
C  C175  1  0.63831000  0.32731000  0.82337000  1.0 -0.140551811
C  C176  1  0.75775000  0.19985000  0.88251000  1.0 0.5849029239
C  C177  1  0.01230000  0.18724000  0.82936000  1.0 0.2544154361
C  C178  1  0.92328000  0.06532000  0.92848000  1.0 0.2355303671
C  C179  1  0.22780000  0.33520000  0.01920000  1.0 0.3642204221
C  C180  1  0.17640000  0.31400000  0.04540000  1.0 -0.5372331813
C  C181  1  0.34180000  0.53178000  0.27356000  1.0 0.2580321453
C  C182  1  0.30916000  0.58990000  0.23926000  1.0 0.0559481063
C  C183  1  0.25740000  0.59472000  0.23744000  1.0 -0.140551811
C  C184  1  0.22256000  0.64888000  0.21076000  1.0 -0.1135366459
C  C185  1  0.24008000  0.69790000  0.18390000  1.0 -0.0395708496
C  C186  1  0.29310000  0.69196000  0.18238000  1.0 -0.0981283967
C  C187  1  0.32731000  0.63831000  0.21101000  1.0 -0.140551811
C  C188  1  0.19985000  0.75775000  0.15989000  1.0 0.5849029239
C  C189  1  0.18724000  0.01230000  0.97110000  1.0 0.2544154361
C  C190  1  0.06532000  0.92328000  0.08292000  1.0 0.2355303671
C  C191  1  0.33520000  0.22780000  0.41780000  1.0 0.3709970491
C  C192  1  0.31400000  0.17640000  0.46420000  1.0 -0.5275764857
C  C193  1  0.34180000  0.85286000  0.53178000  1.0 0.2580321453
C  C194  1  0.30916000  0.86168000  0.58990000  1.0 0.0559481063
C  C195  1  0.25740000  0.91044000  0.59472000  1.0 -0.140551811
C  C196  1  0.22256000  0.91780000  0.64888000  1.0 -0.1135366459
C  C197  1  0.24008000  0.87812000  0.69790000  1.0 -0.0395708496
C  C198  1  0.29310000  0.83256000  0.69196000  1.0 -0.0981283967
C  C199  1  0.32731000  0.82337000  0.63831000  1.0 -0.140551811
C  C200  1  0.19985000  0.88251000  0.75775000  1.0 0.5849029239
C  C201  1  0.18724000  0.82936000  0.01230000  1.0 0.2544154361
C  C202  1  0.06532000  0.92848000  0.92328000  1.0 0.2355303671
C  C203  1  0.33520000  0.01920000  0.22780000  1.0 0.3709970491
C  C204  1  0.31400000  0.04540000  0.17640000  1.0 -0.5372331813
C  C205  1  0.53178000  0.27356000  0.34180000  1.0 0.2580321453
C  C206  1  0.58990000  0.23926000  0.30916000  1.0 0.0559481063
C  C207  1  0.59472000  0.23744000  0.25740000  1.0 -0.140551811
C  C208  1  0.64888000  0.21076000  0.22256000  1.0 -0.1135366459
C  C209  1  0.69790000  0.18390000  0.24008000  1.0 -0.0395708496
C  C210  1  0.69196000  0.18238000  0.29310000  1.0 -0.0981283967
C  C211  1  0.63831000  0.21101000  0.32731000  1.0 -0.140551811
C  C212  1  0.75775000  0.15989000  0.19985000  1.0 0.5849029239
C  C213  1  0.01230000  0.97110000  0.18724000  1.0 0.2544154361
C  C214  1  0.92328000  0.08292000  0.06532000  1.0 0.2355303671
C  C215  1  0.22780000  0.41780000  0.33520000  1.0 0.3709970491
C  C216  1  0.17640000  0.46420000  0.31400000  1.0 -0.5275764857
C  C217  1  0.85286000  0.34180000  0.27356000  1.0 0.2580321453
C  C218  1  0.86168000  0.30916000  0.23926000  1.0 0.0559481063
C  C219  1  0.91044000  0.25740000  0.23744000  1.0 -0.140551811
C  C220  1  0.91780000  0.22256000  0.21076000  1.0 -0.1135366459
C  C221  1  0.87812000  0.24008000  0.18390000  1.0 -0.0395708496
C  C222  1  0.83256000  0.29310000  0.18238000  1.0 -0.0981283967
C  C223  1  0.82337000  0.32731000  0.21101000  1.0 -0.140551811
C  C224  1  0.88251000  0.19985000  0.15989000  1.0 0.5849029239
C  C225  1  0.82936000  0.18724000  0.97110000  1.0 0.2580321453
C  C226  1  0.92848000  0.06532000  0.08292000  1.0 0.2355303671
C  C227  1  0.01920000  0.33520000  0.41780000  1.0 0.3709970491
C  C228  1  0.04540000  0.31400000  0.46420000  1.0 -0.5275764857
C  C229  1  0.27356000  0.53178000  0.85286000  1.0 0.2580321453
C  C230  1  0.23926000  0.58990000  0.86168000  1.0 0.0559481063
C  C231  1  0.23744000  0.59472000  0.91044000  1.0 -0.140551811
C  C232  1  0.21076000  0.64888000  0.91780000  1.0 -0.1135366459
C  C233  1  0.18390000  0.69790000  0.87812000  1.0 -0.0395708496
C  C234  1  0.18238000  0.69196000  0.83256000  1.0 -0.0981283967
C  C235  1  0.21101000  0.63831000  0.82337000  1.0 -0.140551811
C  C236  1  0.15989000  0.75775000  0.88251000  1.0 0.5849029239
C  C237  1  0.97110000  0.01230000  0.82936000  1.0 0.2580321453
C  C238  1  0.08292000  0.92328000  0.92848000  1.0 0.2355303671
C  C239  1  0.41780000  0.22780000  0.01920000  1.0 0.3709970491
C  C240  1  0.46420000  0.17640000  0.04540000  1.0 -0.5372331813
C  C241  1  0.53178000  0.85286000  0.27356000  1.0 0.2580321453
C  C242  1  0.58990000  0.86168000  0.23926000  1.0 0.0559481063
C  C243  1  0.59472000  0.91044000  0.23744000  1.0 -0.140551811
C  C244  1  0.64888000  0.91780000  0.21076000  1.0 -0.1135366459
C  C245  1  0.69790000  0.87812000  0.18390000  1.0 -0.0395708496
C  C246  1  0.69196000  0.83256000  0.18238000  1.0 -0.0981283967
C  C247  1  0.63831000  0.82337000  0.21101000  1.0 -0.140551811
C  C248  1  0.75775000  0.88251000  0.15989000  1.0 0.5849029239
C  C249  1  0.01230000  0.82936000  0.97110000  1.0 0.2544154361
C  C250  1  0.92328000  0.92848000  0.08292000  1.0 0.2355303671
C  C251  1  0.22780000  0.01920000  0.41780000  1.0 0.3709970491
C  C252  1  0.17640000  0.04540000  0.46420000  1.0 -0.5275764857
C  C253  1  0.34180000  0.27356000  0.85286000  1.0 0.2580321453
C  C254  1  0.30916000  0.23926000  0.86168000  1.0 0.0559481063
C  C255  1  0.25740000  0.23744000  0.91044000  1.0 -0.140551811
C  C256  1  0.22256000  0.21076000  0.91780000  1.0 -0.1135366459
C  C257  1  0.24008000  0.18390000  0.87812000  1.0 -0.0395708496
C  C258  1  0.29310000  0.18238000  0.83256000  1.0 -0.0981283967
C  C259  1  0.32731000  0.21101000  0.82337000  1.0 -0.140551811
C  C260  1  0.19985000  0.15989000  0.88251000  1.0 0.5849029239
C  C261  1  0.18724000  0.97110000  0.82936000  1.0 0.2544154361
C  C262  1  0.06532000  0.08292000  0.92848000  1.0 0.2355303671
C  C263  1  0.33520000  0.41780000  0.01920000  1.0 0.3709970491
C  C264  1  0.31400000  0.46420000  0.04540000  1.0 -0.5275764857
C  C265  1  0.27356000  0.34180000  0.53178000  1.0 0.2580321453
C  C266  1  0.23926000  0.30916000  0.58990000  1.0 0.0559481063
C  C267  1  0.23744000  0.25740000  0.59472000  1.0 -0.140551811
C  C268  1  0.21076000  0.22256000  0.64888000  1.0 -0.1135366459
C  C269  1  0.18390000  0.24008000  0.69790000  1.0 -0.0395708496
C  C270  1  0.18238000  0.29310000  0.69196000  1.0 -0.0981283967
C  C271  1  0.21101000  0.32731000  0.63831000  1.0 -0.140551811
C  C272  1  0.15989000  0.19985000  0.75775000  1.0 0.5849029239
C  C273  1  0.97110000  0.18724000  0.01230000  1.0 0.2580321453
C  C274  1  0.08292000  0.06532000  0.92328000  1.0 0.2355303671
C  C275  1  0.41780000  0.33520000  0.22780000  1.0 0.3709970491
C  C276  1  0.46420000  0.31400000  0.17640000  1.0 -0.5372331813
C  C277  1  0.85286000  0.53178000  0.34180000  1.0 0.2580321453
C  C278  1  0.86168000  0.58990000  0.30916000  1.0 0.0559481063
C  C279  1  0.91044000  0.59472000  0.25740000  1.0 -0.140551811
C  C280  1  0.91780000  0.64888000  0.22256000  1.0 -0.1135366459
C  C281  1  0.87812000  0.69790000  0.24008000  1.0 -0.0395708496
C  C282  1  0.83256000  0.69196000  0.29310000  1.0 -0.0981283967
C  C283  1  0.82337000  0.63831000  0.32731000  1.0 -0.140551811
C  C284  1  0.88251000  0.75775000  0.19985000  1.0 0.5849029239
C  C285  1  0.82936000  0.01230000  0.18724000  1.0 0.2580321453
C  C286  1  0.92848000  0.92328000  0.06532000  1.0 0.2355303671
C  C287  1  0.01920000  0.22780000  0.33520000  1.0 0.3709970491
C  C288  1  0.04540000  0.17640000  0.31400000  1.0 -0.5275764857
N  N1  1  0.77799000  0.39821000  0.98255000  1.0 -0.2495161512
N  N2  1  0.81555000  0.37473000  0.94031000  1.0 -0.0456666122
N  N3  1  0.83251000  0.31643000  0.96389000  1.0 -0.0669085152
N  N4  1  0.80572000  0.30148000  0.02272000  1.0 -0.2551680092
N  N5  1  0.89327000  0.49111000  0.76665000  1.0 -0.4189882995
N  N6  1  0.39821000  0.77799000  0.84125000  1.0 -0.2435706397
N  N7  1  0.37473000  0.81555000  0.86941000  1.0 -0.0456666122
N  N8  1  0.31643000  0.83251000  0.88717000  1.0 -0.0669085152
N  N9  1  0.30148000  0.80572000  0.87008000  1.0 -0.2551680092
N  N10  1  0.49111000  0.89327000  0.84897000  1.0 -0.4189882995
N  N11  1  0.98255000  0.84125000  0.77799000  1.0 -0.2435706397
N  N12  1  0.94031000  0.86941000  0.81555000  1.0 -0.0456666122
N  N13  1  0.96389000  0.88717000  0.83251000  1.0 -0.0669085152
N  N14  1  0.02272000  0.87008000  0.80572000  1.0 -0.2551680092
N  N15  1  0.76665000  0.84897000  0.89327000  1.0 -0.4189882995
N  N16  1  0.84125000  0.98255000  0.39821000  1.0 -0.2435706397
N  N17  1  0.86941000  0.94031000  0.37473000  1.0 -0.0456666122
N  N18  1  0.88717000  0.96389000  0.31643000  1.0 -0.0669085152
N  N19  1  0.87008000  0.02272000  0.30148000  1.0 -0.2551680092
N  N20  1  0.84897000  0.76665000  0.49111000  1.0 -0.4189882995
N  N21  1  0.84125000  0.39821000  0.77799000  1.0 -0.2435706397
N  N22  1  0.86941000  0.37473000  0.81555000  1.0 -0.0456666122
N  N23  1  0.88717000  0.31643000  0.83251000  1.0 -0.0669085152
N  N24  1  0.87008000  0.30148000  0.80572000  1.0 -0.2551680092
N  N25  1  0.84897000  0.49111000  0.89327000  1.0 -0.4189882995
N  N26  1  0.98255000  0.77799000  0.39821000  1.0 -0.2495161512
N  N27  1  0.94031000  0.81555000  0.37473000  1.0 -0.0456666122
N  N28  1  0.96389000  0.83251000  0.31643000  1.0 -0.0669085152
N  N29  1  0.02272000  0.80572000  0.30148000  1.0 -0.2551680092
N  N30  1  0.76665000  0.89327000  0.49111000  1.0 -0.4189882995
N  N31  1  0.39821000  0.84125000  0.98255000  1.0 -0.2495161512
N  N32  1  0.37473000  0.86941000  0.94031000  1.0 -0.0456666122
N  N33  1  0.31643000  0.88717000  0.96389000  1.0 -0.0669085152
N  N34  1  0.30148000  0.87008000  0.02272000  1.0 -0.2495161512
N  N35  1  0.49111000  0.84897000  0.76665000  1.0 -0.4189882995
N  N36  1  0.77799000  0.98255000  0.84125000  1.0 -0.2435706397
N  N37  1  0.81555000  0.94031000  0.86941000  1.0 -0.0456666122
N  N38  1  0.83251000  0.96389000  0.88717000  1.0 -0.0669085152
N  N39  1  0.80572000  0.02272000  0.87008000  1.0 -0.2551680092
N  N40  1  0.89327000  0.76665000  0.84897000  1.0 -0.4189882995
N  N41  1  0.98255000  0.39821000  0.84125000  1.0 -0.2435706397
N  N42  1  0.94031000  0.37473000  0.86941000  1.0 -0.0456666122
N  N43  1  0.96389000  0.31643000  0.88717000  1.0 -0.0669085152
N  N44  1  0.02272000  0.30148000  0.87008000  1.0 -0.2551680092
N  N45  1  0.76665000  0.49111000  0.84897000  1.0 -0.4189882995
N  N46  1  0.84125000  0.77799000  0.98255000  1.0 -0.2435706397
N  N47  1  0.86941000  0.81555000  0.94031000  1.0 -0.0456666122
N  N48  1  0.88717000  0.83251000  0.96389000  1.0 -0.0669085152
N  N49  1  0.87008000  0.80572000  0.02272000  1.0 -0.2495161512
N  N50  1  0.84897000  0.89327000  0.76665000  1.0 -0.4189882995
N  N51  1  0.77799000  0.84125000  0.39821000  1.0 -0.2435706397
N  N52  1  0.81555000  0.86941000  0.37473000  1.0 -0.0395708496
N  N53  1  0.83251000  0.88717000  0.31643000  1.0 -0.0669085152
N  N54  1  0.80572000  0.87008000  0.30148000  1.0 -0.2551680092
N  N55  1  0.89327000  0.84897000  0.49111000  1.0 -0.4189882995
N  N56  1  0.39821000  0.98255000  0.77799000  1.0 -0.2435706397
N  N57  1  0.37473000  0.94031000  0.81555000  1.0 -0.0456666122
N  N58  1  0.31643000  0.96389000  0.83251000  1.0 -0.0669085152
N  N59  1  0.30148000  0.02272000  0.80572000  1.0 -0.2551680092
N  N60  1  0.49111000  0.76665000  0.89327000  1.0 -0.4189882995
N  N61  1  0.27799000  0.89821000  0.34125000  1.0 -0.2435706397
N  N62  1  0.31555000  0.87473000  0.36941000  1.0 -0.0456666122
N  N63  1  0.33251000  0.81643000  0.38717000  1.0 -0.0669085152
N  N64  1  0.30572000  0.80148000  0.37008000  1.0 -0.2551680092
N  N65  1  0.39327000  0.99111000  0.34897000  1.0 -0.4189882995
N  N66  1  0.89821000  0.27799000  0.48255000  1.0 -0.2495161512
N  N67  1  0.87473000  0.31555000  0.44031000  1.0 -0.0456666122
N  N68  1  0.81643000  0.33251000  0.46389000  1.0 -0.0669085152
N  N69  1  0.80148000  0.30572000  0.52272000  1.0 -0.2495161512
N  N70  1  0.99111000  0.39327000  0.26665000  1.0 -0.4189882995
N  N71  1  0.48255000  0.34125000  0.89821000  1.0 -0.2435706397
N  N72  1  0.44031000  0.36941000  0.87473000  1.0 -0.0456666122
N  N73  1  0.46389000  0.38717000  0.81643000  1.0 -0.0669085152
N  N74  1  0.52272000  0.37008000  0.80148000  1.0 -0.2551680092
N  N75  1  0.26665000  0.34897000  0.99111000  1.0 -0.4189882995
N  N76  1  0.34125000  0.48255000  0.27799000  1.0 -0.2435706397
N  N77  1  0.36941000  0.44031000  0.31555000  1.0 -0.0456666122
N  N78  1  0.38717000  0.46389000  0.33251000  1.0 -0.0669085152
N  N79  1  0.37008000  0.52272000  0.30572000  1.0 -0.2551680092
N  N80  1  0.34897000  0.26665000  0.39327000  1.0 -0.4189882995
N  N81  1  0.34125000  0.89821000  0.48255000  1.0 -0.2435706397
N  N82  1  0.36941000  0.87473000  0.44031000  1.0 -0.0456666122
N  N83  1  0.38717000  0.81643000  0.46389000  1.0 -0.0669085152
N  N84  1  0.37008000  0.80148000  0.52272000  1.0 -0.2551680092
N  N85  1  0.34897000  0.99111000  0.26665000  1.0 -0.4189882995
N  N86  1  0.48255000  0.27799000  0.34125000  1.0 -0.2435706397
N  N87  1  0.44031000  0.31555000  0.36941000  1.0 -0.0456666122
N  N88  1  0.46389000  0.33251000  0.38717000  1.0 -0.0669085152
N  N89  1  0.52272000  0.30572000  0.37008000  1.0 -0.2551680092
N  N90  1  0.26665000  0.39327000  0.34897000  1.0 -0.4189882995
N  N91  1  0.89821000  0.34125000  0.27799000  1.0 -0.2495161512
N  N92  1  0.87473000  0.36941000  0.31555000  1.0 -0.0456666122
N  N93  1  0.81643000  0.38717000  0.33251000  1.0 -0.0669085152
N  N94  1  0.80148000  0.37008000  0.30572000  1.0 -0.2495161512
N  N95  1  0.99111000  0.34897000  0.39327000  1.0 -0.4189882995
N  N96  1  0.27799000  0.48255000  0.89821000  1.0 -0.2435706397
N  N97  1  0.31555000  0.44031000  0.87473000  1.0 -0.0456666122
N  N98  1  0.33251000  0.46389000  0.81643000  1.0 -0.0669085152
N  N99  1  0.30572000  0.52272000  0.80148000  1.0 -0.2551680092
N  N100  1  0.39327000  0.26665000  0.99111000  1.0 -0.4189882995
N  N101  1  0.48255000  0.89821000  0.27799000  1.0 -0.2495161512
N  N102  1  0.44031000  0.87473000  0.31555000  1.0 -0.0456666122
N  N103  1  0.46389000  0.81643000  0.33251000  1.0 -0.0669085152
N  N104  1  0.52272000  0.80148000  0.30572000  1.0 -0.2495161512
N  N105  1  0.26665000  0.99111000  0.39327000  1.0 -0.4189882995
N  N106  1  0.34125000  0.27799000  0.89821000  1.0 -0.2435706397
N  N107  1  0.36941000  0.31555000  0.87473000  1.0 -0.0456666122
N  N108  1  0.38717000  0.33251000  0.81643000  1.0 -0.0669085152
N  N109  1  0.37008000  0.30572000  0.80148000  1.0 -0.2551680092
N  N110  1  0.34897000  0.39327000  0.99111000  1.0 -0.4189882995
N  N111  1  0.27799000  0.34125000  0.48255000  1.0 -0.2495161512
N  N112  1  0.31555000  0.36941000  0.44031000  1.0 -0.0456666122
N  N113  1  0.33251000  0.38717000  0.46389000  1.0 -0.0669085152
N  N114  1  0.30572000  0.37008000  0.52272000  1.0 -0.2551680092
N  N115  1  0.39327000  0.34897000  0.26665000  1.0 -0.4189882995
N  N116  1  0.89821000  0.48255000  0.34125000  1.0 -0.2435706397
N  N117  1  0.87473000  0.44031000  0.36941000  1.0 -0.0456666122
N  N118  1  0.81643000  0.46389000  0.38717000  1.0 -0.0646723617
N  N119  1  0.80148000  0.52272000  0.37008000  1.0 -0.2495161512
N  N120  1  0.99111000  0.26665000  0.34897000  1.0 -0.4189882995
O  O1  1  0.67974000  0.40910000  0.26542000  1.0 -0.5687586575
O  O2  1  0.62147000  0.35885000  0.29637000  1.0 -0.5687586575
O  O3  1  0.52107000  0.31473000  0.47733000  1.0 -0.5275764857
O  O4  1  0.42492000  0.36790000  0.49926000  1.0 -0.5841357965
O  O5  1  0.52750000  0.44470000  0.44930000  1.0 -0.0669085152
O  O6  1  0.54740000  0.42380000  0.46920000  1.0 -0.0395708496
O  O7  1  0.40910000  0.67974000  0.64574000  1.0 -0.5687586575
O  O8  1  0.35885000  0.62147000  0.72331000  1.0 -0.5687586575
O  O9  1  0.31473000  0.52107000  0.68687000  1.0 -0.5275764857
O  O10  1  0.36790000  0.42492000  0.70792000  1.0 -0.5841357965
O  O11  1  0.44470000  0.52750000  0.57850000  1.0 -0.0669085152
O  O12  1  0.42380000  0.54740000  0.55960000  1.0 -0.0395708496
O  O13  1  0.26542000  0.64574000  0.67974000  1.0 -0.5687586575
O  O14  1  0.29637000  0.72331000  0.62147000  1.0 -0.5687586575
O  O15  1  0.47733000  0.68687000  0.52107000  1.0 -0.5275764857
O  O16  1  0.49926000  0.70792000  0.42492000  1.0 -0.5841357965
O  O17  1  0.44930000  0.57850000  0.52750000  1.0 -0.0669085152
O  O18  1  0.46920000  0.55960000  0.54740000  1.0 -0.0395708496
O  O19  1  0.64574000  0.26542000  0.40910000  1.0 -0.5687586575
O  O20  1  0.72331000  0.29637000  0.35885000  1.0 -0.5687586575
O  O21  1  0.68687000  0.47733000  0.31473000  1.0 -0.5275764857
O  O22  1  0.70792000  0.49926000  0.36790000  1.0 -0.5841357965
O  O23  1  0.57850000  0.44930000  0.44470000  1.0 -0.0669085152
O  O24  1  0.55960000  0.46920000  0.42380000  1.0 -0.0395708496
O  O25  1  0.64574000  0.40910000  0.67974000  1.0 -0.5687586575
O  O26  1  0.72331000  0.35885000  0.62147000  1.0 -0.5687586575
O  O27  1  0.68687000  0.31473000  0.52107000  1.0 -0.5275764857
O  O28  1  0.70792000  0.36790000  0.42492000  1.0 -0.5841357965
O  O29  1  0.57850000  0.44470000  0.52750000  1.0 -0.0669085152
O  O30  1  0.55960000  0.42380000  0.54740000  1.0 -0.0395708496
O  O31  1  0.26542000  0.67974000  0.40910000  1.0 -0.5687586575
O  O32  1  0.29637000  0.62147000  0.35885000  1.0 -0.5687586575
O  O33  1  0.47733000  0.52107000  0.31473000  1.0 -0.5275764857
O  O34  1  0.49926000  0.42492000  0.36790000  1.0 -0.5841357965
O  O35  1  0.44930000  0.52750000  0.44470000  1.0 -0.0669085152
O  O36  1  0.46920000  0.54740000  0.42380000  1.0 -0.0395708496
O  O37  1  0.40910000  0.64574000  0.26542000  1.0 -0.5687586575
O  O38  1  0.35885000  0.72331000  0.29637000  1.0 -0.5687586575
O  O39  1  0.31473000  0.68687000  0.47733000  1.0 -0.5275764857
O  O40  1  0.36790000  0.70792000  0.49926000  1.0 -0.5841357965
O  O41  1  0.44470000  0.57850000  0.44930000  1.0 -0.0669085152
O  O42  1  0.42380000  0.55960000  0.46920000  1.0 -0.0395708496
O  O43  1  0.67974000  0.26542000  0.64574000  1.0 -0.5687586575
O  O44  1  0.62147000  0.29637000  0.72331000  1.0 -0.5687586575
O  O45  1  0.52107000  0.47733000  0.68687000  1.0 -0.5275764857
O  O46  1  0.42492000  0.49926000  0.70792000  1.0 -0.5841357965
O  O47  1  0.52750000  0.44930000  0.57850000  1.0 -0.0669085152
O  O48  1  0.54740000  0.46920000  0.55960000  1.0 -0.0395708496
O  O49  1  0.26542000  0.40910000  0.64574000  1.0 -0.5687586575
O  O50  1  0.29637000  0.35885000  0.72331000  1.0 -0.5687586575
O  O51  1  0.47733000  0.31473000  0.68687000  1.0 -0.5275764857
O  O52  1  0.49926000  0.36790000  0.70792000  1.0 -0.5841357965
O  O53  1  0.44930000  0.44470000  0.57850000  1.0 -0.0669085152
O  O54  1  0.46920000  0.42380000  0.55960000  1.0 -0.0395708496
O  O55  1  0.64574000  0.67974000  0.26542000  1.0 -0.5687586575
O  O56  1  0.72331000  0.62147000  0.29637000  1.0 -0.5687586575
O  O57  1  0.68687000  0.52107000  0.47733000  1.0 -0.5275764857
O  O58  1  0.70792000  0.42492000  0.49926000  1.0 -0.5841357965
O  O59  1  0.57850000  0.52750000  0.44930000  1.0 -0.0669085152
O  O60  1  0.55960000  0.54740000  0.46920000  1.0 -0.0395708496
O  O61  1  0.67974000  0.64574000  0.40910000  1.0 -0.5687586575
O  O62  1  0.62147000  0.72331000  0.35885000  1.0 -0.5687586575
O  O63  1  0.52107000  0.68687000  0.31473000  1.0 -0.5275764857
O  O64  1  0.42492000  0.70792000  0.36790000  1.0 -0.5841357965
O  O65  1  0.52750000  0.57850000  0.44470000  1.0 -0.0669085152
O  O66  1  0.54740000  0.55960000  0.42380000  1.0 -0.0395708496
O  O67  1  0.40910000  0.26542000  0.67974000  1.0 -0.5687586575
O  O68  1  0.35885000  0.29637000  0.62147000  1.0 -0.5687586575
O  O69  1  0.31473000  0.47733000  0.52107000  1.0 -0.5275764857
O  O70  1  0.36790000  0.49926000  0.42492000  1.0 -0.5841357965
O  O71  1  0.44470000  0.44930000  0.52750000  1.0 -0.0669085152
O  O72  1  0.42380000  0.46920000  0.54740000  1.0 -0.0395708496
O  O73  1  0.17974000  0.90910000  0.14574000  1.0 -0.5687586575
O  O74  1  0.12147000  0.85885000  0.22331000  1.0 -0.5687586575
O  O75  1  0.02107000  0.81473000  0.18687000  1.0 -0.5275764857
O  O76  1  0.92492000  0.86790000  0.20792000  1.0 -0.5841357965
O  O77  1  0.02750000  0.94470000  0.07850000  1.0 -0.0669085152
O  O78  1  0.04740000  0.92380000  0.05960000  1.0 -0.0395708496
O  O79  1  0.90910000  0.17974000  0.76542000  1.0 -0.5687586575
O  O80  1  0.85885000  0.12147000  0.79637000  1.0 -0.5687586575
O  O81  1  0.81473000  0.02107000  0.97733000  1.0 -0.5275764857
O  O82  1  0.86790000  0.92492000  0.99926000  1.0 -0.5841357965
O  O83  1  0.94470000  0.02750000  0.94930000  1.0 -0.0669085152
O  O84  1  0.92380000  0.04740000  0.96920000  1.0 -0.0395708496
O  O85  1  0.76542000  0.14574000  0.90910000  1.0 -0.5687586575
O  O86  1  0.79637000  0.22331000  0.85885000  1.0 -0.5687586575
O  O87  1  0.97733000  0.18687000  0.81473000  1.0 -0.5275764857
O  O88  1  0.99926000  0.20792000  0.86790000  1.0 -0.5841357965
O  O89  1  0.94930000  0.07850000  0.94470000  1.0 -0.0669085152
O  O90  1  0.96920000  0.05960000  0.92380000  1.0 -0.0395708496
O  O91  1  0.14574000  0.76542000  0.17974000  1.0 -0.5687586575
O  O92  1  0.22331000  0.79637000  0.12147000  1.0 -0.5687586575
O  O93  1  0.18687000  0.97733000  0.02107000  1.0 -0.5275764857
O  O94  1  0.20792000  0.99926000  0.92492000  1.0 -0.5841357965
O  O95  1  0.07850000  0.94930000  0.02750000  1.0 -0.0669085152
O  O96  1  0.05960000  0.96920000  0.04740000  1.0 -0.0395708496
O  O97  1  0.14574000  0.90910000  0.76542000  1.0 -0.5687586575
O  O98  1  0.22331000  0.85885000  0.79637000  1.0 -0.5687586575
O  O99  1  0.18687000  0.81473000  0.97733000  1.0 -0.5275764857
O  O100  1  0.20792000  0.86790000  0.99926000  1.0 -0.5841357965
O  O101  1  0.07850000  0.94470000  0.94930000  1.0 -0.0669085152
O  O102  1  0.05960000  0.92380000  0.96920000  1.0 -0.0395708496
O  O103  1  0.76542000  0.17974000  0.14574000  1.0 -0.5687586575
O  O104  1  0.79637000  0.12147000  0.22331000  1.0 -0.5687586575
O  O105  1  0.97733000  0.02107000  0.18687000  1.0 -0.5275764857
O  O106  1  0.99926000  0.92492000  0.20792000  1.0 -0.5841357965
O  O107  1  0.94930000  0.02750000  0.07850000  1.0 -0.0669085152
O  O108  1  0.96920000  0.04740000  0.05960000  1.0 -0.0395708496
O  O109  1  0.90910000  0.14574000  0.17974000  1.0 -0.5687586575
O  O110  1  0.85885000  0.22331000  0.12147000  1.0 -0.5687586575
O  O111  1  0.81473000  0.18687000  0.02107000  1.0 -0.5275764857
O  O112  1  0.86790000  0.20792000  0.92492000  1.0 -0.5841357965
O  O113  1  0.94470000  0.07850000  0.02750000  1.0 -0.0669085152
O  O114  1  0.92380000  0.05960000  0.04740000  1.0 -0.0395708496
O  O115  1  0.17974000  0.76542000  0.90910000  1.0 -0.5687586575
O  O116  1  0.12147000  0.79637000  0.85885000  1.0 -0.5687586575
O  O117  1  0.02107000  0.97733000  0.81473000  1.0 -0.5275764857
O  O118  1  0.92492000  0.99926000  0.86790000  1.0 -0.5841357965
O  O119  1  0.02750000  0.94930000  0.94470000  1.0 -0.0669085152
O  O120  1  0.04740000  0.96920000  0.92380000  1.0 -0.0395708496
O  O121  1  0.76542000  0.90910000  0.17974000  1.0 -0.5687586575
O  O122  1  0.79637000  0.85885000  0.12147000  1.0 -0.5687586575
O  O123  1  0.97733000  0.81473000  0.02107000  1.0 -0.5275764857
O  O124  1  0.99926000  0.86790000  0.92492000  1.0 -0.5841357965
O  O125  1  0.94930000  0.94470000  0.02750000  1.0 -0.0669085152
O  O126  1  0.96920000  0.92380000  0.04740000  1.0 -0.0395708496
O  O127  1  0.14574000  0.17974000  0.90910000  1.0 -0.5687586575
O  O128  1  0.22331000  0.12147000  0.85885000  1.0 -0.5687586575
O  O129  1  0.18687000  0.02107000  0.81473000  1.0 -0.5275764857
O  O130  1  0.20792000  0.92492000  0.86790000  1.0 -0.5841357965
O  O131  1  0.07850000  0.02750000  0.94470000  1.0 -0.0669085152
O  O132  1  0.05960000  0.04740000  0.92380000  1.0 -0.0395708496
O  O133  1  0.17974000  0.14574000  0.76542000  1.0 -0.5687586575
O  O134  1  0.12147000  0.22331000  0.79637000  1.0 -0.5687586575
O  O135  1  0.02107000  0.18687000  0.97733000  1.0 -0.5275764857
O  O136  1  0.92492000  0.20792000  0.99926000  1.0 -0.5841357965
O  O137  1  0.02750000  0.07850000  0.94930000  1.0 -0.0669085152
O  O138  1  0.04740000  0.05960000  0.96920000  1.0 -0.0395708496
O  O139  1  0.90910000  0.76542000  0.14574000  1.0 -0.5687586575
O  O140  1  0.85885000  0.79637000  0.22331000  1.0 -0.5687586575
O  O141  1  0.81473000  0.97733000  0.18687000  1.0 -0.5275764857
O  O142  1  0.86790000  0.99926000  0.20792000  1.0 -0.5841357965
O  O143  1  0.94470000  0.94930000  0.07850000  1.0 -0.0669085152
O  O144  1  0.92380000  0.96920000  0.05960000  1.0 -0.0395708496
O  O145  1  0.60601000  0.39399000  0.39399000  1.0 -0.3969269442
O  O146  1  0.39399000  0.60601000  0.60601000  1.0 -0.3969269442
O  O147  1  0.60601000  0.39399000  0.60601000  1.0 -0.3969269442
O  O148  1  0.39399000  0.60601000  0.39399000  1.0 -0.3969269442
O  O149  1  0.39399000  0.39399000  0.60601000  1.0 -0.3969269442
O  O150  1  0.60601000  0.60601000  0.39399000  1.0 -0.3941373412
O  O151  1  0.10601000  0.89399000  0.10601000  1.0 -0.3969269442
O  O152  1  0.89399000  0.10601000  0.89399000  1.0 -0.3969269442
O  O153  1  0.10601000  0.89399000  0.89399000  1.0 -0.3969269442
O  O154  1  0.89399000  0.10601000  0.10601000  1.0 -0.3969269442
O  O155  1  0.89399000  0.89399000  0.10601000  1.0 -0.3969269442
O  O156  1  0.10601000  0.10601000  0.89399000  1.0 -0.3969269442
