# DDEC6 charges by PACMAN v1.1 (https://github.com/mtap-research/PACMAN-charge/)
data_SEJHIB_ASR_pacman
_symmetry_space_group_name_H-M   'P 1'
_cell_length_a   27.80980000
_cell_length_b   27.80980000
_cell_length_c   27.80980000
_cell_angle_alpha   60.00000000
_cell_angle_beta   60.00000000
_cell_angle_gamma   60.00000000
_symmetry_Int_Tables_number   1
_chemical_formula_structural   Mn7H72C76(N14O13)2
_chemical_formula_sum   'Mn42 H432 C456 N168 O156'
_cell_volume   15208.22744097
_cell_formula_units_Z   6
loop_
 _symmetry_equiv_pos_site_id
 _symmetry_equiv_pos_as_xyz
  1  'x, y, z'
loop_
 _atom_site_type_symbol
 _atom_site_label
 _atom_site_symmetry_multiplicity
 _atom_site_fract_x
 _atom_site_fract_y
 _atom_site_fract_z
 _atom_site_occupancy
 _atom_site_charge
Mn  Mn1  1  0.36298000  0.41080000  0.17612000  1.0 0.9257509002
Mn  Mn2  1  0.41080000  0.36298000  0.05010000  1.0 0.9257509002
Mn  Mn3  1  0.17612000  0.05010000  0.36298000  1.0 0.9257509002
Mn  Mn4  1  0.05010000  0.17612000  0.41080000  1.0 0.9257509002
Mn  Mn5  1  0.05010000  0.41080000  0.36298000  1.0 0.9257509002
Mn  Mn6  1  0.17612000  0.36298000  0.41080000  1.0 0.9257509002
Mn  Mn7  1  0.41080000  0.05010000  0.17612000  1.0 0.9257509002
Mn  Mn8  1  0.36298000  0.17612000  0.05010000  1.0 0.9257509002
Mn  Mn9  1  0.17612000  0.41080000  0.05010000  1.0 0.9257509002
Mn  Mn10  1  0.05010000  0.36298000  0.17612000  1.0 0.9257509002
Mn  Mn11  1  0.36298000  0.05010000  0.41080000  1.0 0.9257509002
Mn  Mn12  1  0.41080000  0.17612000  0.36298000  1.0 0.9257509002
Mn  Mn13  1  0.86298000  0.91080000  0.55010000  1.0 0.9257509002
Mn  Mn14  1  0.91080000  0.86298000  0.67612000  1.0 0.9257509002
Mn  Mn15  1  0.67612000  0.55010000  0.91080000  1.0 0.9257509002
Mn  Mn16  1  0.55010000  0.67612000  0.86298000  1.0 0.9257509002
Mn  Mn17  1  0.55010000  0.91080000  0.67612000  1.0 0.9257509002
Mn  Mn18  1  0.67612000  0.86298000  0.55010000  1.0 0.9257509002
Mn  Mn19  1  0.91080000  0.55010000  0.86298000  1.0 0.9257509002
Mn  Mn20  1  0.86298000  0.67612000  0.91080000  1.0 0.9257509002
Mn  Mn21  1  0.67612000  0.91080000  0.86298000  1.0 0.9257509002
Mn  Mn22  1  0.55010000  0.86298000  0.91080000  1.0 0.9257509002
Mn  Mn23  1  0.86298000  0.55010000  0.67612000  1.0 0.9257509002
Mn  Mn24  1  0.91080000  0.67612000  0.55010000  1.0 0.9257509002
Mn  Mn25  1  0.89612000  0.31164000  0.89612000  1.0 0.5814619678
Mn  Mn26  1  0.31164000  0.89612000  0.89612000  1.0 0.5814619678
Mn  Mn27  1  0.89612000  0.89612000  0.89612000  1.0 0.5814619678
Mn  Mn28  1  0.89612000  0.89612000  0.31164000  1.0 0.5814619678
Mn  Mn29  1  0.39612000  0.81164000  0.39612000  1.0 0.5814619678
Mn  Mn30  1  0.81164000  0.39612000  0.39612000  1.0 0.5814619678
Mn  Mn31  1  0.39612000  0.39612000  0.81164000  1.0 0.5814619678
Mn  Mn32  1  0.39612000  0.39612000  0.39612000  1.0 0.5814619678
Mn  Mn33  1  0.33573000  0.33573000  0.33573000  1.0 0.8259154248
Mn  Mn34  1  0.33573000  0.33573000  0.99281000  1.0 0.8259154248
Mn  Mn35  1  0.33573000  0.99281000  0.33573000  1.0 0.8259154248
Mn  Mn36  1  0.99281000  0.33573000  0.33573000  1.0 0.8259154248
Mn  Mn37  1  0.83573000  0.83573000  0.49281000  1.0 0.8259154248
Mn  Mn38  1  0.83573000  0.83573000  0.83573000  1.0 0.8259154248
Mn  Mn39  1  0.83573000  0.49281000  0.83573000  1.0 0.8259154248
Mn  Mn40  1  0.49281000  0.83573000  0.83573000  1.0 0.8259154248
Mn  Mn41  1  0.25000000  0.25000000  0.25000000  1.0 0.5714878801
Mn  Mn42  1  0.75000000  0.75000000  0.75000000  1.0 0.5814619678
H  H1  1  0.52470000  0.44350000  0.08810000  1.0 0.1076404508
H  H2  1  0.69040000  0.31160000  0.99680000  1.0 0.1001227832
H  H3  1  0.61530000  0.45870000  0.04090000  1.0 0.1076404508
H  H4  1  0.59820000  0.29880000  0.04060000  1.0 0.1076404508
H  H5  1  0.43990000  0.28370000  0.19650000  1.0 0.0719292191
H  H6  1  0.89240000  0.18000000  0.95340000  1.0 0.0719292191
H  H7  1  0.73200000  0.27840000  0.89340000  1.0 0.1076404508
H  H8  1  0.79550000  0.32290000  0.86770000  1.0 0.1001227832
H  H9  1  0.87620000  0.08900000  0.99480000  1.0 0.2411428803
H  H10  1  0.82500000  0.08640000  0.99080000  1.0 0.2411428803
H  H11  1  0.86100000  0.28160000  0.82040000  1.0 0.0943155711
H  H12  1  0.80270000  0.23150000  0.84010000  1.0 0.1001227832
H  H13  1  0.76080000  0.17660000  0.93700000  1.0 0.1001227832
H  H14  1  0.83540000  0.22200000  0.99460000  1.0 0.0831143174
H  H15  1  0.75890000  0.16870000  0.06110000  1.0 0.2702628735
H  H16  1  0.73960000  0.14980000  0.03260000  1.0 0.2617678606
H  H17  1  0.28530000  0.34750000  0.20970000  1.0 0.174152095
H  H18  1  0.30460000  0.32820000  0.22320000  1.0 0.174152095
H  H19  1  0.44350000  0.52470000  0.94370000  1.0 0.1076404508
H  H20  1  0.31160000  0.69040000  0.00120000  1.0 0.1001227832
H  H21  1  0.45870000  0.61530000  0.88510000  1.0 0.1076404508
H  H22  1  0.29880000  0.59820000  0.06240000  1.0 0.1076404508
H  H23  1  0.28370000  0.43990000  0.07990000  1.0 0.0719292191
H  H24  1  0.18000000  0.89240000  0.97420000  1.0 0.0719292191
H  H25  1  0.27840000  0.73200000  0.09620000  1.0 0.1076404508
H  H26  1  0.32290000  0.79550000  0.01390000  1.0 0.1001227832
H  H27  1  0.08900000  0.87620000  0.04000000  1.0 0.2411428803
H  H28  1  0.08640000  0.82500000  0.09780000  1.0 0.2411428803
H  H29  1  0.28160000  0.86100000  0.03700000  1.0 0.0943155711
H  H30  1  0.23150000  0.80270000  0.12570000  1.0 0.1001227832
H  H31  1  0.17660000  0.76080000  0.12560000  1.0 0.1001227832
H  H32  1  0.22200000  0.83540000  0.94800000  1.0 0.0831143174
H  H33  1  0.16870000  0.75890000  0.01130000  1.0 0.2702628735
H  H34  1  0.14980000  0.73960000  0.07800000  1.0 0.2617678606
H  H35  1  0.34750000  0.28530000  0.15750000  1.0 0.174152095
H  H36  1  0.32820000  0.30460000  0.14400000  1.0 0.174152095
H  H37  1  0.08810000  0.94370000  0.52470000  1.0 0.1076404508
H  H38  1  0.99680000  0.00120000  0.69040000  1.0 0.1001227832
H  H39  1  0.04090000  0.88510000  0.61530000  1.0 0.1076404508
H  H40  1  0.04060000  0.06240000  0.59820000  1.0 0.1076404508
H  H41  1  0.19650000  0.07990000  0.43990000  1.0 0.0719292191
H  H42  1  0.95340000  0.97420000  0.89240000  1.0 0.0719292191
H  H43  1  0.89340000  0.09620000  0.73200000  1.0 0.1076404508
H  H44  1  0.86770000  0.01390000  0.79550000  1.0 0.1001227832
H  H45  1  0.99480000  0.04000000  0.87620000  1.0 0.2411428803
H  H46  1  0.99080000  0.09780000  0.82500000  1.0 0.2411428803
H  H47  1  0.82040000  0.03700000  0.86100000  1.0 0.0943155711
H  H48  1  0.84010000  0.12570000  0.80270000  1.0 0.1001227832
H  H49  1  0.93700000  0.12560000  0.76080000  1.0 0.1001227832
H  H50  1  0.99460000  0.94800000  0.83540000  1.0 0.0831143174
H  H51  1  0.06110000  0.01130000  0.75890000  1.0 0.2702628735
H  H52  1  0.03260000  0.07800000  0.73960000  1.0 0.2617678606
H  H53  1  0.20970000  0.15750000  0.28530000  1.0 0.174152095
H  H54  1  0.22320000  0.14400000  0.30460000  1.0 0.174152095
H  H55  1  0.94370000  0.08810000  0.44350000  1.0 0.1076404508
H  H56  1  0.00120000  0.99680000  0.31160000  1.0 0.1001227832
H  H57  1  0.88510000  0.04090000  0.45870000  1.0 0.1076404508
H  H58  1  0.06240000  0.04060000  0.29880000  1.0 0.1076404508
H  H59  1  0.07990000  0.19650000  0.28370000  1.0 0.0719292191
H  H60  1  0.97420000  0.95340000  0.18000000  1.0 0.0719292191
H  H61  1  0.09620000  0.89340000  0.27840000  1.0 0.1076404508
H  H62  1  0.01390000  0.86770000  0.32290000  1.0 0.1001227832
H  H63  1  0.04000000  0.99480000  0.08900000  1.0 0.2411428803
H  H64  1  0.09780000  0.99080000  0.08640000  1.0 0.2411428803
H  H65  1  0.03700000  0.82040000  0.28160000  1.0 0.0943155711
H  H66  1  0.12570000  0.84010000  0.23150000  1.0 0.1001227832
H  H67  1  0.12560000  0.93700000  0.17660000  1.0 0.1001227832
H  H68  1  0.94800000  0.99460000  0.22200000  1.0 0.0831143174
H  H69  1  0.01130000  0.06110000  0.16870000  1.0 0.2702628735
H  H70  1  0.07800000  0.03260000  0.14980000  1.0 0.2617678606
H  H71  1  0.15750000  0.20970000  0.34750000  1.0 0.174152095
H  H72  1  0.14400000  0.22320000  0.32820000  1.0 0.174152095
H  H73  1  0.94370000  0.44350000  0.52470000  1.0 0.1076404508
H  H74  1  0.00120000  0.31160000  0.69040000  1.0 0.1001227832
H  H75  1  0.88510000  0.45870000  0.61530000  1.0 0.1076404508
H  H76  1  0.06240000  0.29880000  0.59820000  1.0 0.1076404508
H  H77  1  0.07990000  0.28370000  0.43990000  1.0 0.0719292191
H  H78  1  0.97420000  0.18000000  0.89240000  1.0 0.0719292191
H  H79  1  0.09620000  0.27840000  0.73200000  1.0 0.1001227832
H  H80  1  0.01390000  0.32290000  0.79550000  1.0 0.1001227832
H  H81  1  0.04000000  0.08900000  0.87620000  1.0 0.2411428803
H  H82  1  0.09780000  0.08640000  0.82500000  1.0 0.2411428803
H  H83  1  0.03700000  0.28160000  0.86100000  1.0 0.0943155711
H  H84  1  0.12570000  0.23150000  0.80270000  1.0 0.1001227832
H  H85  1  0.12560000  0.17660000  0.76080000  1.0 0.1001227832
H  H86  1  0.94800000  0.22200000  0.83540000  1.0 0.0831143174
H  H87  1  0.01130000  0.16870000  0.75890000  1.0 0.2702628735
H  H88  1  0.07800000  0.14980000  0.73960000  1.0 0.2617678606
H  H89  1  0.15750000  0.34750000  0.28530000  1.0 0.174152095
H  H90  1  0.14400000  0.32820000  0.30460000  1.0 0.174152095
H  H91  1  0.08810000  0.52470000  0.44350000  1.0 0.1076404508
H  H92  1  0.99680000  0.69040000  0.31160000  1.0 0.1001227832
H  H93  1  0.04090000  0.61530000  0.45870000  1.0 0.1076404508
H  H94  1  0.04060000  0.59820000  0.29880000  1.0 0.1076404508
H  H95  1  0.19650000  0.43990000  0.28370000  1.0 0.0719292191
H  H96  1  0.95340000  0.89240000  0.18000000  1.0 0.0719292191
H  H97  1  0.89340000  0.73200000  0.27840000  1.0 0.1076404508
H  H98  1  0.86770000  0.79550000  0.32290000  1.0 0.1001227832
H  H99  1  0.99480000  0.87620000  0.08900000  1.0 0.2411428803
H  H100  1  0.99080000  0.82500000  0.08640000  1.0 0.2411428803
H  H101  1  0.82040000  0.86100000  0.28160000  1.0 0.0943155711
H  H102  1  0.84010000  0.80270000  0.23150000  1.0 0.1001227832
H  H103  1  0.93700000  0.76080000  0.17660000  1.0 0.1001227832
H  H104  1  0.99460000  0.83540000  0.22200000  1.0 0.0831143174
H  H105  1  0.06110000  0.75890000  0.16870000  1.0 0.2702628735
H  H106  1  0.03260000  0.73960000  0.14980000  1.0 0.2617678606
H  H107  1  0.20970000  0.28530000  0.34750000  1.0 0.174152095
H  H108  1  0.22320000  0.30460000  0.32820000  1.0 0.174152095
H  H109  1  0.44350000  0.94370000  0.08810000  1.0 0.1076404508
H  H110  1  0.31160000  0.00120000  0.99680000  1.0 0.1001227832
H  H111  1  0.45870000  0.88510000  0.04090000  1.0 0.1076404508
H  H112  1  0.29880000  0.06240000  0.04060000  1.0 0.1076404508
H  H113  1  0.28370000  0.07990000  0.19650000  1.0 0.0719292191
H  H114  1  0.18000000  0.97420000  0.95340000  1.0 0.0719292191
H  H115  1  0.27840000  0.09620000  0.89340000  1.0 0.1076404508
H  H116  1  0.32290000  0.01390000  0.86770000  1.0 0.1001227832
H  H117  1  0.08900000  0.04000000  0.99480000  1.0 0.2411428803
H  H118  1  0.08640000  0.09780000  0.99080000  1.0 0.2411428803
H  H119  1  0.28160000  0.03700000  0.82040000  1.0 0.0943155711
H  H120  1  0.23150000  0.12570000  0.84010000  1.0 0.1001227832
H  H121  1  0.17660000  0.12560000  0.93700000  1.0 0.1001227832
H  H122  1  0.22200000  0.94800000  0.99460000  1.0 0.0831143174
H  H123  1  0.16870000  0.01130000  0.06110000  1.0 0.2702628735
H  H124  1  0.14980000  0.07800000  0.03260000  1.0 0.2617678606
H  H125  1  0.34750000  0.15750000  0.20970000  1.0 0.174152095
H  H126  1  0.32820000  0.14400000  0.22320000  1.0 0.174152095
H  H127  1  0.52470000  0.08810000  0.94370000  1.0 0.1076404508
H  H128  1  0.69040000  0.99680000  0.00120000  1.0 0.1001227832
H  H129  1  0.61530000  0.04090000  0.88510000  1.0 0.1076404508
H  H130  1  0.59820000  0.04060000  0.06240000  1.0 0.1076404508
H  H131  1  0.43990000  0.19650000  0.07990000  1.0 0.0719292191
H  H132  1  0.89240000  0.95340000  0.97420000  1.0 0.0719292191
H  H133  1  0.73200000  0.89340000  0.09620000  1.0 0.1076404508
H  H134  1  0.79550000  0.86770000  0.01390000  1.0 0.1001227832
H  H135  1  0.87620000  0.99480000  0.04000000  1.0 0.2411428803
H  H136  1  0.82500000  0.99080000  0.09780000  1.0 0.2411428803
H  H137  1  0.86100000  0.82040000  0.03700000  1.0 0.0943155711
H  H138  1  0.80270000  0.84010000  0.12570000  1.0 0.1001227832
H  H139  1  0.76080000  0.93700000  0.12560000  1.0 0.1001227832
H  H140  1  0.83540000  0.99460000  0.94800000  1.0 0.0831143174
H  H141  1  0.75890000  0.06110000  0.01130000  1.0 0.2702628735
H  H142  1  0.73960000  0.03260000  0.07800000  1.0 0.2617678606
H  H143  1  0.28530000  0.20970000  0.15750000  1.0 0.174152095
H  H144  1  0.30460000  0.22320000  0.14400000  1.0 0.174152095
H  H145  1  0.08810000  0.44350000  0.94370000  1.0 0.1076404508
H  H146  1  0.99680000  0.31160000  0.00120000  1.0 0.1001227832
H  H147  1  0.04090000  0.45870000  0.88510000  1.0 0.1076404508
H  H148  1  0.04060000  0.29880000  0.06240000  1.0 0.1076404508
H  H149  1  0.19650000  0.28370000  0.07990000  1.0 0.0719292191
H  H150  1  0.95340000  0.18000000  0.97420000  1.0 0.0719292191
H  H151  1  0.89340000  0.27840000  0.09620000  1.0 0.1076404508
H  H152  1  0.86770000  0.32290000  0.01390000  1.0 0.1001227832
H  H153  1  0.99480000  0.08900000  0.04000000  1.0 0.2411428803
H  H154  1  0.99080000  0.08640000  0.09780000  1.0 0.2411428803
H  H155  1  0.82040000  0.28160000  0.03700000  1.0 0.0943155711
H  H156  1  0.84010000  0.23150000  0.12570000  1.0 0.1001227832
H  H157  1  0.93700000  0.17660000  0.12560000  1.0 0.1001227832
H  H158  1  0.99460000  0.22200000  0.94800000  1.0 0.0831143174
H  H159  1  0.06110000  0.16870000  0.01130000  1.0 0.2702628735
H  H160  1  0.03260000  0.14980000  0.07800000  1.0 0.2617678606
H  H161  1  0.20970000  0.34750000  0.15750000  1.0 0.174152095
H  H162  1  0.22320000  0.32820000  0.14400000  1.0 0.174152095
H  H163  1  0.94370000  0.52470000  0.08810000  1.0 0.1076404508
H  H164  1  0.00120000  0.69040000  0.99680000  1.0 0.1001227832
H  H165  1  0.88510000  0.61530000  0.04090000  1.0 0.1076404508
H  H166  1  0.06240000  0.59820000  0.04060000  1.0 0.1076404508
H  H167  1  0.07990000  0.43990000  0.19650000  1.0 0.0719292191
H  H168  1  0.97420000  0.89240000  0.95340000  1.0 0.0719292191
H  H169  1  0.09620000  0.73200000  0.89340000  1.0 0.1076404508
H  H170  1  0.01390000  0.79550000  0.86770000  1.0 0.1001227832
H  H171  1  0.04000000  0.87620000  0.99480000  1.0 0.2411428803
H  H172  1  0.09780000  0.82500000  0.99080000  1.0 0.2411428803
H  H173  1  0.03700000  0.86100000  0.82040000  1.0 0.0943155711
H  H174  1  0.12570000  0.80270000  0.84010000  1.0 0.1001227832
H  H175  1  0.12560000  0.76080000  0.93700000  1.0 0.1001227832
H  H176  1  0.94800000  0.83540000  0.99460000  1.0 0.0831143174
H  H177  1  0.01130000  0.75890000  0.06110000  1.0 0.2702628735
H  H178  1  0.07800000  0.73960000  0.03260000  1.0 0.2617678606
H  H179  1  0.15750000  0.28530000  0.20970000  1.0 0.174152095
H  H180  1  0.14400000  0.30460000  0.22320000  1.0 0.174152095
H  H181  1  0.52470000  0.94370000  0.44350000  1.0 0.1076404508
H  H182  1  0.69040000  0.00120000  0.31160000  1.0 0.1001227832
H  H183  1  0.61530000  0.88510000  0.45870000  1.0 0.1076404508
H  H184  1  0.59820000  0.06240000  0.29880000  1.0 0.1076404508
H  H185  1  0.43990000  0.07990000  0.28370000  1.0 0.0719292191
H  H186  1  0.89240000  0.97420000  0.18000000  1.0 0.0719292191
H  H187  1  0.73200000  0.09620000  0.27840000  1.0 0.1076404508
H  H188  1  0.79550000  0.01390000  0.32290000  1.0 0.1001227832
H  H189  1  0.87620000  0.04000000  0.08900000  1.0 0.2411428803
H  H190  1  0.82500000  0.09780000  0.08640000  1.0 0.2411428803
H  H191  1  0.86100000  0.03700000  0.28160000  1.0 0.0943155711
H  H192  1  0.80270000  0.12570000  0.23150000  1.0 0.1001227832
H  H193  1  0.76080000  0.12560000  0.17660000  1.0 0.1001227832
H  H194  1  0.83540000  0.94800000  0.22200000  1.0 0.0831143174
H  H195  1  0.75890000  0.01130000  0.16870000  1.0 0.2702628735
H  H196  1  0.73960000  0.07800000  0.14980000  1.0 0.2617678606
H  H197  1  0.28530000  0.15750000  0.34750000  1.0 0.174152095
H  H198  1  0.30460000  0.14400000  0.32820000  1.0 0.174152095
H  H199  1  0.44350000  0.08810000  0.52470000  1.0 0.1076404508
H  H200  1  0.31160000  0.99680000  0.69040000  1.0 0.1001227832
H  H201  1  0.45870000  0.04090000  0.61530000  1.0 0.1076404508
H  H202  1  0.29880000  0.04060000  0.59820000  1.0 0.1076404508
H  H203  1  0.28370000  0.19650000  0.43990000  1.0 0.0719292191
H  H204  1  0.18000000  0.95340000  0.89240000  1.0 0.0719292191
H  H205  1  0.27840000  0.89340000  0.73200000  1.0 0.1076404508
H  H206  1  0.32290000  0.86770000  0.79550000  1.0 0.1001227832
H  H207  1  0.08900000  0.99480000  0.87620000  1.0 0.2411428803
H  H208  1  0.08640000  0.99080000  0.82500000  1.0 0.2411428803
H  H209  1  0.28160000  0.82040000  0.86100000  1.0 0.0943155711
H  H210  1  0.23150000  0.84010000  0.80270000  1.0 0.1001227832
H  H211  1  0.17660000  0.93700000  0.76080000  1.0 0.1001227832
H  H212  1  0.22200000  0.99460000  0.83540000  1.0 0.0831143174
H  H213  1  0.16870000  0.06110000  0.75890000  1.0 0.2702628735
H  H214  1  0.14980000  0.03260000  0.73960000  1.0 0.2617678606
H  H215  1  0.34750000  0.20970000  0.28530000  1.0 0.174152095
H  H216  1  0.32820000  0.22320000  0.30460000  1.0 0.174152095
H  H217  1  0.02470000  0.94350000  0.44370000  1.0 0.1076404508
H  H218  1  0.19040000  0.81160000  0.50120000  1.0 0.1001227832
H  H219  1  0.11530000  0.95870000  0.38510000  1.0 0.1076404508
H  H220  1  0.09820000  0.79880000  0.56240000  1.0 0.1076404508
H  H221  1  0.93990000  0.78370000  0.57990000  1.0 0.0719292191
H  H222  1  0.39240000  0.68000000  0.47420000  1.0 0.0719292191
H  H223  1  0.23200000  0.77840000  0.59620000  1.0 0.1076404508
H  H224  1  0.29550000  0.82290000  0.51390000  1.0 0.1001227832
H  H225  1  0.37620000  0.58900000  0.54000000  1.0 0.2411428803
H  H226  1  0.32500000  0.58640000  0.59780000  1.0 0.2411428803
H  H227  1  0.36100000  0.78160000  0.53700000  1.0 0.0943155711
H  H228  1  0.30270000  0.73150000  0.62570000  1.0 0.1001227832
H  H229  1  0.26080000  0.67660000  0.62560000  1.0 0.1001227832
H  H230  1  0.33540000  0.72200000  0.44800000  1.0 0.0831143174
H  H231  1  0.25890000  0.66870000  0.51130000  1.0 0.2702628735
H  H232  1  0.23960000  0.64980000  0.57800000  1.0 0.2617678606
H  H233  1  0.78530000  0.84750000  0.65750000  1.0 0.174152095
H  H234  1  0.80460000  0.82820000  0.64400000  1.0 0.174152095
H  H235  1  0.94350000  0.02470000  0.58810000  1.0 0.1076404508
H  H236  1  0.81160000  0.19040000  0.49680000  1.0 0.1001227832
H  H237  1  0.95870000  0.11530000  0.54090000  1.0 0.1076404508
H  H238  1  0.79880000  0.09820000  0.54060000  1.0 0.1076404508
H  H239  1  0.78370000  0.93990000  0.69650000  1.0 0.0719292191
H  H240  1  0.68000000  0.39240000  0.45340000  1.0 0.0719292191
H  H241  1  0.77840000  0.23200000  0.39340000  1.0 0.1076404508
H  H242  1  0.82290000  0.29550000  0.36770000  1.0 0.1001227832
H  H243  1  0.58900000  0.37620000  0.49480000  1.0 0.2411428803
H  H244  1  0.58640000  0.32500000  0.49080000  1.0 0.2411428803
H  H245  1  0.78160000  0.36100000  0.32040000  1.0 0.0943155711
H  H246  1  0.73150000  0.30270000  0.34010000  1.0 0.1001227832
H  H247  1  0.67660000  0.26080000  0.43700000  1.0 0.1001227832
H  H248  1  0.72200000  0.33540000  0.49460000  1.0 0.0831143174
H  H249  1  0.66870000  0.25890000  0.56110000  1.0 0.2702628735
H  H250  1  0.64980000  0.23960000  0.53260000  1.0 0.2617678606
H  H251  1  0.84750000  0.78530000  0.70970000  1.0 0.174152095
H  H252  1  0.82820000  0.80460000  0.72320000  1.0 0.174152095
H  H253  1  0.58810000  0.44370000  0.94350000  1.0 0.1076404508
H  H254  1  0.49680000  0.50120000  0.81160000  1.0 0.1001227832
H  H255  1  0.54090000  0.38510000  0.95870000  1.0 0.1076404508
H  H256  1  0.54060000  0.56240000  0.79880000  1.0 0.1076404508
H  H257  1  0.69650000  0.57990000  0.78370000  1.0 0.0719292191
H  H258  1  0.45340000  0.47420000  0.68000000  1.0 0.0719292191
H  H259  1  0.39340000  0.59620000  0.77840000  1.0 0.1076404508
H  H260  1  0.36770000  0.51390000  0.82290000  1.0 0.1001227832
H  H261  1  0.49480000  0.54000000  0.58900000  1.0 0.2411428803
H  H262  1  0.49080000  0.59780000  0.58640000  1.0 0.2411428803
H  H263  1  0.32040000  0.53700000  0.78160000  1.0 0.0943155711
H  H264  1  0.34010000  0.62570000  0.73150000  1.0 0.1001227832
H  H265  1  0.43700000  0.62560000  0.67660000  1.0 0.1001227832
H  H266  1  0.49460000  0.44800000  0.72200000  1.0 0.0831143174
H  H267  1  0.56110000  0.51130000  0.66870000  1.0 0.2702628735
H  H268  1  0.53260000  0.57800000  0.64980000  1.0 0.2617678606
H  H269  1  0.70970000  0.65750000  0.84750000  1.0 0.174152095
H  H270  1  0.72320000  0.64400000  0.82820000  1.0 0.174152095
H  H271  1  0.44370000  0.58810000  0.02470000  1.0 0.1076404508
H  H272  1  0.50120000  0.49680000  0.19040000  1.0 0.1001227832
H  H273  1  0.38510000  0.54090000  0.11530000  1.0 0.1076404508
H  H274  1  0.56240000  0.54060000  0.09820000  1.0 0.1076404508
H  H275  1  0.57990000  0.69650000  0.93990000  1.0 0.0719292191
H  H276  1  0.47420000  0.45340000  0.39240000  1.0 0.0719292191
H  H277  1  0.59620000  0.39340000  0.23200000  1.0 0.1076404508
H  H278  1  0.51390000  0.36770000  0.29550000  1.0 0.1001227832
H  H279  1  0.54000000  0.49480000  0.37620000  1.0 0.2411428803
H  H280  1  0.59780000  0.49080000  0.32500000  1.0 0.2411428803
H  H281  1  0.53700000  0.32040000  0.36100000  1.0 0.0943155711
H  H282  1  0.62570000  0.34010000  0.30270000  1.0 0.1001227832
H  H283  1  0.62560000  0.43700000  0.26080000  1.0 0.1001227832
H  H284  1  0.44800000  0.49460000  0.33540000  1.0 0.0831143174
H  H285  1  0.51130000  0.56110000  0.25890000  1.0 0.2702628735
H  H286  1  0.57800000  0.53260000  0.23960000  1.0 0.2617678606
H  H287  1  0.65750000  0.70970000  0.78530000  1.0 0.174152095
H  H288  1  0.64400000  0.72320000  0.80460000  1.0 0.174152095
H  H289  1  0.44370000  0.94350000  0.58810000  1.0 0.1076404508
H  H290  1  0.50120000  0.81160000  0.49680000  1.0 0.1001227832
H  H291  1  0.38510000  0.95870000  0.54090000  1.0 0.1076404508
H  H292  1  0.56240000  0.79880000  0.54060000  1.0 0.1076404508
H  H293  1  0.57990000  0.78370000  0.69650000  1.0 0.0719292191
H  H294  1  0.47420000  0.68000000  0.45340000  1.0 0.0719292191
H  H295  1  0.59620000  0.77840000  0.39340000  1.0 0.1076404508
H  H296  1  0.51390000  0.82290000  0.36770000  1.0 0.1001227832
H  H297  1  0.54000000  0.58900000  0.49480000  1.0 0.2411428803
H  H298  1  0.59780000  0.58640000  0.49080000  1.0 0.2411428803
H  H299  1  0.53700000  0.78160000  0.32040000  1.0 0.0943155711
H  H300  1  0.62570000  0.73150000  0.34010000  1.0 0.1001227832
H  H301  1  0.62560000  0.67660000  0.43700000  1.0 0.1001227832
H  H302  1  0.44800000  0.72200000  0.49460000  1.0 0.0831143174
H  H303  1  0.51130000  0.66870000  0.56110000  1.0 0.2702628735
H  H304  1  0.57800000  0.64980000  0.53260000  1.0 0.2617678606
H  H305  1  0.65750000  0.84750000  0.70970000  1.0 0.174152095
H  H306  1  0.64400000  0.82820000  0.72320000  1.0 0.174152095
H  H307  1  0.58810000  0.02470000  0.44370000  1.0 0.1076404508
H  H308  1  0.49680000  0.19040000  0.50120000  1.0 0.1001227832
H  H309  1  0.54090000  0.11530000  0.38510000  1.0 0.1076404508
H  H310  1  0.54060000  0.09820000  0.56240000  1.0 0.1076404508
H  H311  1  0.69650000  0.93990000  0.57990000  1.0 0.0719292191
H  H312  1  0.45340000  0.39240000  0.47420000  1.0 0.0719292191
H  H313  1  0.39340000  0.23200000  0.59620000  1.0 0.1076404508
H  H314  1  0.36770000  0.29550000  0.51390000  1.0 0.1001227832
H  H315  1  0.49480000  0.37620000  0.54000000  1.0 0.2411428803
H  H316  1  0.49080000  0.32500000  0.59780000  1.0 0.2411428803
H  H317  1  0.32040000  0.36100000  0.53700000  1.0 0.0943155711
H  H318  1  0.34010000  0.30270000  0.62570000  1.0 0.1001227832
H  H319  1  0.43700000  0.26080000  0.62560000  1.0 0.1001227832
H  H320  1  0.49460000  0.33540000  0.44800000  1.0 0.0831143174
H  H321  1  0.56110000  0.25890000  0.51130000  1.0 0.2702628735
H  H322  1  0.53260000  0.23960000  0.57800000  1.0 0.2617678606
H  H323  1  0.70970000  0.78530000  0.65750000  1.0 0.174152095
H  H324  1  0.72320000  0.80460000  0.64400000  1.0 0.174152095
H  H325  1  0.94350000  0.44370000  0.02470000  1.0 0.1076404508
H  H326  1  0.81160000  0.50120000  0.19040000  1.0 0.1001227832
H  H327  1  0.95870000  0.38510000  0.11530000  1.0 0.1076404508
H  H328  1  0.79880000  0.56240000  0.09820000  1.0 0.1076404508
H  H329  1  0.78370000  0.57990000  0.93990000  1.0 0.0719292191
H  H330  1  0.68000000  0.47420000  0.39240000  1.0 0.0719292191
H  H331  1  0.77840000  0.59620000  0.23200000  1.0 0.1076404508
H  H332  1  0.82290000  0.51390000  0.29550000  1.0 0.1001227832
H  H333  1  0.58900000  0.54000000  0.37620000  1.0 0.2411428803
H  H334  1  0.58640000  0.59780000  0.32500000  1.0 0.2411428803
H  H335  1  0.78160000  0.53700000  0.36100000  1.0 0.0943155711
H  H336  1  0.73150000  0.62570000  0.30270000  1.0 0.1001227832
H  H337  1  0.67660000  0.62560000  0.26080000  1.0 0.1001227832
H  H338  1  0.72200000  0.44800000  0.33540000  1.0 0.0831143174
H  H339  1  0.66870000  0.51130000  0.25890000  1.0 0.2702628735
H  H340  1  0.64980000  0.57800000  0.23960000  1.0 0.2617678606
H  H341  1  0.84750000  0.65750000  0.78530000  1.0 0.174152095
H  H342  1  0.82820000  0.64400000  0.80460000  1.0 0.174152095
H  H343  1  0.02470000  0.58810000  0.94350000  1.0 0.1076404508
H  H344  1  0.19040000  0.49680000  0.81160000  1.0 0.1001227832
H  H345  1  0.11530000  0.54090000  0.95870000  1.0 0.1076404508
H  H346  1  0.09820000  0.54060000  0.79880000  1.0 0.1076404508
H  H347  1  0.93990000  0.69650000  0.78370000  1.0 0.0719292191
H  H348  1  0.39240000  0.45340000  0.68000000  1.0 0.0719292191
H  H349  1  0.23200000  0.39340000  0.77840000  1.0 0.1076404508
H  H350  1  0.29550000  0.36770000  0.82290000  1.0 0.1001227832
H  H351  1  0.37620000  0.49480000  0.58900000  1.0 0.2411428803
H  H352  1  0.32500000  0.49080000  0.58640000  1.0 0.2411428803
H  H353  1  0.36100000  0.32040000  0.78160000  1.0 0.0943155711
H  H354  1  0.30270000  0.34010000  0.73150000  1.0 0.1001227832
H  H355  1  0.26080000  0.43700000  0.67660000  1.0 0.1001227832
H  H356  1  0.33540000  0.49460000  0.72200000  1.0 0.0831143174
H  H357  1  0.25890000  0.56110000  0.66870000  1.0 0.2702628735
H  H358  1  0.23960000  0.53260000  0.64980000  1.0 0.2617678606
H  H359  1  0.78530000  0.70970000  0.84750000  1.0 0.174152095
H  H360  1  0.80460000  0.72320000  0.82820000  1.0 0.174152095
H  H361  1  0.58810000  0.94350000  0.02470000  1.0 0.1076404508
H  H362  1  0.49680000  0.81160000  0.19040000  1.0 0.1001227832
H  H363  1  0.54090000  0.95870000  0.11530000  1.0 0.1076404508
H  H364  1  0.54060000  0.79880000  0.09820000  1.0 0.1076404508
H  H365  1  0.69650000  0.78370000  0.93990000  1.0 0.0719292191
H  H366  1  0.45340000  0.68000000  0.39240000  1.0 0.0719292191
H  H367  1  0.39340000  0.77840000  0.23200000  1.0 0.1076404508
H  H368  1  0.36770000  0.82290000  0.29550000  1.0 0.1001227832
H  H369  1  0.49480000  0.58900000  0.37620000  1.0 0.2411428803
H  H370  1  0.49080000  0.58640000  0.32500000  1.0 0.2411428803
H  H371  1  0.32040000  0.78160000  0.36100000  1.0 0.0943155711
H  H372  1  0.34010000  0.73150000  0.30270000  1.0 0.1001227832
H  H373  1  0.43700000  0.67660000  0.26080000  1.0 0.1001227832
H  H374  1  0.49460000  0.72200000  0.33540000  1.0 0.0831143174
H  H375  1  0.56110000  0.66870000  0.25890000  1.0 0.2702628735
H  H376  1  0.53260000  0.64980000  0.23960000  1.0 0.2617678606
H  H377  1  0.70970000  0.84750000  0.78530000  1.0 0.174152095
H  H378  1  0.72320000  0.82820000  0.80460000  1.0 0.174152095
H  H379  1  0.44370000  0.02470000  0.94350000  1.0 0.1076404508
H  H380  1  0.50120000  0.19040000  0.81160000  1.0 0.1001227832
H  H381  1  0.38510000  0.11530000  0.95870000  1.0 0.1076404508
H  H382  1  0.56240000  0.09820000  0.79880000  1.0 0.1076404508
H  H383  1  0.57990000  0.93990000  0.78370000  1.0 0.0719292191
H  H384  1  0.47420000  0.39240000  0.68000000  1.0 0.0719292191
H  H385  1  0.59620000  0.23200000  0.77840000  1.0 0.1076404508
H  H386  1  0.51390000  0.29550000  0.82290000  1.0 0.1001227832
H  H387  1  0.54000000  0.37620000  0.58900000  1.0 0.2411428803
H  H388  1  0.59780000  0.32500000  0.58640000  1.0 0.2411428803
H  H389  1  0.53700000  0.36100000  0.78160000  1.0 0.0943155711
H  H390  1  0.62570000  0.30270000  0.73150000  1.0 0.1001227832
H  H391  1  0.62560000  0.26080000  0.67660000  1.0 0.1001227832
H  H392  1  0.44800000  0.33540000  0.72200000  1.0 0.0831143174
H  H393  1  0.51130000  0.25890000  0.66870000  1.0 0.2702628735
H  H394  1  0.57800000  0.23960000  0.64980000  1.0 0.2617678606
H  H395  1  0.65750000  0.78530000  0.84750000  1.0 0.174152095
H  H396  1  0.64400000  0.80460000  0.82820000  1.0 0.174152095
H  H397  1  0.02470000  0.44370000  0.58810000  1.0 0.1076404508
H  H398  1  0.19040000  0.50120000  0.49680000  1.0 0.1001227832
H  H399  1  0.11530000  0.38510000  0.54090000  1.0 0.1076404508
H  H400  1  0.09820000  0.56240000  0.54060000  1.0 0.1076404508
H  H401  1  0.93990000  0.57990000  0.69650000  1.0 0.0719292191
H  H402  1  0.39240000  0.47420000  0.45340000  1.0 0.0719292191
H  H403  1  0.23200000  0.59620000  0.39340000  1.0 0.1076404508
H  H404  1  0.29550000  0.51390000  0.36770000  1.0 0.1001227832
H  H405  1  0.37620000  0.54000000  0.49480000  1.0 0.2411428803
H  H406  1  0.32500000  0.59780000  0.49080000  1.0 0.2411428803
H  H407  1  0.36100000  0.53700000  0.32040000  1.0 0.0943155711
H  H408  1  0.30270000  0.62570000  0.34010000  1.0 0.1001227832
H  H409  1  0.26080000  0.62560000  0.43700000  1.0 0.1001227832
H  H410  1  0.33540000  0.44800000  0.49460000  1.0 0.0831143174
H  H411  1  0.25890000  0.51130000  0.56110000  1.0 0.2702628735
H  H412  1  0.23960000  0.57800000  0.53260000  1.0 0.2617678606
H  H413  1  0.78530000  0.65750000  0.70970000  1.0 0.174152095
H  H414  1  0.80460000  0.64400000  0.72320000  1.0 0.174152095
H  H415  1  0.94350000  0.58810000  0.44370000  1.0 0.1076404508
H  H416  1  0.81160000  0.49680000  0.50120000  1.0 0.1001227832
H  H417  1  0.95870000  0.54090000  0.38510000  1.0 0.1076404508
H  H418  1  0.79880000  0.54060000  0.56240000  1.0 0.1076404508
H  H419  1  0.78370000  0.69650000  0.57990000  1.0 0.0719292191
H  H420  1  0.68000000  0.45340000  0.47420000  1.0 0.0719292191
H  H421  1  0.77840000  0.39340000  0.59620000  1.0 0.1076404508
H  H422  1  0.82290000  0.36770000  0.51390000  1.0 0.1001227832
H  H423  1  0.58900000  0.49480000  0.54000000  1.0 0.2411428803
H  H424  1  0.58640000  0.49080000  0.59780000  1.0 0.2411428803
H  H425  1  0.78160000  0.32040000  0.53700000  1.0 0.0943155711
H  H426  1  0.73150000  0.34010000  0.62570000  1.0 0.1001227832
H  H427  1  0.67660000  0.43700000  0.62560000  1.0 0.1001227832
H  H428  1  0.72200000  0.49460000  0.44800000  1.0 0.0831143174
H  H429  1  0.66870000  0.56110000  0.51130000  1.0 0.2702628735
H  H430  1  0.64980000  0.53260000  0.57800000  1.0 0.2617678606
H  H431  1  0.84750000  0.70970000  0.65750000  1.0 0.174152095
H  H432  1  0.82820000  0.72320000  0.64400000  1.0 0.174152095
C  C1  1  0.78440000  0.19700000  0.92900000  1.0 -0.1173303763
C  C2  1  0.66142000  0.38762000  0.01168000  1.0 0.0328754794
C  C3  1  0.55827000  0.41773000  0.06805000  1.0 -0.1001995413
C  C4  1  0.65631000  0.33941000  0.01375000  1.0 -0.1421811368
C  C5  1  0.61186000  0.42666000  0.04050000  1.0 -0.1303795625
C  C6  1  0.60168000  0.33118000  0.04050000  1.0 -0.1173303763
C  C7  1  0.55305000  0.37073000  0.06677000  1.0 -0.0263064611
C  C8  1  0.71829000  0.39651000  0.97843000  1.0 0.25061051
C  C9  1  0.49264000  0.36698000  0.09064000  1.0 0.5814619678
C  C10  1  0.42072000  0.27920000  0.23714000  1.0 0.25061051
C  C11  1  0.31980000  0.32820000  0.18400000  1.0 0.2411428803
C  C12  1  0.86120000  0.20020000  0.93760000  1.0 -0.0019305481
C  C13  1  0.76750000  0.25650000  0.90250000  1.0 -0.1102693353
C  C14  1  0.83020000  0.16740000  0.95080000  1.0 0.0943155711
C  C15  1  0.80460000  0.28220000  0.89000000  1.0 -0.0135569709
C  C16  1  0.84400000  0.25940000  0.85960000  1.0 -0.0473368033
C  C17  1  0.80940000  0.22960000  0.87140000  1.0 -0.0892510755
C  C18  1  0.79418000  0.19418000  0.97482000  1.0 0.1263389799
C  C19  1  0.82880000  0.22400000  0.96320000  1.0 -0.0181321348
C  C20  1  0.19700000  0.78440000  0.08960000  1.0 -0.1173303763
C  C21  1  0.38762000  0.66142000  0.93928000  1.0 0.0328754794
C  C22  1  0.41773000  0.55827000  0.95595000  1.0 -0.1001995413
C  C23  1  0.33941000  0.65631000  0.99053000  1.0 -0.1421811368
C  C24  1  0.42666000  0.61186000  0.92098000  1.0 -0.1303795625
C  C25  1  0.33118000  0.60168000  0.02664000  1.0 -0.1173303763
C  C26  1  0.37073000  0.55305000  0.00945000  1.0 -0.0263064611
C  C27  1  0.39651000  0.71829000  0.90677000  1.0 0.25061051
C  C28  1  0.36698000  0.49264000  0.04974000  1.0 0.5814619678
C  C29  1  0.27920000  0.42072000  0.06294000  1.0 0.25061051
C  C30  1  0.32820000  0.31980000  0.16800000  1.0 0.2411428803
C  C31  1  0.20020000  0.86120000  0.00100000  1.0 -0.0019305481
C  C32  1  0.25650000  0.76750000  0.07350000  1.0 -0.1102693353
C  C33  1  0.16740000  0.83020000  0.05160000  1.0 0.0943155711
C  C34  1  0.28220000  0.80460000  0.02320000  1.0 -0.0135569709
C  C35  1  0.25940000  0.84400000  0.03700000  1.0 -0.0473368033
C  C36  1  0.22960000  0.80940000  0.08960000  1.0 -0.0892510755
C  C37  1  0.19418000  0.79418000  0.03682000  1.0 0.1263389799
C  C38  1  0.22400000  0.82880000  0.98400000  1.0 -0.0181321348
C  C39  1  0.92900000  0.08960000  0.78440000  1.0 -0.1173303763
C  C40  1  0.01168000  0.93928000  0.66142000  1.0 0.0328754794
C  C41  1  0.06805000  0.95595000  0.55827000  1.0 -0.1001995413
C  C42  1  0.01375000  0.99053000  0.65631000  1.0 -0.1421811368
C  C43  1  0.04050000  0.92098000  0.61186000  1.0 -0.1303795625
C  C44  1  0.04050000  0.02664000  0.60168000  1.0 -0.1173303763
C  C45  1  0.06677000  0.00945000  0.55305000  1.0 -0.0263064611
C  C46  1  0.97843000  0.90677000  0.71829000  1.0 0.25061051
C  C47  1  0.09064000  0.04974000  0.49264000  1.0 0.5814619678
C  C48  1  0.23714000  0.06294000  0.42072000  1.0 0.25061051
C  C49  1  0.18400000  0.16800000  0.31980000  1.0 0.2411428803
C  C50  1  0.93760000  0.00100000  0.86120000  1.0 -0.0019305481
C  C51  1  0.90250000  0.07350000  0.76750000  1.0 -0.1102693353
C  C52  1  0.95080000  0.05160000  0.83020000  1.0 0.0943155711
C  C53  1  0.89000000  0.02320000  0.80460000  1.0 -0.0135569709
C  C54  1  0.85960000  0.03700000  0.84400000  1.0 -0.0473368033
C  C55  1  0.87140000  0.08960000  0.80940000  1.0 -0.0892510755
C  C56  1  0.97482000  0.03682000  0.79418000  1.0 0.1263389799
C  C57  1  0.96320000  0.98400000  0.82880000  1.0 -0.0181321348
C  C58  1  0.08960000  0.92900000  0.19700000  1.0 -0.1173303763
C  C59  1  0.93928000  0.01168000  0.38762000  1.0 0.0328754794
C  C60  1  0.95595000  0.06805000  0.41773000  1.0 -0.1001995413
C  C61  1  0.99053000  0.01375000  0.33941000  1.0 -0.1421811368
C  C62  1  0.92098000  0.04050000  0.42666000  1.0 -0.1303795625
C  C63  1  0.02664000  0.04050000  0.33118000  1.0 -0.1173303763
C  C64  1  0.00945000  0.06677000  0.37073000  1.0 -0.0263064611
C  C65  1  0.90677000  0.97843000  0.39651000  1.0 0.25061051
C  C66  1  0.04974000  0.09064000  0.36698000  1.0 0.5814619678
C  C67  1  0.06294000  0.23714000  0.27920000  1.0 0.25061051
C  C68  1  0.16800000  0.18400000  0.32820000  1.0 0.2411428803
C  C69  1  0.00100000  0.93760000  0.20020000  1.0 -0.0019305481
C  C70  1  0.07350000  0.90250000  0.25650000  1.0 -0.1102693353
C  C71  1  0.05160000  0.95080000  0.16740000  1.0 0.0943155711
C  C72  1  0.02320000  0.89000000  0.28220000  1.0 -0.0135569709
C  C73  1  0.03700000  0.85960000  0.25940000  1.0 -0.0473368033
C  C74  1  0.08960000  0.87140000  0.22960000  1.0 -0.0892510755
C  C75  1  0.03682000  0.97482000  0.19418000  1.0 0.1263389799
C  C76  1  0.98400000  0.96320000  0.22400000  1.0 -0.0181321348
C  C77  1  0.08960000  0.19700000  0.78440000  1.0 -0.1173303763
C  C78  1  0.93928000  0.38762000  0.66142000  1.0 0.0328754794
C  C79  1  0.95595000  0.41773000  0.55827000  1.0 -0.1001995413
C  C80  1  0.99053000  0.33941000  0.65631000  1.0 -0.1421811368
C  C81  1  0.92098000  0.42666000  0.61186000  1.0 -0.1303795625
C  C82  1  0.02664000  0.33118000  0.60168000  1.0 -0.1173303763
C  C83  1  0.00945000  0.37073000  0.55305000  1.0 -0.0263064611
C  C84  1  0.90677000  0.39651000  0.71829000  1.0 0.25061051
C  C85  1  0.04974000  0.36698000  0.49264000  1.0 0.5814619678
C  C86  1  0.06294000  0.27920000  0.42072000  1.0 0.25061051
C  C87  1  0.16800000  0.32820000  0.31980000  1.0 0.2411428803
C  C88  1  0.00100000  0.20020000  0.86120000  1.0 -0.0019305481
C  C89  1  0.07350000  0.25650000  0.76750000  1.0 -0.1102693353
C  C90  1  0.05160000  0.16740000  0.83020000  1.0 0.0943155711
C  C91  1  0.02320000  0.28220000  0.80460000  1.0 -0.0135569709
C  C92  1  0.03700000  0.25940000  0.84400000  1.0 -0.0473368033
C  C93  1  0.08960000  0.22960000  0.80940000  1.0 -0.0892510755
C  C94  1  0.03682000  0.19418000  0.79418000  1.0 0.1263389799
C  C95  1  0.98400000  0.22400000  0.82880000  1.0 -0.0181321348
C  C96  1  0.92900000  0.78440000  0.19700000  1.0 -0.1173303763
C  C97  1  0.01168000  0.66142000  0.38762000  1.0 0.0328754794
C  C98  1  0.06805000  0.55827000  0.41773000  1.0 -0.1001995413
C  C99  1  0.01375000  0.65631000  0.33941000  1.0 -0.1421811368
C  C100  1  0.04050000  0.61186000  0.42666000  1.0 -0.1303795625
C  C101  1  0.04050000  0.60168000  0.33118000  1.0 -0.1173303763
C  C102  1  0.06677000  0.55305000  0.37073000  1.0 -0.0263064611
C  C103  1  0.97843000  0.71829000  0.39651000  1.0 0.25061051
C  C104  1  0.09064000  0.49264000  0.36698000  1.0 0.5814619678
C  C105  1  0.23714000  0.42072000  0.27920000  1.0 0.25061051
C  C106  1  0.18400000  0.31980000  0.32820000  1.0 0.2411428803
C  C107  1  0.93760000  0.86120000  0.20020000  1.0 -0.0019305481
C  C108  1  0.90250000  0.76750000  0.25650000  1.0 -0.1102693353
C  C109  1  0.95080000  0.83020000  0.16740000  1.0 0.0943155711
C  C110  1  0.89000000  0.80460000  0.28220000  1.0 -0.0135569709
C  C111  1  0.85960000  0.84400000  0.25940000  1.0 -0.0473368033
C  C112  1  0.87140000  0.80940000  0.22960000  1.0 -0.0892510755
C  C113  1  0.97482000  0.79418000  0.19418000  1.0 0.1263389799
C  C114  1  0.96320000  0.82880000  0.22400000  1.0 -0.0181321348
C  C115  1  0.19700000  0.08960000  0.92900000  1.0 -0.1173303763
C  C116  1  0.38762000  0.93928000  0.01168000  1.0 0.0328754794
C  C117  1  0.41773000  0.95595000  0.06805000  1.0 -0.1001995413
C  C118  1  0.33941000  0.99053000  0.01375000  1.0 -0.1421811368
C  C119  1  0.42666000  0.92098000  0.04050000  1.0 -0.1303795625
C  C120  1  0.33118000  0.02664000  0.04050000  1.0 -0.1173303763
C  C121  1  0.37073000  0.00945000  0.06677000  1.0 -0.0263064611
C  C122  1  0.39651000  0.90677000  0.97843000  1.0 0.25061051
C  C123  1  0.36698000  0.04974000  0.09064000  1.0 0.5814619678
C  C124  1  0.27920000  0.06294000  0.23714000  1.0 0.25061051
C  C125  1  0.32820000  0.16800000  0.18400000  1.0 0.2411428803
C  C126  1  0.20020000  0.00100000  0.93760000  1.0 -0.0019305481
C  C127  1  0.25650000  0.07350000  0.90250000  1.0 -0.1102693353
C  C128  1  0.16740000  0.05160000  0.95080000  1.0 0.0943155711
C  C129  1  0.28220000  0.02320000  0.89000000  1.0 -0.0135569709
C  C130  1  0.25940000  0.03700000  0.85960000  1.0 -0.0473368033
C  C131  1  0.22960000  0.08960000  0.87140000  1.0 -0.0892510755
C  C132  1  0.19418000  0.03682000  0.97482000  1.0 0.1263389799
C  C133  1  0.22400000  0.98400000  0.96320000  1.0 -0.0181321348
C  C134  1  0.78440000  0.92900000  0.08960000  1.0 -0.1173303763
C  C135  1  0.66142000  0.01168000  0.93928000  1.0 0.0328754794
C  C136  1  0.55827000  0.06805000  0.95595000  1.0 -0.1001995413
C  C137  1  0.65631000  0.01375000  0.99053000  1.0 -0.1421811368
C  C138  1  0.61186000  0.04050000  0.92098000  1.0 -0.1303795625
C  C139  1  0.60168000  0.04050000  0.02664000  1.0 -0.1173303763
C  C140  1  0.55305000  0.06677000  0.00945000  1.0 -0.0263064611
C  C141  1  0.71829000  0.97843000  0.90677000  1.0 0.25061051
C  C142  1  0.49264000  0.09064000  0.04974000  1.0 0.5814619678
C  C143  1  0.42072000  0.23714000  0.06294000  1.0 0.25061051
C  C144  1  0.31980000  0.18400000  0.16800000  1.0 0.2411428803
C  C145  1  0.86120000  0.93760000  0.00100000  1.0 -0.0019305481
C  C146  1  0.76750000  0.90250000  0.07350000  1.0 -0.1102693353
C  C147  1  0.83020000  0.95080000  0.05160000  1.0 0.0943155711
C  C148  1  0.80460000  0.89000000  0.02320000  1.0 -0.0135569709
C  C149  1  0.84400000  0.85960000  0.03700000  1.0 -0.0473368033
C  C150  1  0.80940000  0.87140000  0.08960000  1.0 -0.0892510755
C  C151  1  0.79418000  0.97482000  0.03682000  1.0 0.1263389799
C  C152  1  0.82880000  0.96320000  0.98400000  1.0 -0.0181321348
C  C153  1  0.92900000  0.19700000  0.08960000  1.0 -0.1173303763
C  C154  1  0.01168000  0.38762000  0.93928000  1.0 0.0328754794
C  C155  1  0.06805000  0.41773000  0.95595000  1.0 -0.1001995413
C  C156  1  0.01375000  0.33941000  0.99053000  1.0 -0.1421811368
C  C157  1  0.04050000  0.42666000  0.92098000  1.0 -0.1303795625
C  C158  1  0.04050000  0.33118000  0.02664000  1.0 -0.1173303763
C  C159  1  0.06677000  0.37073000  0.00945000  1.0 -0.0263064611
C  C160  1  0.97843000  0.39651000  0.90677000  1.0 0.25061051
C  C161  1  0.09064000  0.36698000  0.04974000  1.0 0.5814619678
C  C162  1  0.23714000  0.27920000  0.06294000  1.0 0.25061051
C  C163  1  0.18400000  0.32820000  0.16800000  1.0 0.2411428803
C  C164  1  0.93760000  0.20020000  0.00100000  1.0 -0.0019305481
C  C165  1  0.90250000  0.25650000  0.07350000  1.0 -0.1102693353
C  C166  1  0.95080000  0.16740000  0.05160000  1.0 0.0943155711
C  C167  1  0.89000000  0.28220000  0.02320000  1.0 -0.0135569709
C  C168  1  0.85960000  0.25940000  0.03700000  1.0 -0.0473368033
C  C169  1  0.87140000  0.22960000  0.08960000  1.0 -0.0892510755
C  C170  1  0.97482000  0.19418000  0.03682000  1.0 0.1263389799
C  C171  1  0.96320000  0.22400000  0.98400000  1.0 -0.0181321348
C  C172  1  0.08960000  0.78440000  0.92900000  1.0 -0.1173303763
C  C173  1  0.93928000  0.66142000  0.01168000  1.0 0.0328754794
C  C174  1  0.95595000  0.55827000  0.06805000  1.0 -0.1001995413
C  C175  1  0.99053000  0.65631000  0.01375000  1.0 -0.1421811368
C  C176  1  0.92098000  0.61186000  0.04050000  1.0 -0.1303795625
C  C177  1  0.02664000  0.60168000  0.04050000  1.0 -0.1173303763
C  C178  1  0.00945000  0.55305000  0.06677000  1.0 -0.0263064611
C  C179  1  0.90677000  0.71829000  0.97843000  1.0 0.25061051
C  C180  1  0.04974000  0.49264000  0.09064000  1.0 0.5814619678
C  C181  1  0.06294000  0.42072000  0.23714000  1.0 0.25061051
C  C182  1  0.16800000  0.31980000  0.18400000  1.0 0.2411428803
C  C183  1  0.00100000  0.86120000  0.93760000  1.0 -0.0019305481
C  C184  1  0.07350000  0.76750000  0.90250000  1.0 -0.1102693353
C  C185  1  0.05160000  0.83020000  0.95080000  1.0 0.0943155711
C  C186  1  0.02320000  0.80460000  0.89000000  1.0 -0.0135569709
C  C187  1  0.03700000  0.84400000  0.85960000  1.0 -0.0473368033
C  C188  1  0.08960000  0.80940000  0.87140000  1.0 -0.0892510755
C  C189  1  0.03682000  0.79418000  0.97482000  1.0 0.1263389799
C  C190  1  0.98400000  0.82880000  0.96320000  1.0 -0.0181321348
C  C191  1  0.78440000  0.08960000  0.19700000  1.0 -0.1173303763
C  C192  1  0.66142000  0.93928000  0.38762000  1.0 0.0328754794
C  C193  1  0.55827000  0.95595000  0.41773000  1.0 -0.1001995413
C  C194  1  0.65631000  0.99053000  0.33941000  1.0 -0.1421811368
C  C195  1  0.61186000  0.92098000  0.42666000  1.0 -0.1303795625
C  C196  1  0.60168000  0.02664000  0.33118000  1.0 -0.1173303763
C  C197  1  0.55305000  0.00945000  0.37073000  1.0 -0.0263064611
C  C198  1  0.71829000  0.90677000  0.39651000  1.0 0.25061051
C  C199  1  0.49264000  0.04974000  0.36698000  1.0 0.5814619678
C  C200  1  0.42072000  0.06294000  0.27920000  1.0 0.25061051
C  C201  1  0.31980000  0.16800000  0.32820000  1.0 0.2411428803
C  C202  1  0.86120000  0.00100000  0.20020000  1.0 -0.0019305481
C  C203  1  0.76750000  0.07350000  0.25650000  1.0 -0.1102693353
C  C204  1  0.83020000  0.05160000  0.16740000  1.0 0.0943155711
C  C205  1  0.80460000  0.02320000  0.28220000  1.0 -0.0135569709
C  C206  1  0.84400000  0.03700000  0.25940000  1.0 -0.0473368033
C  C207  1  0.80940000  0.08960000  0.22960000  1.0 -0.0892510755
C  C208  1  0.79418000  0.03682000  0.19418000  1.0 0.1263389799
C  C209  1  0.82880000  0.98400000  0.22400000  1.0 -0.0181321348
C  C210  1  0.19700000  0.92900000  0.78440000  1.0 -0.1173303763
C  C211  1  0.38762000  0.01168000  0.66142000  1.0 0.0328754794
C  C212  1  0.41773000  0.06805000  0.55827000  1.0 -0.1001995413
C  C213  1  0.33941000  0.01375000  0.65631000  1.0 -0.1421811368
C  C214  1  0.42666000  0.04050000  0.61186000  1.0 -0.1303795625
C  C215  1  0.33118000  0.04050000  0.60168000  1.0 -0.1173303763
C  C216  1  0.37073000  0.06677000  0.55305000  1.0 -0.0263064611
C  C217  1  0.39651000  0.97843000  0.71829000  1.0 0.25061051
C  C218  1  0.36698000  0.09064000  0.49264000  1.0 0.5814619678
C  C219  1  0.27920000  0.23714000  0.42072000  1.0 0.25061051
C  C220  1  0.32820000  0.18400000  0.31980000  1.0 0.2411428803
C  C221  1  0.20020000  0.93760000  0.86120000  1.0 -0.0019305481
C  C222  1  0.25650000  0.90250000  0.76750000  1.0 -0.1102693353
C  C223  1  0.16740000  0.95080000  0.83020000  1.0 0.0943155711
C  C224  1  0.28220000  0.89000000  0.80460000  1.0 -0.0135569709
C  C225  1  0.25940000  0.85960000  0.84400000  1.0 -0.0473368033
C  C226  1  0.22960000  0.87140000  0.80940000  1.0 -0.0892510755
C  C227  1  0.19418000  0.97482000  0.79418000  1.0 0.1263389799
C  C228  1  0.22400000  0.96320000  0.82880000  1.0 -0.0181321348
C  C229  1  0.28440000  0.69700000  0.58960000  1.0 -0.1173303763
C  C230  1  0.16142000  0.88762000  0.43928000  1.0 0.0328754794
C  C231  1  0.05827000  0.91773000  0.45595000  1.0 -0.1001995413
C  C232  1  0.15631000  0.83941000  0.49053000  1.0 -0.1421811368
C  C233  1  0.11186000  0.92666000  0.42098000  1.0 -0.1303795625
C  C234  1  0.10168000  0.83118000  0.52664000  1.0 -0.1173303763
C  C235  1  0.05305000  0.87073000  0.50945000  1.0 -0.0263064611
C  C236  1  0.21829000  0.89651000  0.40677000  1.0 0.25061051
C  C237  1  0.99264000  0.86698000  0.54974000  1.0 0.5814619678
C  C238  1  0.92072000  0.77920000  0.56294000  1.0 0.25061051
C  C239  1  0.81980000  0.82820000  0.66800000  1.0 0.2411428803
C  C240  1  0.36120000  0.70020000  0.50100000  1.0 -0.0019305481
C  C241  1  0.26750000  0.75650000  0.57350000  1.0 -0.1102693353
C  C242  1  0.33020000  0.66740000  0.55160000  1.0 0.0943155711
C  C243  1  0.30460000  0.78220000  0.52320000  1.0 -0.0135569709
C  C244  1  0.34400000  0.75940000  0.53700000  1.0 -0.0473368033
C  C245  1  0.30940000  0.72960000  0.58960000  1.0 -0.0892510755
C  C246  1  0.29418000  0.69418000  0.53682000  1.0 0.1263389799
C  C247  1  0.32880000  0.72400000  0.48400000  1.0 -0.0181321348
C  C248  1  0.69700000  0.28440000  0.42900000  1.0 -0.1173303763
C  C249  1  0.88762000  0.16142000  0.51168000  1.0 0.0328754794
C  C250  1  0.91773000  0.05827000  0.56805000  1.0 -0.1001995413
C  C251  1  0.83941000  0.15631000  0.51375000  1.0 -0.1421811368
C  C252  1  0.92666000  0.11186000  0.54050000  1.0 -0.1303795625
C  C253  1  0.83118000  0.10168000  0.54050000  1.0 -0.1173303763
C  C254  1  0.87073000  0.05305000  0.56677000  1.0 -0.0263064611
C  C255  1  0.89651000  0.21829000  0.47843000  1.0 0.25061051
C  C256  1  0.86698000  0.99264000  0.59064000  1.0 0.5814619678
C  C257  1  0.77920000  0.92072000  0.73714000  1.0 0.25061051
C  C258  1  0.82820000  0.81980000  0.68400000  1.0 0.2411428803
C  C259  1  0.70020000  0.36120000  0.43760000  1.0 -0.0019305481
C  C260  1  0.75650000  0.26750000  0.40250000  1.0 -0.1102693353
C  C261  1  0.66740000  0.33020000  0.45080000  1.0 0.0943155711
C  C262  1  0.78220000  0.30460000  0.39000000  1.0 -0.0135569709
C  C263  1  0.75940000  0.34400000  0.35960000  1.0 -0.0473368033
C  C264  1  0.72960000  0.30940000  0.37140000  1.0 -0.0892510755
C  C265  1  0.69418000  0.29418000  0.47482000  1.0 0.1263389799
C  C266  1  0.72400000  0.32880000  0.46320000  1.0 -0.0181321348
C  C267  1  0.42900000  0.58960000  0.69700000  1.0 -0.1173303763
C  C268  1  0.51168000  0.43928000  0.88762000  1.0 0.0328754794
C  C269  1  0.56805000  0.45595000  0.91773000  1.0 -0.1001995413
C  C270  1  0.51375000  0.49053000  0.83941000  1.0 -0.1421811368
C  C271  1  0.54050000  0.42098000  0.92666000  1.0 -0.1303795625
C  C272  1  0.54050000  0.52664000  0.83118000  1.0 -0.1173303763
C  C273  1  0.56677000  0.50945000  0.87073000  1.0 -0.0263064611
C  C274  1  0.47843000  0.40677000  0.89651000  1.0 0.25061051
C  C275  1  0.59064000  0.54974000  0.86698000  1.0 0.5814619678
C  C276  1  0.73714000  0.56294000  0.77920000  1.0 0.25061051
C  C277  1  0.68400000  0.66800000  0.82820000  1.0 0.2411428803
C  C278  1  0.43760000  0.50100000  0.70020000  1.0 -0.0019305481
C  C279  1  0.40250000  0.57350000  0.75650000  1.0 -0.1102693353
C  C280  1  0.45080000  0.55160000  0.66740000  1.0 0.0943155711
C  C281  1  0.39000000  0.52320000  0.78220000  1.0 -0.0135569709
C  C282  1  0.35960000  0.53700000  0.75940000  1.0 -0.0473368033
C  C283  1  0.37140000  0.58960000  0.72960000  1.0 -0.0892510755
C  C284  1  0.47482000  0.53682000  0.69418000  1.0 0.1263389799
C  C285  1  0.46320000  0.48400000  0.72400000  1.0 -0.0181321348
C  C286  1  0.58960000  0.42900000  0.28440000  1.0 -0.1173303763
C  C287  1  0.43928000  0.51168000  0.16142000  1.0 0.0328754794
C  C288  1  0.45595000  0.56805000  0.05827000  1.0 -0.1001995413
C  C289  1  0.49053000  0.51375000  0.15631000  1.0 -0.1421811368
C  C290  1  0.42098000  0.54050000  0.11186000  1.0 -0.1303795625
C  C291  1  0.52664000  0.54050000  0.10168000  1.0 -0.1173303763
C  C292  1  0.50945000  0.56677000  0.05305000  1.0 -0.0263064611
C  C293  1  0.40677000  0.47843000  0.21829000  1.0 0.25061051
C  C294  1  0.54974000  0.59064000  0.99264000  1.0 0.5814619678
C  C295  1  0.56294000  0.73714000  0.92072000  1.0 0.25061051
C  C296  1  0.66800000  0.68400000  0.81980000  1.0 0.2411428803
C  C297  1  0.50100000  0.43760000  0.36120000  1.0 -0.0019305481
C  C298  1  0.57350000  0.40250000  0.26750000  1.0 -0.1102693353
C  C299  1  0.55160000  0.45080000  0.33020000  1.0 0.0943155711
C  C300  1  0.52320000  0.39000000  0.30460000  1.0 -0.0135569709
C  C301  1  0.53700000  0.35960000  0.34400000  1.0 -0.0473368033
C  C302  1  0.58960000  0.37140000  0.30940000  1.0 -0.0892510755
C  C303  1  0.53682000  0.47482000  0.29418000  1.0 0.1263389799
C  C304  1  0.48400000  0.46320000  0.32880000  1.0 -0.0181321348
C  C305  1  0.58960000  0.69700000  0.42900000  1.0 -0.1173303763
C  C306  1  0.43928000  0.88762000  0.51168000  1.0 0.0328754794
C  C307  1  0.45595000  0.91773000  0.56805000  1.0 -0.1001995413
C  C308  1  0.49053000  0.83941000  0.51375000  1.0 -0.1421811368
C  C309  1  0.42098000  0.92666000  0.54050000  1.0 -0.1303795625
C  C310  1  0.52664000  0.83118000  0.54050000  1.0 -0.1173303763
C  C311  1  0.50945000  0.87073000  0.56677000  1.0 -0.0263064611
C  C312  1  0.40677000  0.89651000  0.47843000  1.0 0.25061051
C  C313  1  0.54974000  0.86698000  0.59064000  1.0 0.5814619678
C  C314  1  0.56294000  0.77920000  0.73714000  1.0 0.25061051
C  C315  1  0.66800000  0.82820000  0.68400000  1.0 0.2411428803
C  C316  1  0.50100000  0.70020000  0.43760000  1.0 -0.0019305481
C  C317  1  0.57350000  0.75650000  0.40250000  1.0 -0.1102693353
C  C318  1  0.55160000  0.66740000  0.45080000  1.0 0.0943155711
C  C319  1  0.52320000  0.78220000  0.39000000  1.0 -0.0135569709
C  C320  1  0.53700000  0.75940000  0.35960000  1.0 -0.0473368033
C  C321  1  0.58960000  0.72960000  0.37140000  1.0 -0.0892510755
C  C322  1  0.53682000  0.69418000  0.47482000  1.0 0.1263389799
C  C323  1  0.48400000  0.72400000  0.46320000  1.0 -0.0181321348
C  C324  1  0.42900000  0.28440000  0.58960000  1.0 -0.1173303763
C  C325  1  0.51168000  0.16142000  0.43928000  1.0 0.0328754794
C  C326  1  0.56805000  0.05827000  0.45595000  1.0 -0.1001995413
C  C327  1  0.51375000  0.15631000  0.49053000  1.0 -0.1421811368
C  C328  1  0.54050000  0.11186000  0.42098000  1.0 -0.1303795625
C  C329  1  0.54050000  0.10168000  0.52664000  1.0 -0.1173303763
C  C330  1  0.56677000  0.05305000  0.50945000  1.0 -0.0263064611
C  C331  1  0.47843000  0.21829000  0.40677000  1.0 0.25061051
C  C332  1  0.59064000  0.99264000  0.54974000  1.0 0.5814619678
C  C333  1  0.73714000  0.92072000  0.56294000  1.0 0.25061051
C  C334  1  0.68400000  0.81980000  0.66800000  1.0 0.2411428803
C  C335  1  0.43760000  0.36120000  0.50100000  1.0 -0.0019305481
C  C336  1  0.40250000  0.26750000  0.57350000  1.0 -0.1102693353
C  C337  1  0.45080000  0.33020000  0.55160000  1.0 0.0943155711
C  C338  1  0.39000000  0.30460000  0.52320000  1.0 -0.0135569709
C  C339  1  0.35960000  0.34400000  0.53700000  1.0 -0.0473368033
C  C340  1  0.37140000  0.30940000  0.58960000  1.0 -0.0892510755
C  C341  1  0.47482000  0.29418000  0.53682000  1.0 0.1263389799
C  C342  1  0.46320000  0.32880000  0.48400000  1.0 -0.0181321348
C  C343  1  0.69700000  0.58960000  0.28440000  1.0 -0.1173303763
C  C344  1  0.88762000  0.43928000  0.16142000  1.0 0.0328754794
C  C345  1  0.91773000  0.45595000  0.05827000  1.0 -0.1001995413
C  C346  1  0.83941000  0.49053000  0.15631000  1.0 -0.1421811368
C  C347  1  0.92666000  0.42098000  0.11186000  1.0 -0.1303795625
C  C348  1  0.83118000  0.52664000  0.10168000  1.0 -0.1173303763
C  C349  1  0.87073000  0.50945000  0.05305000  1.0 -0.0263064611
C  C350  1  0.89651000  0.40677000  0.21829000  1.0 0.25061051
C  C351  1  0.86698000  0.54974000  0.99264000  1.0 0.5814619678
C  C352  1  0.77920000  0.56294000  0.92072000  1.0 0.25061051
C  C353  1  0.82820000  0.66800000  0.81980000  1.0 0.2411428803
C  C354  1  0.70020000  0.50100000  0.36120000  1.0 -0.0019305481
C  C355  1  0.75650000  0.57350000  0.26750000  1.0 -0.1102693353
C  C356  1  0.66740000  0.55160000  0.33020000  1.0 0.0943155711
C  C357  1  0.78220000  0.52320000  0.30460000  1.0 -0.0135569709
C  C358  1  0.75940000  0.53700000  0.34400000  1.0 -0.0473368033
C  C359  1  0.72960000  0.58960000  0.30940000  1.0 -0.0892510755
C  C360  1  0.69418000  0.53682000  0.29418000  1.0 0.1263389799
C  C361  1  0.72400000  0.48400000  0.32880000  1.0 -0.0181321348
C  C362  1  0.28440000  0.42900000  0.69700000  1.0 -0.1173303763
C  C363  1  0.16142000  0.51168000  0.88762000  1.0 0.0328754794
C  C364  1  0.05827000  0.56805000  0.91773000  1.0 -0.1001995413
C  C365  1  0.15631000  0.51375000  0.83941000  1.0 -0.1421811368
C  C366  1  0.11186000  0.54050000  0.92666000  1.0 -0.1303795625
C  C367  1  0.10168000  0.54050000  0.83118000  1.0 -0.1173303763
C  C368  1  0.05305000  0.56677000  0.87073000  1.0 -0.0263064611
C  C369  1  0.21829000  0.47843000  0.89651000  1.0 0.25061051
C  C370  1  0.99264000  0.59064000  0.86698000  1.0 0.5814619678
C  C371  1  0.92072000  0.73714000  0.77920000  1.0 0.25061051
C  C372  1  0.81980000  0.68400000  0.82820000  1.0 0.2411428803
C  C373  1  0.36120000  0.43760000  0.70020000  1.0 -0.0019305481
C  C374  1  0.26750000  0.40250000  0.75650000  1.0 -0.1102693353
C  C375  1  0.33020000  0.45080000  0.66740000  1.0 0.0943155711
C  C376  1  0.30460000  0.39000000  0.78220000  1.0 -0.0135569709
C  C377  1  0.34400000  0.35960000  0.75940000  1.0 -0.0473368033
C  C378  1  0.30940000  0.37140000  0.72960000  1.0 -0.0892510755
C  C379  1  0.29418000  0.47482000  0.69418000  1.0 0.1263389799
C  C380  1  0.32880000  0.46320000  0.72400000  1.0 -0.0181321348
C  C381  1  0.42900000  0.69700000  0.28440000  1.0 -0.1173303763
C  C382  1  0.51168000  0.88762000  0.16142000  1.0 0.0328754794
C  C383  1  0.56805000  0.91773000  0.05827000  1.0 -0.1001995413
C  C384  1  0.51375000  0.83941000  0.15631000  1.0 -0.1421811368
C  C385  1  0.54050000  0.92666000  0.11186000  1.0 -0.1303795625
C  C386  1  0.54050000  0.83118000  0.10168000  1.0 -0.1173303763
C  C387  1  0.56677000  0.87073000  0.05305000  1.0 -0.0263064611
C  C388  1  0.47843000  0.89651000  0.21829000  1.0 0.25061051
C  C389  1  0.59064000  0.86698000  0.99264000  1.0 0.5814619678
C  C390  1  0.73714000  0.77920000  0.92072000  1.0 0.25061051
C  C391  1  0.68400000  0.82820000  0.81980000  1.0 0.2411428803
C  C392  1  0.43760000  0.70020000  0.36120000  1.0 -0.0019305481
C  C393  1  0.40250000  0.75650000  0.26750000  1.0 -0.1102693353
C  C394  1  0.45080000  0.66740000  0.33020000  1.0 0.0943155711
C  C395  1  0.39000000  0.78220000  0.30460000  1.0 -0.0135569709
C  C396  1  0.35960000  0.75940000  0.34400000  1.0 -0.0473368033
C  C397  1  0.37140000  0.72960000  0.30940000  1.0 -0.0892510755
C  C398  1  0.47482000  0.69418000  0.29418000  1.0 0.1263389799
C  C399  1  0.46320000  0.72400000  0.32880000  1.0 -0.0181321348
C  C400  1  0.58960000  0.28440000  0.69700000  1.0 -0.1173303763
C  C401  1  0.43928000  0.16142000  0.88762000  1.0 0.0328754794
C  C402  1  0.45595000  0.05827000  0.91773000  1.0 -0.1001995413
C  C403  1  0.49053000  0.15631000  0.83941000  1.0 -0.1421811368
C  C404  1  0.42098000  0.11186000  0.92666000  1.0 -0.1303795625
C  C405  1  0.52664000  0.10168000  0.83118000  1.0 -0.1173303763
C  C406  1  0.50945000  0.05305000  0.87073000  1.0 -0.0263064611
C  C407  1  0.40677000  0.21829000  0.89651000  1.0 0.25061051
C  C408  1  0.54974000  0.99264000  0.86698000  1.0 0.5814619678
C  C409  1  0.56294000  0.92072000  0.77920000  1.0 0.25061051
C  C410  1  0.66800000  0.81980000  0.82820000  1.0 0.2411428803
C  C411  1  0.50100000  0.36120000  0.70020000  1.0 -0.0019305481
C  C412  1  0.57350000  0.26750000  0.75650000  1.0 -0.1102693353
C  C413  1  0.55160000  0.33020000  0.66740000  1.0 0.0943155711
C  C414  1  0.52320000  0.30460000  0.78220000  1.0 -0.0135569709
C  C415  1  0.53700000  0.34400000  0.75940000  1.0 -0.0473368033
C  C416  1  0.58960000  0.30940000  0.72960000  1.0 -0.0892510755
C  C417  1  0.53682000  0.29418000  0.69418000  1.0 0.1263389799
C  C418  1  0.48400000  0.32880000  0.72400000  1.0 -0.0181321348
C  C419  1  0.28440000  0.58960000  0.42900000  1.0 -0.1173303763
C  C420  1  0.16142000  0.43928000  0.51168000  1.0 0.0328754794
C  C421  1  0.05827000  0.45595000  0.56805000  1.0 -0.1001995413
C  C422  1  0.15631000  0.49053000  0.51375000  1.0 -0.1421811368
C  C423  1  0.11186000  0.42098000  0.54050000  1.0 -0.1303795625
C  C424  1  0.10168000  0.52664000  0.54050000  1.0 -0.1173303763
C  C425  1  0.05305000  0.50945000  0.56677000  1.0 -0.0263064611
C  C426  1  0.21829000  0.40677000  0.47843000  1.0 0.25061051
C  C427  1  0.99264000  0.54974000  0.59064000  1.0 0.5814619678
C  C428  1  0.92072000  0.56294000  0.73714000  1.0 0.25061051
C  C429  1  0.81980000  0.66800000  0.68400000  1.0 0.2411428803
C  C430  1  0.36120000  0.50100000  0.43760000  1.0 -0.0019305481
C  C431  1  0.26750000  0.57350000  0.40250000  1.0 -0.1102693353
C  C432  1  0.33020000  0.55160000  0.45080000  1.0 0.0943155711
C  C433  1  0.30460000  0.52320000  0.39000000  1.0 -0.0135569709
C  C434  1  0.34400000  0.53700000  0.35960000  1.0 -0.0473368033
C  C435  1  0.30940000  0.58960000  0.37140000  1.0 -0.0892510755
C  C436  1  0.29418000  0.53682000  0.47482000  1.0 0.1263389799
C  C437  1  0.32880000  0.48400000  0.46320000  1.0 -0.0181321348
C  C438  1  0.69700000  0.42900000  0.58960000  1.0 -0.1173303763
C  C439  1  0.88762000  0.51168000  0.43928000  1.0 0.0328754794
C  C440  1  0.91773000  0.56805000  0.45595000  1.0 -0.1001995413
C  C441  1  0.83941000  0.51375000  0.49053000  1.0 -0.1421811368
C  C442  1  0.92666000  0.54050000  0.42098000  1.0 -0.1303795625
C  C443  1  0.83118000  0.54050000  0.52664000  1.0 -0.1173303763
C  C444  1  0.87073000  0.56677000  0.50945000  1.0 -0.0263064611
C  C445  1  0.89651000  0.47843000  0.40677000  1.0 0.25061051
C  C446  1  0.86698000  0.59064000  0.54974000  1.0 0.5814619678
C  C447  1  0.77920000  0.73714000  0.56294000  1.0 0.25061051
C  C448  1  0.82820000  0.68400000  0.66800000  1.0 0.2411428803
C  C449  1  0.70020000  0.43760000  0.50100000  1.0 -0.0019305481
C  C450  1  0.75650000  0.40250000  0.57350000  1.0 -0.1102693353
C  C451  1  0.66740000  0.45080000  0.55160000  1.0 0.0943155711
C  C452  1  0.78220000  0.39000000  0.52320000  1.0 -0.0135569709
C  C453  1  0.75940000  0.35960000  0.53700000  1.0 -0.0473368033
C  C454  1  0.72960000  0.37140000  0.58960000  1.0 -0.0892510755
C  C455  1  0.69418000  0.47482000  0.53682000  1.0 0.1263389799
C  C456  1  0.72400000  0.46320000  0.48400000  1.0 -0.0181321348
N  N1  1  0.72808000  0.44824000  0.94460000  1.0 -0.2686057674
N  N2  1  0.78715000  0.43289000  0.91833000  1.0 -0.0691647057
N  N3  1  0.81093000  0.37501000  0.93647000  1.0 -0.0892510755
N  N4  1  0.76821000  0.35115000  0.97483000  1.0 -0.2921865817
N  N5  1  0.85367000  0.25655000  0.90561000  1.0 -0.2028542545
N  N6  1  0.84580000  0.10660000  0.98280000  1.0 -0.597259545
N  N7  1  0.76000000  0.16780000  0.02940000  1.0 -0.537640461
N  N8  1  0.44824000  0.72808000  0.87908000  1.0 -0.2686057674
N  N9  1  0.43289000  0.78715000  0.86163000  1.0 -0.0691647057
N  N10  1  0.37501000  0.81093000  0.87759000  1.0 -0.0892510755
N  N11  1  0.35115000  0.76821000  0.90581000  1.0 -0.2921865817
N  N12  1  0.25655000  0.85367000  0.98417000  1.0 -0.2028542545
N  N13  1  0.10660000  0.84580000  0.06480000  1.0 -0.597259545
N  N14  1  0.16780000  0.76000000  0.04280000  1.0 -0.537640461
N  N15  1  0.94460000  0.87908000  0.72808000  1.0 -0.2686057674
N  N16  1  0.91833000  0.86163000  0.78715000  1.0 -0.0691647057
N  N17  1  0.93647000  0.87759000  0.81093000  1.0 -0.0892510755
N  N18  1  0.97483000  0.90581000  0.76821000  1.0 -0.2921865817
N  N19  1  0.90561000  0.98417000  0.85367000  1.0 -0.2028542545
N  N20  1  0.98280000  0.06480000  0.84580000  1.0 -0.597259545
N  N21  1  0.02940000  0.04280000  0.76000000  1.0 -0.537640461
N  N22  1  0.87908000  0.94460000  0.44824000  1.0 -0.2686057674
N  N23  1  0.86163000  0.91833000  0.43289000  1.0 -0.0691647057
N  N24  1  0.87759000  0.93647000  0.37501000  1.0 -0.0892510755
N  N25  1  0.90581000  0.97483000  0.35115000  1.0 -0.2921865817
N  N26  1  0.98417000  0.90561000  0.25655000  1.0 -0.2028542545
N  N27  1  0.06480000  0.98280000  0.10660000  1.0 -0.597259545
N  N28  1  0.04280000  0.02940000  0.16780000  1.0 -0.537640461
N  N29  1  0.87908000  0.44824000  0.72808000  1.0 -0.2686057674
N  N30  1  0.86163000  0.43289000  0.78715000  1.0 -0.0691647057
N  N31  1  0.87759000  0.37501000  0.81093000  1.0 -0.0892510755
N  N32  1  0.90581000  0.35115000  0.76821000  1.0 -0.2921865817
N  N33  1  0.98417000  0.25655000  0.85367000  1.0 -0.2028542545
N  N34  1  0.06480000  0.10660000  0.84580000  1.0 -0.597259545
N  N35  1  0.04280000  0.16780000  0.76000000  1.0 -0.537640461
N  N36  1  0.94460000  0.72808000  0.44824000  1.0 -0.2686057674
N  N37  1  0.91833000  0.78715000  0.43289000  1.0 -0.0691647057
N  N38  1  0.93647000  0.81093000  0.37501000  1.0 -0.0892510755
N  N39  1  0.97483000  0.76821000  0.35115000  1.0 -0.2921865817
N  N40  1  0.90561000  0.85367000  0.25655000  1.0 -0.2028542545
N  N41  1  0.98280000  0.84580000  0.10660000  1.0 -0.597259545
N  N42  1  0.02940000  0.76000000  0.16780000  1.0 -0.537640461
N  N43  1  0.44824000  0.87908000  0.94460000  1.0 -0.2686057674
N  N44  1  0.43289000  0.86163000  0.91833000  1.0 -0.0691647057
N  N45  1  0.37501000  0.87759000  0.93647000  1.0 -0.0892510755
N  N46  1  0.35115000  0.90581000  0.97483000  1.0 -0.2921865817
N  N47  1  0.25655000  0.98417000  0.90561000  1.0 -0.2028542545
N  N48  1  0.10660000  0.06480000  0.98280000  1.0 -0.597259545
N  N49  1  0.16780000  0.04280000  0.02940000  1.0 -0.537640461
N  N50  1  0.72808000  0.94460000  0.87908000  1.0 -0.2686057674
N  N51  1  0.78715000  0.91833000  0.86163000  1.0 -0.0691647057
N  N52  1  0.81093000  0.93647000  0.87759000  1.0 -0.0892510755
N  N53  1  0.76821000  0.97483000  0.90581000  1.0 -0.2921865817
N  N54  1  0.85367000  0.90561000  0.98417000  1.0 -0.2028542545
N  N55  1  0.84580000  0.98280000  0.06480000  1.0 -0.597259545
N  N56  1  0.76000000  0.02940000  0.04280000  1.0 -0.537640461
N  N57  1  0.94460000  0.44824000  0.87908000  1.0 -0.2686057674
N  N58  1  0.91833000  0.43289000  0.86163000  1.0 -0.0691647057
N  N59  1  0.93647000  0.37501000  0.87759000  1.0 -0.0892510755
N  N60  1  0.97483000  0.35115000  0.90581000  1.0 -0.2921865817
N  N61  1  0.90561000  0.25655000  0.98417000  1.0 -0.2028542545
N  N62  1  0.98280000  0.10660000  0.06480000  1.0 -0.597259545
N  N63  1  0.02940000  0.16780000  0.04280000  1.0 -0.537640461
N  N64  1  0.87908000  0.72808000  0.94460000  1.0 -0.2686057674
N  N65  1  0.86163000  0.78715000  0.91833000  1.0 -0.0691647057
N  N66  1  0.87759000  0.81093000  0.93647000  1.0 -0.0892510755
N  N67  1  0.90581000  0.76821000  0.97483000  1.0 -0.2921865817
N  N68  1  0.98417000  0.85367000  0.90561000  1.0 -0.2028542545
N  N69  1  0.06480000  0.84580000  0.98280000  1.0 -0.597259545
N  N70  1  0.04280000  0.76000000  0.02940000  1.0 -0.537640461
N  N71  1  0.72808000  0.87908000  0.44824000  1.0 -0.2686057674
N  N72  1  0.78715000  0.86163000  0.43289000  1.0 -0.0691647057
N  N73  1  0.81093000  0.87759000  0.37501000  1.0 -0.0892510755
N  N74  1  0.76821000  0.90581000  0.35115000  1.0 -0.2921865817
N  N75  1  0.85367000  0.98417000  0.25655000  1.0 -0.2028542545
N  N76  1  0.84580000  0.06480000  0.10660000  1.0 -0.597259545
N  N77  1  0.76000000  0.04280000  0.16780000  1.0 -0.537640461
N  N78  1  0.44824000  0.94460000  0.72808000  1.0 -0.2686057674
N  N79  1  0.43289000  0.91833000  0.78715000  1.0 -0.0691647057
N  N80  1  0.37501000  0.93647000  0.81093000  1.0 -0.0892510755
N  N81  1  0.35115000  0.97483000  0.76821000  1.0 -0.2921865817
N  N82  1  0.25655000  0.90561000  0.85367000  1.0 -0.2028542545
N  N83  1  0.10660000  0.98280000  0.84580000  1.0 -0.597259545
N  N84  1  0.16780000  0.02940000  0.76000000  1.0 -0.537640461
N  N85  1  0.22808000  0.94824000  0.37908000  1.0 -0.2686057674
N  N86  1  0.28715000  0.93289000  0.36163000  1.0 -0.0691647057
N  N87  1  0.31093000  0.87501000  0.37759000  1.0 -0.0892510755
N  N88  1  0.26821000  0.85115000  0.40581000  1.0 -0.2921865817
N  N89  1  0.35367000  0.75655000  0.48417000  1.0 -0.2028542545
N  N90  1  0.34580000  0.60660000  0.56480000  1.0 -0.597259545
N  N91  1  0.26000000  0.66780000  0.54280000  1.0 -0.537640461
N  N92  1  0.94824000  0.22808000  0.44460000  1.0 -0.2686057674
N  N93  1  0.93289000  0.28715000  0.41833000  1.0 -0.0691647057
N  N94  1  0.87501000  0.31093000  0.43647000  1.0 -0.0892510755
N  N95  1  0.85115000  0.26821000  0.47483000  1.0 -0.2921865817
N  N96  1  0.75655000  0.35367000  0.40561000  1.0 -0.2028542545
N  N97  1  0.60660000  0.34580000  0.48280000  1.0 -0.597259545
N  N98  1  0.66780000  0.26000000  0.52940000  1.0 -0.537640461
N  N99  1  0.44460000  0.37908000  0.94824000  1.0 -0.2686057674
N  N100  1  0.41833000  0.36163000  0.93289000  1.0 -0.0691647057
N  N101  1  0.43647000  0.37759000  0.87501000  1.0 -0.0892510755
N  N102  1  0.47483000  0.40581000  0.85115000  1.0 -0.2921865817
N  N103  1  0.40561000  0.48417000  0.75655000  1.0 -0.2028542545
N  N104  1  0.48280000  0.56480000  0.60660000  1.0 -0.597259545
N  N105  1  0.52940000  0.54280000  0.66780000  1.0 -0.537640461
N  N106  1  0.37908000  0.44460000  0.22808000  1.0 -0.2686057674
N  N107  1  0.36163000  0.41833000  0.28715000  1.0 -0.0691647057
N  N108  1  0.37759000  0.43647000  0.31093000  1.0 -0.0892510755
N  N109  1  0.40581000  0.47483000  0.26821000  1.0 -0.2921865817
N  N110  1  0.48417000  0.40561000  0.35367000  1.0 -0.2028542545
N  N111  1  0.56480000  0.48280000  0.34580000  1.0 -0.597259545
N  N112  1  0.54280000  0.52940000  0.26000000  1.0 -0.537640461
N  N113  1  0.37908000  0.94824000  0.44460000  1.0 -0.2686057674
N  N114  1  0.36163000  0.93289000  0.41833000  1.0 -0.0691647057
N  N115  1  0.37759000  0.87501000  0.43647000  1.0 -0.0892510755
N  N116  1  0.40581000  0.85115000  0.47483000  1.0 -0.2921865817
N  N117  1  0.48417000  0.75655000  0.40561000  1.0 -0.2028542545
N  N118  1  0.56480000  0.60660000  0.48280000  1.0 -0.597259545
N  N119  1  0.54280000  0.66780000  0.52940000  1.0 -0.537640461
N  N120  1  0.44460000  0.22808000  0.37908000  1.0 -0.2686057674
N  N121  1  0.41833000  0.28715000  0.36163000  1.0 -0.0691647057
N  N122  1  0.43647000  0.31093000  0.37759000  1.0 -0.0892510755
N  N123  1  0.47483000  0.26821000  0.40581000  1.0 -0.2921865817
N  N124  1  0.40561000  0.35367000  0.48417000  1.0 -0.2028542545
N  N125  1  0.48280000  0.34580000  0.56480000  1.0 -0.597259545
N  N126  1  0.52940000  0.26000000  0.54280000  1.0 -0.537640461
N  N127  1  0.94824000  0.37908000  0.22808000  1.0 -0.2686057674
N  N128  1  0.93289000  0.36163000  0.28715000  1.0 -0.0691647057
N  N129  1  0.87501000  0.37759000  0.31093000  1.0 -0.0892510755
N  N130  1  0.85115000  0.40581000  0.26821000  1.0 -0.2921865817
N  N131  1  0.75655000  0.48417000  0.35367000  1.0 -0.2028542545
N  N132  1  0.60660000  0.56480000  0.34580000  1.0 -0.597259545
N  N133  1  0.66780000  0.54280000  0.26000000  1.0 -0.537640461
N  N134  1  0.22808000  0.44460000  0.94824000  1.0 -0.2686057674
N  N135  1  0.28715000  0.41833000  0.93289000  1.0 -0.0691647057
N  N136  1  0.31093000  0.43647000  0.87501000  1.0 -0.0892510755
N  N137  1  0.26821000  0.47483000  0.85115000  1.0 -0.2921865817
N  N138  1  0.35367000  0.40561000  0.75655000  1.0 -0.2028542545
N  N139  1  0.34580000  0.48280000  0.60660000  1.0 -0.597259545
N  N140  1  0.26000000  0.52940000  0.66780000  1.0 -0.537640461
N  N141  1  0.44460000  0.94824000  0.22808000  1.0 -0.2686057674
N  N142  1  0.41833000  0.93289000  0.28715000  1.0 -0.0691647057
N  N143  1  0.43647000  0.87501000  0.31093000  1.0 -0.0892510755
N  N144  1  0.47483000  0.85115000  0.26821000  1.0 -0.2921865817
N  N145  1  0.40561000  0.75655000  0.35367000  1.0 -0.2028542545
N  N146  1  0.48280000  0.60660000  0.34580000  1.0 -0.597259545
N  N147  1  0.52940000  0.66780000  0.26000000  1.0 -0.537640461
N  N148  1  0.37908000  0.22808000  0.94824000  1.0 -0.2686057674
N  N149  1  0.36163000  0.28715000  0.93289000  1.0 -0.0691647057
N  N150  1  0.37759000  0.31093000  0.87501000  1.0 -0.0892510755
N  N151  1  0.40581000  0.26821000  0.85115000  1.0 -0.2921865817
N  N152  1  0.48417000  0.35367000  0.75655000  1.0 -0.2028542545
N  N153  1  0.56480000  0.34580000  0.60660000  1.0 -0.597259545
N  N154  1  0.54280000  0.26000000  0.66780000  1.0 -0.537640461
N  N155  1  0.22808000  0.37908000  0.44460000  1.0 -0.2686057674
N  N156  1  0.28715000  0.36163000  0.41833000  1.0 -0.0691647057
N  N157  1  0.31093000  0.37759000  0.43647000  1.0 -0.0892510755
N  N158  1  0.26821000  0.40581000  0.47483000  1.0 -0.2921865817
N  N159  1  0.35367000  0.48417000  0.40561000  1.0 -0.2028542545
N  N160  1  0.34580000  0.56480000  0.48280000  1.0 -0.597259545
N  N161  1  0.26000000  0.54280000  0.52940000  1.0 -0.537640461
N  N162  1  0.94824000  0.44460000  0.37908000  1.0 -0.2686057674
N  N163  1  0.93289000  0.41833000  0.36163000  1.0 -0.0691647057
N  N164  1  0.87501000  0.43647000  0.37759000  1.0 -0.0892510755
N  N165  1  0.85115000  0.47483000  0.40581000  1.0 -0.2921865817
N  N166  1  0.75655000  0.40561000  0.48417000  1.0 -0.2028542545
N  N167  1  0.60660000  0.48280000  0.56480000  1.0 -0.594636285
N  N168  1  0.66780000  0.52940000  0.54280000  1.0 -0.537640461
O  O1  1  0.48557000  0.34015000  0.07033000  1.0 -0.5706138958
O  O2  1  0.45385000  0.39145000  0.12837000  1.0 -0.5706138958
O  O3  1  0.30420000  0.30120000  0.17260000  1.0 -0.0691647057
O  O4  1  0.38239000  0.32511000  0.25031000  1.0 -0.5794551608
O  O5  1  0.43537000  0.22939000  0.27223000  1.0 -0.5230965849
O  O6  1  0.32680000  0.28040000  0.19080000  1.0 -0.0473368033
O  O7  1  0.34015000  0.48557000  0.10395000  1.0 -0.5706138958
O  O8  1  0.39145000  0.45385000  0.02633000  1.0 -0.5706138958
O  O9  1  0.30120000  0.30420000  0.22200000  1.0 -0.0691647057
O  O10  1  0.32511000  0.38239000  0.04219000  1.0 -0.5794551608
O  O11  1  0.22939000  0.43537000  0.06301000  1.0 -0.5230965849
O  O12  1  0.28040000  0.32680000  0.20200000  1.0 -0.0473368033
O  O13  1  0.07033000  0.10395000  0.48557000  1.0 -0.5706138958
O  O14  1  0.12837000  0.02633000  0.45385000  1.0 -0.5706138958
O  O15  1  0.17260000  0.22200000  0.30420000  1.0 -0.0691647057
O  O16  1  0.25031000  0.04219000  0.38239000  1.0 -0.5794551608
O  O17  1  0.27223000  0.06301000  0.43537000  1.0 -0.5230965849
O  O18  1  0.19080000  0.20200000  0.32680000  1.0 -0.0473368033
O  O19  1  0.10395000  0.07033000  0.34015000  1.0 -0.5706138958
O  O20  1  0.02633000  0.12837000  0.39145000  1.0 -0.5706138958
O  O21  1  0.22200000  0.17260000  0.30120000  1.0 -0.0691647057
O  O22  1  0.04219000  0.25031000  0.32511000  1.0 -0.5794551608
O  O23  1  0.06301000  0.27223000  0.22939000  1.0 -0.5230965849
O  O24  1  0.20200000  0.19080000  0.28040000  1.0 -0.0473368033
O  O25  1  0.10395000  0.34015000  0.48557000  1.0 -0.5706138958
O  O26  1  0.02633000  0.39145000  0.45385000  1.0 -0.5706138958
O  O27  1  0.22200000  0.30120000  0.30420000  1.0 -0.0691647057
O  O28  1  0.04219000  0.32511000  0.38239000  1.0 -0.5794551608
O  O29  1  0.06301000  0.22939000  0.43537000  1.0 -0.5230965849
O  O30  1  0.20200000  0.28040000  0.32680000  1.0 -0.0473368033
O  O31  1  0.07033000  0.48557000  0.34015000  1.0 -0.5706138958
O  O32  1  0.12837000  0.45385000  0.39145000  1.0 -0.5706138958
O  O33  1  0.17260000  0.30420000  0.30120000  1.0 -0.0691647057
O  O34  1  0.25031000  0.38239000  0.32511000  1.0 -0.5794551608
O  O35  1  0.27223000  0.43537000  0.22939000  1.0 -0.5230965849
O  O36  1  0.19080000  0.32680000  0.28040000  1.0 -0.0473368033
O  O37  1  0.34015000  0.10395000  0.07033000  1.0 -0.5706138958
O  O38  1  0.39145000  0.02633000  0.12837000  1.0 -0.5706138958
O  O39  1  0.30120000  0.22200000  0.17260000  1.0 -0.0691647057
O  O40  1  0.32511000  0.04219000  0.25031000  1.0 -0.5794551608
O  O41  1  0.22939000  0.06301000  0.27223000  1.0 -0.5230965849
O  O42  1  0.28040000  0.20200000  0.19080000  1.0 -0.0473368033
O  O43  1  0.48557000  0.07033000  0.10395000  1.0 -0.5706138958
O  O44  1  0.45385000  0.12837000  0.02633000  1.0 -0.5706138958
O  O45  1  0.30420000  0.17260000  0.22200000  1.0 -0.0691647057
O  O46  1  0.38239000  0.25031000  0.04219000  1.0 -0.5794551608
O  O47  1  0.43537000  0.27223000  0.06301000  1.0 -0.5230965849
O  O48  1  0.32680000  0.19080000  0.20200000  1.0 -0.0473368033
O  O49  1  0.07033000  0.34015000  0.10395000  1.0 -0.5706138958
O  O50  1  0.12837000  0.39145000  0.02633000  1.0 -0.5706138958
O  O51  1  0.17260000  0.30120000  0.22200000  1.0 -0.0691647057
O  O52  1  0.25031000  0.32511000  0.04219000  1.0 -0.5794551608
O  O53  1  0.27223000  0.22939000  0.06301000  1.0 -0.5230965849
O  O54  1  0.19080000  0.28040000  0.20200000  1.0 -0.0473368033
O  O55  1  0.10395000  0.48557000  0.07033000  1.0 -0.5706138958
O  O56  1  0.02633000  0.45385000  0.12837000  1.0 -0.5706138958
O  O57  1  0.22200000  0.30420000  0.17260000  1.0 -0.0691647057
O  O58  1  0.04219000  0.38239000  0.25031000  1.0 -0.5794551608
O  O59  1  0.06301000  0.43537000  0.27223000  1.0 -0.5230965849
O  O60  1  0.20200000  0.32680000  0.19080000  1.0 -0.0473368033
O  O61  1  0.48557000  0.10395000  0.34015000  1.0 -0.5706138958
O  O62  1  0.45385000  0.02633000  0.39145000  1.0 -0.5706138958
O  O63  1  0.30420000  0.22200000  0.30120000  1.0 -0.0691647057
O  O64  1  0.38239000  0.04219000  0.32511000  1.0 -0.5794551608
O  O65  1  0.43537000  0.06301000  0.22939000  1.0 -0.5230965849
O  O66  1  0.32680000  0.20200000  0.28040000  1.0 -0.0473368033
O  O67  1  0.34015000  0.07033000  0.48557000  1.0 -0.5706138958
O  O68  1  0.39145000  0.12837000  0.45385000  1.0 -0.5706138958
O  O69  1  0.30120000  0.17260000  0.30420000  1.0 -0.0691647057
O  O70  1  0.32511000  0.25031000  0.38239000  1.0 -0.5794551608
O  O71  1  0.22939000  0.27223000  0.43537000  1.0 -0.5230965849
O  O72  1  0.28040000  0.19080000  0.32680000  1.0 -0.0473368033
O  O73  1  0.98557000  0.84015000  0.60395000  1.0 -0.5706138958
O  O74  1  0.95385000  0.89145000  0.52633000  1.0 -0.5706138958
O  O75  1  0.80420000  0.80120000  0.72200000  1.0 -0.0691647057
O  O76  1  0.88239000  0.82511000  0.54219000  1.0 -0.5794551608
O  O77  1  0.93537000  0.72939000  0.56301000  1.0 -0.5230965849
O  O78  1  0.82680000  0.78040000  0.70200000  1.0 -0.0473368033
O  O79  1  0.84015000  0.98557000  0.57033000  1.0 -0.5706138958
O  O80  1  0.89145000  0.95385000  0.62837000  1.0 -0.5706138958
O  O81  1  0.80120000  0.80420000  0.67260000  1.0 -0.0691647057
O  O82  1  0.82511000  0.88239000  0.75031000  1.0 -0.5794551608
O  O83  1  0.72939000  0.93537000  0.77223000  1.0 -0.5230965849
O  O84  1  0.78040000  0.82680000  0.69080000  1.0 -0.0473368033
O  O85  1  0.57033000  0.60395000  0.84015000  1.0 -0.5706138958
O  O86  1  0.62837000  0.52633000  0.89145000  1.0 -0.5706138958
O  O87  1  0.67260000  0.72200000  0.80120000  1.0 -0.0691647057
O  O88  1  0.75031000  0.54219000  0.82511000  1.0 -0.5794551608
O  O89  1  0.77223000  0.56301000  0.72939000  1.0 -0.5230965849
O  O90  1  0.69080000  0.70200000  0.78040000  1.0 -0.0473368033
O  O91  1  0.60395000  0.57033000  0.98557000  1.0 -0.5706138958
O  O92  1  0.52633000  0.62837000  0.95385000  1.0 -0.5706138958
O  O93  1  0.72200000  0.67260000  0.80420000  1.0 -0.0691647057
O  O94  1  0.54219000  0.75031000  0.88239000  1.0 -0.5794551608
O  O95  1  0.56301000  0.77223000  0.93537000  1.0 -0.5230965849
O  O96  1  0.70200000  0.69080000  0.82680000  1.0 -0.0473368033
O  O97  1  0.60395000  0.84015000  0.57033000  1.0 -0.5706138958
O  O98  1  0.52633000  0.89145000  0.62837000  1.0 -0.5706138958
O  O99  1  0.72200000  0.80120000  0.67260000  1.0 -0.0691647057
O  O100  1  0.54219000  0.82511000  0.75031000  1.0 -0.5794551608
O  O101  1  0.56301000  0.72939000  0.77223000  1.0 -0.5230965849
O  O102  1  0.70200000  0.78040000  0.69080000  1.0 -0.0473368033
O  O103  1  0.57033000  0.98557000  0.60395000  1.0 -0.5706138958
O  O104  1  0.62837000  0.95385000  0.52633000  1.0 -0.5706138958
O  O105  1  0.67260000  0.80420000  0.72200000  1.0 -0.0691647057
O  O106  1  0.75031000  0.88239000  0.54219000  1.0 -0.5794551608
O  O107  1  0.77223000  0.93537000  0.56301000  1.0 -0.5230965849
O  O108  1  0.69080000  0.82680000  0.70200000  1.0 -0.0473368033
O  O109  1  0.84015000  0.60395000  0.98557000  1.0 -0.5706138958
O  O110  1  0.89145000  0.52633000  0.95385000  1.0 -0.5706138958
O  O111  1  0.80120000  0.72200000  0.80420000  1.0 -0.0691647057
O  O112  1  0.82511000  0.54219000  0.88239000  1.0 -0.5794551608
O  O113  1  0.72939000  0.56301000  0.93537000  1.0 -0.5230965849
O  O114  1  0.78040000  0.70200000  0.82680000  1.0 -0.0473368033
O  O115  1  0.98557000  0.57033000  0.84015000  1.0 -0.5706138958
O  O116  1  0.95385000  0.62837000  0.89145000  1.0 -0.5706138958
O  O117  1  0.80420000  0.67260000  0.80120000  1.0 -0.0691647057
O  O118  1  0.88239000  0.75031000  0.82511000  1.0 -0.5794551608
O  O119  1  0.93537000  0.77223000  0.72939000  1.0 -0.5230965849
O  O120  1  0.82680000  0.69080000  0.78040000  1.0 -0.0473368033
O  O121  1  0.57033000  0.84015000  0.98557000  1.0 -0.5706138958
O  O122  1  0.62837000  0.89145000  0.95385000  1.0 -0.5706138958
O  O123  1  0.67260000  0.80120000  0.80420000  1.0 -0.0691647057
O  O124  1  0.75031000  0.82511000  0.88239000  1.0 -0.5794551608
O  O125  1  0.77223000  0.72939000  0.93537000  1.0 -0.5230965849
O  O126  1  0.69080000  0.78040000  0.82680000  1.0 -0.0473368033
O  O127  1  0.60395000  0.98557000  0.84015000  1.0 -0.5706138958
O  O128  1  0.52633000  0.95385000  0.89145000  1.0 -0.5706138958
O  O129  1  0.72200000  0.80420000  0.80120000  1.0 -0.0691647057
O  O130  1  0.54219000  0.88239000  0.82511000  1.0 -0.5794551608
O  O131  1  0.56301000  0.93537000  0.72939000  1.0 -0.5230965849
O  O132  1  0.70200000  0.82680000  0.78040000  1.0 -0.0473368033
O  O133  1  0.98557000  0.60395000  0.57033000  1.0 -0.5706138958
O  O134  1  0.95385000  0.52633000  0.62837000  1.0 -0.5706138958
O  O135  1  0.80420000  0.72200000  0.67260000  1.0 -0.0691647057
O  O136  1  0.88239000  0.54219000  0.75031000  1.0 -0.5794551608
O  O137  1  0.93537000  0.56301000  0.77223000  1.0 -0.5230965849
O  O138  1  0.82680000  0.70200000  0.69080000  1.0 -0.0473368033
O  O139  1  0.84015000  0.57033000  0.60395000  1.0 -0.5706138958
O  O140  1  0.89145000  0.62837000  0.52633000  1.0 -0.5706138958
O  O141  1  0.80120000  0.67260000  0.72200000  1.0 -0.0691647057
O  O142  1  0.82511000  0.75031000  0.54219000  1.0 -0.5794551608
O  O143  1  0.72939000  0.77223000  0.56301000  1.0 -0.5230965849
O  O144  1  0.78040000  0.69080000  0.70200000  1.0 -0.0473368033
O  O145  1  0.35621000  0.35621000  0.14379000  1.0 -0.4071648555
O  O146  1  0.14379000  0.14379000  0.35621000  1.0 -0.4071648555
O  O147  1  0.14379000  0.35621000  0.35621000  1.0 -0.4071648555
O  O148  1  0.35621000  0.14379000  0.14379000  1.0 -0.4071648555
O  O149  1  0.14379000  0.35621000  0.14379000  1.0 -0.4071648555
O  O150  1  0.35621000  0.14379000  0.35621000  1.0 -0.4071648555
O  O151  1  0.85621000  0.85621000  0.64379000  1.0 -0.4071648555
O  O152  1  0.64379000  0.64379000  0.85621000  1.0 -0.4071648555
O  O153  1  0.64379000  0.85621000  0.64379000  1.0 -0.4071648555
O  O154  1  0.85621000  0.64379000  0.85621000  1.0 -0.4071648555
O  O155  1  0.64379000  0.85621000  0.85621000  1.0 -0.4071648555
O  O156  1  0.85621000  0.64379000  0.64379000  1.0 -0.4071648555
