# DDEC6 charges by PACMAN v1.1 (https://github.com/mtap-research/PACMAN-charge/)
data_SEJJID_FSR_pacman
_symmetry_space_group_name_H-M   'P 1'
_cell_length_a   28.01630000
_cell_length_b   28.01630000
_cell_length_c   28.01630000
_cell_angle_alpha   60.00000000
_cell_angle_beta   60.00000000
_cell_angle_gamma   60.00000000
_symmetry_Int_Tables_number   1
_chemical_formula_structural   Mn7H48C48(N10O13)2
_chemical_formula_sum   'Mn42 H288 C288 N120 O156'
_cell_volume   15549.53262178
_cell_formula_units_Z   6
loop_
 _symmetry_equiv_pos_site_id
 _symmetry_equiv_pos_as_xyz
  1  'x, y, z'
loop_
 _atom_site_type_symbol
 _atom_site_label
 _atom_site_symmetry_multiplicity
 _atom_site_fract_x
 _atom_site_fract_y
 _atom_site_fract_z
 _atom_site_occupancy
 _atom_site_charge
Mn  Mn1  1  0.34140000  0.69990000  0.38492000  1.0 0.9372478974
Mn  Mn2  1  0.69990000  0.34140000  0.57378000  1.0 0.9372478974
Mn  Mn3  1  0.38492000  0.57378000  0.34140000  1.0 0.9372478974
Mn  Mn4  1  0.57378000  0.38492000  0.69990000  1.0 0.9372478974
Mn  Mn5  1  0.57378000  0.69990000  0.34140000  1.0 0.9372478974
Mn  Mn6  1  0.38492000  0.34140000  0.69990000  1.0 0.9372478974
Mn  Mn7  1  0.69990000  0.57378000  0.38492000  1.0 0.9372478974
Mn  Mn8  1  0.34140000  0.38492000  0.57378000  1.0 0.9372478974
Mn  Mn9  1  0.38492000  0.69990000  0.57378000  1.0 0.9372478974
Mn  Mn10  1  0.57378000  0.34140000  0.38492000  1.0 0.9372478974
Mn  Mn11  1  0.34140000  0.57378000  0.69990000  1.0 0.9372478974
Mn  Mn12  1  0.69990000  0.38492000  0.34140000  1.0 0.9372478974
Mn  Mn13  1  0.84140000  0.19990000  0.07378000  1.0 0.9372478974
Mn  Mn14  1  0.19990000  0.84140000  0.88492000  1.0 0.9372478974
Mn  Mn15  1  0.88492000  0.07378000  0.19990000  1.0 0.9372478974
Mn  Mn16  1  0.07378000  0.88492000  0.84140000  1.0 0.9372478974
Mn  Mn17  1  0.07378000  0.19990000  0.88492000  1.0 0.9372478974
Mn  Mn18  1  0.88492000  0.84140000  0.07378000  1.0 0.9372478974
Mn  Mn19  1  0.19990000  0.07378000  0.84140000  1.0 0.9372478974
Mn  Mn20  1  0.84140000  0.88492000  0.19990000  1.0 0.9372478974
Mn  Mn21  1  0.88492000  0.19990000  0.84140000  1.0 0.9372478974
Mn  Mn22  1  0.07378000  0.84140000  0.19990000  1.0 0.9372478974
Mn  Mn23  1  0.84140000  0.07378000  0.88492000  1.0 0.9372478974
Mn  Mn24  1  0.19990000  0.88492000  0.07378000  1.0 0.9372478974
Mn  Mn25  1  0.85532000  0.85532000  0.43404000  1.0 0.617191757
Mn  Mn26  1  0.85532000  0.85532000  0.85532000  1.0 0.617191757
Mn  Mn27  1  0.43404000  0.85532000  0.85532000  1.0 0.617191757
Mn  Mn28  1  0.85532000  0.43404000  0.85532000  1.0 0.617191757
Mn  Mn29  1  0.35532000  0.35532000  0.35532000  1.0 0.617191757
Mn  Mn30  1  0.35532000  0.35532000  0.93404000  1.0 0.617191757
Mn  Mn31  1  0.93404000  0.35532000  0.35532000  1.0 0.617191757
Mn  Mn32  1  0.35532000  0.93404000  0.35532000  1.0 0.617191757
Mn  Mn33  1  0.41431000  0.75707000  0.41431000  1.0 0.8327494514
Mn  Mn34  1  0.75707000  0.41431000  0.41431000  1.0 0.8327494514
Mn  Mn35  1  0.41431000  0.41431000  0.41431000  1.0 0.8327494514
Mn  Mn36  1  0.41431000  0.41431000  0.75707000  1.0 0.8327494514
Mn  Mn37  1  0.91431000  0.25707000  0.91431000  1.0 0.8327494514
Mn  Mn38  1  0.25707000  0.91431000  0.91431000  1.0 0.8327494514
Mn  Mn39  1  0.91431000  0.91431000  0.25707000  1.0 0.8327494514
Mn  Mn40  1  0.91431000  0.91431000  0.91431000  1.0 0.8327494514
Mn  Mn41  1  0.50000000  0.50000000  0.50000000  1.0 0.5566894067
Mn  Mn42  1  0.00000000  0.00000000  0.00000000  1.0 0.5566894067
H  H1  1  0.83330000  0.75290000  0.48110000  1.0 0.2369015654
H  H2  1  0.13450000  0.71330000  0.29210000  1.0 0.1180955158
H  H3  1  0.22420000  0.66500000  0.30680000  1.0 0.1105062483
H  H4  1  0.15260000  0.71560000  0.44820000  1.0 0.1180955158
H  H5  1  0.06200000  0.75980000  0.43580000  1.0 0.1008520209
H  H6  1  0.31170000  0.66870000  0.55070000  1.0 0.0726503965
H  H7  1  0.91770000  0.72450000  0.49510000  1.0 0.1105062483
H  H8  1  0.87200000  0.70380000  0.55840000  1.0 0.1008520209
H  H9  1  0.85760000  0.77920000  0.58300000  1.0 0.0890802582
H  H10  1  0.92700000  0.75220000  0.55500000  1.0 0.1008520209
H  H11  1  0.40420000  0.59440000  0.46260000  1.0 0.1669209834
H  H12  1  0.42390000  0.60630000  0.44330000  1.0 0.1669209834
H  H13  1  0.75290000  0.83330000  0.93270000  1.0 0.2369015654
H  H14  1  0.71330000  0.13450000  0.86010000  1.0 0.1180955158
H  H15  1  0.66500000  0.22420000  0.80400000  1.0 0.1105062483
H  H16  1  0.71560000  0.15260000  0.68360000  1.0 0.1180955158
H  H17  1  0.75980000  0.06200000  0.74240000  1.0 0.1008520209
H  H18  1  0.66870000  0.31170000  0.46890000  1.0 0.0726503965
H  H19  1  0.72450000  0.91770000  0.86270000  1.0 0.1105062483
H  H20  1  0.70380000  0.87200000  0.86580000  1.0 0.1008520209
H  H21  1  0.77920000  0.85760000  0.78020000  1.0 0.0890802582
H  H22  1  0.75220000  0.92700000  0.76580000  1.0 0.1008520209
H  H23  1  0.59440000  0.40420000  0.53880000  1.0 0.1669209834
H  H24  1  0.60630000  0.42390000  0.52650000  1.0 0.1669209834
H  H25  1  0.48110000  0.93270000  0.83330000  1.0 0.2369015654
H  H26  1  0.29210000  0.86010000  0.13450000  1.0 0.1180955158
H  H27  1  0.30680000  0.80400000  0.22420000  1.0 0.1105062483
H  H28  1  0.44820000  0.68360000  0.15260000  1.0 0.1180955158
H  H29  1  0.43580000  0.74240000  0.06200000  1.0 0.1008520209
H  H30  1  0.55070000  0.46890000  0.31170000  1.0 0.0726503965
H  H31  1  0.49510000  0.86270000  0.91770000  1.0 0.1105062483
H  H32  1  0.55840000  0.86580000  0.87200000  1.0 0.1008520209
H  H33  1  0.58300000  0.78020000  0.85760000  1.0 0.0890802582
H  H34  1  0.55500000  0.76580000  0.92700000  1.0 0.1008520209
H  H35  1  0.46260000  0.53880000  0.40420000  1.0 0.1669209834
H  H36  1  0.44330000  0.52650000  0.42390000  1.0 0.1669209834
H  H37  1  0.93270000  0.48110000  0.75290000  1.0 0.2369015654
H  H38  1  0.86010000  0.29210000  0.71330000  1.0 0.1180955158
H  H39  1  0.80400000  0.30680000  0.66500000  1.0 0.1105062483
H  H40  1  0.68360000  0.44820000  0.71560000  1.0 0.1180955158
H  H41  1  0.74240000  0.43580000  0.75980000  1.0 0.1008520209
H  H42  1  0.46890000  0.55070000  0.66870000  1.0 0.0726503965
H  H43  1  0.86270000  0.49510000  0.72450000  1.0 0.1105062483
H  H44  1  0.86580000  0.55840000  0.70380000  1.0 0.1008520209
H  H45  1  0.78020000  0.58300000  0.77920000  1.0 0.0890802582
H  H46  1  0.76580000  0.55500000  0.75220000  1.0 0.1008520209
H  H47  1  0.53880000  0.46260000  0.59440000  1.0 0.1669209834
H  H48  1  0.52650000  0.44330000  0.60630000  1.0 0.1669209834
H  H49  1  0.93270000  0.75290000  0.83330000  1.0 0.2369015654
H  H50  1  0.86010000  0.71330000  0.13450000  1.0 0.1180955158
H  H51  1  0.80400000  0.66500000  0.22420000  1.0 0.1105062483
H  H52  1  0.68360000  0.71560000  0.15260000  1.0 0.1180955158
H  H53  1  0.74240000  0.75980000  0.06200000  1.0 0.1008520209
H  H54  1  0.46890000  0.66870000  0.31170000  1.0 0.0726503965
H  H55  1  0.86270000  0.72450000  0.91770000  1.0 0.1105062483
H  H56  1  0.86580000  0.70380000  0.87200000  1.0 0.1008520209
H  H57  1  0.78020000  0.77920000  0.85760000  1.0 0.0890802582
H  H58  1  0.76580000  0.75220000  0.92700000  1.0 0.1008520209
H  H59  1  0.53880000  0.59440000  0.40420000  1.0 0.1669209834
H  H60  1  0.52650000  0.60630000  0.42390000  1.0 0.1669209834
H  H61  1  0.48110000  0.83330000  0.75290000  1.0 0.2369015654
H  H62  1  0.29210000  0.13450000  0.71330000  1.0 0.1180955158
H  H63  1  0.30680000  0.22420000  0.66500000  1.0 0.1105062483
H  H64  1  0.44820000  0.15260000  0.71560000  1.0 0.1180955158
H  H65  1  0.43580000  0.06200000  0.75980000  1.0 0.1008520209
H  H66  1  0.55070000  0.31170000  0.66870000  1.0 0.0726503965
H  H67  1  0.49510000  0.91770000  0.72450000  1.0 0.1105062483
H  H68  1  0.55840000  0.87200000  0.70380000  1.0 0.1008520209
H  H69  1  0.58300000  0.85760000  0.77920000  1.0 0.0890802582
H  H70  1  0.55500000  0.92700000  0.75220000  1.0 0.1008520209
H  H71  1  0.46260000  0.40420000  0.59440000  1.0 0.1669209834
H  H72  1  0.44330000  0.42390000  0.60630000  1.0 0.1669209834
H  H73  1  0.75290000  0.93270000  0.48110000  1.0 0.2369015654
H  H74  1  0.71330000  0.86010000  0.29210000  1.0 0.1180955158
H  H75  1  0.66500000  0.80400000  0.30680000  1.0 0.1105062483
H  H76  1  0.71560000  0.68360000  0.44820000  1.0 0.1180955158
H  H77  1  0.75980000  0.74240000  0.43580000  1.0 0.1008520209
H  H78  1  0.66870000  0.46890000  0.55070000  1.0 0.0726503965
H  H79  1  0.72450000  0.86270000  0.49510000  1.0 0.1105062483
H  H80  1  0.70380000  0.86580000  0.55840000  1.0 0.1008520209
H  H81  1  0.77920000  0.78020000  0.58300000  1.0 0.0890802582
H  H82  1  0.75220000  0.76580000  0.55500000  1.0 0.1008520209
H  H83  1  0.59440000  0.53880000  0.46260000  1.0 0.1669209834
H  H84  1  0.60630000  0.52650000  0.44330000  1.0 0.1669209834
H  H85  1  0.83330000  0.48110000  0.93270000  1.0 0.2369015654
H  H86  1  0.13450000  0.29210000  0.86010000  1.0 0.1180955158
H  H87  1  0.22420000  0.30680000  0.80400000  1.0 0.1105062483
H  H88  1  0.15260000  0.44820000  0.68360000  1.0 0.1180955158
H  H89  1  0.06200000  0.43580000  0.74240000  1.0 0.1008520209
H  H90  1  0.31170000  0.55070000  0.46890000  1.0 0.0726503965
H  H91  1  0.91770000  0.49510000  0.86270000  1.0 0.1105062483
H  H92  1  0.87200000  0.55840000  0.86580000  1.0 0.1008520209
H  H93  1  0.85760000  0.58300000  0.78020000  1.0 0.0890802582
H  H94  1  0.92700000  0.55500000  0.76580000  1.0 0.1008520209
H  H95  1  0.40420000  0.46260000  0.53880000  1.0 0.1669209834
H  H96  1  0.42390000  0.44330000  0.52650000  1.0 0.1669209834
H  H97  1  0.48110000  0.75290000  0.93270000  1.0 0.2369015654
H  H98  1  0.29210000  0.71330000  0.86010000  1.0 0.1180955158
H  H99  1  0.30680000  0.66500000  0.80400000  1.0 0.1105062483
H  H100  1  0.44820000  0.71560000  0.68360000  1.0 0.1180955158
H  H101  1  0.43580000  0.75980000  0.74240000  1.0 0.1008520209
H  H102  1  0.55070000  0.66870000  0.46890000  1.0 0.0726503965
H  H103  1  0.49510000  0.72450000  0.86270000  1.0 0.1105062483
H  H104  1  0.55840000  0.70380000  0.86580000  1.0 0.1008520209
H  H105  1  0.58300000  0.77920000  0.78020000  1.0 0.0890802582
H  H106  1  0.55500000  0.75220000  0.76580000  1.0 0.1008520209
H  H107  1  0.46260000  0.59440000  0.53880000  1.0 0.1669209834
H  H108  1  0.44330000  0.60630000  0.52650000  1.0 0.1669209834
H  H109  1  0.93270000  0.83330000  0.48110000  1.0 0.2369015654
H  H110  1  0.86010000  0.13450000  0.29210000  1.0 0.1180955158
H  H111  1  0.80400000  0.22420000  0.30680000  1.0 0.1105062483
H  H112  1  0.68360000  0.15260000  0.44820000  1.0 0.1180955158
H  H113  1  0.74240000  0.06200000  0.43580000  1.0 0.1008520209
H  H114  1  0.46890000  0.31170000  0.55070000  1.0 0.0726503965
H  H115  1  0.86270000  0.91770000  0.49510000  1.0 0.1105062483
H  H116  1  0.86580000  0.87200000  0.55840000  1.0 0.1008520209
H  H117  1  0.78020000  0.85760000  0.58300000  1.0 0.0890802582
H  H118  1  0.76580000  0.92700000  0.55500000  1.0 0.1008520209
H  H119  1  0.53880000  0.40420000  0.46260000  1.0 0.1669209834
H  H120  1  0.52650000  0.42390000  0.44330000  1.0 0.1669209834
H  H121  1  0.83330000  0.93270000  0.75290000  1.0 0.2369015654
H  H122  1  0.13450000  0.86010000  0.71330000  1.0 0.1180955158
H  H123  1  0.22420000  0.80400000  0.66500000  1.0 0.1105062483
H  H124  1  0.15260000  0.68360000  0.71560000  1.0 0.1180955158
H  H125  1  0.06200000  0.74240000  0.75980000  1.0 0.1008520209
H  H126  1  0.31170000  0.46890000  0.66870000  1.0 0.0726503965
H  H127  1  0.91770000  0.86270000  0.72450000  1.0 0.1105062483
H  H128  1  0.87200000  0.86580000  0.70380000  1.0 0.1008520209
H  H129  1  0.85760000  0.78020000  0.77920000  1.0 0.0890802582
H  H130  1  0.92700000  0.76580000  0.75220000  1.0 0.1008520209
H  H131  1  0.40420000  0.53880000  0.59440000  1.0 0.1669209834
H  H132  1  0.42390000  0.52650000  0.60630000  1.0 0.1669209834
H  H133  1  0.75290000  0.48110000  0.83330000  1.0 0.2369015654
H  H134  1  0.71330000  0.29210000  0.13450000  1.0 0.1180955158
H  H135  1  0.66500000  0.30680000  0.22420000  1.0 0.1105062483
H  H136  1  0.71560000  0.44820000  0.15260000  1.0 0.1180955158
H  H137  1  0.75980000  0.43580000  0.06200000  1.0 0.1008520209
H  H138  1  0.66870000  0.55070000  0.31170000  1.0 0.0726503965
H  H139  1  0.72450000  0.49510000  0.91770000  1.0 0.1105062483
H  H140  1  0.70380000  0.55840000  0.87200000  1.0 0.1008520209
H  H141  1  0.77920000  0.58300000  0.85760000  1.0 0.0890802582
H  H142  1  0.75220000  0.55500000  0.92700000  1.0 0.1008520209
H  H143  1  0.59440000  0.46260000  0.40420000  1.0 0.1669209834
H  H144  1  0.60630000  0.44330000  0.42390000  1.0 0.1669209834
H  H145  1  0.33333333  0.25290000  0.43270000  1.0 0.2369015654
H  H146  1  0.63450000  0.21330000  0.36010000  1.0 0.1180955158
H  H147  1  0.72420000  0.16500000  0.30400000  1.0 0.1105062483
H  H148  1  0.65260000  0.21560000  0.18360000  1.0 0.1180955158
H  H149  1  0.56200000  0.25980000  0.24240000  1.0 0.1008520209
H  H150  1  0.81170000  0.16870000  0.96890000  1.0 0.0726503965
H  H151  1  0.41770000  0.22450000  0.36270000  1.0 0.1105062483
H  H152  1  0.37200000  0.20380000  0.36580000  1.0 0.1008520209
H  H153  1  0.35760000  0.27920000  0.28020000  1.0 0.0890802582
H  H154  1  0.42700000  0.25220000  0.26580000  1.0 0.1008520209
H  H155  1  0.90420000  0.09440000  0.03880000  1.0 0.1669209834
H  H156  1  0.92390000  0.10630000  0.02650000  1.0 0.1669209834
H  H157  1  0.25290000  0.33333333  0.98110000  1.0 0.2369015654
H  H158  1  0.21330000  0.63450000  0.79210000  1.0 0.1180955158
H  H159  1  0.16500000  0.72420000  0.80680000  1.0 0.1105062483
H  H160  1  0.21560000  0.65260000  0.94820000  1.0 0.1180955158
H  H161  1  0.25980000  0.56200000  0.93580000  1.0 0.1008520209
H  H162  1  0.16870000  0.81170000  0.05070000  1.0 0.0726503965
H  H163  1  0.22450000  0.41770000  0.99510000  1.0 0.1105062483
H  H164  1  0.20380000  0.37200000  0.05840000  1.0 0.1008520209
H  H165  1  0.27920000  0.35760000  0.08300000  1.0 0.0890802582
H  H166  1  0.25220000  0.42700000  0.05500000  1.0 0.1008520209
H  H167  1  0.09440000  0.90420000  0.96260000  1.0 0.1669209834
H  H168  1  0.10630000  0.92390000  0.94330000  1.0 0.1669209834
H  H169  1  0.98110000  0.43270000  0.25290000  1.0 0.2369015654
H  H170  1  0.79210000  0.36010000  0.21330000  1.0 0.1180955158
H  H171  1  0.80680000  0.30400000  0.16500000  1.0 0.1105062483
H  H172  1  0.94820000  0.18360000  0.21560000  1.0 0.1180955158
H  H173  1  0.93580000  0.24240000  0.25980000  1.0 0.1008520209
H  H174  1  0.05070000  0.96890000  0.16870000  1.0 0.0726503965
H  H175  1  0.99510000  0.36270000  0.22450000  1.0 0.1105062483
H  H176  1  0.05840000  0.36580000  0.20380000  1.0 0.1008520209
H  H177  1  0.08300000  0.28020000  0.27920000  1.0 0.0890802582
H  H178  1  0.05500000  0.26580000  0.25220000  1.0 0.1008520209
H  H179  1  0.96260000  0.03880000  0.09440000  1.0 0.1669209834
H  H180  1  0.94330000  0.02650000  0.10630000  1.0 0.1669209834
H  H181  1  0.43270000  0.98110000  0.33333333  1.0 0.2369015654
H  H182  1  0.36010000  0.79210000  0.63450000  1.0 0.1180955158
H  H183  1  0.30400000  0.80680000  0.72420000  1.0 0.1105062483
H  H184  1  0.18360000  0.94820000  0.65260000  1.0 0.1180955158
H  H185  1  0.24240000  0.93580000  0.56200000  1.0 0.1008520209
H  H186  1  0.96890000  0.05070000  0.81170000  1.0 0.0726503965
H  H187  1  0.36270000  0.99510000  0.41770000  1.0 0.1105062483
H  H188  1  0.36580000  0.05840000  0.37200000  1.0 0.1008520209
H  H189  1  0.28020000  0.08300000  0.35760000  1.0 0.0890802582
H  H190  1  0.26580000  0.05500000  0.42700000  1.0 0.1008520209
H  H191  1  0.03880000  0.96260000  0.90420000  1.0 0.1669209834
H  H192  1  0.02650000  0.94330000  0.92390000  1.0 0.1669209834
H  H193  1  0.43270000  0.25290000  0.98110000  1.0 0.2369015654
H  H194  1  0.36010000  0.21330000  0.79210000  1.0 0.1180955158
H  H195  1  0.30400000  0.16500000  0.80680000  1.0 0.1105062483
H  H196  1  0.18360000  0.21560000  0.94820000  1.0 0.1180955158
H  H197  1  0.24240000  0.25980000  0.93580000  1.0 0.1008520209
H  H198  1  0.96890000  0.16870000  0.05070000  1.0 0.0726503965
H  H199  1  0.36270000  0.22450000  0.99510000  1.0 0.1105062483
H  H200  1  0.36580000  0.20380000  0.05840000  1.0 0.1008520209
H  H201  1  0.28020000  0.27920000  0.08300000  1.0 0.0890802582
H  H202  1  0.26580000  0.25220000  0.05500000  1.0 0.1008520209
H  H203  1  0.03880000  0.09440000  0.96260000  1.0 0.1669209834
H  H204  1  0.02650000  0.10630000  0.94330000  1.0 0.1669209834
H  H205  1  0.98110000  0.33333333  0.43270000  1.0 0.2369015654
H  H206  1  0.79210000  0.63450000  0.36010000  1.0 0.1180955158
H  H207  1  0.80680000  0.72420000  0.30400000  1.0 0.1105062483
H  H208  1  0.94820000  0.65260000  0.18360000  1.0 0.1180955158
H  H209  1  0.93580000  0.56200000  0.24240000  1.0 0.1008520209
H  H210  1  0.05070000  0.81170000  0.96890000  1.0 0.0726503965
H  H211  1  0.99510000  0.41770000  0.36270000  1.0 0.1105062483
H  H212  1  0.05840000  0.37200000  0.36580000  1.0 0.1008520209
H  H213  1  0.08300000  0.35760000  0.28020000  1.0 0.0890802582
H  H214  1  0.05500000  0.42700000  0.26580000  1.0 0.1008520209
H  H215  1  0.96260000  0.90420000  0.03880000  1.0 0.1669209834
H  H216  1  0.94330000  0.92390000  0.02650000  1.0 0.1669209834
H  H217  1  0.25290000  0.43270000  0.33333333  1.0 0.2369015654
H  H218  1  0.21330000  0.36010000  0.63450000  1.0 0.1180955158
H  H219  1  0.16500000  0.30400000  0.72420000  1.0 0.1105062483
H  H220  1  0.21560000  0.18360000  0.65260000  1.0 0.1180955158
H  H221  1  0.25980000  0.24240000  0.56200000  1.0 0.1008520209
H  H222  1  0.16870000  0.96890000  0.81170000  1.0 0.0726503965
H  H223  1  0.22450000  0.36270000  0.41770000  1.0 0.1105062483
H  H224  1  0.20380000  0.36580000  0.37200000  1.0 0.1008520209
H  H225  1  0.27920000  0.28020000  0.35760000  1.0 0.0890802582
H  H226  1  0.25220000  0.26580000  0.42700000  1.0 0.1008520209
H  H227  1  0.09440000  0.03880000  0.90420000  1.0 0.1669209834
H  H228  1  0.10630000  0.02650000  0.92390000  1.0 0.1669209834
H  H229  1  0.33333333  0.98110000  0.25290000  1.0 0.2369015654
H  H230  1  0.63450000  0.79210000  0.21330000  1.0 0.1180955158
H  H231  1  0.72420000  0.80680000  0.16500000  1.0 0.1105062483
H  H232  1  0.65260000  0.94820000  0.21560000  1.0 0.1180955158
H  H233  1  0.56200000  0.93580000  0.25980000  1.0 0.1008520209
H  H234  1  0.81170000  0.05070000  0.16870000  1.0 0.0726503965
H  H235  1  0.41770000  0.99510000  0.22450000  1.0 0.1105062483
H  H236  1  0.37200000  0.05840000  0.20380000  1.0 0.1008520209
H  H237  1  0.35760000  0.08300000  0.27920000  1.0 0.0890802582
H  H238  1  0.42700000  0.05500000  0.25220000  1.0 0.1008520209
H  H239  1  0.90420000  0.96260000  0.09440000  1.0 0.1669209834
H  H240  1  0.92390000  0.94330000  0.10630000  1.0 0.1669209834
H  H241  1  0.98110000  0.25290000  0.33333333  1.0 0.2369015654
H  H242  1  0.79210000  0.21330000  0.63450000  1.0 0.1180955158
H  H243  1  0.80680000  0.16500000  0.72420000  1.0 0.1105062483
H  H244  1  0.94820000  0.21560000  0.65260000  1.0 0.1180955158
H  H245  1  0.93580000  0.25980000  0.56200000  1.0 0.1008520209
H  H246  1  0.05070000  0.16870000  0.81170000  1.0 0.0726503965
H  H247  1  0.99510000  0.22450000  0.41770000  1.0 0.1105062483
H  H248  1  0.05840000  0.20380000  0.37200000  1.0 0.1008520209
H  H249  1  0.08300000  0.27920000  0.35760000  1.0 0.0890802582
H  H250  1  0.05500000  0.25220000  0.42700000  1.0 0.1008520209
H  H251  1  0.96260000  0.09440000  0.90420000  1.0 0.1669209834
H  H252  1  0.94330000  0.10630000  0.92390000  1.0 0.1669209834
H  H253  1  0.43270000  0.33333333  0.25290000  1.0 0.2369015654
H  H254  1  0.36010000  0.63450000  0.21330000  1.0 0.1180955158
H  H255  1  0.30400000  0.72420000  0.16500000  1.0 0.1105062483
H  H256  1  0.18360000  0.65260000  0.21560000  1.0 0.1180955158
H  H257  1  0.24240000  0.56200000  0.25980000  1.0 0.1008520209
H  H258  1  0.96890000  0.81170000  0.16870000  1.0 0.0726503965
H  H259  1  0.36270000  0.41770000  0.22450000  1.0 0.1105062483
H  H260  1  0.36580000  0.37200000  0.20380000  1.0 0.1008520209
H  H261  1  0.28020000  0.35760000  0.27920000  1.0 0.0890802582
H  H262  1  0.26580000  0.42700000  0.25220000  1.0 0.1008520209
H  H263  1  0.03880000  0.90420000  0.09440000  1.0 0.1669209834
H  H264  1  0.02650000  0.92390000  0.10630000  1.0 0.1669209834
H  H265  1  0.33333333  0.43270000  0.98110000  1.0 0.2369015654
H  H266  1  0.63450000  0.36010000  0.79210000  1.0 0.1180955158
H  H267  1  0.72420000  0.30400000  0.80680000  1.0 0.1105062483
H  H268  1  0.65260000  0.18360000  0.94820000  1.0 0.1180955158
H  H269  1  0.56200000  0.24240000  0.93580000  1.0 0.1008520209
H  H270  1  0.81170000  0.96890000  0.05070000  1.0 0.0726503965
H  H271  1  0.41770000  0.36270000  0.99510000  1.0 0.1105062483
H  H272  1  0.37200000  0.36580000  0.05840000  1.0 0.1008520209
H  H273  1  0.35760000  0.28020000  0.08300000  1.0 0.0890802582
H  H274  1  0.42700000  0.26580000  0.05500000  1.0 0.1008520209
H  H275  1  0.90420000  0.03880000  0.96260000  1.0 0.1669209834
H  H276  1  0.92390000  0.02650000  0.94330000  1.0 0.1669209834
H  H277  1  0.25290000  0.98110000  0.43270000  1.0 0.2369015654
H  H278  1  0.21330000  0.79210000  0.36010000  1.0 0.1180955158
H  H279  1  0.16500000  0.80680000  0.30400000  1.0 0.1105062483
H  H280  1  0.21560000  0.94820000  0.18360000  1.0 0.1180955158
H  H281  1  0.25980000  0.93580000  0.24240000  1.0 0.1008520209
H  H282  1  0.16870000  0.05070000  0.96890000  1.0 0.0726503965
H  H283  1  0.22450000  0.99510000  0.36270000  1.0 0.1105062483
H  H284  1  0.20380000  0.05840000  0.36580000  1.0 0.1008520209
H  H285  1  0.27920000  0.08300000  0.28020000  1.0 0.0890802582
H  H286  1  0.25220000  0.05500000  0.26580000  1.0 0.1008520209
H  H287  1  0.09440000  0.96260000  0.03880000  1.0 0.1669209834
H  H288  1  0.10630000  0.94330000  0.02650000  1.0 0.1669209834
C  C1  1  0.08966000  0.74302000  0.36118000  1.0 0.046155137
C  C2  1  0.13824000  0.71378000  0.32376000  1.0 -0.1300693233
C  C3  1  0.19160000  0.68542000  0.33206000  1.0 -0.0991306632
C  C4  1  0.19743000  0.68689000  0.37853000  1.0 -0.0293010378
C  C5  1  0.14892000  0.71492000  0.41656000  1.0 -0.1212747127
C  C6  1  0.09533000  0.74189000  0.40875000  1.0 -0.1488223403
C  C7  1  0.03235000  0.77591000  0.35231000  1.0 0.2568713058
C  C8  1  0.25719000  0.66191000  0.38303000  1.0 0.5845204396
C  C9  1  0.33061000  0.68635000  0.51055000  1.0 0.2521653413
C  C10  1  0.42300000  0.58180000  0.42980000  1.0 0.2313677721
C  C11  1  0.88120000  0.73840000  0.52520000  1.0 -0.1300693233
C  C12  1  0.88983000  0.77417000  0.54643000  1.0 -0.1212747127
C  C13  1  0.74302000  0.08966000  0.80614000  1.0 0.046155137
C  C14  1  0.71378000  0.13824000  0.82422000  1.0 -0.1300693233
C  C15  1  0.68542000  0.19160000  0.79092000  1.0 -0.0991306632
C  C16  1  0.68689000  0.19743000  0.73715000  1.0 -0.0293010378
C  C17  1  0.71492000  0.14892000  0.71960000  1.0 -0.1212747127
C  C18  1  0.74189000  0.09533000  0.75403000  1.0 -0.1488223403
C  C19  1  0.77591000  0.03235000  0.83943000  1.0 0.2568713058
C  C20  1  0.66191000  0.25719000  0.69787000  1.0 0.5845204396
C  C21  1  0.68635000  0.33061000  0.47249000  1.0 0.2521653413
C  C22  1  0.58180000  0.42300000  0.56540000  1.0 0.2313677721
C  C23  1  0.73840000  0.88120000  0.85520000  1.0 -0.1300693233
C  C24  1  0.77417000  0.88983000  0.78957000  1.0 -0.1212747127
C  C25  1  0.36118000  0.80614000  0.08966000  1.0 0.046155137
C  C26  1  0.32376000  0.82422000  0.13824000  1.0 -0.1300693233
C  C27  1  0.33206000  0.79092000  0.19160000  1.0 -0.0991306632
C  C28  1  0.37853000  0.73715000  0.19743000  1.0 -0.0293010378
C  C29  1  0.41656000  0.71960000  0.14892000  1.0 -0.1212747127
C  C30  1  0.40875000  0.75403000  0.09533000  1.0 -0.1488223403
C  C31  1  0.35231000  0.83943000  0.03235000  1.0 0.2568713058
C  C32  1  0.38303000  0.69787000  0.25719000  1.0 0.5845204396
C  C33  1  0.51055000  0.47249000  0.33061000  1.0 0.2521653413
C  C34  1  0.42980000  0.56540000  0.42300000  1.0 0.2313677721
C  C35  1  0.52520000  0.85520000  0.88120000  1.0 -0.1300693233
C  C36  1  0.54643000  0.78957000  0.88983000  1.0 -0.1212747127
C  C37  1  0.80614000  0.36118000  0.74302000  1.0 0.046155137
C  C38  1  0.82422000  0.32376000  0.71378000  1.0 -0.1300693233
C  C39  1  0.79092000  0.33206000  0.68542000  1.0 -0.0991306632
C  C40  1  0.73715000  0.37853000  0.68689000  1.0 -0.0293010378
C  C41  1  0.71960000  0.41656000  0.71492000  1.0 -0.1212747127
C  C42  1  0.75403000  0.40875000  0.74189000  1.0 -0.1488223403
C  C43  1  0.83943000  0.35231000  0.77591000  1.0 0.2568713058
C  C44  1  0.69787000  0.38303000  0.66191000  1.0 0.5845204396
C  C45  1  0.47249000  0.51055000  0.68635000  1.0 0.2521653413
C  C46  1  0.56540000  0.42980000  0.58180000  1.0 0.2313677721
C  C47  1  0.85520000  0.52520000  0.73840000  1.0 -0.1300693233
C  C48  1  0.78957000  0.54643000  0.77417000  1.0 -0.1212747127
C  C49  1  0.80614000  0.74302000  0.08966000  1.0 0.046155137
C  C50  1  0.82422000  0.71378000  0.13824000  1.0 -0.1300693233
C  C51  1  0.79092000  0.68542000  0.19160000  1.0 -0.0991306632
C  C52  1  0.73715000  0.68689000  0.19743000  1.0 -0.0293010378
C  C53  1  0.71960000  0.71492000  0.14892000  1.0 -0.1212747127
C  C54  1  0.75403000  0.74189000  0.09533000  1.0 -0.1488223403
C  C55  1  0.83943000  0.77591000  0.03235000  1.0 0.2568713058
C  C56  1  0.69787000  0.66191000  0.25719000  1.0 0.5845204396
C  C57  1  0.47249000  0.68635000  0.33061000  1.0 0.2521653413
C  C58  1  0.56540000  0.58180000  0.42300000  1.0 0.2313677721
C  C59  1  0.85520000  0.73840000  0.88120000  1.0 -0.1300693233
C  C60  1  0.78957000  0.77417000  0.88983000  1.0 -0.1212747127
C  C61  1  0.36118000  0.08966000  0.74302000  1.0 0.046155137
C  C62  1  0.32376000  0.13824000  0.71378000  1.0 -0.1300693233
C  C63  1  0.33206000  0.19160000  0.68542000  1.0 -0.0991306632
C  C64  1  0.37853000  0.19743000  0.68689000  1.0 -0.0293010378
C  C65  1  0.41656000  0.14892000  0.71492000  1.0 -0.1212747127
C  C66  1  0.40875000  0.09533000  0.74189000  1.0 -0.1488223403
C  C67  1  0.35231000  0.03235000  0.77591000  1.0 0.2568713058
C  C68  1  0.38303000  0.25719000  0.66191000  1.0 0.5845204396
C  C69  1  0.51055000  0.33061000  0.68635000  1.0 0.2521653413
C  C70  1  0.42980000  0.42300000  0.58180000  1.0 0.2313677721
C  C71  1  0.52520000  0.88120000  0.73840000  1.0 -0.1300693233
C  C72  1  0.54643000  0.88983000  0.77417000  1.0 -0.1212747127
C  C73  1  0.74302000  0.80614000  0.36118000  1.0 0.046155137
C  C74  1  0.71378000  0.82422000  0.32376000  1.0 -0.1300693233
C  C75  1  0.68542000  0.79092000  0.33206000  1.0 -0.0991306632
C  C76  1  0.68689000  0.73715000  0.37853000  1.0 -0.0293010378
C  C77  1  0.71492000  0.71960000  0.41656000  1.0 -0.1212747127
C  C78  1  0.74189000  0.75403000  0.40875000  1.0 -0.1488223403
C  C79  1  0.77591000  0.83943000  0.35231000  1.0 0.2568713058
C  C80  1  0.66191000  0.69787000  0.38303000  1.0 0.5845204396
C  C81  1  0.68635000  0.47249000  0.51055000  1.0 0.2521653413
C  C82  1  0.58180000  0.56540000  0.42980000  1.0 0.2313677721
C  C83  1  0.73840000  0.85520000  0.52520000  1.0 -0.1300693233
C  C84  1  0.77417000  0.78957000  0.54643000  1.0 -0.1212747127
C  C85  1  0.08966000  0.36118000  0.80614000  1.0 0.046155137
C  C86  1  0.13824000  0.32376000  0.82422000  1.0 -0.1300693233
C  C87  1  0.19160000  0.33206000  0.79092000  1.0 -0.0991306632
C  C88  1  0.19743000  0.37853000  0.73715000  1.0 -0.0293010378
C  C89  1  0.14892000  0.41656000  0.71960000  1.0 -0.1212747127
C  C90  1  0.09533000  0.40875000  0.75403000  1.0 -0.1488223403
C  C91  1  0.03235000  0.35231000  0.83943000  1.0 0.2568713058
C  C92  1  0.25719000  0.38303000  0.69787000  1.0 0.5845204396
C  C93  1  0.33061000  0.51055000  0.47249000  1.0 0.2521653413
C  C94  1  0.42300000  0.42980000  0.56540000  1.0 0.2313677721
C  C95  1  0.88120000  0.52520000  0.85520000  1.0 -0.1300693233
C  C96  1  0.88983000  0.54643000  0.78957000  1.0 -0.1212747127
C  C97  1  0.36118000  0.74302000  0.80614000  1.0 0.046155137
C  C98  1  0.32376000  0.71378000  0.82422000  1.0 -0.1300693233
C  C99  1  0.33206000  0.68542000  0.79092000  1.0 -0.0991306632
C  C100  1  0.37853000  0.68689000  0.73715000  1.0 -0.0293010378
C  C101  1  0.41656000  0.71492000  0.71960000  1.0 -0.1212747127
C  C102  1  0.40875000  0.74189000  0.75403000  1.0 -0.1488223403
C  C103  1  0.35231000  0.77591000  0.83943000  1.0 0.2568713058
C  C104  1  0.38303000  0.66191000  0.69787000  1.0 0.5845204396
C  C105  1  0.51055000  0.68635000  0.47249000  1.0 0.2521653413
C  C106  1  0.42980000  0.58180000  0.56540000  1.0 0.2313677721
C  C107  1  0.52520000  0.73840000  0.85520000  1.0 -0.1300693233
C  C108  1  0.54643000  0.77417000  0.78957000  1.0 -0.1212747127
C  C109  1  0.80614000  0.08966000  0.36118000  1.0 0.046155137
C  C110  1  0.82422000  0.13824000  0.32376000  1.0 -0.1300693233
C  C111  1  0.79092000  0.19160000  0.33206000  1.0 -0.0991306632
C  C112  1  0.73715000  0.19743000  0.37853000  1.0 -0.0293010378
C  C113  1  0.71960000  0.14892000  0.41656000  1.0 -0.1212747127
C  C114  1  0.75403000  0.09533000  0.40875000  1.0 -0.1488223403
C  C115  1  0.83943000  0.03235000  0.35231000  1.0 0.2568713058
C  C116  1  0.69787000  0.25719000  0.38303000  1.0 0.5845204396
C  C117  1  0.47249000  0.33061000  0.51055000  1.0 0.2521653413
C  C118  1  0.56540000  0.42300000  0.42980000  1.0 0.2313677721
C  C119  1  0.85520000  0.88120000  0.52520000  1.0 -0.1300693233
C  C120  1  0.78957000  0.88983000  0.54643000  1.0 -0.1212747127
C  C121  1  0.08966000  0.80614000  0.74302000  1.0 0.046155137
C  C122  1  0.13824000  0.82422000  0.71378000  1.0 -0.1300693233
C  C123  1  0.19160000  0.79092000  0.68542000  1.0 -0.0991306632
C  C124  1  0.19743000  0.73715000  0.68689000  1.0 -0.0293010378
C  C125  1  0.14892000  0.71960000  0.71492000  1.0 -0.1212747127
C  C126  1  0.09533000  0.75403000  0.74189000  1.0 -0.1488223403
C  C127  1  0.03235000  0.83943000  0.77591000  1.0 0.2568713058
C  C128  1  0.25719000  0.69787000  0.66191000  1.0 0.5845204396
C  C129  1  0.33061000  0.47249000  0.68635000  1.0 0.2521653413
C  C130  1  0.42300000  0.56540000  0.58180000  1.0 0.2313677721
C  C131  1  0.88120000  0.85520000  0.73840000  1.0 -0.1300693233
C  C132  1  0.88983000  0.78957000  0.77417000  1.0 -0.1212747127
C  C133  1  0.74302000  0.36118000  0.08966000  1.0 0.046155137
C  C134  1  0.71378000  0.32376000  0.13824000  1.0 -0.1300693233
C  C135  1  0.68542000  0.33206000  0.19160000  1.0 -0.0991306632
C  C136  1  0.68689000  0.37853000  0.19743000  1.0 -0.0293010378
C  C137  1  0.71492000  0.41656000  0.14892000  1.0 -0.1212747127
C  C138  1  0.74189000  0.40875000  0.09533000  1.0 -0.1488223403
C  C139  1  0.77591000  0.35231000  0.03235000  1.0 0.2568713058
C  C140  1  0.66191000  0.38303000  0.25719000  1.0 0.5845204396
C  C141  1  0.68635000  0.51055000  0.33061000  1.0 0.2521653413
C  C142  1  0.58180000  0.42980000  0.42300000  1.0 0.2313677721
C  C143  1  0.73840000  0.52520000  0.88120000  1.0 -0.1300693233
C  C144  1  0.77417000  0.54643000  0.88983000  1.0 -0.1212747127
C  C145  1  0.58966000  0.24302000  0.30614000  1.0 0.046155137
C  C146  1  0.63824000  0.21378000  0.32422000  1.0 -0.1300693233
C  C147  1  0.69160000  0.18542000  0.29092000  1.0 -0.0991306632
C  C148  1  0.69743000  0.18689000  0.23715000  1.0 -0.0293010378
C  C149  1  0.64892000  0.21492000  0.21960000  1.0 -0.1212747127
C  C150  1  0.59533000  0.24189000  0.25403000  1.0 -0.1488223403
C  C151  1  0.53235000  0.27591000  0.33943000  1.0 0.2568713058
C  C152  1  0.75719000  0.16191000  0.19787000  1.0 0.5845204396
C  C153  1  0.83061000  0.18635000  0.97249000  1.0 0.2521653413
C  C154  1  0.92300000  0.08180000  0.06540000  1.0 0.2313677721
C  C155  1  0.38120000  0.23840000  0.35520000  1.0 -0.1300693233
C  C156  1  0.38983000  0.27417000  0.28957000  1.0 -0.1212747127
C  C157  1  0.24302000  0.58966000  0.86118000  1.0 0.046155137
C  C158  1  0.21378000  0.63824000  0.82376000  1.0 -0.1300693233
C  C159  1  0.18542000  0.69160000  0.83206000  1.0 -0.0991306632
C  C160  1  0.18689000  0.69743000  0.87853000  1.0 -0.0293010378
C  C161  1  0.21492000  0.64892000  0.91656000  1.0 -0.1212747127
C  C162  1  0.24189000  0.59533000  0.90875000  1.0 -0.1488223403
C  C163  1  0.27591000  0.53235000  0.85231000  1.0 0.2568713058
C  C164  1  0.16191000  0.75719000  0.88303000  1.0 0.5845204396
C  C165  1  0.18635000  0.83061000  0.01055000  1.0 0.2521653413
C  C166  1  0.08180000  0.92300000  0.92980000  1.0 0.2313677721
C  C167  1  0.23840000  0.38120000  0.02520000  1.0 -0.1300693233
C  C168  1  0.27417000  0.38983000  0.04643000  1.0 -0.1212747127
C  C169  1  0.86118000  0.30614000  0.24302000  1.0 0.046155137
C  C170  1  0.82376000  0.32422000  0.21378000  1.0 -0.1300693233
C  C171  1  0.83206000  0.29092000  0.18542000  1.0 -0.0991306632
C  C172  1  0.87853000  0.23715000  0.18689000  1.0 -0.0293010378
C  C173  1  0.91656000  0.21960000  0.21492000  1.0 -0.1212747127
C  C174  1  0.90875000  0.25403000  0.24189000  1.0 -0.1488223403
C  C175  1  0.85231000  0.33943000  0.27591000  1.0 0.2568713058
C  C176  1  0.88303000  0.19787000  0.16191000  1.0 0.5845204396
C  C177  1  0.01055000  0.97249000  0.18635000  1.0 0.2521653413
C  C178  1  0.92980000  0.06540000  0.08180000  1.0 0.2313677721
C  C179  1  0.02520000  0.35520000  0.23840000  1.0 -0.1300693233
C  C180  1  0.04643000  0.28957000  0.27417000  1.0 -0.1212747127
C  C181  1  0.30614000  0.86118000  0.58966000  1.0 0.046155137
C  C182  1  0.32422000  0.82376000  0.63824000  1.0 -0.1300693233
C  C183  1  0.29092000  0.83206000  0.69160000  1.0 -0.0991306632
C  C184  1  0.23715000  0.87853000  0.69743000  1.0 -0.0293010378
C  C185  1  0.21960000  0.91656000  0.64892000  1.0 -0.1212747127
C  C186  1  0.25403000  0.90875000  0.59533000  1.0 -0.1488223403
C  C187  1  0.33943000  0.85231000  0.53235000  1.0 0.2568713058
C  C188  1  0.19787000  0.88303000  0.75719000  1.0 0.5845204396
C  C189  1  0.97249000  0.01055000  0.83061000  1.0 0.2521653413
C  C190  1  0.06540000  0.92980000  0.92300000  1.0 0.2313677721
C  C191  1  0.35520000  0.02520000  0.38120000  1.0 -0.1300693233
C  C192  1  0.28957000  0.04643000  0.38983000  1.0 -0.1212747127
C  C193  1  0.30614000  0.24302000  0.86118000  1.0 0.046155137
C  C194  1  0.32422000  0.21378000  0.82376000  1.0 -0.1300693233
C  C195  1  0.29092000  0.18542000  0.83206000  1.0 -0.0991306632
C  C196  1  0.23715000  0.18689000  0.87853000  1.0 -0.0293010378
C  C197  1  0.21960000  0.21492000  0.91656000  1.0 -0.1212747127
C  C198  1  0.25403000  0.24189000  0.90875000  1.0 -0.1488223403
C  C199  1  0.33943000  0.27591000  0.85231000  1.0 0.2568713058
C  C200  1  0.19787000  0.16191000  0.88303000  1.0 0.5845204396
C  C201  1  0.97249000  0.18635000  0.01055000  1.0 0.2568713058
C  C202  1  0.06540000  0.08180000  0.92980000  1.0 0.2313677721
C  C203  1  0.35520000  0.23840000  0.02520000  1.0 -0.1300693233
C  C204  1  0.28957000  0.27417000  0.04643000  1.0 -0.1212747127
C  C205  1  0.86118000  0.58966000  0.30614000  1.0 0.046155137
C  C206  1  0.82376000  0.63824000  0.32422000  1.0 -0.1300693233
C  C207  1  0.83206000  0.69160000  0.29092000  1.0 -0.0991306632
C  C208  1  0.87853000  0.69743000  0.23715000  1.0 -0.0293010378
C  C209  1  0.91656000  0.64892000  0.21960000  1.0 -0.1212747127
C  C210  1  0.90875000  0.59533000  0.25403000  1.0 -0.1488223403
C  C211  1  0.85231000  0.53235000  0.33943000  1.0 0.2568713058
C  C212  1  0.88303000  0.75719000  0.19787000  1.0 0.5845204396
C  C213  1  0.01055000  0.83061000  0.97249000  1.0 0.2521653413
C  C214  1  0.92980000  0.92300000  0.06540000  1.0 0.2313677721
C  C215  1  0.02520000  0.38120000  0.35520000  1.0 -0.1300693233
C  C216  1  0.04643000  0.38983000  0.28957000  1.0 -0.1212747127
C  C217  1  0.24302000  0.30614000  0.58966000  1.0 0.046155137
C  C218  1  0.21378000  0.32422000  0.63824000  1.0 -0.1300693233
C  C219  1  0.18542000  0.29092000  0.69160000  1.0 -0.0991306632
C  C220  1  0.18689000  0.23715000  0.69743000  1.0 -0.0293010378
C  C221  1  0.21492000  0.21960000  0.64892000  1.0 -0.1212747127
C  C222  1  0.24189000  0.25403000  0.59533000  1.0 -0.1488223403
C  C223  1  0.27591000  0.33943000  0.53235000  1.0 0.2568713058
C  C224  1  0.16191000  0.19787000  0.75719000  1.0 0.5845204396
C  C225  1  0.18635000  0.97249000  0.83061000  1.0 0.2521653413
C  C226  1  0.08180000  0.06540000  0.92300000  1.0 0.2313677721
C  C227  1  0.23840000  0.35520000  0.38120000  1.0 -0.1300693233
C  C228  1  0.27417000  0.28957000  0.38983000  1.0 -0.1212747127
C  C229  1  0.58966000  0.86118000  0.24302000  1.0 0.046155137
C  C230  1  0.63824000  0.82376000  0.21378000  1.0 -0.1300693233
C  C231  1  0.69160000  0.83206000  0.18542000  1.0 -0.0991306632
C  C232  1  0.69743000  0.87853000  0.18689000  1.0 -0.0293010378
C  C233  1  0.64892000  0.91656000  0.21492000  1.0 -0.1212747127
C  C234  1  0.59533000  0.90875000  0.24189000  1.0 -0.1488223403
C  C235  1  0.53235000  0.85231000  0.27591000  1.0 0.2568713058
C  C236  1  0.75719000  0.88303000  0.16191000  1.0 0.5845204396
C  C237  1  0.83061000  0.01055000  0.18635000  1.0 0.2521653413
C  C238  1  0.92300000  0.92980000  0.08180000  1.0 0.2313677721
C  C239  1  0.38120000  0.02520000  0.23840000  1.0 -0.1300693233
C  C240  1  0.38983000  0.04643000  0.27417000  1.0 -0.1212747127
C  C241  1  0.86118000  0.24302000  0.58966000  1.0 0.046155137
C  C242  1  0.82376000  0.21378000  0.63824000  1.0 -0.1300693233
C  C243  1  0.83206000  0.18542000  0.69160000  1.0 -0.0991306632
C  C244  1  0.87853000  0.18689000  0.69743000  1.0 -0.0293010378
C  C245  1  0.91656000  0.21492000  0.64892000  1.0 -0.1212747127
C  C246  1  0.90875000  0.24189000  0.59533000  1.0 -0.1488223403
C  C247  1  0.85231000  0.27591000  0.53235000  1.0 0.2568713058
C  C248  1  0.88303000  0.16191000  0.75719000  1.0 0.5845204396
C  C249  1  0.01055000  0.18635000  0.83061000  1.0 0.2521653413
C  C250  1  0.92980000  0.08180000  0.92300000  1.0 0.2313677721
C  C251  1  0.02520000  0.23840000  0.38120000  1.0 -0.1300693233
C  C252  1  0.04643000  0.27417000  0.38983000  1.0 -0.1212747127
C  C253  1  0.30614000  0.58966000  0.24302000  1.0 0.046155137
C  C254  1  0.32422000  0.63824000  0.21378000  1.0 -0.1300693233
C  C255  1  0.29092000  0.69160000  0.18542000  1.0 -0.0991306632
C  C256  1  0.23715000  0.69743000  0.18689000  1.0 -0.0293010378
C  C257  1  0.21960000  0.64892000  0.21492000  1.0 -0.1212747127
C  C258  1  0.25403000  0.59533000  0.24189000  1.0 -0.1488223403
C  C259  1  0.33943000  0.53235000  0.27591000  1.0 0.2568713058
C  C260  1  0.19787000  0.75719000  0.16191000  1.0 0.5845204396
C  C261  1  0.97249000  0.83061000  0.18635000  1.0 0.2521653413
C  C262  1  0.06540000  0.92300000  0.08180000  1.0 0.2313677721
C  C263  1  0.35520000  0.38120000  0.23840000  1.0 -0.1300693233
C  C264  1  0.28957000  0.38983000  0.27417000  1.0 -0.1212747127
C  C265  1  0.58966000  0.30614000  0.86118000  1.0 0.046155137
C  C266  1  0.63824000  0.32422000  0.82376000  1.0 -0.1300693233
C  C267  1  0.69160000  0.29092000  0.83206000  1.0 -0.0991306632
C  C268  1  0.69743000  0.23715000  0.87853000  1.0 -0.0293010378
C  C269  1  0.64892000  0.21960000  0.91656000  1.0 -0.1212747127
C  C270  1  0.59533000  0.25403000  0.90875000  1.0 -0.1488223403
C  C271  1  0.53235000  0.33943000  0.85231000  1.0 0.2568713058
C  C272  1  0.75719000  0.19787000  0.88303000  1.0 0.5845204396
C  C273  1  0.83061000  0.97249000  0.01055000  1.0 0.2568713058
C  C274  1  0.92300000  0.06540000  0.92980000  1.0 0.2313677721
C  C275  1  0.38120000  0.35520000  0.02520000  1.0 -0.1300693233
C  C276  1  0.38983000  0.28957000  0.04643000  1.0 -0.1212747127
C  C277  1  0.24302000  0.86118000  0.30614000  1.0 0.046155137
C  C278  1  0.21378000  0.82376000  0.32422000  1.0 -0.1300693233
C  C279  1  0.18542000  0.83206000  0.29092000  1.0 -0.0991306632
C  C280  1  0.18689000  0.87853000  0.23715000  1.0 -0.0293010378
C  C281  1  0.21492000  0.91656000  0.21960000  1.0 -0.1212747127
C  C282  1  0.24189000  0.90875000  0.25403000  1.0 -0.1488223403
C  C283  1  0.27591000  0.85231000  0.33943000  1.0 0.2568713058
C  C284  1  0.16191000  0.88303000  0.19787000  1.0 0.5845204396
C  C285  1  0.18635000  0.01055000  0.97249000  1.0 0.2521653413
C  C286  1  0.08180000  0.92980000  0.06540000  1.0 0.2313677721
C  C287  1  0.23840000  0.02520000  0.35520000  1.0 -0.1300693233
C  C288  1  0.27417000  0.04643000  0.28957000  1.0 -0.1212747127
N  N1  1  0.98363000  0.78095000  0.39693000  1.0 -0.3175546835
N  N2  1  0.94174000  0.81518000  0.37340000  1.0 -0.0827627409
N  N3  1  0.96472000  0.83210000  0.31670000  1.0 -0.0622173135
N  N4  1  0.02323000  0.80821000  0.30103000  1.0 -0.2546063461
N  N5  1  0.83352000  0.77414000  0.50090000  1.0 -0.2926972543
N  N6  1  0.78095000  0.98363000  0.83849000  1.0 -0.3175546835
N  N7  1  0.81518000  0.94174000  0.86968000  1.0 -0.0827627409
N  N8  1  0.83210000  0.96472000  0.88648000  1.0 -0.0622173135
N  N9  1  0.80821000  0.02323000  0.86753000  1.0 -0.2546063461
N  N10  1  0.77414000  0.83352000  0.89144000  1.0 -0.2926972543
N  N11  1  0.39693000  0.83849000  0.98363000  1.0 -0.3175546835
N  N12  1  0.37340000  0.86968000  0.94174000  1.0 -0.0827627409
N  N13  1  0.31670000  0.88648000  0.96472000  1.0 -0.0622173135
N  N14  1  0.30103000  0.86753000  0.02323000  1.0 -0.2546063461
N  N15  1  0.50090000  0.89144000  0.83352000  1.0 -0.2926972543
N  N16  1  0.83849000  0.39693000  0.78095000  1.0 -0.3175546835
N  N17  1  0.86968000  0.37340000  0.81518000  1.0 -0.0827627409
N  N18  1  0.88648000  0.31670000  0.83210000  1.0 -0.0622173135
N  N19  1  0.86753000  0.30103000  0.80821000  1.0 -0.2546063461
N  N20  1  0.89144000  0.50090000  0.77414000  1.0 -0.2926972543
N  N21  1  0.83849000  0.78095000  0.98363000  1.0 -0.3175546835
N  N22  1  0.86968000  0.81518000  0.94174000  1.0 -0.0827627409
N  N23  1  0.88648000  0.83210000  0.96472000  1.0 -0.0622173135
N  N24  1  0.86753000  0.80821000  0.02323000  1.0 -0.2546063461
N  N25  1  0.89144000  0.77414000  0.83352000  1.0 -0.2926972543
N  N26  1  0.39693000  0.98363000  0.78095000  1.0 -0.3175546835
N  N27  1  0.37340000  0.94174000  0.81518000  1.0 -0.0827627409
N  N28  1  0.31670000  0.96472000  0.83210000  1.0 -0.0622173135
N  N29  1  0.30103000  0.02323000  0.80821000  1.0 -0.2546063461
N  N30  1  0.50090000  0.83352000  0.77414000  1.0 -0.2926972543
N  N31  1  0.78095000  0.83849000  0.39693000  1.0 -0.3175546835
N  N32  1  0.81518000  0.86968000  0.37340000  1.0 -0.0827627409
N  N33  1  0.83210000  0.88648000  0.31670000  1.0 -0.0622173135
N  N34  1  0.80821000  0.86753000  0.30103000  1.0 -0.2546063461
N  N35  1  0.77414000  0.89144000  0.50090000  1.0 -0.2926972543
N  N36  1  0.98363000  0.39693000  0.83849000  1.0 -0.3175546835
N  N37  1  0.94174000  0.37340000  0.86968000  1.0 -0.0827627409
N  N38  1  0.96472000  0.31670000  0.88648000  1.0 -0.0622173135
N  N39  1  0.02323000  0.30103000  0.86753000  1.0 -0.2546063461
N  N40  1  0.83352000  0.50090000  0.89144000  1.0 -0.2926972543
N  N41  1  0.39693000  0.78095000  0.83849000  1.0 -0.3175546835
N  N42  1  0.37340000  0.81518000  0.86968000  1.0 -0.0827627409
N  N43  1  0.31670000  0.83210000  0.88648000  1.0 -0.0622173135
N  N44  1  0.30103000  0.80821000  0.86753000  1.0 -0.2546063461
N  N45  1  0.50090000  0.77414000  0.89144000  1.0 -0.2926972543
N  N46  1  0.83849000  0.98363000  0.39693000  1.0 -0.3175546835
N  N47  1  0.86968000  0.94174000  0.37340000  1.0 -0.0827627409
N  N48  1  0.88648000  0.96472000  0.31670000  1.0 -0.0653107735
N  N49  1  0.86753000  0.02323000  0.30103000  1.0 -0.2546063461
N  N50  1  0.89144000  0.83352000  0.50090000  1.0 -0.2926972543
N  N51  1  0.98363000  0.83849000  0.78095000  1.0 -0.3175546835
N  N52  1  0.94174000  0.86968000  0.81518000  1.0 -0.0827627409
N  N53  1  0.96472000  0.88648000  0.83210000  1.0 -0.0622173135
N  N54  1  0.02323000  0.86753000  0.80821000  1.0 -0.2546063461
N  N55  1  0.83352000  0.89144000  0.77414000  1.0 -0.2926972543
N  N56  1  0.78095000  0.39693000  0.98363000  1.0 -0.3175546835
N  N57  1  0.81518000  0.37340000  0.94174000  1.0 -0.0827627409
N  N58  1  0.83210000  0.31670000  0.96472000  1.0 -0.0622173135
N  N59  1  0.80821000  0.30103000  0.02323000  1.0 -0.2546063461
N  N60  1  0.77414000  0.50090000  0.83352000  1.0 -0.2926972543
N  N61  1  0.48363000  0.28095000  0.33849000  1.0 -0.3175546835
N  N62  1  0.44174000  0.31518000  0.36968000  1.0 -0.0827627409
N  N63  1  0.46472000  0.33210000  0.38648000  1.0 -0.0622173135
N  N64  1  0.52323000  0.30821000  0.36753000  1.0 -0.2546063461
N  N65  1  0.33352000  0.27414000  0.39144000  1.0 -0.2926972543
N  N66  1  0.28095000  0.48363000  0.89693000  1.0 -0.3175546835
N  N67  1  0.31518000  0.44174000  0.87340000  1.0 -0.0827627409
N  N68  1  0.33210000  0.46472000  0.81670000  1.0 -0.0622173135
N  N69  1  0.30821000  0.52323000  0.80103000  1.0 -0.2546063461
N  N70  1  0.27414000  0.33352000  0.00090000  1.0 -0.2926972543
N  N71  1  0.89693000  0.33849000  0.28095000  1.0 -0.3175546835
N  N72  1  0.87340000  0.36968000  0.31518000  1.0 -0.0827627409
N  N73  1  0.81670000  0.38648000  0.33210000  1.0 -0.0622173135
N  N74  1  0.80103000  0.36753000  0.30821000  1.0 -0.2546063461
N  N75  1  0.00090000  0.39144000  0.27414000  1.0 -0.2926972543
N  N76  1  0.33849000  0.89693000  0.48363000  1.0 -0.3175546835
N  N77  1  0.36968000  0.87340000  0.44174000  1.0 -0.0827627409
N  N78  1  0.38648000  0.81670000  0.46472000  1.0 -0.0622173135
N  N79  1  0.36753000  0.80103000  0.52323000  1.0 -0.2546063461
N  N80  1  0.39144000  0.00090000  0.33352000  1.0 -0.2926972543
N  N81  1  0.33849000  0.28095000  0.89693000  1.0 -0.3175546835
N  N82  1  0.36968000  0.31518000  0.87340000  1.0 -0.0827627409
N  N83  1  0.38648000  0.33210000  0.81670000  1.0 -0.0622173135
N  N84  1  0.36753000  0.30821000  0.80103000  1.0 -0.2546063461
N  N85  1  0.39144000  0.27414000  0.00090000  1.0 -0.2926972543
N  N86  1  0.89693000  0.48363000  0.33849000  1.0 -0.3175546835
N  N87  1  0.87340000  0.44174000  0.36968000  1.0 -0.0827627409
N  N88  1  0.81670000  0.46472000  0.38648000  1.0 -0.0622173135
N  N89  1  0.80103000  0.52323000  0.36753000  1.0 -0.2546063461
N  N90  1  0.00090000  0.33352000  0.39144000  1.0 -0.2926972543
N  N91  1  0.28095000  0.33849000  0.48363000  1.0 -0.3175546835
N  N92  1  0.31518000  0.36968000  0.44174000  1.0 -0.0827627409
N  N93  1  0.33210000  0.38648000  0.46472000  1.0 -0.0622173135
N  N94  1  0.30821000  0.36753000  0.52323000  1.0 -0.2546063461
N  N95  1  0.27414000  0.39144000  0.33352000  1.0 -0.2926972543
N  N96  1  0.48363000  0.89693000  0.28095000  1.0 -0.3175546835
N  N97  1  0.44174000  0.87340000  0.31518000  1.0 -0.0827627409
N  N98  1  0.46472000  0.81670000  0.33210000  1.0 -0.0622173135
N  N99  1  0.52323000  0.80103000  0.30821000  1.0 -0.2546063461
N  N100  1  0.33352000  0.00090000  0.27414000  1.0 -0.2926972543
N  N101  1  0.89693000  0.28095000  0.48363000  1.0 -0.3175546835
N  N102  1  0.87340000  0.31518000  0.44174000  1.0 -0.0827627409
N  N103  1  0.81670000  0.33210000  0.46472000  1.0 -0.0622173135
N  N104  1  0.80103000  0.30821000  0.52323000  1.0 -0.2546063461
N  N105  1  0.00090000  0.27414000  0.33352000  1.0 -0.2926972543
N  N106  1  0.33849000  0.48363000  0.28095000  1.0 -0.3175546835
N  N107  1  0.36968000  0.44174000  0.31518000  1.0 -0.0827627409
N  N108  1  0.38648000  0.46472000  0.33210000  1.0 -0.0622173135
N  N109  1  0.36753000  0.52323000  0.30821000  1.0 -0.2546063461
N  N110  1  0.39144000  0.33352000  0.27414000  1.0 -0.2926972543
N  N111  1  0.48363000  0.33849000  0.89693000  1.0 -0.3175546835
N  N112  1  0.44174000  0.36968000  0.87340000  1.0 -0.0827627409
N  N113  1  0.46472000  0.38648000  0.81670000  1.0 -0.0622173135
N  N114  1  0.52323000  0.36753000  0.80103000  1.0 -0.2546063461
N  N115  1  0.33352000  0.39144000  0.00090000  1.0 -0.2926972543
N  N116  1  0.28095000  0.89693000  0.33849000  1.0 -0.3175546835
N  N117  1  0.31518000  0.87340000  0.36968000  1.0 -0.0827627409
N  N118  1  0.33210000  0.81670000  0.38648000  1.0 -0.0622173135
N  N119  1  0.30821000  0.80103000  0.36753000  1.0 -0.2546063461
N  N120  1  0.27414000  0.00090000  0.39144000  1.0 -0.2926972543
O  O1  1  0.29497000  0.62157000  0.36075000  1.0 -0.5816197977
O  O2  1  0.26562000  0.68236000  0.40788000  1.0 -0.5654220877
O  O3  1  0.31689000  0.68613000  0.47569000  1.0 -0.5080016775
O  O4  1  0.36761000  0.70777000  0.49891000  1.0 -0.5816197977
O  O5  1  0.44970000  0.52810000  0.44710000  1.0 -0.0622173135
O  O6  1  0.46930000  0.54670000  0.42570000  1.0 -0.0293010378
O  O7  1  0.62157000  0.29497000  0.72271000  1.0 -0.5816197977
O  O8  1  0.68236000  0.26562000  0.64414000  1.0 -0.5654220877
O  O9  1  0.68613000  0.31689000  0.52129000  1.0 -0.5080016775
O  O10  1  0.70777000  0.36761000  0.42571000  1.0 -0.5816197977
O  O11  1  0.52810000  0.44970000  0.57510000  1.0 -0.0622173135
O  O12  1  0.54670000  0.46930000  0.55830000  1.0 -0.0293010378
O  O13  1  0.36075000  0.72271000  0.29497000  1.0 -0.5816197977
O  O14  1  0.40788000  0.64414000  0.26562000  1.0 -0.5654220877
O  O15  1  0.47569000  0.52129000  0.31689000  1.0 -0.5080016775
O  O16  1  0.49891000  0.42571000  0.36761000  1.0 -0.5816197977
O  O17  1  0.44710000  0.57510000  0.44970000  1.0 -0.0622173135
O  O18  1  0.42570000  0.55830000  0.46930000  1.0 -0.0293010378
O  O19  1  0.72271000  0.36075000  0.62157000  1.0 -0.5816197977
O  O20  1  0.64414000  0.40788000  0.68236000  1.0 -0.5654220877
O  O21  1  0.52129000  0.47569000  0.68613000  1.0 -0.5080016775
O  O22  1  0.42571000  0.49891000  0.70777000  1.0 -0.5816197977
O  O23  1  0.57510000  0.44710000  0.52810000  1.0 -0.0622173135
O  O24  1  0.55830000  0.42570000  0.54670000  1.0 -0.0293010378
O  O25  1  0.72271000  0.62157000  0.29497000  1.0 -0.5816197977
O  O26  1  0.64414000  0.68236000  0.26562000  1.0 -0.5654220877
O  O27  1  0.52129000  0.68613000  0.31689000  1.0 -0.5080016775
O  O28  1  0.42571000  0.70777000  0.36761000  1.0 -0.5816197977
O  O29  1  0.57510000  0.52810000  0.44970000  1.0 -0.0622173135
O  O30  1  0.55830000  0.54670000  0.46930000  1.0 -0.0293010378
O  O31  1  0.36075000  0.29497000  0.62157000  1.0 -0.5816197977
O  O32  1  0.40788000  0.26562000  0.68236000  1.0 -0.5654220877
O  O33  1  0.47569000  0.31689000  0.68613000  1.0 -0.5080016775
O  O34  1  0.49891000  0.36761000  0.70777000  1.0 -0.5816197977
O  O35  1  0.44710000  0.44970000  0.52810000  1.0 -0.0622173135
O  O36  1  0.42570000  0.46930000  0.54670000  1.0 -0.0293010378
O  O37  1  0.62157000  0.72271000  0.36075000  1.0 -0.5816197977
O  O38  1  0.68236000  0.64414000  0.40788000  1.0 -0.5654220877
O  O39  1  0.68613000  0.52129000  0.47569000  1.0 -0.5080016775
O  O40  1  0.70777000  0.42571000  0.49891000  1.0 -0.5816197977
O  O41  1  0.52810000  0.57510000  0.44710000  1.0 -0.0622173135
O  O42  1  0.54670000  0.55830000  0.42570000  1.0 -0.0293010378
O  O43  1  0.29497000  0.36075000  0.72271000  1.0 -0.5816197977
O  O44  1  0.26562000  0.40788000  0.64414000  1.0 -0.5654220877
O  O45  1  0.31689000  0.47569000  0.52129000  1.0 -0.5080016775
O  O46  1  0.36761000  0.49891000  0.42571000  1.0 -0.5816197977
O  O47  1  0.44970000  0.44710000  0.57510000  1.0 -0.0622173135
O  O48  1  0.46930000  0.42570000  0.55830000  1.0 -0.0293010378
O  O49  1  0.36075000  0.62157000  0.72271000  1.0 -0.5816197977
O  O50  1  0.40788000  0.68236000  0.64414000  1.0 -0.5654220877
O  O51  1  0.47569000  0.68613000  0.52129000  1.0 -0.5080016775
O  O52  1  0.49891000  0.70777000  0.42571000  1.0 -0.5816197977
O  O53  1  0.44710000  0.52810000  0.57510000  1.0 -0.0622173135
O  O54  1  0.42570000  0.54670000  0.55830000  1.0 -0.0293010378
O  O55  1  0.72271000  0.29497000  0.36075000  1.0 -0.5816197977
O  O56  1  0.64414000  0.26562000  0.40788000  1.0 -0.5654220877
O  O57  1  0.52129000  0.31689000  0.47569000  1.0 -0.5080016775
O  O58  1  0.42571000  0.36761000  0.49891000  1.0 -0.5816197977
O  O59  1  0.57510000  0.44970000  0.44710000  1.0 -0.0622173135
O  O60  1  0.55830000  0.46930000  0.42570000  1.0 -0.0293010378
O  O61  1  0.29497000  0.72271000  0.62157000  1.0 -0.5816197977
O  O62  1  0.26562000  0.64414000  0.68236000  1.0 -0.5654220877
O  O63  1  0.31689000  0.52129000  0.68613000  1.0 -0.5080016775
O  O64  1  0.36761000  0.42571000  0.70777000  1.0 -0.5816197977
O  O65  1  0.44970000  0.57510000  0.52810000  1.0 -0.0622173135
O  O66  1  0.46930000  0.55830000  0.54670000  1.0 -0.0293010378
O  O67  1  0.62157000  0.36075000  0.29497000  1.0 -0.5816197977
O  O68  1  0.68236000  0.40788000  0.26562000  1.0 -0.5654220877
O  O69  1  0.68613000  0.47569000  0.31689000  1.0 -0.5080016775
O  O70  1  0.70777000  0.49891000  0.36761000  1.0 -0.5816197977
O  O71  1  0.52810000  0.44710000  0.44970000  1.0 -0.0622173135
O  O72  1  0.54670000  0.42570000  0.46930000  1.0 -0.0293010378
O  O73  1  0.79497000  0.12157000  0.22271000  1.0 -0.5816197977
O  O74  1  0.76562000  0.18236000  0.14414000  1.0 -0.5654220877
O  O75  1  0.81689000  0.18613000  0.02129000  1.0 -0.5080016775
O  O76  1  0.86761000  0.20777000  0.92571000  1.0 -0.5816197977
O  O77  1  0.94970000  0.02810000  0.07510000  1.0 -0.0622173135
O  O78  1  0.96930000  0.04670000  0.05830000  1.0 -0.0293010378
O  O79  1  0.12157000  0.79497000  0.86075000  1.0 -0.5816197977
O  O80  1  0.18236000  0.76562000  0.90788000  1.0 -0.5654220877
O  O81  1  0.18613000  0.81689000  0.97569000  1.0 -0.5080016775
O  O82  1  0.20777000  0.86761000  0.99891000  1.0 -0.5816197977
O  O83  1  0.02810000  0.94970000  0.94710000  1.0 -0.0622173135
O  O84  1  0.04670000  0.96930000  0.92570000  1.0 -0.0293010378
O  O85  1  0.86075000  0.22271000  0.12157000  1.0 -0.5816197977
O  O86  1  0.90788000  0.14414000  0.18236000  1.0 -0.5654220877
O  O87  1  0.97569000  0.02129000  0.18613000  1.0 -0.5080016775
O  O88  1  0.99891000  0.92571000  0.20777000  1.0 -0.5816197977
O  O89  1  0.94710000  0.07510000  0.02810000  1.0 -0.0622173135
O  O90  1  0.92570000  0.05830000  0.04670000  1.0 -0.0293010378
O  O91  1  0.22271000  0.86075000  0.79497000  1.0 -0.5816197977
O  O92  1  0.14414000  0.90788000  0.76562000  1.0 -0.5654220877
O  O93  1  0.02129000  0.97569000  0.81689000  1.0 -0.5080016775
O  O94  1  0.92571000  0.99891000  0.86761000  1.0 -0.5816197977
O  O95  1  0.07510000  0.94710000  0.94970000  1.0 -0.0622173135
O  O96  1  0.05830000  0.92570000  0.96930000  1.0 -0.0293010378
O  O97  1  0.22271000  0.12157000  0.86075000  1.0 -0.5816197977
O  O98  1  0.14414000  0.18236000  0.90788000  1.0 -0.5654220877
O  O99  1  0.02129000  0.18613000  0.97569000  1.0 -0.5080016775
O  O100  1  0.92571000  0.20777000  0.99891000  1.0 -0.5816197977
O  O101  1  0.07510000  0.02810000  0.94710000  1.0 -0.0622173135
O  O102  1  0.05830000  0.04670000  0.92570000  1.0 -0.0293010378
O  O103  1  0.86075000  0.79497000  0.22271000  1.0 -0.5816197977
O  O104  1  0.90788000  0.76562000  0.14414000  1.0 -0.5654220877
O  O105  1  0.97569000  0.81689000  0.02129000  1.0 -0.5080016775
O  O106  1  0.99891000  0.86761000  0.92571000  1.0 -0.5816197977
O  O107  1  0.94710000  0.94970000  0.07510000  1.0 -0.0622173135
O  O108  1  0.92570000  0.96930000  0.05830000  1.0 -0.0293010378
O  O109  1  0.12157000  0.22271000  0.79497000  1.0 -0.5816197977
O  O110  1  0.18236000  0.14414000  0.76562000  1.0 -0.5654220877
O  O111  1  0.18613000  0.02129000  0.81689000  1.0 -0.5080016775
O  O112  1  0.20777000  0.92571000  0.86761000  1.0 -0.5816197977
O  O113  1  0.02810000  0.07510000  0.94970000  1.0 -0.0622173135
O  O114  1  0.04670000  0.05830000  0.96930000  1.0 -0.0293010378
O  O115  1  0.79497000  0.86075000  0.12157000  1.0 -0.5816197977
O  O116  1  0.76562000  0.90788000  0.18236000  1.0 -0.5654220877
O  O117  1  0.81689000  0.97569000  0.18613000  1.0 -0.5080016775
O  O118  1  0.86761000  0.99891000  0.20777000  1.0 -0.5816197977
O  O119  1  0.94970000  0.94710000  0.02810000  1.0 -0.0622173135
O  O120  1  0.96930000  0.92570000  0.04670000  1.0 -0.0293010378
O  O121  1  0.86075000  0.12157000  0.79497000  1.0 -0.5816197977
O  O122  1  0.90788000  0.18236000  0.76562000  1.0 -0.5654220877
O  O123  1  0.97569000  0.18613000  0.81689000  1.0 -0.5080016775
O  O124  1  0.99891000  0.20777000  0.86761000  1.0 -0.5816197977
O  O125  1  0.94710000  0.02810000  0.94970000  1.0 -0.0622173135
O  O126  1  0.92570000  0.04670000  0.96930000  1.0 -0.0293010378
O  O127  1  0.22271000  0.79497000  0.12157000  1.0 -0.5816197977
O  O128  1  0.14414000  0.76562000  0.18236000  1.0 -0.5654220877
O  O129  1  0.02129000  0.81689000  0.18613000  1.0 -0.5080016775
O  O130  1  0.92571000  0.86761000  0.20777000  1.0 -0.5816197977
O  O131  1  0.07510000  0.94970000  0.02810000  1.0 -0.0622173135
O  O132  1  0.05830000  0.96930000  0.04670000  1.0 -0.0293010378
O  O133  1  0.79497000  0.22271000  0.86075000  1.0 -0.5816197977
O  O134  1  0.76562000  0.14414000  0.90788000  1.0 -0.5654220877
O  O135  1  0.81689000  0.02129000  0.97569000  1.0 -0.5080016775
O  O136  1  0.86761000  0.92571000  0.99891000  1.0 -0.5816197977
O  O137  1  0.94970000  0.07510000  0.94710000  1.0 -0.0622173135
O  O138  1  0.96930000  0.05830000  0.92570000  1.0 -0.0293010378
O  O139  1  0.12157000  0.86075000  0.22271000  1.0 -0.5816197977
O  O140  1  0.18236000  0.90788000  0.14414000  1.0 -0.5654220877
O  O141  1  0.18613000  0.97569000  0.02129000  1.0 -0.5080016775
O  O142  1  0.20777000  0.99891000  0.92571000  1.0 -0.5816197977
O  O143  1  0.02810000  0.94710000  0.07510000  1.0 -0.0622173135
O  O144  1  0.04670000  0.92570000  0.05830000  1.0 -0.0293010378
O  O145  1  0.39364000  0.60636000  0.39364000  1.0 -0.4247097519
O  O146  1  0.60636000  0.39364000  0.60636000  1.0 -0.4255594361
O  O147  1  0.60636000  0.60636000  0.39364000  1.0 -0.4247097519
O  O148  1  0.39364000  0.39364000  0.60636000  1.0 -0.4255594361
O  O149  1  0.39364000  0.60636000  0.60636000  1.0 -0.4255594361
O  O150  1  0.60636000  0.39364000  0.39364000  1.0 -0.4247097519
O  O151  1  0.89364000  0.10636000  0.10636000  1.0 -0.4247097519
O  O152  1  0.10636000  0.89364000  0.89364000  1.0 -0.4255594361
O  O153  1  0.10636000  0.10636000  0.89364000  1.0 -0.4247097519
O  O154  1  0.89364000  0.89364000  0.10636000  1.0 -0.4255594361
O  O155  1  0.89364000  0.10636000  0.89364000  1.0 -0.4247097519
O  O156  1  0.10636000  0.89364000  0.10636000  1.0 -0.4255594361
