# DDEC6 charges by PACMAN v1.1 (https://github.com/mtap-research/PACMAN-charge/)
data_SEJJAV_FSR_pacman
_symmetry_space_group_name_H-M   'P 1'
_cell_length_a   27.92890000
_cell_length_b   27.92890000
_cell_length_c   27.92890000
_cell_angle_alpha   60.00000000
_cell_angle_beta   60.00000000
_cell_angle_gamma   60.00000000
_symmetry_Int_Tables_number   1
_chemical_formula_structural   Mn7H56C60(N10O13)2
_chemical_formula_sum   'Mn42 H336 C360 N120 O156'
_cell_volume   15404.46058349
_cell_formula_units_Z   6
loop_
 _symmetry_equiv_pos_site_id
 _symmetry_equiv_pos_as_xyz
  1  'x, y, z'
loop_
 _atom_site_type_symbol
 _atom_site_label
 _atom_site_symmetry_multiplicity
 _atom_site_fract_x
 _atom_site_fract_y
 _atom_site_fract_z
 _atom_site_occupancy
 _atom_site_charge
Mn  Mn1  1  0.17638000  0.36486000  0.04978000  1.0 0.9359159445
Mn  Mn2  1  0.36486000  0.17638000  0.40898000  1.0 0.9359159445
Mn  Mn3  1  0.04978000  0.40898000  0.17638000  1.0 0.9359159445
Mn  Mn4  1  0.40898000  0.04978000  0.36486000  1.0 0.9359159445
Mn  Mn5  1  0.40898000  0.36486000  0.17638000  1.0 0.9359159445
Mn  Mn6  1  0.04978000  0.17638000  0.36486000  1.0 0.9359159445
Mn  Mn7  1  0.36486000  0.40898000  0.04978000  1.0 0.9359159445
Mn  Mn8  1  0.17638000  0.04978000  0.40898000  1.0 0.9359159445
Mn  Mn9  1  0.04978000  0.36486000  0.40898000  1.0 0.9359159445
Mn  Mn10  1  0.40898000  0.17638000  0.04978000  1.0 0.934654423
Mn  Mn11  1  0.17638000  0.40898000  0.36486000  1.0 0.9359159445
Mn  Mn12  1  0.36486000  0.04978000  0.17638000  1.0 0.934654423
Mn  Mn13  1  0.67638000  0.86486000  0.90898000  1.0 0.9359159445
Mn  Mn14  1  0.86486000  0.67638000  0.54978000  1.0 0.9359159445
Mn  Mn15  1  0.54978000  0.90898000  0.86486000  1.0 0.9359159445
Mn  Mn16  1  0.90898000  0.54978000  0.67638000  1.0 0.9359159445
Mn  Mn17  1  0.90898000  0.86486000  0.54978000  1.0 0.9359159445
Mn  Mn18  1  0.54978000  0.67638000  0.90898000  1.0 0.9359159445
Mn  Mn19  1  0.86486000  0.90898000  0.67638000  1.0 0.9359159445
Mn  Mn20  1  0.67638000  0.54978000  0.86486000  1.0 0.9359159445
Mn  Mn21  1  0.54978000  0.86486000  0.67638000  1.0 0.9359159445
Mn  Mn22  1  0.90898000  0.67638000  0.86486000  1.0 0.9359159445
Mn  Mn23  1  0.67638000  0.90898000  0.54978000  1.0 0.9359159445
Mn  Mn24  1  0.86486000  0.54978000  0.90898000  1.0 0.9359159445
Mn  Mn25  1  0.89570000  0.89570000  0.89570000  1.0 0.5864247111
Mn  Mn26  1  0.89570000  0.89570000  0.31290000  1.0 0.5864247111
Mn  Mn27  1  0.89570000  0.31290000  0.89570000  1.0 0.5864247111
Mn  Mn28  1  0.31290000  0.89570000  0.89570000  1.0 0.5864247111
Mn  Mn29  1  0.39570000  0.39570000  0.81290000  1.0 0.5864247111
Mn  Mn30  1  0.39570000  0.39570000  0.39570000  1.0 0.5864247111
Mn  Mn31  1  0.39570000  0.81290000  0.39570000  1.0 0.5864247111
Mn  Mn32  1  0.81290000  0.39570000  0.39570000  1.0 0.5864247111
Mn  Mn33  1  0.33578000  0.33578000  0.99266000  1.0 0.8312905216
Mn  Mn34  1  0.33578000  0.33578000  0.33578000  1.0 0.8312905216
Mn  Mn35  1  0.99266000  0.33578000  0.33578000  1.0 0.8312905216
Mn  Mn36  1  0.33578000  0.99266000  0.33578000  1.0 0.8312905216
Mn  Mn37  1  0.83578000  0.83578000  0.83578000  1.0 0.8312905216
Mn  Mn38  1  0.83578000  0.83578000  0.49266000  1.0 0.8312905216
Mn  Mn39  1  0.49266000  0.83578000  0.83578000  1.0 0.8312905216
Mn  Mn40  1  0.83578000  0.49266000  0.83578000  1.0 0.8312905216
Mn  Mn41  1  0.25000000  0.25000000  0.25000000  1.0 0.5731068337
Mn  Mn42  1  0.75000000  0.75000000  0.75000000  1.0 0.5812239134
H  H1  1  0.03780000  0.61640000  0.88820000  1.0 0.1196295157
H  H2  1  0.08760000  0.52560000  0.94520000  1.0 0.110596444
H  H3  1  0.03450000  0.59710000  0.06650000  1.0 0.1196295157
H  H4  1  0.99310000  0.68870000  0.00610000  1.0 0.1196295157
H  H5  1  0.19860000  0.43940000  0.07980000  1.0 0.0755148017
H  H6  1  0.98460000  0.97820000  0.79980000  1.0 0.110596444
H  H7  1  0.01580000  0.96020000  0.84400000  1.0 0.0968719633
H  H8  1  0.99960000  0.91260000  0.92560000  1.0 0.0968719633
H  H9  1  0.04490000  0.85250000  0.91270000  1.0 0.110596444
H  H10  1  0.05540000  0.83940000  0.83460000  1.0 0.1196295157
H  H11  1  0.05140000  0.90260000  0.78980000  1.0 0.110596444
H  H12  1  0.03600000  0.80720000  0.71520000  1.0 0.2299387696
H  H13  1  0.15660000  0.34660000  0.21080000  1.0 0.1784541271
H  H14  1  0.14310000  0.32890000  0.22330000  1.0 0.1784541271
H  H15  1  0.61640000  0.03780000  0.45760000  1.0 0.1196295157
H  H16  1  0.52560000  0.08760000  0.44160000  1.0 0.110596444
H  H17  1  0.59710000  0.03450000  0.30190000  1.0 0.1196295157
H  H18  1  0.68870000  0.99310000  0.31210000  1.0 0.1196295157
H  H19  1  0.43940000  0.19860000  0.28220000  1.0 0.0755148017
H  H20  1  0.97820000  0.98460000  0.23740000  1.0 0.110596444
H  H21  1  0.96020000  0.01580000  0.18000000  1.0 0.0968719633
H  H22  1  0.91260000  0.99960000  0.16220000  1.0 0.0968719633
H  H23  1  0.85250000  0.04490000  0.18990000  1.0 0.110596444
H  H24  1  0.83940000  0.05540000  0.27060000  1.0 0.1196295157
H  H25  1  0.90260000  0.05140000  0.25620000  1.0 0.110596444
H  H26  1  0.80720000  0.03600000  0.44160000  1.0 0.2299387696
H  H27  1  0.34660000  0.15660000  0.28600000  1.0 0.1784541271
H  H28  1  0.32890000  0.14310000  0.30470000  1.0 0.1784541271
H  H29  1  0.88820000  0.45760000  0.03780000  1.0 0.1196295157
H  H30  1  0.94520000  0.44160000  0.08760000  1.0 0.110596444
H  H31  1  0.06650000  0.30190000  0.03450000  1.0 0.1196295157
H  H32  1  0.00610000  0.31210000  0.99310000  1.0 0.1196295157
H  H33  1  0.07980000  0.28220000  0.19860000  1.0 0.0755148017
H  H34  1  0.79980000  0.23740000  0.98460000  1.0 0.110596444
H  H35  1  0.84400000  0.18000000  0.01580000  1.0 0.0968719633
H  H36  1  0.92560000  0.16220000  0.99960000  1.0 0.0968719633
H  H37  1  0.91270000  0.18990000  0.04490000  1.0 0.110596444
H  H38  1  0.83460000  0.27060000  0.05540000  1.0 0.1196295157
H  H39  1  0.78980000  0.25620000  0.05140000  1.0 0.110596444
H  H40  1  0.71520000  0.44160000  0.03600000  1.0 0.2299387696
H  H41  1  0.21080000  0.28600000  0.15660000  1.0 0.1784541271
H  H42  1  0.22330000  0.30470000  0.14310000  1.0 0.1784541271
H  H43  1  0.45760000  0.88820000  0.61640000  1.0 0.1196295157
H  H44  1  0.44160000  0.94520000  0.52560000  1.0 0.110596444
H  H45  1  0.30190000  0.06650000  0.59710000  1.0 0.1196295157
H  H46  1  0.31210000  0.00610000  0.68870000  1.0 0.1196295157
H  H47  1  0.28220000  0.07980000  0.43940000  1.0 0.0755148017
H  H48  1  0.23740000  0.79980000  0.97820000  1.0 0.110596444
H  H49  1  0.18000000  0.84400000  0.96020000  1.0 0.0968719633
H  H50  1  0.16220000  0.92560000  0.91260000  1.0 0.0968719633
H  H51  1  0.18990000  0.91270000  0.85250000  1.0 0.110596444
H  H52  1  0.27060000  0.83460000  0.83940000  1.0 0.1196295157
H  H53  1  0.25620000  0.78980000  0.90260000  1.0 0.110596444
H  H54  1  0.44160000  0.71520000  0.80720000  1.0 0.2299387696
H  H55  1  0.28600000  0.21080000  0.34660000  1.0 0.1784541271
H  H56  1  0.30470000  0.22330000  0.32890000  1.0 0.1784541271
H  H57  1  0.45760000  0.61640000  0.03780000  1.0 0.1196295157
H  H58  1  0.44160000  0.52560000  0.08760000  1.0 0.110596444
H  H59  1  0.30190000  0.59710000  0.03450000  1.0 0.1196295157
H  H60  1  0.31210000  0.68870000  0.99310000  1.0 0.1196295157
H  H61  1  0.28220000  0.43940000  0.19860000  1.0 0.0755148017
H  H62  1  0.23740000  0.97820000  0.98460000  1.0 0.110596444
H  H63  1  0.18000000  0.96020000  0.01580000  1.0 0.0968719633
H  H64  1  0.16220000  0.91260000  0.99960000  1.0 0.0968719633
H  H65  1  0.18990000  0.85250000  0.04490000  1.0 0.110596444
H  H66  1  0.27060000  0.83940000  0.05540000  1.0 0.1196295157
H  H67  1  0.25620000  0.90260000  0.05140000  1.0 0.110596444
H  H68  1  0.44160000  0.80720000  0.03600000  1.0 0.2299387696
H  H69  1  0.28600000  0.34660000  0.15660000  1.0 0.1784541271
H  H70  1  0.30470000  0.32890000  0.14310000  1.0 0.1784541271
H  H71  1  0.88820000  0.03780000  0.61640000  1.0 0.1196295157
H  H72  1  0.94520000  0.08760000  0.52560000  1.0 0.110596444
H  H73  1  0.06650000  0.03450000  0.59710000  1.0 0.1196295157
H  H74  1  0.00610000  0.99310000  0.68870000  1.0 0.1196295157
H  H75  1  0.07980000  0.19860000  0.43940000  1.0 0.0755148017
H  H76  1  0.79980000  0.98460000  0.97820000  1.0 0.110596444
H  H77  1  0.84400000  0.01580000  0.96020000  1.0 0.0968719633
H  H78  1  0.92560000  0.99960000  0.91260000  1.0 0.0968719633
H  H79  1  0.91270000  0.04490000  0.85250000  1.0 0.110596444
H  H80  1  0.83460000  0.05540000  0.83940000  1.0 0.1196295157
H  H81  1  0.78980000  0.05140000  0.90260000  1.0 0.110596444
H  H82  1  0.71520000  0.03600000  0.80720000  1.0 0.2299387696
H  H83  1  0.21080000  0.15660000  0.34660000  1.0 0.1784541271
H  H84  1  0.22330000  0.14310000  0.32890000  1.0 0.1784541271
H  H85  1  0.61640000  0.45760000  0.88820000  1.0 0.1196295157
H  H86  1  0.52560000  0.44160000  0.94520000  1.0 0.110596444
H  H87  1  0.59710000  0.30190000  0.06650000  1.0 0.1196295157
H  H88  1  0.68870000  0.31210000  0.00610000  1.0 0.1196295157
H  H89  1  0.43940000  0.28220000  0.07980000  1.0 0.0755148017
H  H90  1  0.97820000  0.23740000  0.79980000  1.0 0.110596444
H  H91  1  0.96020000  0.18000000  0.84400000  1.0 0.0968719633
H  H92  1  0.91260000  0.16220000  0.92560000  1.0 0.0968719633
H  H93  1  0.85250000  0.18990000  0.91270000  1.0 0.110596444
H  H94  1  0.83940000  0.27060000  0.83460000  1.0 0.1196295157
H  H95  1  0.90260000  0.25620000  0.78980000  1.0 0.110596444
H  H96  1  0.80720000  0.44160000  0.71520000  1.0 0.2299387696
H  H97  1  0.34660000  0.28600000  0.21080000  1.0 0.1784541271
H  H98  1  0.32890000  0.30470000  0.22330000  1.0 0.1784541271
H  H99  1  0.03780000  0.88820000  0.45760000  1.0 0.1196295157
H  H100  1  0.08760000  0.94520000  0.44160000  1.0 0.110596444
H  H101  1  0.03450000  0.06650000  0.30190000  1.0 0.1196295157
H  H102  1  0.99310000  0.00610000  0.31210000  1.0 0.1196295157
H  H103  1  0.19860000  0.07980000  0.28220000  1.0 0.0755148017
H  H104  1  0.98460000  0.79980000  0.23740000  1.0 0.110596444
H  H105  1  0.01580000  0.84400000  0.18000000  1.0 0.0968719633
H  H106  1  0.99960000  0.92560000  0.16220000  1.0 0.0968719633
H  H107  1  0.04490000  0.91270000  0.18990000  1.0 0.110596444
H  H108  1  0.05540000  0.83460000  0.27060000  1.0 0.1196295157
H  H109  1  0.05140000  0.78980000  0.25620000  1.0 0.110596444
H  H110  1  0.03600000  0.71520000  0.44160000  1.0 0.2299387696
H  H111  1  0.15660000  0.21080000  0.28600000  1.0 0.1784541271
H  H112  1  0.14310000  0.22330000  0.30470000  1.0 0.1784541271
H  H113  1  0.88820000  0.61640000  0.45760000  1.0 0.1196295157
H  H114  1  0.94520000  0.52560000  0.44160000  1.0 0.110596444
H  H115  1  0.06650000  0.59710000  0.30190000  1.0 0.1196295157
H  H116  1  0.00610000  0.68870000  0.31210000  1.0 0.1196295157
H  H117  1  0.07980000  0.43940000  0.28220000  1.0 0.0755148017
H  H118  1  0.79980000  0.97820000  0.23740000  1.0 0.110596444
H  H119  1  0.84400000  0.96020000  0.18000000  1.0 0.0968719633
H  H120  1  0.92560000  0.91260000  0.16220000  1.0 0.0968719633
H  H121  1  0.91270000  0.85250000  0.18990000  1.0 0.110596444
H  H122  1  0.83460000  0.83940000  0.27060000  1.0 0.1196295157
H  H123  1  0.78980000  0.90260000  0.25620000  1.0 0.110596444
H  H124  1  0.71520000  0.80720000  0.44160000  1.0 0.2299387696
H  H125  1  0.21080000  0.34660000  0.28600000  1.0 0.1784541271
H  H126  1  0.22330000  0.32890000  0.30470000  1.0 0.1784541271
H  H127  1  0.45760000  0.03780000  0.88820000  1.0 0.1196295157
H  H128  1  0.44160000  0.08760000  0.94520000  1.0 0.110596444
H  H129  1  0.30190000  0.03450000  0.06650000  1.0 0.1196295157
H  H130  1  0.31210000  0.99310000  0.00610000  1.0 0.1196295157
H  H131  1  0.28220000  0.19860000  0.07980000  1.0 0.0755148017
H  H132  1  0.23740000  0.98460000  0.79980000  1.0 0.110596444
H  H133  1  0.18000000  0.01580000  0.84400000  1.0 0.0968719633
H  H134  1  0.16220000  0.99960000  0.92560000  1.0 0.0968719633
H  H135  1  0.18990000  0.04490000  0.91270000  1.0 0.110596444
H  H136  1  0.27060000  0.05540000  0.83460000  1.0 0.1196295157
H  H137  1  0.25620000  0.05140000  0.78980000  1.0 0.110596444
H  H138  1  0.44160000  0.03600000  0.71520000  1.0 0.2299387696
H  H139  1  0.28600000  0.15660000  0.21080000  1.0 0.1784541271
H  H140  1  0.30470000  0.14310000  0.22330000  1.0 0.1784541271
H  H141  1  0.03780000  0.45760000  0.61640000  1.0 0.1196295157
H  H142  1  0.08760000  0.44160000  0.52560000  1.0 0.110596444
H  H143  1  0.03450000  0.30190000  0.59710000  1.0 0.1196295157
H  H144  1  0.99310000  0.31210000  0.68870000  1.0 0.1196295157
H  H145  1  0.19860000  0.28220000  0.43940000  1.0 0.0755148017
H  H146  1  0.98460000  0.23740000  0.97820000  1.0 0.110596444
H  H147  1  0.01580000  0.18000000  0.96020000  1.0 0.0968719633
H  H148  1  0.99960000  0.16220000  0.91260000  1.0 0.0968719633
H  H149  1  0.04490000  0.18990000  0.85250000  1.0 0.110596444
H  H150  1  0.05540000  0.27060000  0.83940000  1.0 0.1196295157
H  H151  1  0.05140000  0.25620000  0.90260000  1.0 0.110596444
H  H152  1  0.03600000  0.44160000  0.80720000  1.0 0.2299387696
H  H153  1  0.15660000  0.28600000  0.34660000  1.0 0.1784541271
H  H154  1  0.14310000  0.30470000  0.32890000  1.0 0.1784541271
H  H155  1  0.61640000  0.88820000  0.03780000  1.0 0.1196295157
H  H156  1  0.52560000  0.94520000  0.08760000  1.0 0.110596444
H  H157  1  0.59710000  0.06650000  0.03450000  1.0 0.1196295157
H  H158  1  0.68870000  0.00610000  0.99310000  1.0 0.1196295157
H  H159  1  0.43940000  0.07980000  0.19860000  1.0 0.0755148017
H  H160  1  0.97820000  0.79980000  0.98460000  1.0 0.110596444
H  H161  1  0.96020000  0.84400000  0.01580000  1.0 0.0968719633
H  H162  1  0.91260000  0.92560000  0.99960000  1.0 0.0968719633
H  H163  1  0.85250000  0.91270000  0.04490000  1.0 0.110596444
H  H164  1  0.83940000  0.83460000  0.05540000  1.0 0.1196295157
H  H165  1  0.90260000  0.78980000  0.05140000  1.0 0.110596444
H  H166  1  0.80720000  0.71520000  0.03600000  1.0 0.2299387696
H  H167  1  0.34660000  0.21080000  0.15660000  1.0 0.1784541271
H  H168  1  0.32890000  0.22330000  0.14310000  1.0 0.1784541271
H  H169  1  0.53780000  0.11640000  0.95760000  1.0 0.1196295157
H  H170  1  0.58760000  0.02560000  0.94160000  1.0 0.110596444
H  H171  1  0.53450000  0.09710000  0.80190000  1.0 0.1196295157
H  H172  1  0.49310000  0.18870000  0.81210000  1.0 0.1196295157
H  H173  1  0.69860000  0.93940000  0.78220000  1.0 0.0755148017
H  H174  1  0.48460000  0.47820000  0.73740000  1.0 0.110596444
H  H175  1  0.51580000  0.46020000  0.68000000  1.0 0.0968719633
H  H176  1  0.49960000  0.41260000  0.66220000  1.0 0.0968719633
H  H177  1  0.54490000  0.35250000  0.68990000  1.0 0.110596444
H  H178  1  0.55540000  0.33940000  0.77060000  1.0 0.1196295157
H  H179  1  0.55140000  0.40260000  0.75620000  1.0 0.110596444
H  H180  1  0.53600000  0.30720000  0.94160000  1.0 0.2299387696
H  H181  1  0.65660000  0.84660000  0.78600000  1.0 0.1784541271
H  H182  1  0.64310000  0.82890000  0.80470000  1.0 0.1784541271
H  H183  1  0.11640000  0.53780000  0.38820000  1.0 0.1196295157
H  H184  1  0.02560000  0.58760000  0.44520000  1.0 0.110596444
H  H185  1  0.09710000  0.53450000  0.56650000  1.0 0.1196295157
H  H186  1  0.18870000  0.49310000  0.50610000  1.0 0.1196295157
H  H187  1  0.93940000  0.69860000  0.57980000  1.0 0.0755148017
H  H188  1  0.47820000  0.48460000  0.29980000  1.0 0.110596444
H  H189  1  0.46020000  0.51580000  0.34400000  1.0 0.0968719633
H  H190  1  0.41260000  0.49960000  0.42560000  1.0 0.0968719633
H  H191  1  0.35250000  0.54490000  0.41270000  1.0 0.110596444
H  H192  1  0.33940000  0.55540000  0.33460000  1.0 0.1196295157
H  H193  1  0.40260000  0.55140000  0.28980000  1.0 0.110596444
H  H194  1  0.30720000  0.53600000  0.21520000  1.0 0.2299387696
H  H195  1  0.84660000  0.65660000  0.71080000  1.0 0.1784541271
H  H196  1  0.82890000  0.64310000  0.72330000  1.0 0.1784541271
H  H197  1  0.38820000  0.95760000  0.11640000  1.0 0.1196295157
H  H198  1  0.44520000  0.94160000  0.02560000  1.0 0.110596444
H  H199  1  0.56650000  0.80190000  0.09710000  1.0 0.1196295157
H  H200  1  0.50610000  0.81210000  0.18870000  1.0 0.1196295157
H  H201  1  0.57980000  0.78220000  0.93940000  1.0 0.0755148017
H  H202  1  0.29980000  0.73740000  0.47820000  1.0 0.110596444
H  H203  1  0.34400000  0.68000000  0.46020000  1.0 0.0968719633
H  H204  1  0.42560000  0.66220000  0.41260000  1.0 0.0968719633
H  H205  1  0.41270000  0.68990000  0.35250000  1.0 0.110596444
H  H206  1  0.33460000  0.77060000  0.33940000  1.0 0.1196295157
H  H207  1  0.28980000  0.75620000  0.40260000  1.0 0.110596444
H  H208  1  0.21520000  0.94160000  0.30720000  1.0 0.2299387696
H  H209  1  0.71080000  0.78600000  0.84660000  1.0 0.1784541271
H  H210  1  0.72330000  0.80470000  0.82890000  1.0 0.1784541271
H  H211  1  0.95760000  0.38820000  0.53780000  1.0 0.1196295157
H  H212  1  0.94160000  0.44520000  0.58760000  1.0 0.110596444
H  H213  1  0.80190000  0.56650000  0.53450000  1.0 0.1196295157
H  H214  1  0.81210000  0.50610000  0.49310000  1.0 0.1196295157
H  H215  1  0.78220000  0.57980000  0.69860000  1.0 0.0755148017
H  H216  1  0.73740000  0.29980000  0.48460000  1.0 0.110596444
H  H217  1  0.68000000  0.34400000  0.51580000  1.0 0.0968719633
H  H218  1  0.66220000  0.42560000  0.49960000  1.0 0.0968719633
H  H219  1  0.68990000  0.41270000  0.54490000  1.0 0.110596444
H  H220  1  0.77060000  0.33460000  0.55540000  1.0 0.1196295157
H  H221  1  0.75620000  0.28980000  0.55140000  1.0 0.110596444
H  H222  1  0.94160000  0.21520000  0.53600000  1.0 0.2299387696
H  H223  1  0.78600000  0.71080000  0.65660000  1.0 0.1784541271
H  H224  1  0.80470000  0.72330000  0.64310000  1.0 0.1784541271
H  H225  1  0.95760000  0.11640000  0.38820000  1.0 0.1196295157
H  H226  1  0.94160000  0.02560000  0.44520000  1.0 0.110596444
H  H227  1  0.80190000  0.09710000  0.56650000  1.0 0.1196295157
H  H228  1  0.81210000  0.18870000  0.50610000  1.0 0.1196295157
H  H229  1  0.78220000  0.93940000  0.57980000  1.0 0.0755148017
H  H230  1  0.73740000  0.47820000  0.29980000  1.0 0.110596444
H  H231  1  0.68000000  0.46020000  0.34400000  1.0 0.0968719633
H  H232  1  0.66220000  0.41260000  0.42560000  1.0 0.0968719633
H  H233  1  0.68990000  0.35250000  0.41270000  1.0 0.110596444
H  H234  1  0.77060000  0.33940000  0.33460000  1.0 0.1196295157
H  H235  1  0.75620000  0.40260000  0.28980000  1.0 0.110596444
H  H236  1  0.94160000  0.30720000  0.21520000  1.0 0.2299387696
H  H237  1  0.78600000  0.84660000  0.71080000  1.0 0.1784541271
H  H238  1  0.80470000  0.82890000  0.72330000  1.0 0.1784541271
H  H239  1  0.38820000  0.53780000  0.95760000  1.0 0.1196295157
H  H240  1  0.44520000  0.58760000  0.94160000  1.0 0.110596444
H  H241  1  0.56650000  0.53450000  0.80190000  1.0 0.1196295157
H  H242  1  0.50610000  0.49310000  0.81210000  1.0 0.1196295157
H  H243  1  0.57980000  0.69860000  0.78220000  1.0 0.0755148017
H  H244  1  0.29980000  0.48460000  0.73740000  1.0 0.110596444
H  H245  1  0.34400000  0.51580000  0.68000000  1.0 0.0968719633
H  H246  1  0.42560000  0.49960000  0.66220000  1.0 0.0968719633
H  H247  1  0.41270000  0.54490000  0.68990000  1.0 0.110596444
H  H248  1  0.33460000  0.55540000  0.77060000  1.0 0.1196295157
H  H249  1  0.28980000  0.55140000  0.75620000  1.0 0.110596444
H  H250  1  0.21520000  0.53600000  0.94160000  1.0 0.2299387696
H  H251  1  0.71080000  0.65660000  0.78600000  1.0 0.1784541271
H  H252  1  0.72330000  0.64310000  0.80470000  1.0 0.1784541271
H  H253  1  0.11640000  0.95760000  0.53780000  1.0 0.1196295157
H  H254  1  0.02560000  0.94160000  0.58760000  1.0 0.110596444
H  H255  1  0.09710000  0.80190000  0.53450000  1.0 0.1196295157
H  H256  1  0.18870000  0.81210000  0.49310000  1.0 0.1196295157
H  H257  1  0.93940000  0.78220000  0.69860000  1.0 0.0755148017
H  H258  1  0.47820000  0.73740000  0.48460000  1.0 0.110596444
H  H259  1  0.46020000  0.68000000  0.51580000  1.0 0.0968719633
H  H260  1  0.41260000  0.66220000  0.49960000  1.0 0.0968719633
H  H261  1  0.35250000  0.68990000  0.54490000  1.0 0.110596444
H  H262  1  0.33940000  0.77060000  0.55540000  1.0 0.1196295157
H  H263  1  0.40260000  0.75620000  0.55140000  1.0 0.110596444
H  H264  1  0.30720000  0.94160000  0.53600000  1.0 0.2299387696
H  H265  1  0.84660000  0.78600000  0.65660000  1.0 0.1784541271
H  H266  1  0.82890000  0.80470000  0.64310000  1.0 0.1784541271
H  H267  1  0.53780000  0.38820000  0.11640000  1.0 0.1196295157
H  H268  1  0.58760000  0.44520000  0.02560000  1.0 0.110596444
H  H269  1  0.53450000  0.56650000  0.09710000  1.0 0.1196295157
H  H270  1  0.49310000  0.50610000  0.18870000  1.0 0.1196295157
H  H271  1  0.69860000  0.57980000  0.93940000  1.0 0.0755148017
H  H272  1  0.48460000  0.29980000  0.47820000  1.0 0.110596444
H  H273  1  0.51580000  0.34400000  0.46020000  1.0 0.0968719633
H  H274  1  0.49960000  0.42560000  0.41260000  1.0 0.0968719633
H  H275  1  0.54490000  0.41270000  0.35250000  1.0 0.110596444
H  H276  1  0.55540000  0.33460000  0.33940000  1.0 0.1196295157
H  H277  1  0.55140000  0.28980000  0.40260000  1.0 0.110596444
H  H278  1  0.53600000  0.21520000  0.30720000  1.0 0.2299387696
H  H279  1  0.65660000  0.71080000  0.84660000  1.0 0.1784541271
H  H280  1  0.64310000  0.72330000  0.82890000  1.0 0.1784541271
H  H281  1  0.38820000  0.11640000  0.53780000  1.0 0.1196295157
H  H282  1  0.44520000  0.02560000  0.58760000  1.0 0.110596444
H  H283  1  0.56650000  0.09710000  0.53450000  1.0 0.1196295157
H  H284  1  0.50610000  0.18870000  0.49310000  1.0 0.1196295157
H  H285  1  0.57980000  0.93940000  0.69860000  1.0 0.0755148017
H  H286  1  0.29980000  0.47820000  0.48460000  1.0 0.110596444
H  H287  1  0.34400000  0.46020000  0.51580000  1.0 0.0968719633
H  H288  1  0.42560000  0.41260000  0.49960000  1.0 0.0968719633
H  H289  1  0.41270000  0.35250000  0.54490000  1.0 0.110596444
H  H290  1  0.33460000  0.33940000  0.55540000  1.0 0.1196295157
H  H291  1  0.28980000  0.40260000  0.55140000  1.0 0.110596444
H  H292  1  0.21520000  0.30720000  0.53600000  1.0 0.2299387696
H  H293  1  0.71080000  0.84660000  0.65660000  1.0 0.1784541271
H  H294  1  0.72330000  0.82890000  0.64310000  1.0 0.1784541271
H  H295  1  0.95760000  0.53780000  0.11640000  1.0 0.1196295157
H  H296  1  0.94160000  0.58760000  0.02560000  1.0 0.110596444
H  H297  1  0.80190000  0.53450000  0.09710000  1.0 0.1196295157
H  H298  1  0.81210000  0.49310000  0.18870000  1.0 0.1196295157
H  H299  1  0.78220000  0.69860000  0.93940000  1.0 0.0755148017
H  H300  1  0.73740000  0.48460000  0.47820000  1.0 0.110596444
H  H301  1  0.68000000  0.51580000  0.46020000  1.0 0.0968719633
H  H302  1  0.66220000  0.49960000  0.41260000  1.0 0.0968719633
H  H303  1  0.68990000  0.54490000  0.35250000  1.0 0.110596444
H  H304  1  0.77060000  0.55540000  0.33940000  1.0 0.1196295157
H  H305  1  0.75620000  0.55140000  0.40260000  1.0 0.110596444
H  H306  1  0.94160000  0.53600000  0.30720000  1.0 0.2299387696
H  H307  1  0.78600000  0.65660000  0.84660000  1.0 0.1784541271
H  H308  1  0.80470000  0.64310000  0.82890000  1.0 0.1784541271
H  H309  1  0.53780000  0.95760000  0.38820000  1.0 0.1196295157
H  H310  1  0.58760000  0.94160000  0.44520000  1.0 0.110596444
H  H311  1  0.53450000  0.80190000  0.56650000  1.0 0.1196295157
H  H312  1  0.49310000  0.81210000  0.50610000  1.0 0.1196295157
H  H313  1  0.69860000  0.78220000  0.57980000  1.0 0.0755148017
H  H314  1  0.48460000  0.73740000  0.29980000  1.0 0.110596444
H  H315  1  0.51580000  0.68000000  0.34400000  1.0 0.0968719633
H  H316  1  0.49960000  0.66220000  0.42560000  1.0 0.0968719633
H  H317  1  0.54490000  0.68990000  0.41270000  1.0 0.110596444
H  H318  1  0.55540000  0.77060000  0.33460000  1.0 0.1196295157
H  H319  1  0.55140000  0.75620000  0.28980000  1.0 0.110596444
H  H320  1  0.53600000  0.94160000  0.21520000  1.0 0.2299387696
H  H321  1  0.65660000  0.78600000  0.71080000  1.0 0.1784541271
H  H322  1  0.64310000  0.80470000  0.72330000  1.0 0.1784541271
H  H323  1  0.11640000  0.38820000  0.95760000  1.0 0.1196295157
H  H324  1  0.02560000  0.44520000  0.94160000  1.0 0.110596444
H  H325  1  0.09710000  0.56650000  0.80190000  1.0 0.1196295157
H  H326  1  0.18870000  0.50610000  0.81210000  1.0 0.1196295157
H  H327  1  0.93940000  0.57980000  0.78220000  1.0 0.0755148017
H  H328  1  0.47820000  0.29980000  0.73740000  1.0 0.110596444
H  H329  1  0.46020000  0.34400000  0.68000000  1.0 0.0968719633
H  H330  1  0.41260000  0.42560000  0.66220000  1.0 0.0968719633
H  H331  1  0.35250000  0.41270000  0.68990000  1.0 0.110596444
H  H332  1  0.33940000  0.33460000  0.77060000  1.0 0.1196295157
H  H333  1  0.40260000  0.28980000  0.75620000  1.0 0.110596444
H  H334  1  0.30720000  0.21520000  0.94160000  1.0 0.2299387696
H  H335  1  0.84660000  0.71080000  0.78600000  1.0 0.1784541271
H  H336  1  0.82890000  0.72330000  0.80470000  1.0 0.1784541271
C  C1  1  0.97491000  0.71819000  0.90987000  1.0 0.255816201
C  C2  1  0.00806000  0.66034000  0.94306000  1.0 0.0488639958
C  C3  1  0.03738000  0.61248000  0.92420000  1.0 -0.1298908793
C  C4  1  0.06637000  0.55831000  0.95853000  1.0 -0.0899403605
C  C5  1  0.06420000  0.55214000  0.01182000  1.0 -0.0419163052
C  C6  1  0.03585000  0.60111000  0.03003000  1.0 -0.107901291
C  C7  1  0.00988000  0.65494000  0.99518000  1.0 -0.1298908793
C  C8  1  0.08935000  0.49295000  0.05101000  1.0 0.5864247111
C  C9  1  0.23902000  0.42018000  0.06266000  1.0 0.2299387696
C  C10  1  0.16700000  0.32800000  0.18460000  1.0 0.2299387696
C  C11  1  0.98130000  0.96070000  0.84170000  1.0 -0.1357896971
C  C12  1  0.00340000  0.87820000  0.92040000  1.0 -0.2220723545
C  C13  1  0.02990000  0.87430000  0.81270000  1.0 -0.1788961997
C  C14  1  0.04770000  0.85050000  0.75770000  1.0 0.0910730465
C  C15  1  0.04090000  0.82530000  0.73290000  1.0 -0.4176191095
C  C16  1  0.71819000  0.97491000  0.39703000  1.0 0.255816201
C  C17  1  0.66034000  0.00806000  0.38854000  1.0 0.0488639958
C  C18  1  0.61248000  0.03738000  0.42594000  1.0 -0.1298908793
C  C19  1  0.55831000  0.06637000  0.41679000  1.0 -0.0899403605
C  C20  1  0.55214000  0.06420000  0.37184000  1.0 -0.0419163052
C  C21  1  0.60111000  0.03585000  0.33301000  1.0 -0.107901291
C  C22  1  0.65494000  0.00988000  0.34000000  1.0 -0.1298908793
C  C23  1  0.49295000  0.08935000  0.36669000  1.0 0.5864247111
C  C24  1  0.42018000  0.23902000  0.27814000  1.0 0.2299387696
C  C25  1  0.32800000  0.16700000  0.32040000  1.0 0.2299387696
C  C26  1  0.96070000  0.98130000  0.21630000  1.0 -0.1357896971
C  C27  1  0.87820000  0.00340000  0.19800000  1.0 -0.2220723545
C  C28  1  0.87430000  0.02990000  0.28310000  1.0 -0.1788961997
C  C29  1  0.85050000  0.04770000  0.34410000  1.0 0.0910730465
C  C30  1  0.82530000  0.04090000  0.40090000  1.0 -0.4176191095
C  C31  1  0.90987000  0.39703000  0.97491000  1.0 0.255816201
C  C32  1  0.94306000  0.38854000  0.00806000  1.0 0.0488639958
C  C33  1  0.92420000  0.42594000  0.03738000  1.0 -0.1298908793
C  C34  1  0.95853000  0.41679000  0.06637000  1.0 -0.0899403605
C  C35  1  0.01182000  0.37184000  0.06420000  1.0 -0.0419163052
C  C36  1  0.03003000  0.33301000  0.03585000  1.0 -0.107901291
C  C37  1  0.99518000  0.34000000  0.00988000  1.0 -0.1298908793
C  C38  1  0.05101000  0.36669000  0.08935000  1.0 0.5864247111
C  C39  1  0.06266000  0.27814000  0.23902000  1.0 0.2299387696
C  C40  1  0.18460000  0.32040000  0.16700000  1.0 0.2299387696
C  C41  1  0.84170000  0.21630000  0.98130000  1.0 -0.1357896971
C  C42  1  0.92040000  0.19800000  0.00340000  1.0 -0.2220723545
C  C43  1  0.81270000  0.28310000  0.02990000  1.0 -0.1788961997
C  C44  1  0.75770000  0.34410000  0.04770000  1.0 0.0910730465
C  C45  1  0.73290000  0.40090000  0.04090000  1.0 -0.4176191095
C  C46  1  0.39703000  0.90987000  0.71819000  1.0 0.255816201
C  C47  1  0.38854000  0.94306000  0.66034000  1.0 0.0488639958
C  C48  1  0.42594000  0.92420000  0.61248000  1.0 -0.1298908793
C  C49  1  0.41679000  0.95853000  0.55831000  1.0 -0.0899403605
C  C50  1  0.37184000  0.01182000  0.55214000  1.0 -0.0419163052
C  C51  1  0.33301000  0.03003000  0.60111000  1.0 -0.107901291
C  C52  1  0.34000000  0.99518000  0.65494000  1.0 -0.1298908793
C  C53  1  0.36669000  0.05101000  0.49295000  1.0 0.5864247111
C  C54  1  0.27814000  0.06266000  0.42018000  1.0 0.2299387696
C  C55  1  0.32040000  0.18460000  0.32800000  1.0 0.2299387696
C  C56  1  0.21630000  0.84170000  0.96070000  1.0 -0.1357896971
C  C57  1  0.19800000  0.92040000  0.87820000  1.0 -0.2220723545
C  C58  1  0.28310000  0.81270000  0.87430000  1.0 -0.1788961997
C  C59  1  0.34410000  0.75770000  0.85050000  1.0 0.0910730465
C  C60  1  0.40090000  0.73290000  0.82530000  1.0 -0.4176191095
C  C61  1  0.39703000  0.71819000  0.97491000  1.0 0.255816201
C  C62  1  0.38854000  0.66034000  0.00806000  1.0 0.0488639958
C  C63  1  0.42594000  0.61248000  0.03738000  1.0 -0.1298908793
C  C64  1  0.41679000  0.55831000  0.06637000  1.0 -0.0899403605
C  C65  1  0.37184000  0.55214000  0.06420000  1.0 -0.0419163052
C  C66  1  0.33301000  0.60111000  0.03585000  1.0 -0.107901291
C  C67  1  0.34000000  0.65494000  0.00988000  1.0 -0.1298908793
C  C68  1  0.36669000  0.49295000  0.08935000  1.0 0.5864247111
C  C69  1  0.27814000  0.42018000  0.23902000  1.0 0.2299387696
C  C70  1  0.32040000  0.32800000  0.16700000  1.0 0.2299387696
C  C71  1  0.21630000  0.96070000  0.98130000  1.0 -0.1357896971
C  C72  1  0.19800000  0.87820000  0.00340000  1.0 -0.2220723545
C  C73  1  0.28310000  0.87430000  0.02990000  1.0 -0.1788961997
C  C74  1  0.34410000  0.85050000  0.04770000  1.0 0.0968719633
C  C75  1  0.40090000  0.82530000  0.04090000  1.0 -0.4176191095
C  C76  1  0.90987000  0.97491000  0.71819000  1.0 0.255816201
C  C77  1  0.94306000  0.00806000  0.66034000  1.0 0.0488639958
C  C78  1  0.92420000  0.03738000  0.61248000  1.0 -0.1298908793
C  C79  1  0.95853000  0.06637000  0.55831000  1.0 -0.0899403605
C  C80  1  0.01182000  0.06420000  0.55214000  1.0 -0.0419163052
C  C81  1  0.03003000  0.03585000  0.60111000  1.0 -0.107901291
C  C82  1  0.99518000  0.00988000  0.65494000  1.0 -0.1298908793
C  C83  1  0.05101000  0.08935000  0.49295000  1.0 0.5864247111
C  C84  1  0.06266000  0.23902000  0.42018000  1.0 0.2299387696
C  C85  1  0.18460000  0.16700000  0.32800000  1.0 0.2299387696
C  C86  1  0.84170000  0.98130000  0.96070000  1.0 -0.1357896971
C  C87  1  0.92040000  0.00340000  0.87820000  1.0 -0.2220723545
C  C88  1  0.81270000  0.02990000  0.87430000  1.0 -0.1788961997
C  C89  1  0.75770000  0.04770000  0.85050000  1.0 0.0910730465
C  C90  1  0.73290000  0.04090000  0.82530000  1.0 -0.4176191095
C  C91  1  0.71819000  0.39703000  0.90987000  1.0 0.255816201
C  C92  1  0.66034000  0.38854000  0.94306000  1.0 0.0488639958
C  C93  1  0.61248000  0.42594000  0.92420000  1.0 -0.1298908793
C  C94  1  0.55831000  0.41679000  0.95853000  1.0 -0.0899403605
C  C95  1  0.55214000  0.37184000  0.01182000  1.0 -0.0419163052
C  C96  1  0.60111000  0.33301000  0.03003000  1.0 -0.107901291
C  C97  1  0.65494000  0.34000000  0.99518000  1.0 -0.1298908793
C  C98  1  0.49295000  0.36669000  0.05101000  1.0 0.5864247111
C  C99  1  0.42018000  0.27814000  0.06266000  1.0 0.2299387696
C  C100  1  0.32800000  0.32040000  0.18460000  1.0 0.2299387696
C  C101  1  0.96070000  0.21630000  0.84170000  1.0 -0.1357896971
C  C102  1  0.87820000  0.19800000  0.92040000  1.0 -0.2220723545
C  C103  1  0.87430000  0.28310000  0.81270000  1.0 -0.1788961997
C  C104  1  0.85050000  0.34410000  0.75770000  1.0 0.0910730465
C  C105  1  0.82530000  0.40090000  0.73290000  1.0 -0.4176191095
C  C106  1  0.97491000  0.90987000  0.39703000  1.0 0.255816201
C  C107  1  0.00806000  0.94306000  0.38854000  1.0 0.0488639958
C  C108  1  0.03738000  0.92420000  0.42594000  1.0 -0.1298908793
C  C109  1  0.06637000  0.95853000  0.41679000  1.0 -0.0899403605
C  C110  1  0.06420000  0.01182000  0.37184000  1.0 -0.0419163052
C  C111  1  0.03585000  0.03003000  0.33301000  1.0 -0.107901291
C  C112  1  0.00988000  0.99518000  0.34000000  1.0 -0.1298908793
C  C113  1  0.08935000  0.05101000  0.36669000  1.0 0.5864247111
C  C114  1  0.23902000  0.06266000  0.27814000  1.0 0.2299387696
C  C115  1  0.16700000  0.18460000  0.32040000  1.0 0.2299387696
C  C116  1  0.98130000  0.84170000  0.21630000  1.0 -0.1357896971
C  C117  1  0.00340000  0.92040000  0.19800000  1.0 -0.2220723545
C  C118  1  0.02990000  0.81270000  0.28310000  1.0 -0.1788961997
C  C119  1  0.04770000  0.75770000  0.34410000  1.0 0.0910730465
C  C120  1  0.04090000  0.73290000  0.40090000  1.0 -0.4176191095
C  C121  1  0.90987000  0.71819000  0.39703000  1.0 0.255816201
C  C122  1  0.94306000  0.66034000  0.38854000  1.0 0.0488639958
C  C123  1  0.92420000  0.61248000  0.42594000  1.0 -0.1298908793
C  C124  1  0.95853000  0.55831000  0.41679000  1.0 -0.0899403605
C  C125  1  0.01182000  0.55214000  0.37184000  1.0 -0.0419163052
C  C126  1  0.03003000  0.60111000  0.33301000  1.0 -0.107901291
C  C127  1  0.99518000  0.65494000  0.34000000  1.0 -0.1298908793
C  C128  1  0.05101000  0.49295000  0.36669000  1.0 0.5864247111
C  C129  1  0.06266000  0.42018000  0.27814000  1.0 0.2299387696
C  C130  1  0.18460000  0.32800000  0.32040000  1.0 0.2299387696
C  C131  1  0.84170000  0.96070000  0.21630000  1.0 -0.1357896971
C  C132  1  0.92040000  0.87820000  0.19800000  1.0 -0.2220723545
C  C133  1  0.81270000  0.87430000  0.28310000  1.0 -0.1788961997
C  C134  1  0.75770000  0.85050000  0.34410000  1.0 0.0968719633
C  C135  1  0.73290000  0.82530000  0.40090000  1.0 -0.4176191095
C  C136  1  0.39703000  0.97491000  0.90987000  1.0 0.255816201
C  C137  1  0.38854000  0.00806000  0.94306000  1.0 0.0488639958
C  C138  1  0.42594000  0.03738000  0.92420000  1.0 -0.1298908793
C  C139  1  0.41679000  0.06637000  0.95853000  1.0 -0.0899403605
C  C140  1  0.37184000  0.06420000  0.01182000  1.0 -0.0419163052
C  C141  1  0.33301000  0.03585000  0.03003000  1.0 -0.107901291
C  C142  1  0.34000000  0.00988000  0.99518000  1.0 -0.1298908793
C  C143  1  0.36669000  0.08935000  0.05101000  1.0 0.5864247111
C  C144  1  0.27814000  0.23902000  0.06266000  1.0 0.2299387696
C  C145  1  0.32040000  0.16700000  0.18460000  1.0 0.2299387696
C  C146  1  0.21630000  0.98130000  0.84170000  1.0 -0.1357896971
C  C147  1  0.19800000  0.00340000  0.92040000  1.0 -0.2220723545
C  C148  1  0.28310000  0.02990000  0.81270000  1.0 -0.1788961997
C  C149  1  0.34410000  0.04770000  0.75770000  1.0 0.0910730465
C  C150  1  0.40090000  0.04090000  0.73290000  1.0 -0.4176191095
C  C151  1  0.97491000  0.39703000  0.71819000  1.0 0.255816201
C  C152  1  0.00806000  0.38854000  0.66034000  1.0 0.0488639958
C  C153  1  0.03738000  0.42594000  0.61248000  1.0 -0.1298908793
C  C154  1  0.06637000  0.41679000  0.55831000  1.0 -0.0899403605
C  C155  1  0.06420000  0.37184000  0.55214000  1.0 -0.0419163052
C  C156  1  0.03585000  0.33301000  0.60111000  1.0 -0.107901291
C  C157  1  0.00988000  0.34000000  0.65494000  1.0 -0.1298908793
C  C158  1  0.08935000  0.36669000  0.49295000  1.0 0.5864247111
C  C159  1  0.23902000  0.27814000  0.42018000  1.0 0.2299387696
C  C160  1  0.16700000  0.32040000  0.32800000  1.0 0.2299387696
C  C161  1  0.98130000  0.21630000  0.96070000  1.0 -0.1357896971
C  C162  1  0.00340000  0.19800000  0.87820000  1.0 -0.2220723545
C  C163  1  0.02990000  0.28310000  0.87430000  1.0 -0.1788961997
C  C164  1  0.04770000  0.34410000  0.85050000  1.0 0.0910730465
C  C165  1  0.04090000  0.40090000  0.82530000  1.0 -0.4176191095
C  C166  1  0.71819000  0.90987000  0.97491000  1.0 0.255816201
C  C167  1  0.66034000  0.94306000  0.00806000  1.0 0.0488639958
C  C168  1  0.61248000  0.92420000  0.03738000  1.0 -0.1298908793
C  C169  1  0.55831000  0.95853000  0.06637000  1.0 -0.0899403605
C  C170  1  0.55214000  0.01182000  0.06420000  1.0 -0.0419163052
C  C171  1  0.60111000  0.03003000  0.03585000  1.0 -0.107901291
C  C172  1  0.65494000  0.99518000  0.00988000  1.0 -0.1298908793
C  C173  1  0.49295000  0.05101000  0.08935000  1.0 0.5864247111
C  C174  1  0.42018000  0.06266000  0.23902000  1.0 0.2299387696
C  C175  1  0.32800000  0.18460000  0.16700000  1.0 0.2299387696
C  C176  1  0.96070000  0.84170000  0.98130000  1.0 -0.1357896971
C  C177  1  0.87820000  0.92040000  0.00340000  1.0 -0.2220723545
C  C178  1  0.87430000  0.81270000  0.02990000  1.0 -0.1788961997
C  C179  1  0.85050000  0.75770000  0.04770000  1.0 0.0968719633
C  C180  1  0.82530000  0.73290000  0.04090000  1.0 -0.4176191095
C  C181  1  0.47491000  0.21819000  0.89703000  1.0 0.255816201
C  C182  1  0.50806000  0.16034000  0.88854000  1.0 0.0488639958
C  C183  1  0.53738000  0.11248000  0.92594000  1.0 -0.1298908793
C  C184  1  0.56637000  0.05831000  0.91679000  1.0 -0.0899403605
C  C185  1  0.56420000  0.05214000  0.87184000  1.0 -0.0419163052
C  C186  1  0.53585000  0.10111000  0.83301000  1.0 -0.107901291
C  C187  1  0.50988000  0.15494000  0.84000000  1.0 -0.1298908793
C  C188  1  0.58935000  0.99295000  0.86669000  1.0 0.5864247111
C  C189  1  0.73902000  0.92018000  0.77814000  1.0 0.2299387696
C  C190  1  0.66700000  0.82800000  0.82040000  1.0 0.2299387696
C  C191  1  0.48130000  0.46070000  0.71630000  1.0 -0.1357896971
C  C192  1  0.50340000  0.37820000  0.69800000  1.0 -0.2220723545
C  C193  1  0.52990000  0.37430000  0.78310000  1.0 -0.1788961997
C  C194  1  0.54770000  0.35050000  0.84410000  1.0 0.0910730465
C  C195  1  0.54090000  0.32530000  0.90090000  1.0 -0.4176191095
C  C196  1  0.21819000  0.47491000  0.40987000  1.0 0.255816201
C  C197  1  0.16034000  0.50806000  0.44306000  1.0 0.0488639958
C  C198  1  0.11248000  0.53738000  0.42420000  1.0 -0.1298908793
C  C199  1  0.05831000  0.56637000  0.45853000  1.0 -0.0899403605
C  C200  1  0.05214000  0.56420000  0.51182000  1.0 -0.0419163052
C  C201  1  0.10111000  0.53585000  0.53003000  1.0 -0.107901291
C  C202  1  0.15494000  0.50988000  0.49518000  1.0 -0.1298908793
C  C203  1  0.99295000  0.58935000  0.55101000  1.0 0.5864247111
C  C204  1  0.92018000  0.73902000  0.56266000  1.0 0.2299387696
C  C205  1  0.82800000  0.66700000  0.68460000  1.0 0.2299387696
C  C206  1  0.46070000  0.48130000  0.34170000  1.0 -0.1357896971
C  C207  1  0.37820000  0.50340000  0.42040000  1.0 -0.2220723545
C  C208  1  0.37430000  0.52990000  0.31270000  1.0 -0.1788961997
C  C209  1  0.35050000  0.54770000  0.25770000  1.0 0.0910730465
C  C210  1  0.32530000  0.54090000  0.23290000  1.0 -0.4176191095
C  C211  1  0.40987000  0.89703000  0.21819000  1.0 0.255816201
C  C212  1  0.44306000  0.88854000  0.16034000  1.0 0.0488639958
C  C213  1  0.42420000  0.92594000  0.11248000  1.0 -0.1298908793
C  C214  1  0.45853000  0.91679000  0.05831000  1.0 -0.0899403605
C  C215  1  0.51182000  0.87184000  0.05214000  1.0 -0.0419163052
C  C216  1  0.53003000  0.83301000  0.10111000  1.0 -0.107901291
C  C217  1  0.49518000  0.84000000  0.15494000  1.0 -0.1298908793
C  C218  1  0.55101000  0.86669000  0.99295000  1.0 0.5864247111
C  C219  1  0.56266000  0.77814000  0.92018000  1.0 0.2299387696
C  C220  1  0.68460000  0.82040000  0.82800000  1.0 0.2299387696
C  C221  1  0.34170000  0.71630000  0.46070000  1.0 -0.1357896971
C  C222  1  0.42040000  0.69800000  0.37820000  1.0 -0.2220723545
C  C223  1  0.31270000  0.78310000  0.37430000  1.0 -0.1788961997
C  C224  1  0.25770000  0.84410000  0.35050000  1.0 0.0910730465
C  C225  1  0.23290000  0.90090000  0.32530000  1.0 -0.4176191095
C  C226  1  0.89703000  0.40987000  0.47491000  1.0 0.255816201
C  C227  1  0.88854000  0.44306000  0.50806000  1.0 0.0488639958
C  C228  1  0.92594000  0.42420000  0.53738000  1.0 -0.1298908793
C  C229  1  0.91679000  0.45853000  0.56637000  1.0 -0.0899403605
C  C230  1  0.87184000  0.51182000  0.56420000  1.0 -0.0419163052
C  C231  1  0.83301000  0.53003000  0.53585000  1.0 -0.107901291
C  C232  1  0.84000000  0.49518000  0.50988000  1.0 -0.1298908793
C  C233  1  0.86669000  0.55101000  0.58935000  1.0 0.5864247111
C  C234  1  0.77814000  0.56266000  0.73902000  1.0 0.2299387696
C  C235  1  0.82040000  0.68460000  0.66700000  1.0 0.2299387696
C  C236  1  0.71630000  0.34170000  0.48130000  1.0 -0.1357896971
C  C237  1  0.69800000  0.42040000  0.50340000  1.0 -0.2220723545
C  C238  1  0.78310000  0.31270000  0.52990000  1.0 -0.1788961997
C  C239  1  0.84410000  0.25770000  0.54770000  1.0 0.0910730465
C  C240  1  0.90090000  0.23290000  0.54090000  1.0 -0.4176191095
C  C241  1  0.89703000  0.21819000  0.40987000  1.0 0.255816201
C  C242  1  0.88854000  0.16034000  0.44306000  1.0 0.0488639958
C  C243  1  0.92594000  0.11248000  0.42420000  1.0 -0.1298908793
C  C244  1  0.91679000  0.05831000  0.45853000  1.0 -0.0899403605
C  C245  1  0.87184000  0.05214000  0.51182000  1.0 -0.0419163052
C  C246  1  0.83301000  0.10111000  0.53003000  1.0 -0.107901291
C  C247  1  0.84000000  0.15494000  0.49518000  1.0 -0.1298908793
C  C248  1  0.86669000  0.99295000  0.55101000  1.0 0.5864247111
C  C249  1  0.77814000  0.92018000  0.56266000  1.0 0.2299387696
C  C250  1  0.82040000  0.82800000  0.68460000  1.0 0.2299387696
C  C251  1  0.71630000  0.46070000  0.34170000  1.0 -0.1357896971
C  C252  1  0.69800000  0.37820000  0.42040000  1.0 -0.2220723545
C  C253  1  0.78310000  0.37430000  0.31270000  1.0 -0.1788961997
C  C254  1  0.84410000  0.35050000  0.25770000  1.0 0.0910730465
C  C255  1  0.90090000  0.32530000  0.23290000  1.0 -0.4176191095
C  C256  1  0.40987000  0.47491000  0.89703000  1.0 0.255816201
C  C257  1  0.44306000  0.50806000  0.88854000  1.0 0.0488639958
C  C258  1  0.42420000  0.53738000  0.92594000  1.0 -0.1298908793
C  C259  1  0.45853000  0.56637000  0.91679000  1.0 -0.0899403605
C  C260  1  0.51182000  0.56420000  0.87184000  1.0 -0.0419163052
C  C261  1  0.53003000  0.53585000  0.83301000  1.0 -0.107901291
C  C262  1  0.49518000  0.50988000  0.84000000  1.0 -0.1298908793
C  C263  1  0.55101000  0.58935000  0.86669000  1.0 0.5864247111
C  C264  1  0.56266000  0.73902000  0.77814000  1.0 0.2299387696
C  C265  1  0.68460000  0.66700000  0.82040000  1.0 0.2299387696
C  C266  1  0.34170000  0.48130000  0.71630000  1.0 -0.1357896971
C  C267  1  0.42040000  0.50340000  0.69800000  1.0 -0.2220723545
C  C268  1  0.31270000  0.52990000  0.78310000  1.0 -0.1788961997
C  C269  1  0.25770000  0.54770000  0.84410000  1.0 0.0910730465
C  C270  1  0.23290000  0.54090000  0.90090000  1.0 -0.4176191095
C  C271  1  0.21819000  0.89703000  0.47491000  1.0 0.255816201
C  C272  1  0.16034000  0.88854000  0.50806000  1.0 0.0488639958
C  C273  1  0.11248000  0.92594000  0.53738000  1.0 -0.1298908793
C  C274  1  0.05831000  0.91679000  0.56637000  1.0 -0.0899403605
C  C275  1  0.05214000  0.87184000  0.56420000  1.0 -0.0419163052
C  C276  1  0.10111000  0.83301000  0.53585000  1.0 -0.107901291
C  C277  1  0.15494000  0.84000000  0.50988000  1.0 -0.1298908793
C  C278  1  0.99295000  0.86669000  0.58935000  1.0 0.5864247111
C  C279  1  0.92018000  0.77814000  0.73902000  1.0 0.2299387696
C  C280  1  0.82800000  0.82040000  0.66700000  1.0 0.2299387696
C  C281  1  0.46070000  0.71630000  0.48130000  1.0 -0.1357896971
C  C282  1  0.37820000  0.69800000  0.50340000  1.0 -0.2220723545
C  C283  1  0.37430000  0.78310000  0.52990000  1.0 -0.1788961997
C  C284  1  0.35050000  0.84410000  0.54770000  1.0 0.0910730465
C  C285  1  0.32530000  0.90090000  0.54090000  1.0 -0.4176191095
C  C286  1  0.47491000  0.40987000  0.21819000  1.0 0.255816201
C  C287  1  0.50806000  0.44306000  0.16034000  1.0 0.0488639958
C  C288  1  0.53738000  0.42420000  0.11248000  1.0 -0.1298908793
C  C289  1  0.56637000  0.45853000  0.05831000  1.0 -0.0899403605
C  C290  1  0.56420000  0.51182000  0.05214000  1.0 -0.0419163052
C  C291  1  0.53585000  0.53003000  0.10111000  1.0 -0.107901291
C  C292  1  0.50988000  0.49518000  0.15494000  1.0 -0.1298908793
C  C293  1  0.58935000  0.55101000  0.99295000  1.0 0.5864247111
C  C294  1  0.73902000  0.56266000  0.92018000  1.0 0.2299387696
C  C295  1  0.66700000  0.68460000  0.82800000  1.0 0.2299387696
C  C296  1  0.48130000  0.34170000  0.46070000  1.0 -0.1357896971
C  C297  1  0.50340000  0.42040000  0.37820000  1.0 -0.2220723545
C  C298  1  0.52990000  0.31270000  0.37430000  1.0 -0.1788961997
C  C299  1  0.54770000  0.25770000  0.35050000  1.0 0.0968719633
C  C300  1  0.54090000  0.23290000  0.32530000  1.0 -0.4176191095
C  C301  1  0.40987000  0.21819000  0.47491000  1.0 0.255816201
C  C302  1  0.44306000  0.16034000  0.50806000  1.0 0.0488639958
C  C303  1  0.42420000  0.11248000  0.53738000  1.0 -0.1298908793
C  C304  1  0.45853000  0.05831000  0.56637000  1.0 -0.0899403605
C  C305  1  0.51182000  0.05214000  0.56420000  1.0 -0.0419163052
C  C306  1  0.53003000  0.10111000  0.53585000  1.0 -0.107901291
C  C307  1  0.49518000  0.15494000  0.50988000  1.0 -0.1298908793
C  C308  1  0.55101000  0.99295000  0.58935000  1.0 0.5864247111
C  C309  1  0.56266000  0.92018000  0.73902000  1.0 0.2299387696
C  C310  1  0.68460000  0.82800000  0.66700000  1.0 0.2299387696
C  C311  1  0.34170000  0.46070000  0.48130000  1.0 -0.1357896971
C  C312  1  0.42040000  0.37820000  0.50340000  1.0 -0.2220723545
C  C313  1  0.31270000  0.37430000  0.52990000  1.0 -0.1788961997
C  C314  1  0.25770000  0.35050000  0.54770000  1.0 0.0910730465
C  C315  1  0.23290000  0.32530000  0.54090000  1.0 -0.4176191095
C  C316  1  0.89703000  0.47491000  0.21819000  1.0 0.255816201
C  C317  1  0.88854000  0.50806000  0.16034000  1.0 0.0488639958
C  C318  1  0.92594000  0.53738000  0.11248000  1.0 -0.1298908793
C  C319  1  0.91679000  0.56637000  0.05831000  1.0 -0.0899403605
C  C320  1  0.87184000  0.56420000  0.05214000  1.0 -0.0419163052
C  C321  1  0.83301000  0.53585000  0.10111000  1.0 -0.107901291
C  C322  1  0.84000000  0.50988000  0.15494000  1.0 -0.1298908793
C  C323  1  0.86669000  0.58935000  0.99295000  1.0 0.5864247111
C  C324  1  0.77814000  0.73902000  0.92018000  1.0 0.2299387696
C  C325  1  0.82040000  0.66700000  0.82800000  1.0 0.2299387696
C  C326  1  0.71630000  0.48130000  0.46070000  1.0 -0.1357896971
C  C327  1  0.69800000  0.50340000  0.37820000  1.0 -0.2220723545
C  C328  1  0.78310000  0.52990000  0.37430000  1.0 -0.1788961997
C  C329  1  0.84410000  0.54770000  0.35050000  1.0 0.0910730465
C  C330  1  0.90090000  0.54090000  0.32530000  1.0 -0.4176191095
C  C331  1  0.47491000  0.89703000  0.40987000  1.0 0.255816201
C  C332  1  0.50806000  0.88854000  0.44306000  1.0 0.0488639958
C  C333  1  0.53738000  0.92594000  0.42420000  1.0 -0.1298908793
C  C334  1  0.56637000  0.91679000  0.45853000  1.0 -0.0899403605
C  C335  1  0.56420000  0.87184000  0.51182000  1.0 -0.0419163052
C  C336  1  0.53585000  0.83301000  0.53003000  1.0 -0.107901291
C  C337  1  0.50988000  0.84000000  0.49518000  1.0 -0.1298908793
C  C338  1  0.58935000  0.86669000  0.55101000  1.0 0.5864247111
C  C339  1  0.73902000  0.77814000  0.56266000  1.0 0.2299387696
C  C340  1  0.66700000  0.82040000  0.68460000  1.0 0.2299387696
C  C341  1  0.48130000  0.71630000  0.34170000  1.0 -0.1357896971
C  C342  1  0.50340000  0.69800000  0.42040000  1.0 -0.2220723545
C  C343  1  0.52990000  0.78310000  0.31270000  1.0 -0.1788961997
C  C344  1  0.54770000  0.84410000  0.25770000  1.0 0.0968719633
C  C345  1  0.54090000  0.90090000  0.23290000  1.0 -0.4176191095
C  C346  1  0.21819000  0.40987000  0.89703000  1.0 0.255816201
C  C347  1  0.16034000  0.44306000  0.88854000  1.0 0.0488639958
C  C348  1  0.11248000  0.42420000  0.92594000  1.0 -0.1298908793
C  C349  1  0.05831000  0.45853000  0.91679000  1.0 -0.0899403605
C  C350  1  0.05214000  0.51182000  0.87184000  1.0 -0.0419163052
C  C351  1  0.10111000  0.53003000  0.83301000  1.0 -0.107901291
C  C352  1  0.15494000  0.49518000  0.84000000  1.0 -0.1298908793
C  C353  1  0.99295000  0.55101000  0.86669000  1.0 0.5864247111
C  C354  1  0.92018000  0.56266000  0.77814000  1.0 0.2299387696
C  C355  1  0.82800000  0.68460000  0.82040000  1.0 0.2299387696
C  C356  1  0.46070000  0.34170000  0.71630000  1.0 -0.1357896971
C  C357  1  0.37820000  0.42040000  0.69800000  1.0 -0.2220723545
C  C358  1  0.37430000  0.31270000  0.78310000  1.0 -0.1788961997
C  C359  1  0.35050000  0.25770000  0.84410000  1.0 0.0910730465
C  C360  1  0.32530000  0.23290000  0.90090000  1.0 -0.4176191095
N  N1  1  0.97199000  0.76745000  0.90925000  1.0 -0.2856776954
N  N2  1  0.93496000  0.80936000  0.88026000  1.0 -0.0494002555
N  N3  1  0.91761000  0.78663000  0.86323000  1.0 -0.060391164
N  N4  1  0.94247000  0.72811000  0.88109000  1.0 -0.2609033228
N  N5  1  0.98299000  0.90039000  0.86361000  1.0 -0.0839178563
N  N6  1  0.76745000  0.97199000  0.35131000  1.0 -0.2856776954
N  N7  1  0.80936000  0.93496000  0.37542000  1.0 -0.0494002555
N  N8  1  0.78663000  0.91761000  0.43253000  1.0 -0.060391164
N  N9  1  0.72811000  0.94247000  0.44833000  1.0 -0.2609033228
N  N10  1  0.90039000  0.98299000  0.25301000  1.0 -0.0839178563
N  N11  1  0.90925000  0.35131000  0.97199000  1.0 -0.2856776954
N  N12  1  0.88026000  0.37542000  0.93496000  1.0 -0.0494002555
N  N13  1  0.86323000  0.43253000  0.91761000  1.0 -0.060391164
N  N14  1  0.88109000  0.44833000  0.94247000  1.0 -0.2609033228
N  N15  1  0.86361000  0.25301000  0.98299000  1.0 -0.0839178563
N  N16  1  0.35131000  0.90925000  0.76745000  1.0 -0.2856776954
N  N17  1  0.37542000  0.88026000  0.80936000  1.0 -0.0494002555
N  N18  1  0.43253000  0.86323000  0.78663000  1.0 -0.060391164
N  N19  1  0.44833000  0.88109000  0.72811000  1.0 -0.2609033228
N  N20  1  0.25301000  0.86361000  0.90039000  1.0 -0.0839178563
N  N21  1  0.35131000  0.76745000  0.97199000  1.0 -0.2856776954
N  N22  1  0.37542000  0.80936000  0.93496000  1.0 -0.0494002555
N  N23  1  0.43253000  0.78663000  0.91761000  1.0 -0.060391164
N  N24  1  0.44833000  0.72811000  0.94247000  1.0 -0.2609033228
N  N25  1  0.25301000  0.90039000  0.98299000  1.0 -0.0839178563
N  N26  1  0.90925000  0.97199000  0.76745000  1.0 -0.2856776954
N  N27  1  0.88026000  0.93496000  0.80936000  1.0 -0.0494002555
N  N28  1  0.86323000  0.91761000  0.78663000  1.0 -0.060391164
N  N29  1  0.88109000  0.94247000  0.72811000  1.0 -0.2609033228
N  N30  1  0.86361000  0.98299000  0.90039000  1.0 -0.0839178563
N  N31  1  0.76745000  0.35131000  0.90925000  1.0 -0.2856776954
N  N32  1  0.80936000  0.37542000  0.88026000  1.0 -0.0494002555
N  N33  1  0.78663000  0.43253000  0.86323000  1.0 -0.060391164
N  N34  1  0.72811000  0.44833000  0.88109000  1.0 -0.2609033228
N  N35  1  0.90039000  0.25301000  0.86361000  1.0 -0.0839178563
N  N36  1  0.97199000  0.90925000  0.35131000  1.0 -0.2856776954
N  N37  1  0.93496000  0.88026000  0.37542000  1.0 -0.0494002555
N  N38  1  0.91761000  0.86323000  0.43253000  1.0 -0.060391164
N  N39  1  0.94247000  0.88109000  0.44833000  1.0 -0.2609033228
N  N40  1  0.98299000  0.86361000  0.25301000  1.0 -0.0839178563
N  N41  1  0.90925000  0.76745000  0.35131000  1.0 -0.2856776954
N  N42  1  0.88026000  0.80936000  0.37542000  1.0 -0.0494002555
N  N43  1  0.86323000  0.78663000  0.43253000  1.0 -0.060391164
N  N44  1  0.88109000  0.72811000  0.44833000  1.0 -0.2609033228
N  N45  1  0.86361000  0.90039000  0.25301000  1.0 -0.0839178563
N  N46  1  0.35131000  0.97199000  0.90925000  1.0 -0.2856776954
N  N47  1  0.37542000  0.93496000  0.88026000  1.0 -0.0494002555
N  N48  1  0.43253000  0.91761000  0.86323000  1.0 -0.060391164
N  N49  1  0.44833000  0.94247000  0.88109000  1.0 -0.2609033228
N  N50  1  0.25301000  0.98299000  0.86361000  1.0 -0.0839178563
N  N51  1  0.97199000  0.35131000  0.76745000  1.0 -0.2856776954
N  N52  1  0.93496000  0.37542000  0.80936000  1.0 -0.0494002555
N  N53  1  0.91761000  0.43253000  0.78663000  1.0 -0.060391164
N  N54  1  0.94247000  0.44833000  0.72811000  1.0 -0.2609033228
N  N55  1  0.98299000  0.25301000  0.90039000  1.0 -0.0839178563
N  N56  1  0.76745000  0.90925000  0.97199000  1.0 -0.2856776954
N  N57  1  0.80936000  0.88026000  0.93496000  1.0 -0.0494002555
N  N58  1  0.78663000  0.86323000  0.91761000  1.0 -0.060391164
N  N59  1  0.72811000  0.88109000  0.94247000  1.0 -0.2609033228
N  N60  1  0.90039000  0.86361000  0.98299000  1.0 -0.0839178563
N  N61  1  0.47199000  0.26745000  0.85131000  1.0 -0.2856776954
N  N62  1  0.43496000  0.30936000  0.87542000  1.0 -0.0494002555
N  N63  1  0.41761000  0.28663000  0.93253000  1.0 -0.060391164
N  N64  1  0.44247000  0.22811000  0.94833000  1.0 -0.2609033228
N  N65  1  0.48299000  0.40039000  0.75301000  1.0 -0.0839178563
N  N66  1  0.26745000  0.47199000  0.40925000  1.0 -0.2856776954
N  N67  1  0.30936000  0.43496000  0.38026000  1.0 -0.0494002555
N  N68  1  0.28663000  0.41761000  0.36323000  1.0 -0.060391164
N  N69  1  0.22811000  0.44247000  0.38109000  1.0 -0.2609033228
N  N70  1  0.40039000  0.48299000  0.36361000  1.0 -0.0839178563
N  N71  1  0.40925000  0.85131000  0.26745000  1.0 -0.2856776954
N  N72  1  0.38026000  0.87542000  0.30936000  1.0 -0.0494002555
N  N73  1  0.36323000  0.93253000  0.28663000  1.0 -0.060391164
N  N74  1  0.38109000  0.94833000  0.22811000  1.0 -0.2609033228
N  N75  1  0.36361000  0.75301000  0.40039000  1.0 -0.0839178563
N  N76  1  0.85131000  0.40925000  0.47199000  1.0 -0.2856776954
N  N77  1  0.87542000  0.38026000  0.43496000  1.0 -0.0494002555
N  N78  1  0.93253000  0.36323000  0.41761000  1.0 -0.060391164
N  N79  1  0.94833000  0.38109000  0.44247000  1.0 -0.2609033228
N  N80  1  0.75301000  0.36361000  0.48299000  1.0 -0.0839178563
N  N81  1  0.85131000  0.26745000  0.40925000  1.0 -0.2856776954
N  N82  1  0.87542000  0.30936000  0.38026000  1.0 -0.0494002555
N  N83  1  0.93253000  0.28663000  0.36323000  1.0 -0.060391164
N  N84  1  0.94833000  0.22811000  0.38109000  1.0 -0.2609033228
N  N85  1  0.75301000  0.40039000  0.36361000  1.0 -0.0839178563
N  N86  1  0.40925000  0.47199000  0.85131000  1.0 -0.2856776954
N  N87  1  0.38026000  0.43496000  0.87542000  1.0 -0.0494002555
N  N88  1  0.36323000  0.41761000  0.93253000  1.0 -0.060391164
N  N89  1  0.38109000  0.44247000  0.94833000  1.0 -0.2609033228
N  N90  1  0.36361000  0.48299000  0.75301000  1.0 -0.0839178563
N  N91  1  0.26745000  0.85131000  0.47199000  1.0 -0.2856776954
N  N92  1  0.30936000  0.87542000  0.43496000  1.0 -0.0494002555
N  N93  1  0.28663000  0.93253000  0.41761000  1.0 -0.060391164
N  N94  1  0.22811000  0.94833000  0.44247000  1.0 -0.2609033228
N  N95  1  0.40039000  0.75301000  0.48299000  1.0 -0.0839178563
N  N96  1  0.47199000  0.40925000  0.26745000  1.0 -0.2856776954
N  N97  1  0.43496000  0.38026000  0.30936000  1.0 -0.0494002555
N  N98  1  0.41761000  0.36323000  0.28663000  1.0 -0.060391164
N  N99  1  0.44247000  0.38109000  0.22811000  1.0 -0.2609033228
N  N100  1  0.48299000  0.36361000  0.40039000  1.0 -0.0839178563
N  N101  1  0.40925000  0.26745000  0.47199000  1.0 -0.2856776954
N  N102  1  0.38026000  0.30936000  0.43496000  1.0 -0.0494002555
N  N103  1  0.36323000  0.28663000  0.41761000  1.0 -0.060391164
N  N104  1  0.38109000  0.22811000  0.44247000  1.0 -0.2609033228
N  N105  1  0.36361000  0.40039000  0.48299000  1.0 -0.0839178563
N  N106  1  0.85131000  0.47199000  0.26745000  1.0 -0.2856776954
N  N107  1  0.87542000  0.43496000  0.30936000  1.0 -0.0494002555
N  N108  1  0.93253000  0.41761000  0.28663000  1.0 -0.060391164
N  N109  1  0.94833000  0.44247000  0.22811000  1.0 -0.2609033228
N  N110  1  0.75301000  0.48299000  0.40039000  1.0 -0.0839178563
N  N111  1  0.47199000  0.85131000  0.40925000  1.0 -0.2856776954
N  N112  1  0.43496000  0.87542000  0.38026000  1.0 -0.0494002555
N  N113  1  0.41761000  0.93253000  0.36323000  1.0 -0.060391164
N  N114  1  0.44247000  0.94833000  0.38109000  1.0 -0.2609033228
N  N115  1  0.48299000  0.75301000  0.36361000  1.0 -0.0839178563
N  N116  1  0.26745000  0.40925000  0.85131000  1.0 -0.2856776954
N  N117  1  0.30936000  0.38026000  0.87542000  1.0 -0.0494002555
N  N118  1  0.28663000  0.36323000  0.93253000  1.0 -0.060391164
N  N119  1  0.22811000  0.38109000  0.94833000  1.0 -0.2609033228
N  N120  1  0.40039000  0.36361000  0.75301000  1.0 -0.0839178563
O  O1  1  0.06827000  0.48449000  0.10605000  1.0 -0.5721318998
O  O2  1  0.12854000  0.45500000  0.02672000  1.0 -0.5721318998
O  O3  1  0.25074000  0.38274000  0.04228000  1.0 -0.5611991079
O  O4  1  0.27381000  0.43469000  0.06291000  1.0 -0.5110410866
O  O5  1  0.21900000  0.30060000  0.17400000  1.0 -0.0294284439
O  O6  1  0.20030000  0.28050000  0.19010000  1.0 -0.0419163052
O  O7  1  0.48449000  0.06827000  0.34119000  1.0 -0.5721318998
O  O8  1  0.45500000  0.12854000  0.38974000  1.0 -0.5721318998
O  O9  1  0.38274000  0.25074000  0.32424000  1.0 -0.5611991079
O  O10  1  0.43469000  0.27381000  0.22859000  1.0 -0.5110410866
O  O11  1  0.30060000  0.21900000  0.30640000  1.0 -0.0294284439
O  O12  1  0.28050000  0.20030000  0.32910000  1.0 -0.0419163052
O  O13  1  0.10605000  0.34119000  0.06827000  1.0 -0.5721318998
O  O14  1  0.02672000  0.38974000  0.12854000  1.0 -0.5721318998
O  O15  1  0.04228000  0.32424000  0.25074000  1.0 -0.5611991079
O  O16  1  0.06291000  0.22859000  0.27381000  1.0 -0.5110410866
O  O17  1  0.17400000  0.30640000  0.21900000  1.0 -0.0294284439
O  O18  1  0.19010000  0.32910000  0.20030000  1.0 -0.0419163052
O  O19  1  0.34119000  0.10605000  0.48449000  1.0 -0.5721318998
O  O20  1  0.38974000  0.02672000  0.45500000  1.0 -0.5721318998
O  O21  1  0.32424000  0.04228000  0.38274000  1.0 -0.5611991079
O  O22  1  0.22859000  0.06291000  0.43469000  1.0 -0.5110410866
O  O23  1  0.30640000  0.17400000  0.30060000  1.0 -0.0294284439
O  O24  1  0.32910000  0.19010000  0.28050000  1.0 -0.0419163052
O  O25  1  0.34119000  0.48449000  0.06827000  1.0 -0.5721318998
O  O26  1  0.38974000  0.45500000  0.12854000  1.0 -0.5721318998
O  O27  1  0.32424000  0.38274000  0.25074000  1.0 -0.5611991079
O  O28  1  0.22859000  0.43469000  0.27381000  1.0 -0.5110410866
O  O29  1  0.30640000  0.30060000  0.21900000  1.0 -0.0294284439
O  O30  1  0.32910000  0.28050000  0.20030000  1.0 -0.0419163052
O  O31  1  0.10605000  0.06827000  0.48449000  1.0 -0.5721318998
O  O32  1  0.02672000  0.12854000  0.45500000  1.0 -0.5721318998
O  O33  1  0.04228000  0.25074000  0.38274000  1.0 -0.5611991079
O  O34  1  0.06291000  0.27381000  0.43469000  1.0 -0.5110410866
O  O35  1  0.17400000  0.21900000  0.30060000  1.0 -0.0294284439
O  O36  1  0.19010000  0.20030000  0.28050000  1.0 -0.0419163052
O  O37  1  0.48449000  0.34119000  0.10605000  1.0 -0.5721318998
O  O38  1  0.45500000  0.38974000  0.02672000  1.0 -0.5721318998
O  O39  1  0.38274000  0.32424000  0.04228000  1.0 -0.5611991079
O  O40  1  0.43469000  0.22859000  0.06291000  1.0 -0.5110410866
O  O41  1  0.30060000  0.30640000  0.17400000  1.0 -0.0294284439
O  O42  1  0.28050000  0.32910000  0.19010000  1.0 -0.0419163052
O  O43  1  0.06827000  0.10605000  0.34119000  1.0 -0.5721318998
O  O44  1  0.12854000  0.02672000  0.38974000  1.0 -0.5721318998
O  O45  1  0.25074000  0.04228000  0.32424000  1.0 -0.5611991079
O  O46  1  0.27381000  0.06291000  0.22859000  1.0 -0.5110410866
O  O47  1  0.21900000  0.17400000  0.30640000  1.0 -0.0294284439
O  O48  1  0.20030000  0.19010000  0.32910000  1.0 -0.0419163052
O  O49  1  0.10605000  0.48449000  0.34119000  1.0 -0.5721318998
O  O50  1  0.02672000  0.45500000  0.38974000  1.0 -0.5721318998
O  O51  1  0.04228000  0.38274000  0.32424000  1.0 -0.5611991079
O  O52  1  0.06291000  0.43469000  0.22859000  1.0 -0.5110410866
O  O53  1  0.17400000  0.30060000  0.30640000  1.0 -0.0294284439
O  O54  1  0.19010000  0.28050000  0.32910000  1.0 -0.0419163052
O  O55  1  0.34119000  0.06827000  0.10605000  1.0 -0.5721318998
O  O56  1  0.38974000  0.12854000  0.02672000  1.0 -0.5721318998
O  O57  1  0.32424000  0.25074000  0.04228000  1.0 -0.5611991079
O  O58  1  0.22859000  0.27381000  0.06291000  1.0 -0.5110410866
O  O59  1  0.30640000  0.21900000  0.17400000  1.0 -0.0294284439
O  O60  1  0.32910000  0.20030000  0.19010000  1.0 -0.0419163052
O  O61  1  0.06827000  0.34119000  0.48449000  1.0 -0.5721318998
O  O62  1  0.12854000  0.38974000  0.45500000  1.0 -0.5721318998
O  O63  1  0.25074000  0.32424000  0.38274000  1.0 -0.5611991079
O  O64  1  0.27381000  0.22859000  0.43469000  1.0 -0.5110410866
O  O65  1  0.21900000  0.30640000  0.30060000  1.0 -0.0294284439
O  O66  1  0.20030000  0.32910000  0.28050000  1.0 -0.0419163052
O  O67  1  0.48449000  0.10605000  0.06827000  1.0 -0.5721318998
O  O68  1  0.45500000  0.02672000  0.12854000  1.0 -0.5721318998
O  O69  1  0.38274000  0.04228000  0.25074000  1.0 -0.5611991079
O  O70  1  0.43469000  0.06291000  0.27381000  1.0 -0.5110410866
O  O71  1  0.30060000  0.17400000  0.21900000  1.0 -0.0294284439
O  O72  1  0.28050000  0.19010000  0.20030000  1.0 -0.0419163052
O  O73  1  0.56827000  0.98449000  0.84119000  1.0 -0.5721318998
O  O74  1  0.62854000  0.95500000  0.88974000  1.0 -0.5721318998
O  O75  1  0.75074000  0.88274000  0.82424000  1.0 -0.5611991079
O  O76  1  0.77381000  0.93469000  0.72859000  1.0 -0.5110410866
O  O77  1  0.71900000  0.80060000  0.80640000  1.0 -0.0294284439
O  O78  1  0.70030000  0.78050000  0.82910000  1.0 -0.0419163052
O  O79  1  0.98449000  0.56827000  0.60605000  1.0 -0.5721318998
O  O80  1  0.95500000  0.62854000  0.52672000  1.0 -0.5721318998
O  O81  1  0.88274000  0.75074000  0.54228000  1.0 -0.5611991079
O  O82  1  0.93469000  0.77381000  0.56291000  1.0 -0.5110410866
O  O83  1  0.80060000  0.71900000  0.67400000  1.0 -0.0294284439
O  O84  1  0.78050000  0.70030000  0.69010000  1.0 -0.0419163052
O  O85  1  0.60605000  0.84119000  0.98449000  1.0 -0.5721318998
O  O86  1  0.52672000  0.88974000  0.95500000  1.0 -0.5721318998
O  O87  1  0.54228000  0.82424000  0.88274000  1.0 -0.5611991079
O  O88  1  0.56291000  0.72859000  0.93469000  1.0 -0.5110410866
O  O89  1  0.67400000  0.80640000  0.80060000  1.0 -0.0294284439
O  O90  1  0.69010000  0.82910000  0.78050000  1.0 -0.0419163052
O  O91  1  0.84119000  0.60605000  0.56827000  1.0 -0.5721318998
O  O92  1  0.88974000  0.52672000  0.62854000  1.0 -0.5721318998
O  O93  1  0.82424000  0.54228000  0.75074000  1.0 -0.5611991079
O  O94  1  0.72859000  0.56291000  0.77381000  1.0 -0.5110410866
O  O95  1  0.80640000  0.67400000  0.71900000  1.0 -0.0294284439
O  O96  1  0.82910000  0.69010000  0.70030000  1.0 -0.0419163052
O  O97  1  0.84119000  0.98449000  0.60605000  1.0 -0.5721318998
O  O98  1  0.88974000  0.95500000  0.52672000  1.0 -0.5721318998
O  O99  1  0.82424000  0.88274000  0.54228000  1.0 -0.5611991079
O  O100  1  0.72859000  0.93469000  0.56291000  1.0 -0.5110410866
O  O101  1  0.80640000  0.80060000  0.67400000  1.0 -0.0294284439
O  O102  1  0.82910000  0.78050000  0.69010000  1.0 -0.0419163052
O  O103  1  0.60605000  0.56827000  0.84119000  1.0 -0.5721318998
O  O104  1  0.52672000  0.62854000  0.88974000  1.0 -0.5721318998
O  O105  1  0.54228000  0.75074000  0.82424000  1.0 -0.5611991079
O  O106  1  0.56291000  0.77381000  0.72859000  1.0 -0.5110410866
O  O107  1  0.67400000  0.71900000  0.80640000  1.0 -0.0294284439
O  O108  1  0.69010000  0.70030000  0.82910000  1.0 -0.0419163052
O  O109  1  0.98449000  0.84119000  0.56827000  1.0 -0.5721318998
O  O110  1  0.95500000  0.88974000  0.62854000  1.0 -0.5721318998
O  O111  1  0.88274000  0.82424000  0.75074000  1.0 -0.5611991079
O  O112  1  0.93469000  0.72859000  0.77381000  1.0 -0.5110410866
O  O113  1  0.80060000  0.80640000  0.71900000  1.0 -0.0294284439
O  O114  1  0.78050000  0.82910000  0.70030000  1.0 -0.0419163052
O  O115  1  0.56827000  0.60605000  0.98449000  1.0 -0.5721318998
O  O116  1  0.62854000  0.52672000  0.95500000  1.0 -0.5721318998
O  O117  1  0.75074000  0.54228000  0.88274000  1.0 -0.5611991079
O  O118  1  0.77381000  0.56291000  0.93469000  1.0 -0.5110410866
O  O119  1  0.71900000  0.67400000  0.80060000  1.0 -0.0294284439
O  O120  1  0.70030000  0.69010000  0.78050000  1.0 -0.0419163052
O  O121  1  0.60605000  0.98449000  0.56827000  1.0 -0.5721318998
O  O122  1  0.52672000  0.95500000  0.62854000  1.0 -0.5721318998
O  O123  1  0.54228000  0.88274000  0.75074000  1.0 -0.5611991079
O  O124  1  0.56291000  0.93469000  0.77381000  1.0 -0.5110410866
O  O125  1  0.67400000  0.80060000  0.71900000  1.0 -0.0294284439
O  O126  1  0.69010000  0.78050000  0.70030000  1.0 -0.0419163052
O  O127  1  0.84119000  0.56827000  0.98449000  1.0 -0.5721318998
O  O128  1  0.88974000  0.62854000  0.95500000  1.0 -0.5721318998
O  O129  1  0.82424000  0.75074000  0.88274000  1.0 -0.5611991079
O  O130  1  0.72859000  0.77381000  0.93469000  1.0 -0.5110410866
O  O131  1  0.80640000  0.71900000  0.80060000  1.0 -0.0294284439
O  O132  1  0.82910000  0.70030000  0.78050000  1.0 -0.0419163052
O  O133  1  0.56827000  0.84119000  0.60605000  1.0 -0.5721318998
O  O134  1  0.62854000  0.88974000  0.52672000  1.0 -0.5721318998
O  O135  1  0.75074000  0.82424000  0.54228000  1.0 -0.5611991079
O  O136  1  0.77381000  0.72859000  0.56291000  1.0 -0.5110410866
O  O137  1  0.71900000  0.80640000  0.67400000  1.0 -0.0294284439
O  O138  1  0.70030000  0.82910000  0.69010000  1.0 -0.0419163052
O  O139  1  0.98449000  0.60605000  0.84119000  1.0 -0.5721318998
O  O140  1  0.95500000  0.52672000  0.88974000  1.0 -0.5721318998
O  O141  1  0.88274000  0.54228000  0.82424000  1.0 -0.5611991079
O  O142  1  0.93469000  0.56291000  0.72859000  1.0 -0.5110410866
O  O143  1  0.80060000  0.67400000  0.80640000  1.0 -0.0294284439
O  O144  1  0.78050000  0.69010000  0.82910000  1.0 -0.0419163052
O  O145  1  0.14375000  0.35625000  0.14375000  1.0 -0.38939351
O  O146  1  0.35625000  0.14375000  0.35625000  1.0 -0.38939351
O  O147  1  0.35625000  0.35625000  0.14375000  1.0 -0.38939351
O  O148  1  0.14375000  0.14375000  0.35625000  1.0 -0.38939351
O  O149  1  0.14375000  0.35625000  0.35625000  1.0 -0.38939351
O  O150  1  0.35625000  0.14375000  0.14375000  1.0 -0.38939351
O  O151  1  0.64375000  0.85625000  0.85625000  1.0 -0.38939351
O  O152  1  0.85625000  0.64375000  0.64375000  1.0 -0.38939351
O  O153  1  0.85625000  0.85625000  0.64375000  1.0 -0.38939351
O  O154  1  0.64375000  0.64375000  0.85625000  1.0 -0.38939351
O  O155  1  0.64375000  0.85625000  0.64375000  1.0 -0.38939351
O  O156  1  0.85625000  0.64375000  0.85625000  1.0 -0.38939351
