# DDEC6 charges by PACMAN v1.1 (https://github.com/mtap-research/PACMAN-charge/)
data_SEJJEZ_ASR_pacman
_symmetry_space_group_name_H-M   'P 1'
_cell_length_a   27.84370000
_cell_length_b   27.84370000
_cell_length_c   27.84370000
_cell_angle_alpha   60.00000000
_cell_angle_beta   60.00000000
_cell_angle_gamma   60.00000000
_symmetry_Int_Tables_number   1
_chemical_formula_structural   Mn7H48C60(N10O13)2
_chemical_formula_sum   'Mn42 H288 C360 N120 O156'
_cell_volume   15263.91151233
_cell_formula_units_Z   6
loop_
 _symmetry_equiv_pos_site_id
 _symmetry_equiv_pos_as_xyz
  1  'x, y, z'
loop_
 _atom_site_type_symbol
 _atom_site_label
 _atom_site_symmetry_multiplicity
 _atom_site_fract_x
 _atom_site_fract_y
 _atom_site_fract_z
 _atom_site_occupancy
 _atom_site_charge
Mn  Mn1  1  0.86324000  0.55006000  0.67626000  1.0 0.9356354211
Mn  Mn2  1  0.55006000  0.86324000  0.91044000  1.0 0.9356354211
Mn  Mn3  1  0.67626000  0.91044000  0.86324000  1.0 0.9356354211
Mn  Mn4  1  0.91044000  0.67626000  0.55006000  1.0 0.9356354211
Mn  Mn5  1  0.91044000  0.55006000  0.86324000  1.0 0.9356354211
Mn  Mn6  1  0.67626000  0.86324000  0.55006000  1.0 0.9356354211
Mn  Mn7  1  0.55006000  0.91044000  0.67626000  1.0 0.9356354211
Mn  Mn8  1  0.86324000  0.67626000  0.91044000  1.0 0.9356354211
Mn  Mn9  1  0.67626000  0.55006000  0.91044000  1.0 0.9356354211
Mn  Mn10  1  0.91044000  0.86324000  0.67626000  1.0 0.9356354211
Mn  Mn11  1  0.86324000  0.91044000  0.55006000  1.0 0.9356354211
Mn  Mn12  1  0.55006000  0.67626000  0.86324000  1.0 0.9356354211
Mn  Mn13  1  0.36324000  0.05006000  0.41044000  1.0 0.9342277382
Mn  Mn14  1  0.05006000  0.36324000  0.17626000  1.0 0.9342277382
Mn  Mn15  1  0.17626000  0.41044000  0.05006000  1.0 0.9342277382
Mn  Mn16  1  0.41044000  0.17626000  0.36324000  1.0 0.9342277382
Mn  Mn17  1  0.41044000  0.05006000  0.17626000  1.0 0.9342277382
Mn  Mn18  1  0.17626000  0.36324000  0.41044000  1.0 0.9342277382
Mn  Mn19  1  0.05006000  0.41044000  0.36324000  1.0 0.9342277382
Mn  Mn20  1  0.36324000  0.17626000  0.05006000  1.0 0.9342277382
Mn  Mn21  1  0.17626000  0.05006000  0.36324000  1.0 0.9342277382
Mn  Mn22  1  0.41044000  0.36324000  0.05006000  1.0 0.9342277382
Mn  Mn23  1  0.36324000  0.41044000  0.17626000  1.0 0.9342277382
Mn  Mn24  1  0.05006000  0.17626000  0.41044000  1.0 0.9342277382
Mn  Mn25  1  0.39603000  0.39603000  0.39603000  1.0 0.561749061
Mn  Mn26  1  0.39603000  0.39603000  0.81191000  1.0 0.561749061
Mn  Mn27  1  0.39603000  0.81191000  0.39603000  1.0 0.561749061
Mn  Mn28  1  0.81191000  0.39603000  0.39603000  1.0 0.561749061
Mn  Mn29  1  0.89603000  0.89603000  0.31191000  1.0 0.561749061
Mn  Mn30  1  0.89603000  0.89603000  0.89603000  1.0 0.561749061
Mn  Mn31  1  0.89603000  0.31191000  0.89603000  1.0 0.561749061
Mn  Mn32  1  0.31191000  0.89603000  0.89603000  1.0 0.561749061
Mn  Mn33  1  0.83582000  0.49254000  0.83582000  1.0 0.8271830116
Mn  Mn34  1  0.49254000  0.83582000  0.83582000  1.0 0.8271830116
Mn  Mn35  1  0.83582000  0.83582000  0.83582000  1.0 0.8271830116
Mn  Mn36  1  0.83582000  0.83582000  0.49254000  1.0 0.8271830116
Mn  Mn37  1  0.33582000  0.99254000  0.33582000  1.0 0.8271830116
Mn  Mn38  1  0.99254000  0.33582000  0.33582000  1.0 0.8271830116
Mn  Mn39  1  0.33582000  0.33582000  0.99254000  1.0 0.8271830116
Mn  Mn40  1  0.33582000  0.33582000  0.33582000  1.0 0.8271830116
Mn  Mn41  1  0.75000000  0.75000000  0.75000000  1.0 0.561749061
Mn  Mn42  1  0.25000000  0.25000000  0.25000000  1.0 0.5489026044
H  H1  1  0.19000000  0.50260000  0.49580000  1.0 0.1117238356
H  H2  1  0.09770000  0.56450000  0.53810000  1.0 0.1117238356
H  H3  1  0.02520000  0.44440000  0.58780000  1.0 0.1117238356
H  H4  1  0.11510000  0.38630000  0.54010000  1.0 0.1117238356
H  H5  1  0.69730000  0.57950000  0.78350000  1.0 0.0723991024
H  H6  1  0.37400000  0.45080000  0.47840000  1.0 0.0902632881
H  H7  1  0.30330000  0.52910000  0.51330000  1.0 0.1216470261
H  H8  1  0.24360000  0.60880000  0.45860000  1.0 0.1117238356
H  H9  1  0.25450000  0.61030000  0.36890000  1.0 0.1274896335
H  H10  1  0.32500000  0.53200000  0.33400000  1.0 0.1024208575
H  H11  1  0.84620000  0.71040000  0.65440000  1.0 0.1719728211
H  H12  1  0.82650000  0.72190000  0.64410000  1.0 0.1719728211
H  H13  1  0.50260000  0.19000000  0.81160000  1.0 0.1117238356
H  H14  1  0.56450000  0.09770000  0.79970000  1.0 0.1117238356
H  H15  1  0.44440000  0.02520000  0.94260000  1.0 0.1117238356
H  H16  1  0.38630000  0.11510000  0.95850000  1.0 0.1117238356
H  H17  1  0.57950000  0.69730000  0.93970000  1.0 0.0723991024
H  H18  1  0.45080000  0.37400000  0.69680000  1.0 0.0902632881
H  H19  1  0.52910000  0.30330000  0.65430000  1.0 0.1216470261
H  H20  1  0.60880000  0.24360000  0.68900000  1.0 0.1117238356
H  H21  1  0.61030000  0.25450000  0.76630000  1.0 0.1274896335
H  H22  1  0.53200000  0.32500000  0.80900000  1.0 0.1024208575
H  H23  1  0.71040000  0.84620000  0.78900000  1.0 0.1719728211
H  H24  1  0.72190000  0.82650000  0.80750000  1.0 0.1719728211
H  H25  1  0.49580000  0.81160000  0.19000000  1.0 0.1117238356
H  H26  1  0.53810000  0.79970000  0.09770000  1.0 0.1117238356
H  H27  1  0.58780000  0.94260000  0.02520000  1.0 0.1117238356
H  H28  1  0.54010000  0.95850000  0.11510000  1.0 0.1117238356
H  H29  1  0.78350000  0.93970000  0.69730000  1.0 0.0723991024
H  H30  1  0.47840000  0.69680000  0.37400000  1.0 0.0902632881
H  H31  1  0.51330000  0.65430000  0.30330000  1.0 0.1216470261
H  H32  1  0.45860000  0.68900000  0.24360000  1.0 0.1117238356
H  H33  1  0.36890000  0.76630000  0.25450000  1.0 0.1274896335
H  H34  1  0.33400000  0.80900000  0.32500000  1.0 0.1024208575
H  H35  1  0.65440000  0.78900000  0.84620000  1.0 0.1719728211
H  H36  1  0.64410000  0.80750000  0.82650000  1.0 0.1719728211
H  H37  1  0.81160000  0.49580000  0.50260000  1.0 0.1117238356
H  H38  1  0.79970000  0.53810000  0.56450000  1.0 0.1117238356
H  H39  1  0.94260000  0.58780000  0.44440000  1.0 0.1117238356
H  H40  1  0.95850000  0.54010000  0.38630000  1.0 0.1117238356
H  H41  1  0.93970000  0.78350000  0.57950000  1.0 0.0723991024
H  H42  1  0.69680000  0.47840000  0.45080000  1.0 0.0902632881
H  H43  1  0.65430000  0.51330000  0.52910000  1.0 0.1216470261
H  H44  1  0.68900000  0.45860000  0.60880000  1.0 0.1117238356
H  H45  1  0.76630000  0.36890000  0.61030000  1.0 0.1274896335
H  H46  1  0.80900000  0.33400000  0.53200000  1.0 0.1024208575
H  H47  1  0.78900000  0.65440000  0.71040000  1.0 0.1719728211
H  H48  1  0.80750000  0.64410000  0.72190000  1.0 0.1719728211
H  H49  1  0.81160000  0.50260000  0.19000000  1.0 0.1117238356
H  H50  1  0.79970000  0.56450000  0.09770000  1.0 0.1117238356
H  H51  1  0.94260000  0.44440000  0.02520000  1.0 0.1117238356
H  H52  1  0.95850000  0.38630000  0.11510000  1.0 0.1117238356
H  H53  1  0.93970000  0.57950000  0.69730000  1.0 0.0723991024
H  H54  1  0.69680000  0.45080000  0.37400000  1.0 0.0902632881
H  H55  1  0.65430000  0.52910000  0.30330000  1.0 0.1216470261
H  H56  1  0.68900000  0.60880000  0.24360000  1.0 0.1117238356
H  H57  1  0.76630000  0.61030000  0.25450000  1.0 0.1274896335
H  H58  1  0.80900000  0.53200000  0.32500000  1.0 0.1024208575
H  H59  1  0.78900000  0.71040000  0.84620000  1.0 0.1719728211
H  H60  1  0.80750000  0.72190000  0.82650000  1.0 0.1719728211
H  H61  1  0.49580000  0.19000000  0.50260000  1.0 0.1117238356
H  H62  1  0.53810000  0.09770000  0.56450000  1.0 0.1117238356
H  H63  1  0.58780000  0.02520000  0.44440000  1.0 0.1117238356
H  H64  1  0.54010000  0.11510000  0.38630000  1.0 0.1117238356
H  H65  1  0.78350000  0.69730000  0.57950000  1.0 0.0723991024
H  H66  1  0.47840000  0.37400000  0.45080000  1.0 0.0902632881
H  H67  1  0.51330000  0.30330000  0.52910000  1.0 0.1216470261
H  H68  1  0.45860000  0.24360000  0.60880000  1.0 0.1117238356
H  H69  1  0.36890000  0.25450000  0.61030000  1.0 0.1274896335
H  H70  1  0.33400000  0.32500000  0.53200000  1.0 0.1024208575
H  H71  1  0.65440000  0.84620000  0.71040000  1.0 0.1719728211
H  H72  1  0.64410000  0.82650000  0.72190000  1.0 0.1719728211
H  H73  1  0.50260000  0.81160000  0.49580000  1.0 0.1117238356
H  H74  1  0.56450000  0.79970000  0.53810000  1.0 0.1117238356
H  H75  1  0.44440000  0.94260000  0.58780000  1.0 0.1117238356
H  H76  1  0.38630000  0.95850000  0.54010000  1.0 0.1117238356
H  H77  1  0.57950000  0.93970000  0.78350000  1.0 0.0723991024
H  H78  1  0.45080000  0.69680000  0.47840000  1.0 0.0902632881
H  H79  1  0.52910000  0.65430000  0.51330000  1.0 0.1216470261
H  H80  1  0.60880000  0.68900000  0.45860000  1.0 0.1117238356
H  H81  1  0.61030000  0.76630000  0.36890000  1.0 0.1274896335
H  H82  1  0.53200000  0.80900000  0.33400000  1.0 0.1024208575
H  H83  1  0.71040000  0.78900000  0.65440000  1.0 0.1719728211
H  H84  1  0.72190000  0.80750000  0.64410000  1.0 0.1719728211
H  H85  1  0.19000000  0.49580000  0.81160000  1.0 0.1117238356
H  H86  1  0.09770000  0.53810000  0.79970000  1.0 0.1117238356
H  H87  1  0.02520000  0.58780000  0.94260000  1.0 0.1117238356
H  H88  1  0.11510000  0.54010000  0.95850000  1.0 0.1117238356
H  H89  1  0.69730000  0.78350000  0.93970000  1.0 0.0723991024
H  H90  1  0.37400000  0.47840000  0.69680000  1.0 0.0902632881
H  H91  1  0.30330000  0.51330000  0.65430000  1.0 0.1216470261
H  H92  1  0.24360000  0.45860000  0.68900000  1.0 0.1117238356
H  H93  1  0.25450000  0.36890000  0.76630000  1.0 0.1274896335
H  H94  1  0.32500000  0.33400000  0.80900000  1.0 0.1024208575
H  H95  1  0.84620000  0.65440000  0.78900000  1.0 0.1719728211
H  H96  1  0.82650000  0.64410000  0.80750000  1.0 0.1719728211
H  H97  1  0.49580000  0.50260000  0.81160000  1.0 0.1117238356
H  H98  1  0.53810000  0.56450000  0.79970000  1.0 0.1117238356
H  H99  1  0.58780000  0.44440000  0.94260000  1.0 0.1117238356
H  H100  1  0.54010000  0.38630000  0.95850000  1.0 0.1117238356
H  H101  1  0.78350000  0.57950000  0.93970000  1.0 0.0723991024
H  H102  1  0.47840000  0.45080000  0.69680000  1.0 0.0902632881
H  H103  1  0.51330000  0.52910000  0.65430000  1.0 0.1216470261
H  H104  1  0.45860000  0.60880000  0.68900000  1.0 0.1117238356
H  H105  1  0.36890000  0.61030000  0.76630000  1.0 0.1274896335
H  H106  1  0.33400000  0.53200000  0.80900000  1.0 0.1024208575
H  H107  1  0.65440000  0.71040000  0.78900000  1.0 0.1719728211
H  H108  1  0.64410000  0.72190000  0.80750000  1.0 0.1719728211
H  H109  1  0.81160000  0.19000000  0.49580000  1.0 0.1117238356
H  H110  1  0.79970000  0.09770000  0.53810000  1.0 0.1117238356
H  H111  1  0.94260000  0.02520000  0.58780000  1.0 0.1117238356
H  H112  1  0.95850000  0.11510000  0.54010000  1.0 0.1117238356
H  H113  1  0.93970000  0.69730000  0.78350000  1.0 0.0723991024
H  H114  1  0.69680000  0.37400000  0.47840000  1.0 0.0902632881
H  H115  1  0.65430000  0.30330000  0.51330000  1.0 0.1216470261
H  H116  1  0.68900000  0.24360000  0.45860000  1.0 0.1117238356
H  H117  1  0.76630000  0.25450000  0.36890000  1.0 0.1274896335
H  H118  1  0.80900000  0.32500000  0.33400000  1.0 0.1024208575
H  H119  1  0.78900000  0.84620000  0.65440000  1.0 0.1719728211
H  H120  1  0.80750000  0.82650000  0.64410000  1.0 0.1719728211
H  H121  1  0.19000000  0.81160000  0.50260000  1.0 0.1117238356
H  H122  1  0.09770000  0.79970000  0.56450000  1.0 0.1117238356
H  H123  1  0.02520000  0.94260000  0.44440000  1.0 0.1117238356
H  H124  1  0.11510000  0.95850000  0.38630000  1.0 0.1117238356
H  H125  1  0.69730000  0.93970000  0.57950000  1.0 0.0723991024
H  H126  1  0.37400000  0.69680000  0.45080000  1.0 0.0902632881
H  H127  1  0.30330000  0.65430000  0.52910000  1.0 0.1216470261
H  H128  1  0.24360000  0.68900000  0.60880000  1.0 0.1117238356
H  H129  1  0.25450000  0.76630000  0.61030000  1.0 0.1274896335
H  H130  1  0.32500000  0.80900000  0.53200000  1.0 0.1024208575
H  H131  1  0.84620000  0.78900000  0.71040000  1.0 0.1719728211
H  H132  1  0.82650000  0.80750000  0.72190000  1.0 0.1719728211
H  H133  1  0.50260000  0.49580000  0.19000000  1.0 0.1117238356
H  H134  1  0.56450000  0.53810000  0.09770000  1.0 0.1117238356
H  H135  1  0.44440000  0.58780000  0.02520000  1.0 0.1117238356
H  H136  1  0.38630000  0.54010000  0.11510000  1.0 0.1117238356
H  H137  1  0.57950000  0.78350000  0.69730000  1.0 0.0723991024
H  H138  1  0.45080000  0.47840000  0.37400000  1.0 0.0902632881
H  H139  1  0.52910000  0.51330000  0.30330000  1.0 0.1216470261
H  H140  1  0.60880000  0.45860000  0.24360000  1.0 0.1117238356
H  H141  1  0.61030000  0.36890000  0.25450000  1.0 0.1274896335
H  H142  1  0.53200000  0.33400000  0.32500000  1.0 0.1024208575
H  H143  1  0.71040000  0.65440000  0.84620000  1.0 0.1719728211
H  H144  1  0.72190000  0.64410000  0.82650000  1.0 0.1719728211
H  H145  1  0.69000000  0.00260000  0.31160000  1.0 0.1117238356
H  H146  1  0.59770000  0.06450000  0.29970000  1.0 0.1117238356
H  H147  1  0.52520000  0.94440000  0.44260000  1.0 0.1117238356
H  H148  1  0.61510000  0.88630000  0.45850000  1.0 0.1117238356
H  H149  1  0.19730000  0.07950000  0.43970000  1.0 0.0723991024
H  H150  1  0.87400000  0.95080000  0.19680000  1.0 0.0902632881
H  H151  1  0.80330000  0.02910000  0.15430000  1.0 0.1216470261
H  H152  1  0.74360000  0.10880000  0.18900000  1.0 0.1117238356
H  H153  1  0.75450000  0.11030000  0.26630000  1.0 0.1274896335
H  H154  1  0.82500000  0.03200000  0.30900000  1.0 0.1024208575
H  H155  1  0.34620000  0.21040000  0.28900000  1.0 0.1719728211
H  H156  1  0.32650000  0.22190000  0.30750000  1.0 0.1719728211
H  H157  1  0.00260000  0.69000000  0.99580000  1.0 0.1117238356
H  H158  1  0.06450000  0.59770000  0.03810000  1.0 0.1117238356
H  H159  1  0.94440000  0.52520000  0.08780000  1.0 0.1117238356
H  H160  1  0.88630000  0.61510000  0.04010000  1.0 0.1117238356
H  H161  1  0.07950000  0.19730000  0.28350000  1.0 0.0723991024
H  H162  1  0.95080000  0.87400000  0.97840000  1.0 0.0902632881
H  H163  1  0.02910000  0.80330000  0.01330000  1.0 0.1216470261
H  H164  1  0.10880000  0.74360000  0.95860000  1.0 0.1117238356
H  H165  1  0.11030000  0.75450000  0.86890000  1.0 0.1274896335
H  H166  1  0.03200000  0.82500000  0.83400000  1.0 0.1024208575
H  H167  1  0.21040000  0.34620000  0.15440000  1.0 0.1719728211
H  H168  1  0.22190000  0.32650000  0.14410000  1.0 0.1719728211
H  H169  1  0.99580000  0.31160000  0.00260000  1.0 0.1117238356
H  H170  1  0.03810000  0.29970000  0.06450000  1.0 0.1117238356
H  H171  1  0.08780000  0.44260000  0.94440000  1.0 0.1117238356
H  H172  1  0.04010000  0.45850000  0.88630000  1.0 0.1117238356
H  H173  1  0.28350000  0.43970000  0.07950000  1.0 0.0723991024
H  H174  1  0.97840000  0.19680000  0.95080000  1.0 0.0902632881
H  H175  1  0.01330000  0.15430000  0.02910000  1.0 0.1216470261
H  H176  1  0.95860000  0.18900000  0.10880000  1.0 0.1117238356
H  H177  1  0.86890000  0.26630000  0.11030000  1.0 0.1274896335
H  H178  1  0.83400000  0.30900000  0.03200000  1.0 0.1024208575
H  H179  1  0.15440000  0.28900000  0.21040000  1.0 0.1719728211
H  H180  1  0.14410000  0.30750000  0.22190000  1.0 0.1719728211
H  H181  1  0.31160000  0.99580000  0.69000000  1.0 0.1117238356
H  H182  1  0.29970000  0.03810000  0.59770000  1.0 0.1117238356
H  H183  1  0.44260000  0.08780000  0.52520000  1.0 0.1117238356
H  H184  1  0.45850000  0.04010000  0.61510000  1.0 0.1117238356
H  H185  1  0.43970000  0.28350000  0.19730000  1.0 0.0723991024
H  H186  1  0.19680000  0.97840000  0.87400000  1.0 0.0902632881
H  H187  1  0.15430000  0.01330000  0.80330000  1.0 0.1216470261
H  H188  1  0.18900000  0.95860000  0.74360000  1.0 0.1117238356
H  H189  1  0.26630000  0.86890000  0.75450000  1.0 0.1274896335
H  H190  1  0.30900000  0.83400000  0.82500000  1.0 0.1024208575
H  H191  1  0.28900000  0.15440000  0.34620000  1.0 0.1719728211
H  H192  1  0.30750000  0.14410000  0.32650000  1.0 0.1719728211
H  H193  1  0.31160000  0.00260000  0.99580000  1.0 0.1117238356
H  H194  1  0.29970000  0.06450000  0.03810000  1.0 0.1117238356
H  H195  1  0.44260000  0.94440000  0.08780000  1.0 0.1117238356
H  H196  1  0.45850000  0.88630000  0.04010000  1.0 0.1117238356
H  H197  1  0.43970000  0.07950000  0.28350000  1.0 0.0723991024
H  H198  1  0.19680000  0.95080000  0.97840000  1.0 0.0902632881
H  H199  1  0.15430000  0.02910000  0.01330000  1.0 0.1216470261
H  H200  1  0.18900000  0.10880000  0.95860000  1.0 0.1117238356
H  H201  1  0.26630000  0.11030000  0.86890000  1.0 0.1274896335
H  H202  1  0.30900000  0.03200000  0.83400000  1.0 0.1024208575
H  H203  1  0.28900000  0.21040000  0.15440000  1.0 0.1719728211
H  H204  1  0.30750000  0.22190000  0.14410000  1.0 0.1719728211
H  H205  1  0.99580000  0.69000000  0.31160000  1.0 0.1117238356
H  H206  1  0.03810000  0.59770000  0.29970000  1.0 0.1117238356
H  H207  1  0.08780000  0.52520000  0.44260000  1.0 0.1117238356
H  H208  1  0.04010000  0.61510000  0.45850000  1.0 0.1117238356
H  H209  1  0.28350000  0.19730000  0.43970000  1.0 0.0723991024
H  H210  1  0.97840000  0.87400000  0.19680000  1.0 0.0902632881
H  H211  1  0.01330000  0.80330000  0.15430000  1.0 0.1216470261
H  H212  1  0.95860000  0.74360000  0.18900000  1.0 0.1117238356
H  H213  1  0.86890000  0.75450000  0.26630000  1.0 0.1274896335
H  H214  1  0.83400000  0.82500000  0.30900000  1.0 0.1024208575
H  H215  1  0.15440000  0.34620000  0.28900000  1.0 0.1719728211
H  H216  1  0.14410000  0.32650000  0.30750000  1.0 0.1719728211
H  H217  1  0.00260000  0.31160000  0.69000000  1.0 0.1117238356
H  H218  1  0.06450000  0.29970000  0.59770000  1.0 0.1117238356
H  H219  1  0.94440000  0.44260000  0.52520000  1.0 0.1117238356
H  H220  1  0.88630000  0.45850000  0.61510000  1.0 0.1117238356
H  H221  1  0.07950000  0.43970000  0.19730000  1.0 0.0723991024
H  H222  1  0.95080000  0.19680000  0.87400000  1.0 0.0902632881
H  H223  1  0.02910000  0.15430000  0.80330000  1.0 0.1216470261
H  H224  1  0.10880000  0.18900000  0.74360000  1.0 0.1117238356
H  H225  1  0.11030000  0.26630000  0.75450000  1.0 0.1274896335
H  H226  1  0.03200000  0.30900000  0.82500000  1.0 0.1024208575
H  H227  1  0.21040000  0.28900000  0.34620000  1.0 0.1719728211
H  H228  1  0.22190000  0.30750000  0.32650000  1.0 0.1719728211
H  H229  1  0.69000000  0.99580000  0.00260000  1.0 0.1117238356
H  H230  1  0.59770000  0.03810000  0.06450000  1.0 0.1117238356
H  H231  1  0.52520000  0.08780000  0.94440000  1.0 0.1117238356
H  H232  1  0.61510000  0.04010000  0.88630000  1.0 0.1117238356
H  H233  1  0.19730000  0.28350000  0.07950000  1.0 0.0723991024
H  H234  1  0.87400000  0.97840000  0.95080000  1.0 0.0902632881
H  H235  1  0.80330000  0.01330000  0.02910000  1.0 0.1216470261
H  H236  1  0.74360000  0.95860000  0.10880000  1.0 0.1117238356
H  H237  1  0.75450000  0.86890000  0.11030000  1.0 0.1274896335
H  H238  1  0.82500000  0.83400000  0.03200000  1.0 0.1024208575
H  H239  1  0.34620000  0.15440000  0.21040000  1.0 0.1719728211
H  H240  1  0.32650000  0.14410000  0.22190000  1.0 0.1719728211
H  H241  1  0.99580000  0.00260000  0.69000000  1.0 0.1117238356
H  H242  1  0.03810000  0.06450000  0.59770000  1.0 0.1117238356
H  H243  1  0.08780000  0.94440000  0.52520000  1.0 0.1117238356
H  H244  1  0.04010000  0.88630000  0.61510000  1.0 0.1117238356
H  H245  1  0.28350000  0.07950000  0.19730000  1.0 0.0723991024
H  H246  1  0.97840000  0.95080000  0.87400000  1.0 0.0902632881
H  H247  1  0.01330000  0.02910000  0.80330000  1.0 0.1216470261
H  H248  1  0.95860000  0.10880000  0.74360000  1.0 0.1117238356
H  H249  1  0.86890000  0.11030000  0.75450000  1.0 0.1274896335
H  H250  1  0.83400000  0.03200000  0.82500000  1.0 0.1024208575
H  H251  1  0.15440000  0.21040000  0.34620000  1.0 0.1719728211
H  H252  1  0.14410000  0.22190000  0.32650000  1.0 0.1719728211
H  H253  1  0.31160000  0.69000000  0.00260000  1.0 0.1117238356
H  H254  1  0.29970000  0.59770000  0.06450000  1.0 0.1117238356
H  H255  1  0.44260000  0.52520000  0.94440000  1.0 0.1117238356
H  H256  1  0.45850000  0.61510000  0.88630000  1.0 0.1117238356
H  H257  1  0.43970000  0.19730000  0.07950000  1.0 0.0723991024
H  H258  1  0.19680000  0.87400000  0.95080000  1.0 0.0902632881
H  H259  1  0.15430000  0.80330000  0.02910000  1.0 0.1216470261
H  H260  1  0.18900000  0.74360000  0.10880000  1.0 0.1117238356
H  H261  1  0.26630000  0.75450000  0.11030000  1.0 0.1274896335
H  H262  1  0.30900000  0.82500000  0.03200000  1.0 0.1024208575
H  H263  1  0.28900000  0.34620000  0.21040000  1.0 0.1719728211
H  H264  1  0.30750000  0.32650000  0.22190000  1.0 0.1719728211
H  H265  1  0.69000000  0.31160000  0.99580000  1.0 0.1117238356
H  H266  1  0.59770000  0.29970000  0.03810000  1.0 0.1117238356
H  H267  1  0.52520000  0.44260000  0.08780000  1.0 0.1117238356
H  H268  1  0.61510000  0.45850000  0.04010000  1.0 0.1117238356
H  H269  1  0.19730000  0.43970000  0.28350000  1.0 0.0723991024
H  H270  1  0.87400000  0.19680000  0.97840000  1.0 0.0902632881
H  H271  1  0.80330000  0.15430000  0.01330000  1.0 0.1216470261
H  H272  1  0.74360000  0.18900000  0.95860000  1.0 0.1117238356
H  H273  1  0.75450000  0.26630000  0.86890000  1.0 0.1274896335
H  H274  1  0.82500000  0.30900000  0.83400000  1.0 0.1024208575
H  H275  1  0.34620000  0.28900000  0.15440000  1.0 0.1719728211
H  H276  1  0.32650000  0.30750000  0.14410000  1.0 0.1719728211
H  H277  1  0.00260000  0.99580000  0.31160000  1.0 0.1117238356
H  H278  1  0.06450000  0.03810000  0.29970000  1.0 0.1117238356
H  H279  1  0.94440000  0.08780000  0.44260000  1.0 0.1117238356
H  H280  1  0.88630000  0.04010000  0.45850000  1.0 0.1117238356
H  H281  1  0.07950000  0.28350000  0.43970000  1.0 0.0723991024
H  H282  1  0.95080000  0.97840000  0.19680000  1.0 0.0902632881
H  H283  1  0.02910000  0.01330000  0.15430000  1.0 0.1216470261
H  H284  1  0.10880000  0.95860000  0.18900000  1.0 0.1117238356
H  H285  1  0.11030000  0.86890000  0.26630000  1.0 0.1274896335
H  H286  1  0.03200000  0.83400000  0.30900000  1.0 0.1024208575
H  H287  1  0.21040000  0.15440000  0.28900000  1.0 0.1719728211
H  H288  1  0.22190000  0.14410000  0.30750000  1.0 0.1719728211
C  C1  1  0.21769000  0.40829000  0.47711000  1.0 0.2588789422
C  C2  1  0.16102000  0.44130000  0.51010000  1.0 0.039018314
C  C3  1  0.15589000  0.49209000  0.51237000  1.0 -0.1314201695
C  C4  1  0.10148000  0.52838000  0.53862000  1.0 -0.1222260551
C  C5  1  0.05228000  0.51010000  0.56582000  1.0 -0.0280061218
C  C6  1  0.05839000  0.45721000  0.56721000  1.0 -0.1004201195
C  C7  1  0.11161000  0.42233000  0.53949000  1.0 -0.1314201695
C  C8  1  0.99272000  0.55024000  0.59014000  1.0 0.585816275
C  C9  1  0.73793000  0.56251000  0.77895000  1.0 0.2494599182
C  C10  1  0.82840000  0.68240000  0.66800000  1.0 0.2241794482
C  C11  1  0.34960000  0.48320000  0.45620000  1.0 0.0485594004
C  C12  1  0.30770000  0.52970000  0.47690000  1.0 -0.1561473202
C  C13  1  0.27230000  0.57710000  0.44430000  1.0 -0.0690240968
C  C14  1  0.27870000  0.57790000  0.39110000  1.0 -0.1532171521
C  C15  1  0.32060000  0.53140000  0.37040000  1.0 0.0610496883
C  C16  1  0.40829000  0.21769000  0.89691000  1.0 0.2588789422
C  C17  1  0.44130000  0.16102000  0.88758000  1.0 0.039018314
C  C18  1  0.49209000  0.15589000  0.83965000  1.0 -0.1314201695
C  C19  1  0.52838000  0.10148000  0.83152000  1.0 -0.1222260551
C  C20  1  0.51010000  0.05228000  0.87180000  1.0 -0.0280061218
C  C21  1  0.45721000  0.05839000  0.91719000  1.0 -0.1004201195
C  C22  1  0.42233000  0.11161000  0.92657000  1.0 -0.1314201695
C  C23  1  0.55024000  0.99272000  0.86690000  1.0 0.585816275
C  C24  1  0.56251000  0.73793000  0.92061000  1.0 0.2494599182
C  C25  1  0.68240000  0.82840000  0.82120000  1.0 0.2241794482
C  C26  1  0.48320000  0.34960000  0.71100000  1.0 0.0485594004
C  C27  1  0.52970000  0.30770000  0.68570000  1.0 -0.1561473202
C  C28  1  0.57710000  0.27230000  0.70630000  1.0 -0.0690240968
C  C29  1  0.57790000  0.27870000  0.75230000  1.0 -0.1532171521
C  C30  1  0.53140000  0.32060000  0.77760000  1.0 0.0610496883
C  C31  1  0.47711000  0.89691000  0.21769000  1.0 0.2588789422
C  C32  1  0.51010000  0.88758000  0.16102000  1.0 0.039018314
C  C33  1  0.51237000  0.83965000  0.15589000  1.0 -0.1314201695
C  C34  1  0.53862000  0.83152000  0.10148000  1.0 -0.1222260551
C  C35  1  0.56582000  0.87180000  0.05228000  1.0 -0.0280061218
C  C36  1  0.56721000  0.91719000  0.05839000  1.0 -0.1004201195
C  C37  1  0.53949000  0.92657000  0.11161000  1.0 -0.1314201695
C  C38  1  0.59014000  0.86690000  0.99272000  1.0 0.585816275
C  C39  1  0.77895000  0.92061000  0.73793000  1.0 0.2494599182
C  C40  1  0.66800000  0.82120000  0.82840000  1.0 0.2241794482
C  C41  1  0.45620000  0.71100000  0.34960000  1.0 0.0485594004
C  C42  1  0.47690000  0.68570000  0.30770000  1.0 -0.1561473202
C  C43  1  0.44430000  0.70630000  0.27230000  1.0 -0.0690240968
C  C44  1  0.39110000  0.75230000  0.27870000  1.0 -0.1532171521
C  C45  1  0.37040000  0.77760000  0.32060000  1.0 0.0610496883
C  C46  1  0.89691000  0.47711000  0.40829000  1.0 0.2588789422
C  C47  1  0.88758000  0.51010000  0.44130000  1.0 0.039018314
C  C48  1  0.83965000  0.51237000  0.49209000  1.0 -0.1314201695
C  C49  1  0.83152000  0.53862000  0.52838000  1.0 -0.1222260551
C  C50  1  0.87180000  0.56582000  0.51010000  1.0 -0.0280061218
C  C51  1  0.91719000  0.56721000  0.45721000  1.0 -0.1004201195
C  C52  1  0.92657000  0.53949000  0.42233000  1.0 -0.1314201695
C  C53  1  0.86690000  0.59014000  0.55024000  1.0 0.585816275
C  C54  1  0.92061000  0.77895000  0.56251000  1.0 0.2494599182
C  C55  1  0.82120000  0.66800000  0.68240000  1.0 0.2241794482
C  C56  1  0.71100000  0.45620000  0.48320000  1.0 0.0485594004
C  C57  1  0.68570000  0.47690000  0.52970000  1.0 -0.1561473202
C  C58  1  0.70630000  0.44430000  0.57710000  1.0 -0.0690240968
C  C59  1  0.75230000  0.39110000  0.57790000  1.0 -0.1532171521
C  C60  1  0.77760000  0.37040000  0.53140000  1.0 0.0610496883
C  C61  1  0.89691000  0.40829000  0.21769000  1.0 0.2588789422
C  C62  1  0.88758000  0.44130000  0.16102000  1.0 0.039018314
C  C63  1  0.83965000  0.49209000  0.15589000  1.0 -0.1314201695
C  C64  1  0.83152000  0.52838000  0.10148000  1.0 -0.1222260551
C  C65  1  0.87180000  0.51010000  0.05228000  1.0 -0.0280061218
C  C66  1  0.91719000  0.45721000  0.05839000  1.0 -0.1004201195
C  C67  1  0.92657000  0.42233000  0.11161000  1.0 -0.1314201695
C  C68  1  0.86690000  0.55024000  0.99272000  1.0 0.585816275
C  C69  1  0.92061000  0.56251000  0.73793000  1.0 0.2494599182
C  C70  1  0.82120000  0.68240000  0.82840000  1.0 0.2241794482
C  C71  1  0.71100000  0.48320000  0.34960000  1.0 0.0485594004
C  C72  1  0.68570000  0.52970000  0.30770000  1.0 -0.1561473202
C  C73  1  0.70630000  0.57710000  0.27230000  1.0 -0.0690240968
C  C74  1  0.75230000  0.57790000  0.27870000  1.0 -0.1532171521
C  C75  1  0.77760000  0.53140000  0.32060000  1.0 0.0610496883
C  C76  1  0.47711000  0.21769000  0.40829000  1.0 0.2588789422
C  C77  1  0.51010000  0.16102000  0.44130000  1.0 0.039018314
C  C78  1  0.51237000  0.15589000  0.49209000  1.0 -0.1314201695
C  C79  1  0.53862000  0.10148000  0.52838000  1.0 -0.1222260551
C  C80  1  0.56582000  0.05228000  0.51010000  1.0 -0.0280061218
C  C81  1  0.56721000  0.05839000  0.45721000  1.0 -0.1004201195
C  C82  1  0.53949000  0.11161000  0.42233000  1.0 -0.1314201695
C  C83  1  0.59014000  0.99272000  0.55024000  1.0 0.585816275
C  C84  1  0.77895000  0.73793000  0.56251000  1.0 0.2494599182
C  C85  1  0.66800000  0.82840000  0.68240000  1.0 0.2241794482
C  C86  1  0.45620000  0.34960000  0.48320000  1.0 0.0485594004
C  C87  1  0.47690000  0.30770000  0.52970000  1.0 -0.1561473202
C  C88  1  0.44430000  0.27230000  0.57710000  1.0 -0.0690240968
C  C89  1  0.39110000  0.27870000  0.57790000  1.0 -0.1532171521
C  C90  1  0.37040000  0.32060000  0.53140000  1.0 0.0610496883
C  C91  1  0.40829000  0.89691000  0.47711000  1.0 0.2588789422
C  C92  1  0.44130000  0.88758000  0.51010000  1.0 0.039018314
C  C93  1  0.49209000  0.83965000  0.51237000  1.0 -0.1314201695
C  C94  1  0.52838000  0.83152000  0.53862000  1.0 -0.1222260551
C  C95  1  0.51010000  0.87180000  0.56582000  1.0 -0.0280061218
C  C96  1  0.45721000  0.91719000  0.56721000  1.0 -0.1004201195
C  C97  1  0.42233000  0.92657000  0.53949000  1.0 -0.1314201695
C  C98  1  0.55024000  0.86690000  0.59014000  1.0 0.585816275
C  C99  1  0.56251000  0.92061000  0.77895000  1.0 0.2494599182
C  C100  1  0.68240000  0.82120000  0.66800000  1.0 0.2241794482
C  C101  1  0.48320000  0.71100000  0.45620000  1.0 0.0485594004
C  C102  1  0.52970000  0.68570000  0.47690000  1.0 -0.1561473202
C  C103  1  0.57710000  0.70630000  0.44430000  1.0 -0.0690240968
C  C104  1  0.57790000  0.75230000  0.39110000  1.0 -0.1532171521
C  C105  1  0.53140000  0.77760000  0.37040000  1.0 0.0610496883
C  C106  1  0.21769000  0.47711000  0.89691000  1.0 0.2588789422
C  C107  1  0.16102000  0.51010000  0.88758000  1.0 0.039018314
C  C108  1  0.15589000  0.51237000  0.83965000  1.0 -0.1314201695
C  C109  1  0.10148000  0.53862000  0.83152000  1.0 -0.1222260551
C  C110  1  0.05228000  0.56582000  0.87180000  1.0 -0.0280061218
C  C111  1  0.05839000  0.56721000  0.91719000  1.0 -0.1004201195
C  C112  1  0.11161000  0.53949000  0.92657000  1.0 -0.1314201695
C  C113  1  0.99272000  0.59014000  0.86690000  1.0 0.585816275
C  C114  1  0.73793000  0.77895000  0.92061000  1.0 0.2494599182
C  C115  1  0.82840000  0.66800000  0.82120000  1.0 0.2241794482
C  C116  1  0.34960000  0.45620000  0.71100000  1.0 0.0485594004
C  C117  1  0.30770000  0.47690000  0.68570000  1.0 -0.1561473202
C  C118  1  0.27230000  0.44430000  0.70630000  1.0 -0.0690240968
C  C119  1  0.27870000  0.39110000  0.75230000  1.0 -0.1532171521
C  C120  1  0.32060000  0.37040000  0.77760000  1.0 0.0610496883
C  C121  1  0.47711000  0.40829000  0.89691000  1.0 0.2588789422
C  C122  1  0.51010000  0.44130000  0.88758000  1.0 0.039018314
C  C123  1  0.51237000  0.49209000  0.83965000  1.0 -0.1314201695
C  C124  1  0.53862000  0.52838000  0.83152000  1.0 -0.1222260551
C  C125  1  0.56582000  0.51010000  0.87180000  1.0 -0.0280061218
C  C126  1  0.56721000  0.45721000  0.91719000  1.0 -0.1004201195
C  C127  1  0.53949000  0.42233000  0.92657000  1.0 -0.1314201695
C  C128  1  0.59014000  0.55024000  0.86690000  1.0 0.585816275
C  C129  1  0.77895000  0.56251000  0.92061000  1.0 0.2494599182
C  C130  1  0.66800000  0.68240000  0.82120000  1.0 0.2241794482
C  C131  1  0.45620000  0.48320000  0.71100000  1.0 0.0485594004
C  C132  1  0.47690000  0.52970000  0.68570000  1.0 -0.1561473202
C  C133  1  0.44430000  0.57710000  0.70630000  1.0 -0.0690240968
C  C134  1  0.39110000  0.57790000  0.75230000  1.0 -0.1532171521
C  C135  1  0.37040000  0.53140000  0.77760000  1.0 0.0610496883
C  C136  1  0.89691000  0.21769000  0.47711000  1.0 0.2588789422
C  C137  1  0.88758000  0.16102000  0.51010000  1.0 0.039018314
C  C138  1  0.83965000  0.15589000  0.51237000  1.0 -0.1314201695
C  C139  1  0.83152000  0.10148000  0.53862000  1.0 -0.1222260551
C  C140  1  0.87180000  0.05228000  0.56582000  1.0 -0.0280061218
C  C141  1  0.91719000  0.05839000  0.56721000  1.0 -0.1004201195
C  C142  1  0.92657000  0.11161000  0.53949000  1.0 -0.1314201695
C  C143  1  0.86690000  0.99272000  0.59014000  1.0 0.585816275
C  C144  1  0.92061000  0.73793000  0.77895000  1.0 0.2494599182
C  C145  1  0.82120000  0.82840000  0.66800000  1.0 0.2241794482
C  C146  1  0.71100000  0.34960000  0.45620000  1.0 0.0485594004
C  C147  1  0.68570000  0.30770000  0.47690000  1.0 -0.1561473202
C  C148  1  0.70630000  0.27230000  0.44430000  1.0 -0.0690240968
C  C149  1  0.75230000  0.27870000  0.39110000  1.0 -0.1532171521
C  C150  1  0.77760000  0.32060000  0.37040000  1.0 0.0610496883
C  C151  1  0.21769000  0.89691000  0.40829000  1.0 0.2588789422
C  C152  1  0.16102000  0.88758000  0.44130000  1.0 0.039018314
C  C153  1  0.15589000  0.83965000  0.49209000  1.0 -0.1314201695
C  C154  1  0.10148000  0.83152000  0.52838000  1.0 -0.1222260551
C  C155  1  0.05228000  0.87180000  0.51010000  1.0 -0.0280061218
C  C156  1  0.05839000  0.91719000  0.45721000  1.0 -0.1004201195
C  C157  1  0.11161000  0.92657000  0.42233000  1.0 -0.1314201695
C  C158  1  0.99272000  0.86690000  0.55024000  1.0 0.585816275
C  C159  1  0.73793000  0.92061000  0.56251000  1.0 0.2494599182
C  C160  1  0.82840000  0.82120000  0.68240000  1.0 0.2241794482
C  C161  1  0.34960000  0.71100000  0.48320000  1.0 0.0485594004
C  C162  1  0.30770000  0.68570000  0.52970000  1.0 -0.1561473202
C  C163  1  0.27230000  0.70630000  0.57710000  1.0 -0.0690240968
C  C164  1  0.27870000  0.75230000  0.57790000  1.0 -0.1532171521
C  C165  1  0.32060000  0.77760000  0.53140000  1.0 0.0610496883
C  C166  1  0.40829000  0.47711000  0.21769000  1.0 0.2588789422
C  C167  1  0.44130000  0.51010000  0.16102000  1.0 0.039018314
C  C168  1  0.49209000  0.51237000  0.15589000  1.0 -0.1314201695
C  C169  1  0.52838000  0.53862000  0.10148000  1.0 -0.1222260551
C  C170  1  0.51010000  0.56582000  0.05228000  1.0 -0.0280061218
C  C171  1  0.45721000  0.56721000  0.05839000  1.0 -0.1004201195
C  C172  1  0.42233000  0.53949000  0.11161000  1.0 -0.1314201695
C  C173  1  0.55024000  0.59014000  0.99272000  1.0 0.585816275
C  C174  1  0.56251000  0.77895000  0.73793000  1.0 0.2494599182
C  C175  1  0.68240000  0.66800000  0.82840000  1.0 0.2241794482
C  C176  1  0.48320000  0.45620000  0.34960000  1.0 0.0485594004
C  C177  1  0.52970000  0.47690000  0.30770000  1.0 -0.1561473202
C  C178  1  0.57710000  0.44430000  0.27230000  1.0 -0.0690240968
C  C179  1  0.57790000  0.39110000  0.27870000  1.0 -0.1532171521
C  C180  1  0.53140000  0.37040000  0.32060000  1.0 0.0610496883
C  C181  1  0.71769000  0.90829000  0.39691000  1.0 0.2588789422
C  C182  1  0.66102000  0.94130000  0.38758000  1.0 0.039018314
C  C183  1  0.65589000  0.99209000  0.33965000  1.0 -0.1314201695
C  C184  1  0.60148000  0.02838000  0.33152000  1.0 -0.1222260551
C  C185  1  0.55228000  0.01010000  0.37180000  1.0 -0.0280061218
C  C186  1  0.55839000  0.95721000  0.41719000  1.0 -0.1004201195
C  C187  1  0.61161000  0.92233000  0.42657000  1.0 -0.1314201695
C  C188  1  0.49272000  0.05024000  0.36690000  1.0 0.585816275
C  C189  1  0.23793000  0.06251000  0.42061000  1.0 0.2494599182
C  C190  1  0.32840000  0.18240000  0.32120000  1.0 0.2241794482
C  C191  1  0.84960000  0.98320000  0.21100000  1.0 0.0485594004
C  C192  1  0.80770000  0.02970000  0.18570000  1.0 -0.1561473202
C  C193  1  0.77230000  0.07710000  0.20630000  1.0 -0.0690240968
C  C194  1  0.77870000  0.07790000  0.25230000  1.0 -0.1532171521
C  C195  1  0.82060000  0.03140000  0.27760000  1.0 0.0610496883
C  C196  1  0.90829000  0.71769000  0.97711000  1.0 0.2588789422
C  C197  1  0.94130000  0.66102000  0.01010000  1.0 0.039018314
C  C198  1  0.99209000  0.65589000  0.01237000  1.0 -0.1314201695
C  C199  1  0.02838000  0.60148000  0.03862000  1.0 -0.1222260551
C  C200  1  0.01010000  0.55228000  0.06582000  1.0 -0.0280061218
C  C201  1  0.95721000  0.55839000  0.06721000  1.0 -0.1004201195
C  C202  1  0.92233000  0.61161000  0.03949000  1.0 -0.1314201695
C  C203  1  0.05024000  0.49272000  0.09014000  1.0 0.585816275
C  C204  1  0.06251000  0.23793000  0.27895000  1.0 0.2494599182
C  C205  1  0.18240000  0.32840000  0.16800000  1.0 0.2241794482
C  C206  1  0.98320000  0.84960000  0.95620000  1.0 0.0485594004
C  C207  1  0.02970000  0.80770000  0.97690000  1.0 -0.1561473202
C  C208  1  0.07710000  0.77230000  0.94430000  1.0 -0.0690240968
C  C209  1  0.07790000  0.77870000  0.89110000  1.0 -0.1532171521
C  C210  1  0.03140000  0.82060000  0.87040000  1.0 0.0610496883
C  C211  1  0.97711000  0.39691000  0.90829000  1.0 0.2588789422
C  C212  1  0.01010000  0.38758000  0.94130000  1.0 0.039018314
C  C213  1  0.01237000  0.33965000  0.99209000  1.0 -0.1314201695
C  C214  1  0.03862000  0.33152000  0.02838000  1.0 -0.1222260551
C  C215  1  0.06582000  0.37180000  0.01010000  1.0 -0.0280061218
C  C216  1  0.06721000  0.41719000  0.95721000  1.0 -0.1004201195
C  C217  1  0.03949000  0.42657000  0.92233000  1.0 -0.1314201695
C  C218  1  0.09014000  0.36690000  0.05024000  1.0 0.585816275
C  C219  1  0.27895000  0.42061000  0.06251000  1.0 0.2494599182
C  C220  1  0.16800000  0.32120000  0.18240000  1.0 0.2241794482
C  C221  1  0.95620000  0.21100000  0.98320000  1.0 0.0485594004
C  C222  1  0.97690000  0.18570000  0.02970000  1.0 -0.1561473202
C  C223  1  0.94430000  0.20630000  0.07710000  1.0 -0.0690240968
C  C224  1  0.89110000  0.25230000  0.07790000  1.0 -0.1532171521
C  C225  1  0.87040000  0.27760000  0.03140000  1.0 0.0610496883
C  C226  1  0.39691000  0.97711000  0.71769000  1.0 0.2588789422
C  C227  1  0.38758000  0.01010000  0.66102000  1.0 0.039018314
C  C228  1  0.33965000  0.01237000  0.65589000  1.0 -0.1314201695
C  C229  1  0.33152000  0.03862000  0.60148000  1.0 -0.1222260551
C  C230  1  0.37180000  0.06582000  0.55228000  1.0 -0.0280061218
C  C231  1  0.41719000  0.06721000  0.55839000  1.0 -0.1004201195
C  C232  1  0.42657000  0.03949000  0.61161000  1.0 -0.1314201695
C  C233  1  0.36690000  0.09014000  0.49272000  1.0 0.585816275
C  C234  1  0.42061000  0.27895000  0.23793000  1.0 0.2494599182
C  C235  1  0.32120000  0.16800000  0.32840000  1.0 0.2241794482
C  C236  1  0.21100000  0.95620000  0.84960000  1.0 0.0485594004
C  C237  1  0.18570000  0.97690000  0.80770000  1.0 -0.1561473202
C  C238  1  0.20630000  0.94430000  0.77230000  1.0 -0.0690240968
C  C239  1  0.25230000  0.89110000  0.77870000  1.0 -0.1532171521
C  C240  1  0.27760000  0.87040000  0.82060000  1.0 0.0610496883
C  C241  1  0.39691000  0.90829000  0.97711000  1.0 0.2588789422
C  C242  1  0.38758000  0.94130000  0.01010000  1.0 0.039018314
C  C243  1  0.33965000  0.99209000  0.01237000  1.0 -0.1314201695
C  C244  1  0.33152000  0.02838000  0.03862000  1.0 -0.1222260551
C  C245  1  0.37180000  0.01010000  0.06582000  1.0 -0.0280061218
C  C246  1  0.41719000  0.95721000  0.06721000  1.0 -0.1004201195
C  C247  1  0.42657000  0.92233000  0.03949000  1.0 -0.1314201695
C  C248  1  0.36690000  0.05024000  0.09014000  1.0 0.585816275
C  C249  1  0.42061000  0.06251000  0.27895000  1.0 0.2494599182
C  C250  1  0.32120000  0.18240000  0.16800000  1.0 0.2241794482
C  C251  1  0.21100000  0.98320000  0.95620000  1.0 0.0485594004
C  C252  1  0.18570000  0.02970000  0.97690000  1.0 -0.1561473202
C  C253  1  0.20630000  0.07710000  0.94430000  1.0 -0.0690240968
C  C254  1  0.25230000  0.07790000  0.89110000  1.0 -0.1532171521
C  C255  1  0.27760000  0.03140000  0.87040000  1.0 0.0610496883
C  C256  1  0.97711000  0.71769000  0.39691000  1.0 0.2588789422
C  C257  1  0.01010000  0.66102000  0.38758000  1.0 0.039018314
C  C258  1  0.01237000  0.65589000  0.33965000  1.0 -0.1314201695
C  C259  1  0.03862000  0.60148000  0.33152000  1.0 -0.1222260551
C  C260  1  0.06582000  0.55228000  0.37180000  1.0 -0.0280061218
C  C261  1  0.06721000  0.55839000  0.41719000  1.0 -0.1004201195
C  C262  1  0.03949000  0.61161000  0.42657000  1.0 -0.1314201695
C  C263  1  0.09014000  0.49272000  0.36690000  1.0 0.585816275
C  C264  1  0.27895000  0.23793000  0.42061000  1.0 0.2494599182
C  C265  1  0.16800000  0.32840000  0.32120000  1.0 0.2241794482
C  C266  1  0.95620000  0.84960000  0.21100000  1.0 0.0485594004
C  C267  1  0.97690000  0.80770000  0.18570000  1.0 -0.1561473202
C  C268  1  0.94430000  0.77230000  0.20630000  1.0 -0.0690240968
C  C269  1  0.89110000  0.77870000  0.25230000  1.0 -0.1532171521
C  C270  1  0.87040000  0.82060000  0.27760000  1.0 0.0610496883
C  C271  1  0.90829000  0.39691000  0.71769000  1.0 0.2588789422
C  C272  1  0.94130000  0.38758000  0.66102000  1.0 0.039018314
C  C273  1  0.99209000  0.33965000  0.65589000  1.0 -0.1314201695
C  C274  1  0.02838000  0.33152000  0.60148000  1.0 -0.1222260551
C  C275  1  0.01010000  0.37180000  0.55228000  1.0 -0.0280061218
C  C276  1  0.95721000  0.41719000  0.55839000  1.0 -0.1004201195
C  C277  1  0.92233000  0.42657000  0.61161000  1.0 -0.1314201695
C  C278  1  0.05024000  0.36690000  0.49272000  1.0 0.585816275
C  C279  1  0.06251000  0.42061000  0.23793000  1.0 0.2494599182
C  C280  1  0.18240000  0.32120000  0.32840000  1.0 0.2241794482
C  C281  1  0.98320000  0.21100000  0.84960000  1.0 0.0485594004
C  C282  1  0.02970000  0.18570000  0.80770000  1.0 -0.1561473202
C  C283  1  0.07710000  0.20630000  0.77230000  1.0 -0.0690240968
C  C284  1  0.07790000  0.25230000  0.77870000  1.0 -0.1532171521
C  C285  1  0.03140000  0.27760000  0.82060000  1.0 0.0610496883
C  C286  1  0.71769000  0.97711000  0.90829000  1.0 0.2588789422
C  C287  1  0.66102000  0.01010000  0.94130000  1.0 0.039018314
C  C288  1  0.65589000  0.01237000  0.99209000  1.0 -0.1314201695
C  C289  1  0.60148000  0.03862000  0.02838000  1.0 -0.1222260551
C  C290  1  0.55228000  0.06582000  0.01010000  1.0 -0.0280061218
C  C291  1  0.55839000  0.06721000  0.95721000  1.0 -0.1004201195
C  C292  1  0.61161000  0.03949000  0.92233000  1.0 -0.1314201695
C  C293  1  0.49272000  0.09014000  0.05024000  1.0 0.585816275
C  C294  1  0.23793000  0.27895000  0.06251000  1.0 0.2494599182
C  C295  1  0.32840000  0.16800000  0.18240000  1.0 0.2241794482
C  C296  1  0.84960000  0.95620000  0.98320000  1.0 0.0485594004
C  C297  1  0.80770000  0.97690000  0.02970000  1.0 -0.1561473202
C  C298  1  0.77230000  0.94430000  0.07710000  1.0 -0.0690240968
C  C299  1  0.77870000  0.89110000  0.07790000  1.0 -0.1532171521
C  C300  1  0.82060000  0.87040000  0.03140000  1.0 0.0610496883
C  C301  1  0.97711000  0.90829000  0.71769000  1.0 0.2588789422
C  C302  1  0.01010000  0.94130000  0.66102000  1.0 0.039018314
C  C303  1  0.01237000  0.99209000  0.65589000  1.0 -0.1314201695
C  C304  1  0.03862000  0.02838000  0.60148000  1.0 -0.1222260551
C  C305  1  0.06582000  0.01010000  0.55228000  1.0 -0.0280061218
C  C306  1  0.06721000  0.95721000  0.55839000  1.0 -0.1004201195
C  C307  1  0.03949000  0.92233000  0.61161000  1.0 -0.1314201695
C  C308  1  0.09014000  0.05024000  0.49272000  1.0 0.585816275
C  C309  1  0.27895000  0.06251000  0.23793000  1.0 0.2494599182
C  C310  1  0.16800000  0.18240000  0.32840000  1.0 0.2241794482
C  C311  1  0.95620000  0.98320000  0.84960000  1.0 0.0485594004
C  C312  1  0.97690000  0.02970000  0.80770000  1.0 -0.1561473202
C  C313  1  0.94430000  0.07710000  0.77230000  1.0 -0.0690240968
C  C314  1  0.89110000  0.07790000  0.77870000  1.0 -0.1532171521
C  C315  1  0.87040000  0.03140000  0.82060000  1.0 0.0610496883
C  C316  1  0.39691000  0.71769000  0.90829000  1.0 0.2588789422
C  C317  1  0.38758000  0.66102000  0.94130000  1.0 0.039018314
C  C318  1  0.33965000  0.65589000  0.99209000  1.0 -0.1314201695
C  C319  1  0.33152000  0.60148000  0.02838000  1.0 -0.1222260551
C  C320  1  0.37180000  0.55228000  0.01010000  1.0 -0.0280061218
C  C321  1  0.41719000  0.55839000  0.95721000  1.0 -0.1004201195
C  C322  1  0.42657000  0.61161000  0.92233000  1.0 -0.1314201695
C  C323  1  0.36690000  0.49272000  0.05024000  1.0 0.585816275
C  C324  1  0.42061000  0.23793000  0.06251000  1.0 0.2494599182
C  C325  1  0.32120000  0.32840000  0.18240000  1.0 0.2241794482
C  C326  1  0.21100000  0.84960000  0.98320000  1.0 0.0485594004
C  C327  1  0.18570000  0.80770000  0.02970000  1.0 -0.1561473202
C  C328  1  0.20630000  0.77230000  0.07710000  1.0 -0.0690240968
C  C329  1  0.25230000  0.77870000  0.07790000  1.0 -0.1532171521
C  C330  1  0.27760000  0.82060000  0.03140000  1.0 0.0610496883
C  C331  1  0.71769000  0.39691000  0.97711000  1.0 0.2588789422
C  C332  1  0.66102000  0.38758000  0.01010000  1.0 0.039018314
C  C333  1  0.65589000  0.33965000  0.01237000  1.0 -0.1314201695
C  C334  1  0.60148000  0.33152000  0.03862000  1.0 -0.1222260551
C  C335  1  0.55228000  0.37180000  0.06582000  1.0 -0.0280061218
C  C336  1  0.55839000  0.41719000  0.06721000  1.0 -0.1004201195
C  C337  1  0.61161000  0.42657000  0.03949000  1.0 -0.1314201695
C  C338  1  0.49272000  0.36690000  0.09014000  1.0 0.585816275
C  C339  1  0.23793000  0.42061000  0.27895000  1.0 0.2494599182
C  C340  1  0.32840000  0.32120000  0.16800000  1.0 0.2241794482
C  C341  1  0.84960000  0.21100000  0.95620000  1.0 0.0485594004
C  C342  1  0.80770000  0.18570000  0.97690000  1.0 -0.1561473202
C  C343  1  0.77230000  0.20630000  0.94430000  1.0 -0.0690240968
C  C344  1  0.77870000  0.25230000  0.89110000  1.0 -0.1532171521
C  C345  1  0.82060000  0.27760000  0.87040000  1.0 0.0610496883
C  C346  1  0.90829000  0.97711000  0.39691000  1.0 0.2588789422
C  C347  1  0.94130000  0.01010000  0.38758000  1.0 0.039018314
C  C348  1  0.99209000  0.01237000  0.33965000  1.0 -0.1314201695
C  C349  1  0.02838000  0.03862000  0.33152000  1.0 -0.1222260551
C  C350  1  0.01010000  0.06582000  0.37180000  1.0 -0.0280061218
C  C351  1  0.95721000  0.06721000  0.41719000  1.0 -0.1004201195
C  C352  1  0.92233000  0.03949000  0.42657000  1.0 -0.1314201695
C  C353  1  0.05024000  0.09014000  0.36690000  1.0 0.585816275
C  C354  1  0.06251000  0.27895000  0.42061000  1.0 0.2494599182
C  C355  1  0.18240000  0.16800000  0.32120000  1.0 0.2241794482
C  C356  1  0.98320000  0.95620000  0.21100000  1.0 0.0485594004
C  C357  1  0.02970000  0.97690000  0.18570000  1.0 -0.1561473202
C  C358  1  0.07710000  0.94430000  0.20630000  1.0 -0.0690240968
C  C359  1  0.07790000  0.89110000  0.25230000  1.0 -0.1532171521
C  C360  1  0.03140000  0.87040000  0.27760000  1.0 0.0610496883
N  N1  1  0.26782000  0.40816000  0.47320000  1.0 -0.298305066
N  N2  1  0.31048000  0.37848000  0.43576000  1.0 -0.0520808346
N  N3  1  0.28742000  0.36192000  0.41794000  1.0 -0.07893012
N  N4  1  0.22725000  0.38027000  0.44447000  1.0 -0.2690159483
N  N5  1  0.35611000  0.48409000  0.40293000  1.0 -0.2417850113
N  N6  1  0.40816000  0.26782000  0.85082000  1.0 -0.298305066
N  N7  1  0.37848000  0.31048000  0.87528000  1.0 -0.0520808346
N  N8  1  0.36192000  0.28742000  0.93272000  1.0 -0.07893012
N  N9  1  0.38027000  0.22725000  0.94801000  1.0 -0.2690159483
N  N10  1  0.48409000  0.35611000  0.75687000  1.0 -0.2417850113
N  N11  1  0.47320000  0.85082000  0.26782000  1.0 -0.298305066
N  N12  1  0.43576000  0.87528000  0.31048000  1.0 -0.0520808346
N  N13  1  0.41794000  0.93272000  0.28742000  1.0 -0.07893012
N  N14  1  0.44447000  0.94801000  0.22725000  1.0 -0.2690159483
N  N15  1  0.40293000  0.75687000  0.35611000  1.0 -0.2417850113
N  N16  1  0.85082000  0.47320000  0.40816000  1.0 -0.298305066
N  N17  1  0.87528000  0.43576000  0.37848000  1.0 -0.0520808346
N  N18  1  0.93272000  0.41794000  0.36192000  1.0 -0.07893012
N  N19  1  0.94801000  0.44447000  0.38027000  1.0 -0.2690159483
N  N20  1  0.75687000  0.40293000  0.48409000  1.0 -0.2417850113
N  N21  1  0.85082000  0.40816000  0.26782000  1.0 -0.298305066
N  N22  1  0.87528000  0.37848000  0.31048000  1.0 -0.0520808346
N  N23  1  0.93272000  0.36192000  0.28742000  1.0 -0.07893012
N  N24  1  0.94801000  0.38027000  0.22725000  1.0 -0.2690159483
N  N25  1  0.75687000  0.48409000  0.35611000  1.0 -0.2417850113
N  N26  1  0.47320000  0.26782000  0.40816000  1.0 -0.298305066
N  N27  1  0.43576000  0.31048000  0.37848000  1.0 -0.0520808346
N  N28  1  0.41794000  0.28742000  0.36192000  1.0 -0.07893012
N  N29  1  0.44447000  0.22725000  0.38027000  1.0 -0.2690159483
N  N30  1  0.40293000  0.35611000  0.48409000  1.0 -0.2417850113
N  N31  1  0.40816000  0.85082000  0.47320000  1.0 -0.298305066
N  N32  1  0.37848000  0.87528000  0.43576000  1.0 -0.0520808346
N  N33  1  0.36192000  0.93272000  0.41794000  1.0 -0.07893012
N  N34  1  0.38027000  0.94801000  0.44447000  1.0 -0.2690159483
N  N35  1  0.48409000  0.75687000  0.40293000  1.0 -0.2417850113
N  N36  1  0.26782000  0.47320000  0.85082000  1.0 -0.298305066
N  N37  1  0.31048000  0.43576000  0.87528000  1.0 -0.0520808346
N  N38  1  0.28742000  0.41794000  0.93272000  1.0 -0.07893012
N  N39  1  0.22725000  0.44447000  0.94801000  1.0 -0.2690159483
N  N40  1  0.35611000  0.40293000  0.75687000  1.0 -0.2417850113
N  N41  1  0.47320000  0.40816000  0.85082000  1.0 -0.298305066
N  N42  1  0.43576000  0.37848000  0.87528000  1.0 -0.0520808346
N  N43  1  0.41794000  0.36192000  0.93272000  1.0 -0.07893012
N  N44  1  0.44447000  0.38027000  0.94801000  1.0 -0.2690159483
N  N45  1  0.40293000  0.48409000  0.75687000  1.0 -0.2417850113
N  N46  1  0.85082000  0.26782000  0.47320000  1.0 -0.298305066
N  N47  1  0.87528000  0.31048000  0.43576000  1.0 -0.0520808346
N  N48  1  0.93272000  0.28742000  0.41794000  1.0 -0.07893012
N  N49  1  0.94801000  0.22725000  0.44447000  1.0 -0.2690159483
N  N50  1  0.75687000  0.35611000  0.40293000  1.0 -0.2417850113
N  N51  1  0.26782000  0.85082000  0.40816000  1.0 -0.298305066
N  N52  1  0.31048000  0.87528000  0.37848000  1.0 -0.0520808346
N  N53  1  0.28742000  0.93272000  0.36192000  1.0 -0.07893012
N  N54  1  0.22725000  0.94801000  0.38027000  1.0 -0.2690159483
N  N55  1  0.35611000  0.75687000  0.48409000  1.0 -0.2417850113
N  N56  1  0.40816000  0.47320000  0.26782000  1.0 -0.298305066
N  N57  1  0.37848000  0.43576000  0.31048000  1.0 -0.0520808346
N  N58  1  0.36192000  0.41794000  0.28742000  1.0 -0.07893012
N  N59  1  0.38027000  0.44447000  0.22725000  1.0 -0.2690159483
N  N60  1  0.48409000  0.40293000  0.35611000  1.0 -0.2417850113
N  N61  1  0.76782000  0.90816000  0.35082000  1.0 -0.298305066
N  N62  1  0.81048000  0.87848000  0.37528000  1.0 -0.0520808346
N  N63  1  0.78742000  0.86192000  0.43272000  1.0 -0.07893012
N  N64  1  0.72725000  0.88027000  0.44801000  1.0 -0.2690159483
N  N65  1  0.85611000  0.98409000  0.25687000  1.0 -0.2417850113
N  N66  1  0.90816000  0.76782000  0.97320000  1.0 -0.298305066
N  N67  1  0.87848000  0.81048000  0.93576000  1.0 -0.0520808346
N  N68  1  0.86192000  0.78742000  0.91794000  1.0 -0.07893012
N  N69  1  0.88027000  0.72725000  0.94447000  1.0 -0.2690159483
N  N70  1  0.98409000  0.85611000  0.90293000  1.0 -0.2417850113
N  N71  1  0.97320000  0.35082000  0.90816000  1.0 -0.298305066
N  N72  1  0.93576000  0.37528000  0.87848000  1.0 -0.0520808346
N  N73  1  0.91794000  0.43272000  0.86192000  1.0 -0.07893012
N  N74  1  0.94447000  0.44801000  0.88027000  1.0 -0.2690159483
N  N75  1  0.90293000  0.25687000  0.98409000  1.0 -0.2417850113
N  N76  1  0.35082000  0.97320000  0.76782000  1.0 -0.298305066
N  N77  1  0.37528000  0.93576000  0.81048000  1.0 -0.0520808346
N  N78  1  0.43272000  0.91794000  0.78742000  1.0 -0.07893012
N  N79  1  0.44801000  0.94447000  0.72725000  1.0 -0.2690159483
N  N80  1  0.25687000  0.90293000  0.85611000  1.0 -0.2417850113
N  N81  1  0.35082000  0.90816000  0.97320000  1.0 -0.298305066
N  N82  1  0.37528000  0.87848000  0.93576000  1.0 -0.0520808346
N  N83  1  0.43272000  0.86192000  0.91794000  1.0 -0.07893012
N  N84  1  0.44801000  0.88027000  0.94447000  1.0 -0.2690159483
N  N85  1  0.25687000  0.98409000  0.90293000  1.0 -0.2417850113
N  N86  1  0.97320000  0.76782000  0.35082000  1.0 -0.298305066
N  N87  1  0.93576000  0.81048000  0.37528000  1.0 -0.0520808346
N  N88  1  0.91794000  0.78742000  0.43272000  1.0 -0.07893012
N  N89  1  0.94447000  0.72725000  0.44801000  1.0 -0.2690159483
N  N90  1  0.90293000  0.85611000  0.25687000  1.0 -0.2417850113
N  N91  1  0.90816000  0.35082000  0.76782000  1.0 -0.298305066
N  N92  1  0.87848000  0.37528000  0.81048000  1.0 -0.0520808346
N  N93  1  0.86192000  0.43272000  0.78742000  1.0 -0.07893012
N  N94  1  0.88027000  0.44801000  0.72725000  1.0 -0.2690159483
N  N95  1  0.98409000  0.25687000  0.85611000  1.0 -0.2417850113
N  N96  1  0.76782000  0.97320000  0.90816000  1.0 -0.298305066
N  N97  1  0.81048000  0.93576000  0.87848000  1.0 -0.0520808346
N  N98  1  0.78742000  0.91794000  0.86192000  1.0 -0.07893012
N  N99  1  0.72725000  0.94447000  0.88027000  1.0 -0.2690159483
N  N100  1  0.85611000  0.90293000  0.98409000  1.0 -0.2417850113
N  N101  1  0.97320000  0.90816000  0.76782000  1.0 -0.298305066
N  N102  1  0.93576000  0.87848000  0.81048000  1.0 -0.0520808346
N  N103  1  0.91794000  0.86192000  0.78742000  1.0 -0.07893012
N  N104  1  0.94447000  0.88027000  0.72725000  1.0 -0.2690159483
N  N105  1  0.90293000  0.98409000  0.85611000  1.0 -0.2417850113
N  N106  1  0.35082000  0.76782000  0.90816000  1.0 -0.298305066
N  N107  1  0.37528000  0.81048000  0.87848000  1.0 -0.0520808346
N  N108  1  0.43272000  0.78742000  0.86192000  1.0 -0.07893012
N  N109  1  0.44801000  0.72725000  0.88027000  1.0 -0.2690159483
N  N110  1  0.25687000  0.85611000  0.98409000  1.0 -0.2417850113
N  N111  1  0.76782000  0.35082000  0.97320000  1.0 -0.298305066
N  N112  1  0.81048000  0.37528000  0.93576000  1.0 -0.0520808346
N  N113  1  0.78742000  0.43272000  0.91794000  1.0 -0.07893012
N  N114  1  0.72725000  0.44801000  0.94447000  1.0 -0.2690159483
N  N115  1  0.85611000  0.25687000  0.90293000  1.0 -0.2417850113
N  N116  1  0.90816000  0.97320000  0.35082000  1.0 -0.298305066
N  N117  1  0.87848000  0.93576000  0.37528000  1.0 -0.0520808346
N  N118  1  0.86192000  0.91794000  0.43272000  1.0 -0.07893012
N  N119  1  0.88027000  0.94447000  0.44801000  1.0 -0.2690159483
N  N120  1  0.98409000  0.90293000  0.25687000  1.0 -0.2417850113
O  O1  1  0.98482000  0.60460000  0.57028000  1.0 -0.5741687172
O  O2  1  0.95376000  0.52642000  0.62868000  1.0 -0.5741687172
O  O3  1  0.77235000  0.56263000  0.72927000  1.0 -0.5173863437
O  O4  1  0.75044000  0.54216000  0.82514000  1.0 -0.582780626
O  O5  1  0.80260000  0.67040000  0.72300000  1.0 -0.0690240968
O  O6  1  0.78450000  0.68690000  0.70410000  1.0 0.0007557686
O  O7  1  0.60460000  0.98482000  0.84030000  1.0 -0.5741687172
O  O8  1  0.52642000  0.95376000  0.89114000  1.0 -0.5741687172
O  O9  1  0.56263000  0.77235000  0.93575000  1.0 -0.5173863437
O  O10  1  0.54216000  0.75044000  0.88226000  1.0 -0.582780626
O  O11  1  0.67040000  0.80260000  0.80400000  1.0 -0.0690240968
O  O12  1  0.68690000  0.78450000  0.82450000  1.0 0.0007557686
O  O13  1  0.57028000  0.84030000  0.98482000  1.0 -0.5741687172
O  O14  1  0.62868000  0.89114000  0.95376000  1.0 -0.5741687172
O  O15  1  0.72927000  0.93575000  0.77235000  1.0 -0.5173863437
O  O16  1  0.82514000  0.88226000  0.75044000  1.0 -0.582780626
O  O17  1  0.72300000  0.80400000  0.80260000  1.0 -0.0690240968
O  O18  1  0.70410000  0.82450000  0.78450000  1.0 0.0007557686
O  O19  1  0.84030000  0.57028000  0.60460000  1.0 -0.5741687172
O  O20  1  0.89114000  0.62868000  0.52642000  1.0 -0.5741687172
O  O21  1  0.93575000  0.72927000  0.56263000  1.0 -0.5173863437
O  O22  1  0.88226000  0.82514000  0.54216000  1.0 -0.582780626
O  O23  1  0.80400000  0.72300000  0.67040000  1.0 -0.0690240968
O  O24  1  0.82450000  0.70410000  0.68690000  1.0 0.0007557686
O  O25  1  0.84030000  0.60460000  0.98482000  1.0 -0.5741687172
O  O26  1  0.89114000  0.52642000  0.95376000  1.0 -0.5741687172
O  O27  1  0.93575000  0.56263000  0.77235000  1.0 -0.5173863437
O  O28  1  0.88226000  0.54216000  0.75044000  1.0 -0.582780626
O  O29  1  0.80400000  0.67040000  0.80260000  1.0 -0.0690240968
O  O30  1  0.82450000  0.68690000  0.78450000  1.0 0.0007557686
O  O31  1  0.57028000  0.98482000  0.60460000  1.0 -0.5741687172
O  O32  1  0.62868000  0.95376000  0.52642000  1.0 -0.5741687172
O  O33  1  0.72927000  0.77235000  0.56263000  1.0 -0.5173863437
O  O34  1  0.82514000  0.75044000  0.54216000  1.0 -0.582780626
O  O35  1  0.72300000  0.80260000  0.67040000  1.0 -0.0690240968
O  O36  1  0.70410000  0.78450000  0.68690000  1.0 0.0007557686
O  O37  1  0.60460000  0.84030000  0.57028000  1.0 -0.5741687172
O  O38  1  0.52642000  0.89114000  0.62868000  1.0 -0.5741687172
O  O39  1  0.56263000  0.93575000  0.72927000  1.0 -0.5173863437
O  O40  1  0.54216000  0.88226000  0.82514000  1.0 -0.582780626
O  O41  1  0.67040000  0.80400000  0.72300000  1.0 -0.0690240968
O  O42  1  0.68690000  0.82450000  0.70410000  1.0 0.0007557686
O  O43  1  0.98482000  0.57028000  0.84030000  1.0 -0.5741687172
O  O44  1  0.95376000  0.62868000  0.89114000  1.0 -0.5741687172
O  O45  1  0.77235000  0.72927000  0.93575000  1.0 -0.5173863437
O  O46  1  0.75044000  0.82514000  0.88226000  1.0 -0.582780626
O  O47  1  0.80260000  0.72300000  0.80400000  1.0 -0.0690240968
O  O48  1  0.78450000  0.70410000  0.82450000  1.0 0.0007557686
O  O49  1  0.57028000  0.60460000  0.84030000  1.0 -0.5741687172
O  O50  1  0.62868000  0.52642000  0.89114000  1.0 -0.5741687172
O  O51  1  0.72927000  0.56263000  0.93575000  1.0 -0.5173863437
O  O52  1  0.82514000  0.54216000  0.88226000  1.0 -0.582780626
O  O53  1  0.72300000  0.67040000  0.80400000  1.0 -0.0690240968
O  O54  1  0.70410000  0.68690000  0.82450000  1.0 0.0007557686
O  O55  1  0.84030000  0.98482000  0.57028000  1.0 -0.5741687172
O  O56  1  0.89114000  0.95376000  0.62868000  1.0 -0.5741687172
O  O57  1  0.93575000  0.77235000  0.72927000  1.0 -0.5173863437
O  O58  1  0.88226000  0.75044000  0.82514000  1.0 -0.582780626
O  O59  1  0.80400000  0.80260000  0.72300000  1.0 -0.0690240968
O  O60  1  0.82450000  0.78450000  0.70410000  1.0 0.0007557686
O  O61  1  0.98482000  0.84030000  0.60460000  1.0 -0.5741687172
O  O62  1  0.95376000  0.89114000  0.52642000  1.0 -0.5741687172
O  O63  1  0.77235000  0.93575000  0.56263000  1.0 -0.5173863437
O  O64  1  0.75044000  0.88226000  0.54216000  1.0 -0.582780626
O  O65  1  0.80260000  0.80400000  0.67040000  1.0 -0.0690240968
O  O66  1  0.78450000  0.82450000  0.68690000  1.0 0.0007557686
O  O67  1  0.60460000  0.57028000  0.98482000  1.0 -0.5741687172
O  O68  1  0.52642000  0.62868000  0.95376000  1.0 -0.5741687172
O  O69  1  0.56263000  0.72927000  0.77235000  1.0 -0.5173863437
O  O70  1  0.54216000  0.82514000  0.75044000  1.0 -0.582780626
O  O71  1  0.67040000  0.72300000  0.80260000  1.0 -0.0690240968
O  O72  1  0.68690000  0.70410000  0.78450000  1.0 0.0007557686
O  O73  1  0.48482000  0.10460000  0.34030000  1.0 -0.5741687172
O  O74  1  0.45376000  0.02642000  0.39114000  1.0 -0.5741687172
O  O75  1  0.27235000  0.06263000  0.43575000  1.0 -0.5173863437
O  O76  1  0.25044000  0.04216000  0.38226000  1.0 -0.582780626
O  O77  1  0.30260000  0.17040000  0.30400000  1.0 -0.0690240968
O  O78  1  0.28450000  0.18690000  0.32450000  1.0 0.0007557686
O  O79  1  0.10460000  0.48482000  0.07028000  1.0 -0.5741687172
O  O80  1  0.02642000  0.45376000  0.12868000  1.0 -0.5741687172
O  O81  1  0.06263000  0.27235000  0.22927000  1.0 -0.5173863437
O  O82  1  0.04216000  0.25044000  0.32514000  1.0 -0.582780626
O  O83  1  0.17040000  0.30260000  0.22300000  1.0 -0.0690240968
O  O84  1  0.18690000  0.28450000  0.20410000  1.0 0.0007557686
O  O85  1  0.07028000  0.34030000  0.10460000  1.0 -0.5741687172
O  O86  1  0.12868000  0.39114000  0.02642000  1.0 -0.5741687172
O  O87  1  0.22927000  0.43575000  0.06263000  1.0 -0.5173863437
O  O88  1  0.32514000  0.38226000  0.04216000  1.0 -0.582780626
O  O89  1  0.22300000  0.30400000  0.17040000  1.0 -0.0690240968
O  O90  1  0.20410000  0.32450000  0.18690000  1.0 0.0007557686
O  O91  1  0.34030000  0.07028000  0.48482000  1.0 -0.5741687172
O  O92  1  0.39114000  0.12868000  0.45376000  1.0 -0.5741687172
O  O93  1  0.43575000  0.22927000  0.27235000  1.0 -0.5173863437
O  O94  1  0.38226000  0.32514000  0.25044000  1.0 -0.582780626
O  O95  1  0.30400000  0.22300000  0.30260000  1.0 -0.0690240968
O  O96  1  0.32450000  0.20410000  0.28450000  1.0 0.0007557686
O  O97  1  0.34030000  0.10460000  0.07028000  1.0 -0.5741687172
O  O98  1  0.39114000  0.02642000  0.12868000  1.0 -0.5741687172
O  O99  1  0.43575000  0.06263000  0.22927000  1.0 -0.5173863437
O  O100  1  0.38226000  0.04216000  0.32514000  1.0 -0.582780626
O  O101  1  0.30400000  0.17040000  0.22300000  1.0 -0.0690240968
O  O102  1  0.32450000  0.18690000  0.20410000  1.0 0.0007557686
O  O103  1  0.07028000  0.48482000  0.34030000  1.0 -0.5741687172
O  O104  1  0.12868000  0.45376000  0.39114000  1.0 -0.5741687172
O  O105  1  0.22927000  0.27235000  0.43575000  1.0 -0.5173863437
O  O106  1  0.32514000  0.25044000  0.38226000  1.0 -0.582780626
O  O107  1  0.22300000  0.30260000  0.30400000  1.0 -0.0690240968
O  O108  1  0.20410000  0.28450000  0.32450000  1.0 0.0007557686
O  O109  1  0.10460000  0.34030000  0.48482000  1.0 -0.5741687172
O  O110  1  0.02642000  0.39114000  0.45376000  1.0 -0.5741687172
O  O111  1  0.06263000  0.43575000  0.27235000  1.0 -0.5173863437
O  O112  1  0.04216000  0.38226000  0.25044000  1.0 -0.582780626
O  O113  1  0.17040000  0.30400000  0.30260000  1.0 -0.0690240968
O  O114  1  0.18690000  0.32450000  0.28450000  1.0 0.0007557686
O  O115  1  0.48482000  0.07028000  0.10460000  1.0 -0.5741687172
O  O116  1  0.45376000  0.12868000  0.02642000  1.0 -0.5741687172
O  O117  1  0.27235000  0.22927000  0.06263000  1.0 -0.5173863437
O  O118  1  0.25044000  0.32514000  0.04216000  1.0 -0.582780626
O  O119  1  0.30260000  0.22300000  0.17040000  1.0 -0.0690240968
O  O120  1  0.28450000  0.20410000  0.18690000  1.0 0.0007557686
O  O121  1  0.07028000  0.10460000  0.48482000  1.0 -0.5741687172
O  O122  1  0.12868000  0.02642000  0.45376000  1.0 -0.5741687172
O  O123  1  0.22927000  0.06263000  0.27235000  1.0 -0.5173863437
O  O124  1  0.32514000  0.04216000  0.25044000  1.0 -0.582780626
O  O125  1  0.22300000  0.17040000  0.30260000  1.0 -0.0690240968
O  O126  1  0.20410000  0.18690000  0.28450000  1.0 0.0007557686
O  O127  1  0.34030000  0.48482000  0.10460000  1.0 -0.5741687172
O  O128  1  0.39114000  0.45376000  0.02642000  1.0 -0.5741687172
O  O129  1  0.43575000  0.27235000  0.06263000  1.0 -0.5173863437
O  O130  1  0.38226000  0.25044000  0.04216000  1.0 -0.582780626
O  O131  1  0.30400000  0.30260000  0.17040000  1.0 -0.0690240968
O  O132  1  0.32450000  0.28450000  0.18690000  1.0 0.0007557686
O  O133  1  0.48482000  0.34030000  0.07028000  1.0 -0.5741687172
O  O134  1  0.45376000  0.39114000  0.12868000  1.0 -0.5741687172
O  O135  1  0.27235000  0.43575000  0.22927000  1.0 -0.5173863437
O  O136  1  0.25044000  0.38226000  0.32514000  1.0 -0.582780626
O  O137  1  0.30260000  0.30400000  0.22300000  1.0 -0.0690240968
O  O138  1  0.28450000  0.32450000  0.20410000  1.0 0.0007557686
O  O139  1  0.10460000  0.07028000  0.34030000  1.0 -0.5741687172
O  O140  1  0.02642000  0.12868000  0.39114000  1.0 -0.5741687172
O  O141  1  0.06263000  0.22927000  0.43575000  1.0 -0.5173863437
O  O142  1  0.04216000  0.32514000  0.38226000  1.0 -0.582780626
O  O143  1  0.17040000  0.22300000  0.30400000  1.0 -0.0690240968
O  O144  1  0.18690000  0.20410000  0.32450000  1.0 0.0007557686
O  O145  1  0.85623000  0.64377000  0.64377000  1.0 -0.3583237743
O  O146  1  0.64377000  0.85623000  0.85623000  1.0 -0.3583237743
O  O147  1  0.85623000  0.64377000  0.85623000  1.0 -0.3583237743
O  O148  1  0.64377000  0.85623000  0.64377000  1.0 -0.3583237743
O  O149  1  0.64377000  0.64377000  0.85623000  1.0 -0.3583237743
O  O150  1  0.85623000  0.85623000  0.64377000  1.0 -0.3583237743
O  O151  1  0.35623000  0.14377000  0.35623000  1.0 -0.3583237743
O  O152  1  0.14377000  0.35623000  0.14377000  1.0 -0.3583237743
O  O153  1  0.35623000  0.14377000  0.14377000  1.0 -0.3583237743
O  O154  1  0.14377000  0.35623000  0.35623000  1.0 -0.3583237743
O  O155  1  0.14377000  0.14377000  0.35623000  1.0 -0.3583237743
O  O156  1  0.35623000  0.35623000  0.14377000  1.0 -0.3583237743
