# DDEC6 charges by PACMAN v1.1 (https://github.com/mtap-research/PACMAN-charge/)
data_SEJXAJ_ion_pacman
_symmetry_space_group_name_H-M   'P 1'
_cell_length_a   20.88190000
_cell_length_b   9.54030000
_cell_length_c   29.62410000
_cell_angle_alpha   90.00000000
_cell_angle_beta   122.09000000
_cell_angle_gamma   90.00000000
_symmetry_Int_Tables_number   1
_chemical_formula_structural   Zn7H142C94N35O34
_chemical_formula_sum   'Zn14 H284 C188 N70 O68'
_cell_volume   5000.00763864
_cell_formula_units_Z   2
loop_
 _symmetry_equiv_pos_site_id
 _symmetry_equiv_pos_as_xyz
  1  'x, y, z'
loop_
 _atom_site_type_symbol
 _atom_site_label
 _atom_site_symmetry_multiplicity
 _atom_site_fract_x
 _atom_site_fract_y
 _atom_site_fract_z
 _atom_site_occupancy
 _atom_site_charge
Zn  Zn1  1  0.48953000  0.39986000  0.45446000  1.0 0.8095797735
Zn  Zn2  1  0.51501000  0.44405000  0.57893000  1.0 0.818102895
Zn  Zn3  1  0.39829000  0.64102000  0.47872000  1.0 0.8278043557
Zn  Zn4  1  0.10021000  0.57749000  0.26835000  1.0 0.7152380633
Zn  Zn5  1  0.15703000  0.66536000  0.53299000  1.0 0.8095797735
Zn  Zn6  1  0.94042000  0.13591000  0.04927000  1.0 0.8365250516
Zn  Zn7  1  0.96850000  0.08060000  0.30625000  1.0 0.7655799675
Zn  Zn8  1  0.48953000  0.60014000  0.95446000  1.0 0.8095797735
Zn  Zn9  1  0.51501000  0.55595000  0.07893000  1.0 0.818102895
Zn  Zn10  1  0.39829000  0.35898000  0.97872000  1.0 0.8278043557
Zn  Zn11  1  0.10021000  0.42251000  0.76835000  1.0 0.7152380633
Zn  Zn12  1  0.15703000  0.33464000  0.03299000  1.0 0.8095797735
Zn  Zn13  1  0.94042000  0.86409000  0.54927000  1.0 0.8365250516
Zn  Zn14  1  0.96850000  0.91940000  0.80625000  1.0 0.7655799675
H  H1  1  0.39190000  0.96540000  0.44310000  1.0 0.2418939907
H  H2  1  0.25290000  0.16600000  0.34290000  1.0 0.059778969
H  H3  1  0.32920000  0.19640000  0.39880000  1.0 0.1213223951
H  H4  1  0.33120000  0.10060000  0.35520000  1.0 0.1213223951
H  H5  1  0.17920000  0.03960000  0.33930000  1.0 0.1098646985
H  H6  1  0.20230000  0.87750000  0.34950000  1.0 0.098654004
H  H7  1  0.19550000  0.96510000  0.39280000  1.0 0.1492527438
H  H8  1  0.20820000  0.32100000  0.20580000  1.0 0.3374844479
H  H9  1  0.16270000  0.41650000  0.21980000  1.0 0.3095737498
H  H10  1  0.06530000  0.90680000  0.47550000  1.0 0.3095737498
H  H11  1  0.03080000  0.98390000  0.42250000  1.0 0.3095737498
H  H12  1  0.31950000  0.51770000  0.69400000  1.0 0.3095737498
H  H13  1  0.26220000  0.59900000  0.64430000  1.0 0.3046045589
H  H14  1  0.01780000  0.38700000  0.10320000  1.0 0.3218721537
H  H15  1  0.04280000  0.47420000  0.15300000  1.0 0.3218721537
H  H16  1  0.43210000  0.28270000  0.34720000  1.0 0.098654004
H  H17  1  0.22430000  0.65690000  0.38280000  1.0 0.1098646985
H  H18  1  0.13310000  0.48800000  0.45280000  1.0 0.098654004
H  H19  1  0.01630000  0.86830000  0.25720000  1.0 0.1098646985
H  H20  1  0.50080000  0.39180000  0.67180000  1.0 0.1300996705
H  H21  1  0.24980000  0.71590000  0.48060000  1.0 0.1098646985
H  H22  1  0.95240000  0.97210000  0.12970000  1.0 0.1098646985
H  H23  1  0.05230000  0.37060000  0.31750000  1.0 0.1098646985
H  H24  1  0.72340000  0.92490000  0.00180000  1.0 0.1300996705
H  H25  1  0.67740000  0.33620000  0.99270000  1.0 0.1406743991
H  H26  1  0.51480000  0.04960000  0.95900000  1.0 0.1213223951
H  H27  1  0.75310000  0.88320000  0.19400000  1.0 0.1300996705
H  H28  1  0.70520000  0.29300000  0.15770000  1.0 0.1300996705
H  H29  1  0.54280000  0.00190000  0.07730000  1.0 0.1213223951
H  H30  1  0.12820000  0.59900000  0.13580000  1.0 0.1213223951
H  H31  1  0.15960000  0.89340000  0.05110000  1.0 0.1213223951
H  H32  1  0.14610000  0.00790000  0.17780000  1.0 0.1300996705
H  H33  1  0.97130000  0.12430000  0.45240000  1.0 0.1300996705
H  H34  1  0.94750000  0.43010000  0.53720000  1.0 0.1300996705
H  H35  1  0.94910000  0.52910000  0.40460000  1.0 0.1300996705
H  H36  1  0.60540000  0.77380000  0.73790000  1.0 0.1602028559
H  H37  1  0.56230000  0.69540000  0.68680000  1.0 0.2481377312
H  H38  1  0.55590000  0.93760000  0.66690000  1.0 0.0414824343
H  H39  1  0.47360000  0.87790000  0.64740000  1.0 0.1300996705
H  H40  1  0.52000000  0.96220000  0.70240000  1.0 0.0705939523
H  H41  1  0.50950000  0.62990000  0.74150000  1.0 0.0901417302
H  H42  1  0.49250000  0.79250000  0.74360000  1.0 0.0795644321
H  H43  1  0.44610000  0.70820000  0.68860000  1.0 0.1098646985
H  H44  1  0.50400000  0.04740000  0.76790000  1.0 0.0901417302
H  H45  1  0.44790000  0.10250000  0.71410000  1.0 0.098654004
H  H46  1  0.47510000  0.28080000  0.77700000  1.0 0.059778969
H  H47  1  0.50170000  0.32670000  0.73750000  1.0 0.0795644321
H  H48  1  0.56220000  0.26740000  0.79550000  1.0 0.0901417302
H  H49  1  0.55640000  0.01300000  0.71130000  1.0 0.0513838033
H  H50  1  0.60900000  0.11910000  0.75860000  1.0 0.1406743991
H  H51  1  0.54850000  0.17840000  0.70060000  1.0 0.0705939523
H  H52  1  0.74040000  0.51250000  0.96670000  1.0 0.1300996705
H  H53  1  0.73990000  0.61460000  0.92860000  1.0 0.1098646985
H  H54  1  0.62130000  0.62210000  0.92000000  1.0 0.098654004
H  H55  1  0.61270000  0.56790000  0.86590000  1.0 0.1213223951
H  H56  1  0.61320000  0.45800000  0.90690000  1.0 0.059778969
H  H57  1  0.77810000  0.38550000  0.91190000  1.0 0.1213223951
H  H58  1  0.70010000  0.32290000  0.90130000  1.0 0.1300996705
H  H59  1  0.69960000  0.43280000  0.86030000  1.0 0.0705939523
H  H60  1  0.41780000  0.10370000  0.48570000  1.0 0.4037596869
H  H61  1  0.44050000  0.14800000  0.44620000  1.0 0.3218721537
H  H62  1  0.82240000  0.04760000  0.90030000  1.0 0.1300996705
H  H63  1  0.74610000  0.68200000  0.84140000  1.0 0.0414824343
H  H64  1  0.73300000  0.79560000  0.79750000  1.0 0.0513838033
H  H65  1  0.81630000  0.73820000  0.83890000  1.0 0.0795644321
H  H66  1  0.74530000  0.73600000  0.90420000  1.0 0.0795644321
H  H67  1  0.81510000  0.83220000  0.94540000  1.0 0.098654004
H  H68  1  0.73160000  0.89670000  0.91230000  1.0 0.0901417302
H  H69  1  0.26120000  0.34140000  0.43840000  1.0 0.098654004
H  H70  1  0.21690000  0.02050000  0.49840000  1.0 0.0705939523
H  H71  1  0.28950000  0.11150000  0.53900000  1.0 0.0901417302
H  H72  1  0.29240000  0.00980000  0.49710000  1.0 0.0901417302
H  H73  1  0.13010000  0.12220000  0.44030000  1.0 0.0901417302
H  H74  1  0.14030000  0.18940000  0.39500000  1.0 0.1098646985
H  H75  1  0.13990000  0.28810000  0.43850000  1.0 0.098654004
H  H76  1  0.28660000  0.30260000  0.50950000  1.0 0.0705939523
H  H77  1  0.41540000  0.99180000  0.59090000  1.0 0.0414824343
H  H78  1  0.45300000  0.11440000  0.57570000  1.0 0.098654004
H  H79  1  0.39860000  0.00250000  0.53160000  1.0 0.0795644321
H  H80  1  0.34030000  0.05120000  0.60650000  1.0 0.0901417302
H  H81  1  0.26110000  0.11180000  0.55950000  1.0 0.0901417302
H  H82  1  0.32480000  0.21640000  0.60180000  1.0 0.0901417302
H  H83  1  0.78360000  0.86430000  0.85440000  1.0 0.0901417302
H  H84  1  0.74350000  0.52460000  0.86910000  1.0 0.0513838033
H  H85  1  0.70550000  0.63540000  0.82130000  1.0 0.059778969
H  H86  1  0.79420000  0.60370000  0.85130000  1.0 0.0414824343
H  H87  1  0.73720000  0.58680000  0.93020000  1.0 0.1098646985
H  H88  1  0.78330000  0.72060000  0.96490000  1.0 0.0513838033
H  H89  1  0.69610000  0.73580000  0.91860000  1.0 0.0263837403
H  H90  1  0.77060000  0.94970000  0.83320000  1.0 0.098654004
H  H91  1  0.74790000  0.61760000  0.86600000  1.0 0.0513838033
H  H92  1  0.69990000  0.72260000  0.81710000  1.0 0.059778969
H  H93  1  0.78540000  0.68590000  0.83600000  1.0 0.0513838033
H  H94  1  0.76200000  0.69430000  0.93250000  1.0 0.0513838033
H  H95  1  0.81230000  0.83090000  0.96040000  1.0 0.0795644321
H  H96  1  0.72250000  0.84460000  0.92190000  1.0 0.059778969
H  H97  1  0.31020000  0.28610000  0.54230000  1.0 0.0795644321
H  H98  1  0.40360000  0.92950000  0.60510000  1.0 0.0705939523
H  H99  1  0.45190000  0.03290000  0.59200000  1.0 0.0705939523
H  H100  1  0.38130000  0.95030000  0.54480000  1.0 0.098654004
H  H101  1  0.34980000  0.02630000  0.63370000  1.0 0.098654004
H  H102  1  0.28120000  0.13010000  0.59700000  1.0 0.0795644321
H  H103  1  0.36350000  0.19220000  0.63810000  1.0 0.0901417302
H  H104  1  0.53340000  0.55880000  0.87730000  1.0 0.1406743991
H  H105  1  0.59160000  0.50050000  0.86820000  1.0 0.0705939523
H  H106  1  0.60690000  0.74620000  0.87690000  1.0 0.0901417302
H  H107  1  0.58390000  0.69790000  0.81840000  1.0 0.1098646985
H  H108  1  0.52120000  0.76070000  0.82820000  1.0 0.1098646985
H  H109  1  0.46740000  0.41710000  0.79530000  1.0 0.059778969
H  H110  1  0.44210000  0.57750000  0.78130000  1.0 0.0901417302
H  H111  1  0.50480000  0.51470000  0.77150000  1.0 0.0795644321
H  H112  1  0.46360000  0.85220000  0.64960000  1.0 0.1213223951
H  H113  1  0.42190000  0.90000000  0.67480000  1.0 0.1213223951
H  H114  1  0.54270000  0.82120000  0.74260000  1.0 0.0795644321
H  H115  1  0.53360000  0.98510000  0.74920000  1.0 0.0705939523
H  H116  1  0.57830000  0.93380000  0.72200000  1.0 0.059778969
H  H117  1  0.42050000  0.09410000  0.61930000  1.0 0.0795644321
H  H118  1  0.51100000  0.08960000  0.65340000  1.0 0.0414824343
H  H119  1  0.46610000  0.14100000  0.68050000  1.0 0.059778969
H  H120  1  0.56720000  0.34240000  0.86030000  1.0 0.1406743991
H  H121  1  0.48560000  0.35660000  0.84080000  1.0 0.1300996705
H  H122  1  0.51130000  0.11810000  0.83590000  1.0 0.1213223951
H  H123  1  0.45380000  0.17910000  0.77760000  1.0 0.098654004
H  H124  1  0.54170000  0.16390000  0.79860000  1.0 0.0705939523
H  H125  1  0.51330000  0.51980000  0.78880000  1.0 0.1098646985
H  H126  1  0.54240000  0.38820000  0.77100000  1.0 0.0414824343
H  H127  1  0.45450000  0.40340000  0.75000000  1.0 0.0513838033
H  H128  1  0.19270000  0.04210000  0.45210000  1.0 0.0795644321
H  H129  1  0.20560000  0.19900000  0.33670000  1.0 0.0795644321
H  H130  1  0.16830000  0.04640000  0.32580000  1.0 0.1098646985
H  H131  1  0.25770000  0.06480000  0.36520000  1.0 0.1098646985
H  H132  1  0.19730000  0.32950000  0.38350000  1.0 0.059778969
H  H133  1  0.24350000  0.28550000  0.44500000  1.0 0.1098646985
H  H134  1  0.15310000  0.28360000  0.41170000  1.0 0.0901417302
H  H135  1  0.39190000  0.03460000  0.94310000  1.0 0.2418939907
H  H136  1  0.25290000  0.83400000  0.84290000  1.0 0.059778969
H  H137  1  0.32920000  0.80360000  0.89880000  1.0 0.1213223951
H  H138  1  0.33120000  0.89940000  0.85520000  1.0 0.1213223951
H  H139  1  0.17920000  0.96040000  0.83930000  1.0 0.1098646985
H  H140  1  0.20230000  0.12250000  0.84950000  1.0 0.098654004
H  H141  1  0.19550000  0.03490000  0.89280000  1.0 0.1492527438
H  H142  1  0.20820000  0.67900000  0.70580000  1.0 0.3374844479
H  H143  1  0.16270000  0.58350000  0.71980000  1.0 0.3095737498
H  H144  1  0.06530000  0.09320000  0.97550000  1.0 0.3095737498
H  H145  1  0.03080000  0.01610000  0.92250000  1.0 0.3095737498
H  H146  1  0.31950000  0.48230000  0.19400000  1.0 0.3095737498
H  H147  1  0.26220000  0.40100000  0.14430000  1.0 0.3046045589
H  H148  1  0.01780000  0.61300000  0.60320000  1.0 0.3218721537
H  H149  1  0.04280000  0.52580000  0.65300000  1.0 0.3218721537
H  H150  1  0.43210000  0.71730000  0.84720000  1.0 0.098654004
H  H151  1  0.22430000  0.34310000  0.88280000  1.0 0.1098646985
H  H152  1  0.13310000  0.51200000  0.95280000  1.0 0.098654004
H  H153  1  0.01630000  0.13170000  0.75720000  1.0 0.1098646985
H  H154  1  0.50080000  0.60820000  0.17180000  1.0 0.1300996705
H  H155  1  0.24980000  0.28410000  0.98060000  1.0 0.1098646985
H  H156  1  0.95240000  0.02790000  0.62970000  1.0 0.1098646985
H  H157  1  0.05230000  0.62940000  0.81750000  1.0 0.1098646985
H  H158  1  0.72340000  0.07510000  0.50180000  1.0 0.1300996705
H  H159  1  0.67740000  0.66380000  0.49270000  1.0 0.1406743991
H  H160  1  0.51480000  0.95040000  0.45900000  1.0 0.1213223951
H  H161  1  0.75310000  0.11680000  0.69400000  1.0 0.1300996705
H  H162  1  0.70520000  0.70700000  0.65770000  1.0 0.1300996705
H  H163  1  0.54280000  0.99810000  0.57730000  1.0 0.1213223951
H  H164  1  0.12820000  0.40100000  0.63580000  1.0 0.1213223951
H  H165  1  0.15960000  0.10660000  0.55110000  1.0 0.1213223951
H  H166  1  0.14610000  0.99210000  0.67780000  1.0 0.1300996705
H  H167  1  0.97130000  0.87570000  0.95240000  1.0 0.1300996705
H  H168  1  0.94750000  0.56990000  0.03720000  1.0 0.1300996705
H  H169  1  0.94910000  0.47090000  0.90460000  1.0 0.1300996705
H  H170  1  0.60540000  0.22620000  0.23790000  1.0 0.1602028559
H  H171  1  0.56230000  0.30460000  0.18680000  1.0 0.2481377312
H  H172  1  0.55590000  0.06240000  0.16690000  1.0 0.0414824343
H  H173  1  0.47360000  0.12210000  0.14740000  1.0 0.1300996705
H  H174  1  0.52000000  0.03780000  0.20240000  1.0 0.0795644321
H  H175  1  0.50950000  0.37010000  0.24150000  1.0 0.0901417302
H  H176  1  0.49250000  0.20750000  0.24360000  1.0 0.0795644321
H  H177  1  0.44610000  0.29180000  0.18860000  1.0 0.1098646985
H  H178  1  0.50400000  0.95260000  0.26790000  1.0 0.0901417302
H  H179  1  0.44790000  0.89750000  0.21410000  1.0 0.098654004
H  H180  1  0.47510000  0.71920000  0.27700000  1.0 0.059778969
H  H181  1  0.50170000  0.67330000  0.23750000  1.0 0.0795644321
H  H182  1  0.56220000  0.73260000  0.29550000  1.0 0.0901417302
H  H183  1  0.55640000  0.98700000  0.21130000  1.0 0.0513838033
H  H184  1  0.60900000  0.88090000  0.25860000  1.0 0.1406743991
H  H185  1  0.54850000  0.82160000  0.20060000  1.0 0.0795644321
H  H186  1  0.74040000  0.48750000  0.46670000  1.0 0.1300996705
H  H187  1  0.73990000  0.38540000  0.42860000  1.0 0.1098646985
H  H188  1  0.62130000  0.37790000  0.42000000  1.0 0.098654004
H  H189  1  0.61270000  0.43210000  0.36590000  1.0 0.1213223951
H  H190  1  0.61320000  0.54200000  0.40690000  1.0 0.059778969
H  H191  1  0.77810000  0.61450000  0.41190000  1.0 0.1213223951
H  H192  1  0.70010000  0.67710000  0.40130000  1.0 0.1300996705
H  H193  1  0.69960000  0.56720000  0.36030000  1.0 0.0705939523
H  H194  1  0.41780000  0.89630000  0.98570000  1.0 0.4037596869
H  H195  1  0.44050000  0.85200000  0.94620000  1.0 0.3218721537
H  H196  1  0.82240000  0.95240000  0.40030000  1.0 0.1300996705
H  H197  1  0.74610000  0.31800000  0.34140000  1.0 0.0414824343
H  H198  1  0.73300000  0.20440000  0.29750000  1.0 0.0513838033
H  H199  1  0.81630000  0.26180000  0.33890000  1.0 0.0795644321
H  H200  1  0.74530000  0.26400000  0.40420000  1.0 0.0795644321
H  H201  1  0.81510000  0.16780000  0.44540000  1.0 0.098654004
H  H202  1  0.73160000  0.10330000  0.41230000  1.0 0.0901417302
H  H203  1  0.26120000  0.65860000  0.93840000  1.0 0.098654004
H  H204  1  0.21690000  0.97950000  0.99840000  1.0 0.0705939523
H  H205  1  0.28950000  0.88850000  0.03900000  1.0 0.0901417302
H  H206  1  0.29240000  0.99020000  0.99710000  1.0 0.0901417302
H  H207  1  0.13010000  0.87780000  0.94030000  1.0 0.0901417302
H  H208  1  0.14030000  0.81060000  0.89500000  1.0 0.1098646985
H  H209  1  0.13990000  0.71190000  0.93850000  1.0 0.098654004
H  H210  1  0.28660000  0.69740000  0.00950000  1.0 0.0705939523
H  H211  1  0.41540000  0.00820000  0.09090000  1.0 0.0414824343
H  H212  1  0.45300000  0.88560000  0.07570000  1.0 0.098654004
H  H213  1  0.39860000  0.99750000  0.03160000  1.0 0.0795644321
H  H214  1  0.34030000  0.94880000  0.10650000  1.0 0.0901417302
H  H215  1  0.26110000  0.88820000  0.05950000  1.0 0.0901417302
H  H216  1  0.32480000  0.78360000  0.10180000  1.0 0.0901417302
H  H217  1  0.78360000  0.13570000  0.35440000  1.0 0.0901417302
H  H218  1  0.74350000  0.47540000  0.36910000  1.0 0.0513838033
H  H219  1  0.70550000  0.36460000  0.32130000  1.0 0.059778969
H  H220  1  0.79420000  0.39630000  0.35130000  1.0 0.0414824343
H  H221  1  0.73720000  0.41320000  0.43020000  1.0 0.1098646985
H  H222  1  0.78330000  0.27940000  0.46490000  1.0 0.0513838033
H  H223  1  0.69610000  0.26420000  0.41860000  1.0 0.0263837403
H  H224  1  0.77060000  0.05030000  0.33320000  1.0 0.098654004
H  H225  1  0.74790000  0.38240000  0.36600000  1.0 0.0513838033
H  H226  1  0.69990000  0.27740000  0.31710000  1.0 0.059778969
H  H227  1  0.78540000  0.31410000  0.33600000  1.0 0.0513838033
H  H228  1  0.76200000  0.30570000  0.43250000  1.0 0.0513838033
H  H229  1  0.81230000  0.16910000  0.46040000  1.0 0.0795644321
H  H230  1  0.72250000  0.15540000  0.42190000  1.0 0.059778969
H  H231  1  0.31020000  0.71390000  0.04230000  1.0 0.0795644321
H  H232  1  0.40360000  0.07050000  0.10510000  1.0 0.0705939523
H  H233  1  0.45190000  0.96710000  0.09200000  1.0 0.0705939523
H  H234  1  0.38130000  0.04970000  0.04480000  1.0 0.0901417302
H  H235  1  0.34980000  0.97370000  0.13370000  1.0 0.098654004
H  H236  1  0.28120000  0.86990000  0.09700000  1.0 0.0795644321
H  H237  1  0.36350000  0.80780000  0.13810000  1.0 0.0901417302
H  H238  1  0.53340000  0.44120000  0.37730000  1.0 0.1406743991
H  H239  1  0.59160000  0.49950000  0.36820000  1.0 0.0705939523
H  H240  1  0.60690000  0.25380000  0.37690000  1.0 0.0901417302
H  H241  1  0.58390000  0.30210000  0.31840000  1.0 0.1098646985
H  H242  1  0.52120000  0.23930000  0.32820000  1.0 0.1098646985
H  H243  1  0.46740000  0.58290000  0.29530000  1.0 0.059778969
H  H244  1  0.44210000  0.42250000  0.28130000  1.0 0.0901417302
H  H245  1  0.50480000  0.48530000  0.27150000  1.0 0.0795644321
H  H246  1  0.46360000  0.14780000  0.14960000  1.0 0.1213223951
H  H247  1  0.42190000  0.10000000  0.17480000  1.0 0.1213223951
H  H248  1  0.54270000  0.17880000  0.24260000  1.0 0.0795644321
H  H249  1  0.53360000  0.01490000  0.24920000  1.0 0.0705939523
H  H250  1  0.57830000  0.06620000  0.22200000  1.0 0.059778969
H  H251  1  0.42050000  0.90590000  0.11930000  1.0 0.0795644321
H  H252  1  0.51100000  0.91040000  0.15340000  1.0 0.0414824343
H  H253  1  0.46610000  0.85900000  0.18050000  1.0 0.059778969
H  H254  1  0.56720000  0.65760000  0.36030000  1.0 0.1406743991
H  H255  1  0.48560000  0.64340000  0.34080000  1.0 0.1300996705
H  H256  1  0.51130000  0.88190000  0.33590000  1.0 0.1213223951
H  H257  1  0.45380000  0.82090000  0.27760000  1.0 0.098654004
H  H258  1  0.54170000  0.83610000  0.29860000  1.0 0.0705939523
H  H259  1  0.51330000  0.48020000  0.28880000  1.0 0.1098646985
H  H260  1  0.54240000  0.61180000  0.27100000  1.0 0.0414824343
H  H261  1  0.45450000  0.59660000  0.25000000  1.0 0.0513838033
H  H262  1  0.19270000  0.95790000  0.95210000  1.0 0.0795644321
H  H263  1  0.20560000  0.80100000  0.83670000  1.0 0.0795644321
H  H264  1  0.16830000  0.95360000  0.82580000  1.0 0.1098646985
H  H265  1  0.25770000  0.93520000  0.86520000  1.0 0.1098646985
H  H266  1  0.19730000  0.67050000  0.88350000  1.0 0.059778969
H  H267  1  0.24350000  0.71450000  0.94500000  1.0 0.1098646985
H  H268  1  0.15310000  0.71640000  0.91170000  1.0 0.0901417302
H  H269  1  0.86700000  0.52910000  0.80280000  1.0 0.2634699035
H  H270  1  0.78720000  0.50160000  0.76040000  1.0 0.2481377312
H  H271  1  0.82150000  0.34500000  0.83090000  1.0 0.1098646985
H  H272  1  0.80230000  0.26130000  0.77830000  1.0 0.1098646985
H  H273  1  0.88850000  0.29090000  0.82410000  1.0 0.1098646985
H  H274  1  0.86230000  0.49460000  0.71940000  1.0 0.1300996705
H  H275  1  0.91200000  0.37330000  0.76060000  1.0 0.1098646985
H  H276  1  0.82590000  0.34370000  0.71490000  1.0 0.1300996705
H  H277  1  0.86700000  0.47090000  0.30280000  1.0 0.2634699035
H  H278  1  0.78720000  0.49840000  0.26040000  1.0 0.2481377312
H  H279  1  0.82150000  0.65500000  0.33090000  1.0 0.1098646985
H  H280  1  0.80230000  0.73870000  0.27830000  1.0 0.1098646985
H  H281  1  0.88850000  0.70910000  0.32410000  1.0 0.1098646985
H  H282  1  0.86230000  0.50540000  0.21940000  1.0 0.1300996705
H  H283  1  0.91200000  0.62670000  0.26060000  1.0 0.1098646985
H  H284  1  0.82590000  0.65630000  0.21490000  1.0 0.1300996705
C  C1  1  0.34210000  0.93240000  0.43010000  1.0 0.1098646985
C  C2  1  0.30140000  0.12650000  0.37070000  1.0 -0.2497997147
C  C3  1  0.21010000  0.96900000  0.36640000  1.0 -0.0797472962
C  C4  1  0.38850000  0.33350000  0.34000000  1.0 0.17796222
C  C5  1  0.33140000  0.47500000  0.36810000  1.0 0.2481377312
C  C6  1  0.26620000  0.46690000  0.31950000  1.0 -0.0501898763
C  C7  1  0.26560000  0.38750000  0.27890000  1.0 0.3772051024
C  C8  1  0.24810000  0.59630000  0.37060000  1.0 0.1492527438
C  C9  1  0.11280000  0.56780000  0.43030000  1.0 0.1697184084
C  C10  1  0.07160000  0.67310000  0.35280000  1.0 0.2717844534
C  C11  1  0.04930000  0.79210000  0.36780000  1.0 -0.0091563125
C  C12  1  0.06490000  0.79630000  0.42040000  1.0 0.3772051024
C  C13  1  0.03020000  0.82560000  0.29020000  1.0 0.1697184084
C  C14  1  0.45440000  0.43930000  0.64930000  1.0 -0.0711330734
C  C15  1  0.37790000  0.55380000  0.57360000  1.0 0.1492527438
C  C16  1  0.32650000  0.57690000  0.58940000  1.0 -0.0501898763
C  C17  1  0.34610000  0.52580000  0.64020000  1.0 0.2329053122
C  C18  1  0.28260000  0.66780000  0.51310000  1.0 0.0705939523
C  C19  1  0.96970000  0.05500000  0.15070000  1.0 0.2418939907
C  C20  1  0.00170000  0.17050000  0.22450000  1.0 0.2774128306
C  C21  1  0.02240000  0.28920000  0.20820000  1.0 -0.0572902908
C  C22  1  0.01220000  0.28780000  0.15720000  1.0 0.4123738694
C  C23  1  0.03950000  0.32580000  0.28510000  1.0 0.1697184084
C  C24  1  0.61640000  0.96440000  0.98180000  1.0 -0.0206253467
C  C25  1  0.68930000  0.99870000  0.99620000  1.0 -0.1489485365
C  C26  1  0.71440000  0.13350000  0.00270000  1.0 -0.0091563125
C  C27  1  0.66220000  0.24130000  0.99040000  1.0 -0.1010370252
C  C28  1  0.58860000  0.21040000  0.97490000  1.0 -0.0206253467
C  C29  1  0.56560000  0.07090000  0.97020000  1.0 -0.1217694689
C  C30  1  0.59550000  0.81450000  0.98420000  1.0 0.557589182
C  C31  1  0.79480000  0.17440000  0.02100000  1.0 0.5513544309
C  C32  1  0.53370000  0.32650000  0.96430000  1.0 0.557589182
C  C33  1  0.64390000  0.92030000  0.13430000  1.0 0.0094777977
C  C34  1  0.71830000  0.95500000  0.17320000  1.0 -0.1010370252
C  C35  1  0.74150000  0.09310000  0.18170000  1.0 -0.0048531059
C  C36  1  0.68930000  0.19780000  0.15160000  1.0 -0.1010370252
C  C37  1  0.61470000  0.16570000  0.11300000  1.0 -0.0206253467
C  C38  1  0.59320000  0.02570000  0.10430000  1.0 -0.1981447202
C  C39  1  0.62150000  0.76750000  0.12640000  1.0 0.5310983497
C  C40  1  0.82270000  0.13400000  0.22250000  1.0 0.5513544309
C  C41  1  0.55940000  0.27960000  0.08280000  1.0 0.5513544309
C  C42  1  0.13390000  0.79830000  0.16250000  1.0 -0.0091563125
C  C43  1  0.13550000  0.69420000  0.13020000  1.0 -0.1217694689
C  C44  1  0.14780000  0.72840000  0.09000000  1.0 -0.0206253467
C  C45  1  0.15460000  0.86890000  0.08020000  1.0 -0.1782539871
C  C46  1  0.15410000  0.97330000  0.11280000  1.0 -0.0091563125
C  C47  1  0.14480000  0.93730000  0.15470000  1.0 -0.1217694689
C  C48  1  0.12120000  0.75960000  0.20640000  1.0 0.557589182
C  C49  1  0.15340000  0.61620000  0.05680000  1.0 0.5513544309
C  C50  1  0.16350000  0.12410000  0.10230000  1.0 0.5694792557
C  C51  1  0.96190000  0.32010000  0.42180000  1.0 -0.0572902908
C  C52  1  0.96500000  0.22050000  0.45740000  1.0 -0.2186796864
C  C53  1  0.95880000  0.26040000  0.50020000  1.0 -0.0501898763
C  C54  1  0.95110000  0.40160000  0.50790000  1.0 -0.1489485365
C  C55  1  0.94880000  0.50240000  0.47240000  1.0 0.000784504
C  C56  1  0.95270000  0.46110000  0.42930000  1.0 -0.1709014338
C  C57  1  0.96530000  0.27740000  0.37480000  1.0 0.4842339742
C  C58  1  0.95710000  0.15140000  0.53570000  1.0 0.5310983497
C  C59  1  0.93940000  0.65650000  0.48090000  1.0 0.5513544309
C  C60  1  0.52400000  0.89700000  0.67900000  1.0 -0.0501898763
C  C61  1  0.49600000  0.71900000  0.72200000  1.0 -0.4200971734
C  C62  1  0.51000000  0.26000000  0.76500000  1.0 -0.0711330734
C  C63  1  0.55900000  0.10500000  0.72700000  1.0 -0.3137562287
C  C64  1  0.63400000  0.54700000  0.90400000  1.0 -0.1782539871
C  C65  1  0.72500000  0.40600000  0.89800000  1.0 -0.4414957699
C  C66  1  0.80630000  0.99300000  0.86930000  1.0 0.1602028559
C  C67  1  0.76720000  0.76400000  0.83420000  1.0 -0.1010370252
C  C68  1  0.76700000  0.83100000  0.91100000  1.0 0.0094777977
C  C69  1  0.28210000  0.26700000  0.46370000  1.0 0.1406743991
C  C70  1  0.26020000  0.07300000  0.50280000  1.0 -0.270139904
C  C71  1  0.15500000  0.19600000  0.43230000  1.0 -0.1709014338
C  C72  1  0.32300000  0.23800000  0.51200000  1.0 0.17796222
C  C73  1  0.40800000  0.05600000  0.56300000  1.0 -0.1288234902
C  C74  1  0.31600000  0.12900000  0.58200000  1.0 -0.0797472962
C  C75  1  0.77800000  0.85000000  0.88400000  1.0 0.1213223951
C  C76  1  0.75100000  0.61300000  0.85600000  1.0 -0.1608103339
C  C77  1  0.74300000  0.68800000  0.92900000  1.0 -0.1010370252
C  C78  1  0.78400000  0.94000000  0.86900000  1.0 0.0795644321
C  C79  1  0.75000000  0.70200000  0.84800000  1.0 -0.0572902908
C  C80  1  0.76700000  0.79500000  0.92800000  1.0 -0.0909515762
C  C81  1  0.34010000  0.21300000  0.54120000  1.0 0.1300996705
C  C82  1  0.40110000  0.99700000  0.57920000  1.0 -0.1288234902
C  C83  1  0.33560000  0.11500000  0.61370000  1.0 -0.2326043558
C  C84  1  0.56800000  0.70300000  0.84400000  1.0 -0.450893366
C  C85  1  0.48500000  0.51200000  0.79500000  1.0 -0.1288234902
C  C86  1  0.53600000  0.91400000  0.72600000  1.0 -0.0711330734
C  C87  1  0.46600000  0.07600000  0.65500000  1.0 -0.3137562287
C  C88  1  0.50500000  0.18500000  0.80900000  1.0 -0.1608103339
C  C89  1  0.50600000  0.42000000  0.78000000  1.0 -0.1217694689
C  C90  1  0.19990000  0.01910000  0.42390000  1.0 0.0263837403
C  C91  1  0.20830000  0.10700000  0.35260000  1.0 -0.1010370252
C  C92  1  0.19820000  0.26700000  0.41010000  1.0 -0.1288234902
C  C93  1  0.34210000  0.06760000  0.93010000  1.0 0.1098646985
C  C94  1  0.30140000  0.87350000  0.87070000  1.0 -0.2497997147
C  C95  1  0.21010000  0.03100000  0.86640000  1.0 -0.0797472962
C  C96  1  0.38850000  0.66650000  0.84000000  1.0 0.17796222
C  C97  1  0.33140000  0.52500000  0.86810000  1.0 0.2481377312
C  C98  1  0.26620000  0.53310000  0.81950000  1.0 -0.0501898763
C  C99  1  0.26560000  0.61250000  0.77890000  1.0 0.3772051024
C  C100  1  0.24810000  0.40370000  0.87060000  1.0 0.1492527438
C  C101  1  0.11280000  0.43220000  0.93030000  1.0 0.1697184084
C  C102  1  0.07160000  0.32690000  0.85280000  1.0 0.2717844534
C  C103  1  0.04930000  0.20790000  0.86780000  1.0 -0.0091563125
C  C104  1  0.06490000  0.20370000  0.92040000  1.0 0.3772051024
C  C105  1  0.03020000  0.17440000  0.79020000  1.0 0.1697184084
C  C106  1  0.45440000  0.56070000  0.14930000  1.0 -0.0711330734
C  C107  1  0.37790000  0.44620000  0.07360000  1.0 0.1492527438
C  C108  1  0.32650000  0.42310000  0.08940000  1.0 -0.0501898763
C  C109  1  0.34610000  0.47420000  0.14020000  1.0 0.2329053122
C  C110  1  0.28260000  0.33220000  0.01310000  1.0 0.059778969
C  C111  1  0.96970000  0.94500000  0.65070000  1.0 0.2418939907
C  C112  1  0.00170000  0.82950000  0.72450000  1.0 0.2774128306
C  C113  1  0.02240000  0.71080000  0.70820000  1.0 -0.0572902908
C  C114  1  0.01220000  0.71220000  0.65720000  1.0 0.4123738694
C  C115  1  0.03950000  0.67420000  0.78510000  1.0 0.1697184084
C  C116  1  0.61640000  0.03560000  0.48180000  1.0 -0.0206253467
C  C117  1  0.68930000  0.00130000  0.49620000  1.0 -0.1489485365
C  C118  1  0.71440000  0.86650000  0.50270000  1.0 -0.0091563125
C  C119  1  0.66220000  0.75870000  0.49040000  1.0 -0.1010370252
C  C120  1  0.58860000  0.78960000  0.47490000  1.0 -0.0206253467
C  C121  1  0.56560000  0.92910000  0.47020000  1.0 -0.1217694689
C  C122  1  0.59550000  0.18550000  0.48420000  1.0 0.557589182
C  C123  1  0.79480000  0.82560000  0.52100000  1.0 0.5513544309
C  C124  1  0.53370000  0.67350000  0.46430000  1.0 0.557589182
C  C125  1  0.64390000  0.07970000  0.63430000  1.0 0.0094777977
C  C126  1  0.71830000  0.04500000  0.67320000  1.0 -0.1010370252
C  C127  1  0.74150000  0.90690000  0.68170000  1.0 -0.0048531059
C  C128  1  0.68930000  0.80220000  0.65160000  1.0 -0.1010370252
C  C129  1  0.61470000  0.83430000  0.61300000  1.0 -0.0206253467
C  C130  1  0.59320000  0.97430000  0.60430000  1.0 -0.1981447202
C  C131  1  0.62150000  0.23250000  0.62640000  1.0 0.5310983497
C  C132  1  0.82270000  0.86600000  0.72250000  1.0 0.5513544309
C  C133  1  0.55940000  0.72040000  0.58280000  1.0 0.5513544309
C  C134  1  0.13390000  0.20170000  0.66250000  1.0 -0.0206253467
C  C135  1  0.13550000  0.30580000  0.63020000  1.0 -0.1217694689
C  C136  1  0.14780000  0.27160000  0.59000000  1.0 -0.0206253467
C  C137  1  0.15460000  0.13110000  0.58020000  1.0 -0.1782539871
C  C138  1  0.15410000  0.02670000  0.61280000  1.0 -0.0091563125
C  C139  1  0.14480000  0.06270000  0.65470000  1.0 -0.1217694689
C  C140  1  0.12120000  0.24040000  0.70640000  1.0 0.557589182
C  C141  1  0.15340000  0.38380000  0.55680000  1.0 0.5513544309
C  C142  1  0.16350000  0.87590000  0.60230000  1.0 0.5694792557
C  C143  1  0.96190000  0.67990000  0.92180000  1.0 -0.0711330734
C  C144  1  0.96500000  0.77950000  0.95740000  1.0 -0.2186796864
C  C145  1  0.95880000  0.73960000  0.00020000  1.0 -0.0572902908
C  C146  1  0.95110000  0.59840000  0.00790000  1.0 -0.1489485365
C  C147  1  0.94880000  0.49760000  0.97240000  1.0 0.000784504
C  C148  1  0.95270000  0.53890000  0.92930000  1.0 -0.1709014338
C  C149  1  0.96530000  0.72260000  0.87480000  1.0 0.4842339742
C  C150  1  0.95710000  0.84860000  0.03570000  1.0 0.5310983497
C  C151  1  0.93940000  0.34350000  0.98090000  1.0 0.5513544309
C  C152  1  0.52400000  0.10300000  0.17900000  1.0 -0.0501898763
C  C153  1  0.49600000  0.28100000  0.22200000  1.0 -0.4200971734
C  C154  1  0.51000000  0.74000000  0.26500000  1.0 -0.0711330734
C  C155  1  0.55900000  0.89500000  0.22700000  1.0 -0.3137562287
C  C156  1  0.63400000  0.45300000  0.40400000  1.0 -0.1782539871
C  C157  1  0.72500000  0.59400000  0.39800000  1.0 -0.4414957699
C  C158  1  0.80630000  0.00700000  0.36930000  1.0 0.1602028559
C  C159  1  0.76720000  0.23600000  0.33420000  1.0 -0.1010370252
C  C160  1  0.76700000  0.16900000  0.41100000  1.0 0.0094777977
C  C161  1  0.28210000  0.73300000  0.96370000  1.0 0.1406743991
C  C162  1  0.26020000  0.92700000  0.00280000  1.0 -0.270139904
C  C163  1  0.15500000  0.80400000  0.93230000  1.0 -0.1709014338
C  C164  1  0.32300000  0.76200000  0.01200000  1.0 0.17796222
C  C165  1  0.40800000  0.94400000  0.06300000  1.0 -0.1288234902
C  C166  1  0.31600000  0.87100000  0.08200000  1.0 -0.0797472962
C  C167  1  0.77800000  0.15000000  0.38400000  1.0 0.1098646985
C  C168  1  0.75100000  0.38700000  0.35600000  1.0 -0.1608103339
C  C169  1  0.74300000  0.31200000  0.42900000  1.0 -0.1010370252
C  C170  1  0.78400000  0.06000000  0.36900000  1.0 0.0795644321
C  C171  1  0.75000000  0.29800000  0.34800000  1.0 -0.0572902908
C  C172  1  0.76700000  0.20500000  0.42800000  1.0 -0.0909515762
C  C173  1  0.34010000  0.78700000  0.04120000  1.0 0.1300996705
C  C174  1  0.40110000  0.00300000  0.07920000  1.0 -0.1288234902
C  C175  1  0.33560000  0.88500000  0.11370000  1.0 -0.2326043558
C  C176  1  0.56800000  0.29700000  0.34400000  1.0 -0.450893366
C  C177  1  0.48500000  0.48800000  0.29500000  1.0 -0.1288234902
C  C178  1  0.53600000  0.08600000  0.22600000  1.0 -0.0711330734
C  C179  1  0.46600000  0.92400000  0.15500000  1.0 -0.3137562287
C  C180  1  0.50500000  0.81500000  0.30900000  1.0 -0.1608103339
C  C181  1  0.50600000  0.58000000  0.28000000  1.0 -0.1217694689
C  C182  1  0.19990000  0.98090000  0.92390000  1.0 0.0247544355
C  C183  1  0.20830000  0.89300000  0.85260000  1.0 -0.1010370252
C  C184  1  0.19820000  0.73300000  0.91010000  1.0 -0.1288234902
C  C185  1  0.83700000  0.32900000  0.80540000  1.0 -0.3398071241
C  C186  1  0.86130000  0.41400000  0.73960000  1.0 -0.3137562287
C  C187  1  0.83700000  0.67100000  0.30540000  1.0 -0.3398071241
C  C188  1  0.86130000  0.58600000  0.23960000  1.0 -0.3153392089
N  N1  1  0.28870000  0.00750000  0.39240000  1.0 -0.1489485365
N  N2  1  0.32930000  0.31980000  0.29130000  1.0 -0.4414957699
N  N3  1  0.39660000  0.40880000  0.38120000  1.0 -0.3993131033
N  N4  1  0.21130000  0.54410000  0.32080000  1.0 -0.3307323319
N  N5  1  0.32060000  0.55760000  0.40200000  1.0 -0.3771202055
N  N6  1  0.20520000  0.37340000  0.22910000  1.0 -0.5699953945
N  N7  1  0.09790000  0.68100000  0.45080000  1.0 -0.3916742814
N  N8  1  0.10220000  0.55640000  0.38260000  1.0 -0.4090056282
N  N9  1  0.02140000  0.88970000  0.32680000  1.0 -0.3398071241
N  N10  1  0.06000000  0.69630000  0.30360000  1.0 -0.3634853673
N  N11  1  0.05230000  0.90860000  0.44200000  1.0 -0.6002919388
N  N12  1  0.41020000  0.45150000  0.66790000  1.0 -0.4090056282
N  N13  1  0.44320000  0.48450000  0.60310000  1.0 -0.4200971734
N  N14  1  0.26530000  0.64980000  0.55010000  1.0 -0.3993131033
N  N15  1  0.34870000  0.61420000  0.52440000  1.0 -0.3993131033
N  N16  1  0.30430000  0.55040000  0.66200000  1.0 -0.5923211885
N  N17  1  0.98580000  0.16600000  0.12910000  1.0 -0.4327466798
N  N18  1  0.97520000  0.04930000  0.19680000  1.0 -0.3519001317
N  N19  1  0.04680000  0.39030000  0.24800000  1.0 -0.3307323319
N  N20  1  0.01300000  0.19540000  0.27390000  1.0 -0.3771202055
N  N21  1  0.02580000  0.39480000  0.13540000  1.0 -0.5414274764
N  N22  1  0.55910000  0.76000000  0.70800000  1.0 -0.2795155954
N  N23  1  0.49600000  0.11300000  0.74300000  1.0 -0.2795155954
N  N24  1  0.71900000  0.53500000  0.93200000  1.0 -0.1947956693
N  N25  1  0.77850000  0.87100000  0.86930000  1.0 -0.0711330734
N  N26  1  0.23480000  0.18150000  0.46600000  1.0 -0.0572902908
N  N27  1  0.34570000  0.14200000  0.54830000  1.0 0.1300996705
N  N28  1  0.76500000  0.72000000  0.89200000  1.0 0.0705939523
N  N29  1  0.77530000  0.81500000  0.88330000  1.0 -0.0289783918
N  N30  1  0.35370000  0.10700000  0.57330000  1.0 0.1098646985
N  N31  1  0.55100000  0.55800000  0.85500000  1.0 -0.1388141562
N  N32  1  0.46300000  0.91600000  0.67200000  1.0 -0.1782539871
N  N33  1  0.51960000  0.33200000  0.83160000  1.0 -0.2186796864
N  N34  1  0.19870000  0.12440000  0.39530000  1.0 -0.1010370252
N  N35  1  0.28870000  0.99250000  0.89240000  1.0 -0.1489485365
N  N36  1  0.32930000  0.68020000  0.79130000  1.0 -0.4414957699
N  N37  1  0.39660000  0.59120000  0.88120000  1.0 -0.3993131033
N  N38  1  0.21130000  0.45590000  0.82080000  1.0 -0.3307323319
N  N39  1  0.32060000  0.44240000  0.90200000  1.0 -0.3771202055
N  N40  1  0.20520000  0.62660000  0.72910000  1.0 -0.5699953945
N  N41  1  0.09790000  0.31900000  0.95080000  1.0 -0.3916742814
N  N42  1  0.10220000  0.44360000  0.88260000  1.0 -0.4090056282
N  N43  1  0.02140000  0.11030000  0.82680000  1.0 -0.3398071241
N  N44  1  0.06000000  0.30370000  0.80360000  1.0 -0.3634853673
N  N45  1  0.05230000  0.09140000  0.94200000  1.0 -0.6002919388
N  N46  1  0.41020000  0.54850000  0.16790000  1.0 -0.4090056282
N  N47  1  0.44320000  0.51550000  0.10310000  1.0 -0.4200971734
N  N48  1  0.26530000  0.35020000  0.05010000  1.0 -0.3993131033
N  N49  1  0.34870000  0.38580000  0.02440000  1.0 -0.3993131033
N  N50  1  0.30430000  0.44960000  0.16200000  1.0 -0.5923211885
N  N51  1  0.98580000  0.83400000  0.62910000  1.0 -0.4327466798
N  N52  1  0.97520000  0.95070000  0.69680000  1.0 -0.3519001317
N  N53  1  0.04680000  0.60970000  0.74800000  1.0 -0.3307323319
N  N54  1  0.01300000  0.80460000  0.77390000  1.0 -0.3771202055
N  N55  1  0.02580000  0.60520000  0.63540000  1.0 -0.5414274764
N  N56  1  0.55910000  0.24000000  0.20800000  1.0 -0.2795155954
N  N57  1  0.49600000  0.88700000  0.24300000  1.0 -0.2795155954
N  N58  1  0.71900000  0.46500000  0.43200000  1.0 -0.1947956693
N  N59  1  0.77850000  0.12900000  0.36930000  1.0 -0.0711330734
N  N60  1  0.23480000  0.81850000  0.96600000  1.0 -0.0572902908
N  N61  1  0.34570000  0.85800000  0.04830000  1.0 0.1300996705
N  N62  1  0.76500000  0.28000000  0.39200000  1.0 0.0705939523
N  N63  1  0.77530000  0.18500000  0.38330000  1.0 -0.0289783918
N  N64  1  0.35370000  0.89300000  0.07330000  1.0 0.1098646985
N  N65  1  0.55100000  0.44200000  0.35500000  1.0 -0.1388141562
N  N66  1  0.46300000  0.08400000  0.17200000  1.0 -0.1782539871
N  N67  1  0.51960000  0.66800000  0.33160000  1.0 -0.2186796864
N  N68  1  0.19870000  0.87560000  0.89530000  1.0 -0.1010370252
N  N69  1  0.83460000  0.46500000  0.77880000  1.0 -0.1388141562
N  N70  1  0.83460000  0.53500000  0.27880000  1.0 -0.1388141562
O  O1  1  0.33860000  0.82910000  0.45090000  1.0 -0.450893366
O  O2  1  0.45000000  0.44100000  0.50080000  1.0 -0.6943008613
O  O3  1  0.52730000  0.78910000  0.96060000  1.0 -0.5414274764
O  O4  1  0.64540000  0.72650000  0.01050000  1.0 -0.5008226049
O  O5  1  0.83480000  0.08170000  0.02060000  1.0 -0.5314856839
O  O6  1  0.81800000  0.29920000  0.03810000  1.0 -0.5574679908
O  O7  1  0.56250000  0.44910000  0.97360000  1.0 -0.5077096892
O  O8  1  0.46790000  0.29890000  0.94880000  1.0 -0.5077096892
O  O9  1  0.55270000  0.74430000  0.09900000  1.0 -0.5574679908
O  O10  1  0.67100000  0.67800000  0.14480000  1.0 -0.4821909231
O  O11  1  0.86300000  0.03380000  0.25420000  1.0 -0.5414274764
O  O12  1  0.84310000  0.25180000  0.22190000  1.0 -0.5008226049
O  O13  1  0.58590000  0.40430000  0.09560000  1.0 -0.5077096892
O  O14  1  0.49330000  0.25090000  0.05010000  1.0 -0.5231900625
O  O15  1  0.09450000  0.63450000  0.20280000  1.0 -0.5699953945
O  O16  1  0.13550000  0.84210000  0.24190000  1.0 -0.5231900625
O  O17  1  0.17410000  0.64610000  0.02580000  1.0 -0.5574679908
O  O18  1  0.13640000  0.49090000  0.06380000  1.0 -0.5414274764
O  O19  1  0.14179000  0.15060000  0.05379000  1.0 -0.5699953945
O  O20  1  0.19180000  0.21160000  0.13880000  1.0 -0.5574679908
O  O21  1  0.98080000  0.14650000  0.37290000  1.0 -0.5414274764
O  O22  1  0.95340000  0.36300000  0.34040000  1.0 -0.4578118634
O  O23  1  0.97210000  0.02780000  0.52800000  1.0 -0.5314856839
O  O24  1  0.94170000  0.18680000  0.56890000  1.0 -0.5077096892
O  O25  1  0.96717000  0.69130000  0.52897000  1.0 -0.5231900625
O  O26  1  0.90740000  0.73600000  0.44270000  1.0 -0.5077096892
O  O27  1  0.40320000  0.08300000  0.45400000  1.0 -0.5314856839
O  O28  1  0.81510000  0.04600000  0.83710000  1.0 -0.2933779371
O  O29  1  0.34980000  0.26000000  0.49110000  1.0 -0.0909515762
O  O30  1  0.34100000  0.25500000  0.48000000  1.0 -0.1217694689
O  O31  1  0.78200000  0.95100000  0.90900000  1.0 -0.0289783918
O  O32  1  0.80600000  0.04300000  0.89600000  1.0 -0.1010370252
O  O33  1  0.36030000  0.22900000  0.51090000  1.0 0.059778969
O  O34  1  0.20860000  0.89790000  0.41900000  1.0 -0.270139904
O  O35  1  0.33860000  0.17090000  0.95090000  1.0 -0.450893366
O  O36  1  0.45000000  0.55900000  0.00080000  1.0 -0.6943008613
O  O37  1  0.52730000  0.21090000  0.46060000  1.0 -0.5414274764
O  O38  1  0.64540000  0.27350000  0.51050000  1.0 -0.5008226049
O  O39  1  0.83480000  0.91830000  0.52060000  1.0 -0.5314856839
O  O40  1  0.81800000  0.70080000  0.53810000  1.0 -0.5574679908
O  O41  1  0.56250000  0.55090000  0.47360000  1.0 -0.5077096892
O  O42  1  0.46790000  0.70110000  0.44880000  1.0 -0.5077096892
O  O43  1  0.55270000  0.25570000  0.59900000  1.0 -0.5574679908
O  O44  1  0.67100000  0.32200000  0.64480000  1.0 -0.4821909231
O  O45  1  0.86300000  0.96620000  0.75420000  1.0 -0.5457181645
O  O46  1  0.84310000  0.74820000  0.72190000  1.0 -0.5008226049
O  O47  1  0.58590000  0.59570000  0.59560000  1.0 -0.5077096892
O  O48  1  0.49330000  0.74910000  0.55010000  1.0 -0.5231900625
O  O49  1  0.09450000  0.36550000  0.70280000  1.0 -0.5699953945
O  O50  1  0.13550000  0.15790000  0.74190000  1.0 -0.5231900625
O  O51  1  0.17410000  0.35390000  0.52580000  1.0 -0.5574679908
O  O52  1  0.13640000  0.50910000  0.56380000  1.0 -0.5414274764
O  O53  1  0.14179000  0.84940000  0.55379000  1.0 -0.5699953945
O  O54  1  0.19180000  0.78840000  0.63880000  1.0 -0.5574679908
O  O55  1  0.98080000  0.85350000  0.87290000  1.0 -0.5414274764
O  O56  1  0.95340000  0.63700000  0.84040000  1.0 -0.4578118634
O  O57  1  0.97210000  0.97220000  0.02800000  1.0 -0.5414274764
O  O58  1  0.94170000  0.81320000  0.06890000  1.0 -0.5077096892
O  O59  1  0.96717000  0.30870000  0.02897000  1.0 -0.5231900625
O  O60  1  0.90740000  0.26400000  0.94270000  1.0 -0.5077096892
O  O61  1  0.40320000  0.91700000  0.95400000  1.0 -0.5314856839
O  O62  1  0.81510000  0.95400000  0.33710000  1.0 -0.2933779371
O  O63  1  0.34980000  0.74000000  0.99110000  1.0 -0.0909515762
O  O64  1  0.34100000  0.74500000  0.98000000  1.0 -0.1217694689
O  O65  1  0.78200000  0.04900000  0.40900000  1.0 -0.0289783918
O  O66  1  0.80600000  0.95700000  0.39600000  1.0 -0.1010370252
O  O67  1  0.36030000  0.77100000  0.01090000  1.0 0.059778969
O  O68  1  0.20860000  0.10210000  0.91900000  1.0 -0.270139904
