# DDEC6 charges by PACMAN v1.1 (https://github.com/mtap-research/PACMAN-charge/)
data_SEKNUU_ASR_pacman
_symmetry_space_group_name_H-M   'P 1'
_cell_length_a   10.96730000
_cell_length_b   16.00530000
_cell_length_c   26.08120000
_cell_angle_alpha   91.56740000
_cell_angle_beta   94.14640000
_cell_angle_gamma   92.22750000
_symmetry_Int_Tables_number   1
_chemical_formula_structural   Zn4H99C105(NO)14
_chemical_formula_sum   'Zn8 H198 C210 N28 O28'
_cell_volume   4560.63796083
_cell_formula_units_Z   2
loop_
 _symmetry_equiv_pos_site_id
 _symmetry_equiv_pos_as_xyz
  1  'x, y, z'
loop_
 _atom_site_type_symbol
 _atom_site_label
 _atom_site_symmetry_multiplicity
 _atom_site_fract_x
 _atom_site_fract_y
 _atom_site_fract_z
 _atom_site_occupancy
 _atom_site_charge
Zn  Zn1  1  0.41974000  0.09443000  0.08681000  1.0 0.7304382137
Zn  Zn2  1  0.51842000  0.93186000  0.04176000  1.0 0.8132329843
Zn  Zn3  1  0.37159000  0.08318000  0.41283000  1.0 0.7304382137
Zn  Zn4  1  0.48136000  0.92432000  0.46169000  1.0 0.8132329843
Zn  Zn5  1  0.58026000  0.90557000  0.91319000  1.0 0.7304382137
Zn  Zn6  1  0.48158000  0.06814000  0.95824000  1.0 0.8132329843
Zn  Zn7  1  0.62841000  0.91682000  0.58717000  1.0 0.7304382137
Zn  Zn8  1  0.51864000  0.07568000  0.53831000  1.0 0.8132329843
H  H1  1  0.01560000  0.02500000  0.06220000  1.0 0.1296631457
H  H2  1  0.19800000  0.81060000  0.07680000  1.0 0.1189950054
H  H3  1  0.82730000  0.80080000  0.05610000  1.0 0.1106808946
H  H4  1  0.11380000  0.56130000  0.06650000  1.0 0.1189950054
H  H5  1  0.11080000  0.41720000  0.07730000  1.0 0.1106808946
H  H6  1  0.74660000  0.41540000  0.08950000  1.0 0.1106808946
H  H7  1  0.74780000  0.55840000  0.07520000  1.0 0.1106808946
H  H8  1  0.07580000  0.27370000  0.05050000  1.0 0.0700926995
H  H9  1  0.06170000  0.21100000  0.09660000  1.0 0.079708083
H  H10  1  0.12460000  0.30210000  0.10790000  1.0 0.0700926995
H  H11  1  0.75440000  0.27720000  0.07310000  1.0 0.0903306138
H  H12  1  0.84310000  0.20040000  0.07040000  1.0 0.079708083
H  H13  1  0.84680000  0.27140000  0.02850000  1.0 0.079708083
H  H14  1  0.98300000  0.33490000  0.17330000  1.0 0.1106808946
H  H15  1  0.92150000  0.24280000  0.16480000  1.0 0.0574404628
H  H16  1  0.83760000  0.32250000  0.16360000  1.0 0.0500750825
H  H17  1  0.61440000  0.65980000  0.13020000  1.0 0.0903306138
H  H18  1  0.63720000  0.79930000  0.10960000  1.0 0.0903306138
H  H19  1  0.35730000  0.77620000  0.00640000  1.0 0.0997472453
H  H20  1  0.32770000  0.63530000  0.02270000  1.0 0.0997472453
H  H21  1  0.50320000  0.52500000  0.12070000  1.0 0.1106808946
H  H22  1  0.34870000  0.49950000  0.03240000  1.0 0.1106808946
H  H23  1  0.49790000  0.39710000  0.14090000  1.0 0.0997472453
H  H24  1  0.50450000  0.25390000  0.14990000  1.0 0.1106808946
H  H25  1  0.29330000  0.21350000  0.02180000  1.0 0.0700926995
H  H26  1  0.28780000  0.35480000  0.00840000  1.0 0.0700926995
H  H27  1  0.70350000  0.87900000  0.18640000  1.0 0.1189950054
H  H28  1  0.64020000  0.86560000  0.33750000  1.0 0.1106808946
H  H29  1  0.45880000  0.02960000  0.24830000  1.0 0.1296631457
H  H30  1  0.97710000  0.73240000  0.17280000  1.0 0.1189950054
H  H31  1  0.12110000  0.62840000  0.17870000  1.0 0.1106808946
H  H32  1  0.04350000  0.59440000  0.32500000  1.0 0.1189950054
H  H33  1  0.90130000  0.69740000  0.31900000  1.0 0.1189950054
H  H34  1  0.20220000  0.51100000  0.17930000  1.0 0.1296631457
H  H35  1  0.30220000  0.46320000  0.21380000  1.0 0.1189950054
H  H36  1  0.31170000  0.56290000  0.21110000  1.0 0.1189950054
H  H37  1  0.31870000  0.57860000  0.30210000  1.0 0.1189950054
H  H38  1  0.30600000  0.48000000  0.31030000  1.0 0.0997472453
H  H39  1  0.21230000  0.54130000  0.33470000  1.0 0.1106808946
H  H40  1  0.13220000  0.41000000  0.28940000  1.0 0.1296631457
H  H41  1  0.09620000  0.41020000  0.22880000  1.0 0.1418444029
H  H42  1  0.01520000  0.45840000  0.26790000  1.0 0.1418444029
H  H43  1  0.97050000  0.01450000  0.43220000  1.0 0.1296631457
H  H44  1  0.15730000  0.79980000  0.43000000  1.0 0.1189950054
H  H45  1  0.78640000  0.78900000  0.42780000  1.0 0.0997472453
H  H46  1  0.07160000  0.55160000  0.44190000  1.0 0.1106808946
H  H47  1  0.07160000  0.40680000  0.43280000  1.0 0.0997472453
H  H48  1  0.71980000  0.40140000  0.37570000  1.0 0.0997472453
H  H49  1  0.71670000  0.54550000  0.38790000  1.0 0.0997472453
H  H50  1  0.96370000  0.29400000  0.32520000  1.0 0.1418444029
H  H51  1  0.98900000  0.20880000  0.35410000  1.0 0.1418444029
H  H52  1  0.07000000  0.29190000  0.37040000  1.0 0.1106808946
H  H53  1  0.02160000  0.27910000  0.46140000  1.0 0.1106808946
H  H54  1  0.94190000  0.19490000  0.44640000  1.0 0.1489218808
H  H55  1  0.88180000  0.27110000  0.47500000  1.0 0.1106808946
H  H56  1  0.71280000  0.26950000  0.40550000  1.0 0.0903306138
H  H57  1  0.77490000  0.19100000  0.38030000  1.0 0.1489218808
H  H58  1  0.74320000  0.27010000  0.34640000  1.0 0.1189950054
H  H59  1  0.53430000  0.63870000  0.38010000  1.0 0.079708083
H  H60  1  0.56130000  0.78180000  0.39370000  1.0 0.079708083
H  H61  1  0.34770000  0.77550000  0.50960000  1.0 0.1189950054
H  H62  1  0.32110000  0.63010000  0.50030000  1.0 0.0997472453
H  H63  1  0.45310000  0.50640000  0.39970000  1.0 0.1106808946
H  H64  1  0.31180000  0.48930000  0.48280000  1.0 0.0903306138
H  H65  1  0.43410000  0.38630000  0.37340000  1.0 0.0997472453
H  H66  1  0.43380000  0.24250000  0.35850000  1.0 0.1106808946
H  H67  1  0.26240000  0.20010000  0.48390000  1.0 0.079708083
H  H68  1  0.26240000  0.34240000  0.50340000  1.0 0.079708083
H  H69  1  0.57420000  0.05930000  0.45030000  1.0 0.34304988
H  H70  1  0.60440000  0.06930000  0.04580000  1.0 0.3512552492
H  H71  1  0.87980000  0.27850000  0.01910000  1.0 0.0903306138
H  H72  1  0.94110000  0.20230000  0.04820000  1.0 0.0903306138
H  H73  1  0.02450000  0.28050000  0.03280000  1.0 0.079708083
H  H74  1  0.08640000  0.29190000  0.13510000  1.0 0.0500750825
H  H75  1  0.98590000  0.21910000  0.14320000  1.0 0.079708083
H  H76  1  0.97710000  0.30880000  0.17100000  1.0 0.0997472453
H  H77  1  0.76010000  0.28770000  0.13850000  1.0 0.0700926995
H  H78  1  0.78260000  0.20770000  0.10280000  1.0 0.079708083
H  H79  1  0.72750000  0.28960000  0.07780000  1.0 0.0903306138
H  H80  1  0.46750000  0.36700000  0.35150000  1.0 0.0903306138
H  H81  1  0.44810000  0.22380000  0.34720000  1.0 0.079708083
H  H82  1  0.28510000  0.21880000  0.47690000  1.0 0.1106808946
H  H83  1  0.29740000  0.36420000  0.48480000  1.0 0.0903306138
H  H84  1  0.45120000  0.49770000  0.39430000  1.0 0.0903306138
H  H85  1  0.33240000  0.50320000  0.48390000  1.0 0.1106808946
H  H86  1  0.50240000  0.62410000  0.39590000  1.0 0.0997472453
H  H87  1  0.54050000  0.76930000  0.40280000  1.0 0.1189950054
H  H88  1  0.34740000  0.78700000  0.52310000  1.0 0.079708083
H  H89  1  0.30540000  0.64290000  0.52000000  1.0 0.0700926995
H  H90  1  0.34050000  0.37860000  0.02270000  1.0 0.0903306138
H  H91  1  0.33060000  0.22590000  0.02540000  1.0 0.0997472453
H  H92  1  0.50480000  0.23570000  0.16210000  1.0 0.0700926995
H  H93  1  0.52070000  0.38120000  0.15930000  1.0 0.079708083
H  H94  1  0.49240000  0.51300000  0.12130000  1.0 0.1106808946
H  H95  1  0.36990000  0.50730000  0.02750000  1.0 0.1106808946
H  H96  1  0.32460000  0.64160000  0.99350000  1.0 0.0700926995
H  H97  1  0.35810000  0.78910000  0.98900000  1.0 0.0574404628
H  H98  1  0.61570000  0.78480000  0.10410000  1.0 0.1189950054
H  H99  1  0.57850000  0.63850000  0.11340000  1.0 0.0997472453
H  H100  1  0.98440000  0.97500000  0.93780000  1.0 0.1296631457
H  H101  1  0.80200000  0.18940000  0.92320000  1.0 0.1189950054
H  H102  1  0.17270000  0.19920000  0.94390000  1.0 0.1106808946
H  H103  1  0.88620000  0.43870000  0.93350000  1.0 0.1189950054
H  H104  1  0.88920000  0.58280000  0.92270000  1.0 0.1106808946
H  H105  1  0.25340000  0.58460000  0.91050000  1.0 0.1106808946
H  H106  1  0.25220000  0.44160000  0.92480000  1.0 0.1106808946
H  H107  1  0.92420000  0.72630000  0.94950000  1.0 0.0700926995
H  H108  1  0.93830000  0.78900000  0.90340000  1.0 0.079708083
H  H109  1  0.87540000  0.69790000  0.89210000  1.0 0.0700926995
H  H110  1  0.24560000  0.72280000  0.92690000  1.0 0.0903306138
H  H111  1  0.15690000  0.79960000  0.92960000  1.0 0.079708083
H  H112  1  0.15320000  0.72860000  0.97150000  1.0 0.079708083
H  H113  1  0.01700000  0.66510000  0.82670000  1.0 0.1106808946
H  H114  1  0.07850000  0.75720000  0.83520000  1.0 0.0574404628
H  H115  1  0.16240000  0.67750000  0.83640000  1.0 0.0500750825
H  H116  1  0.38560000  0.34020000  0.86980000  1.0 0.0903306138
H  H117  1  0.36280000  0.20070000  0.89040000  1.0 0.0903306138
H  H118  1  0.64270000  0.22380000  0.99360000  1.0 0.0997472453
H  H119  1  0.67230000  0.36470000  0.97730000  1.0 0.0997472453
H  H120  1  0.49680000  0.47500000  0.87930000  1.0 0.1106808946
H  H121  1  0.65130000  0.50050000  0.96760000  1.0 0.1106808946
H  H122  1  0.50210000  0.60290000  0.85910000  1.0 0.0997472453
H  H123  1  0.49550000  0.74610000  0.85010000  1.0 0.1106808946
H  H124  1  0.70670000  0.78650000  0.97820000  1.0 0.0700926995
H  H125  1  0.71220000  0.64520000  0.99160000  1.0 0.0700926995
H  H126  1  0.29650000  0.12100000  0.81360000  1.0 0.1189950054
H  H127  1  0.35980000  0.13440000  0.66250000  1.0 0.1106808946
H  H128  1  0.54120000  0.97040000  0.75170000  1.0 0.1296631457
H  H129  1  0.02290000  0.26760000  0.82720000  1.0 0.1189950054
H  H130  1  0.87890000  0.37160000  0.82130000  1.0 0.1106808946
H  H131  1  0.95650000  0.40560000  0.67500000  1.0 0.1189950054
H  H132  1  0.09870000  0.30260000  0.68100000  1.0 0.1189950054
H  H133  1  0.79780000  0.48900000  0.82070000  1.0 0.1296631457
H  H134  1  0.69780000  0.53680000  0.78620000  1.0 0.1189950054
H  H135  1  0.68830000  0.43710000  0.78890000  1.0 0.1189950054
H  H136  1  0.68130000  0.42140000  0.69790000  1.0 0.1189950054
H  H137  1  0.69400000  0.52000000  0.68970000  1.0 0.0997472453
H  H138  1  0.78770000  0.45870000  0.66530000  1.0 0.1106808946
H  H139  1  0.86780000  0.59000000  0.71060000  1.0 0.1296631457
H  H140  1  0.90380000  0.58980000  0.77120000  1.0 0.1418444029
H  H141  1  0.98480000  0.54160000  0.73210000  1.0 0.1418444029
H  H142  1  0.02950000  0.98550000  0.56780000  1.0 0.1296631457
H  H143  1  0.84270000  0.20020000  0.57000000  1.0 0.1189950054
H  H144  1  0.21360000  0.21100000  0.57220000  1.0 0.1106808946
H  H145  1  0.92840000  0.44840000  0.55810000  1.0 0.1106808946
H  H146  1  0.92840000  0.59320000  0.56720000  1.0 0.0997472453
H  H147  1  0.28020000  0.59860000  0.62430000  1.0 0.0997472453
H  H148  1  0.28330000  0.45450000  0.61210000  1.0 0.0997472453
H  H149  1  0.03630000  0.70600000  0.67480000  1.0 0.1418444029
H  H150  1  0.01100000  0.79120000  0.64590000  1.0 0.1418444029
H  H151  1  0.93000000  0.70810000  0.62960000  1.0 0.1106808946
H  H152  1  0.97840000  0.72090000  0.53860000  1.0 0.1106808946
H  H153  1  0.05810000  0.80510000  0.55360000  1.0 0.1489218808
H  H154  1  0.11820000  0.72890000  0.52500000  1.0 0.1106808946
H  H155  1  0.28720000  0.73050000  0.59450000  1.0 0.0903306138
H  H156  1  0.22510000  0.80900000  0.61970000  1.0 0.1489218808
H  H157  1  0.25680000  0.72990000  0.65360000  1.0 0.1189950054
H  H158  1  0.46570000  0.36130000  0.61990000  1.0 0.079708083
H  H159  1  0.43870000  0.21820000  0.60630000  1.0 0.079708083
H  H160  1  0.65230000  0.22450000  0.49040000  1.0 0.1189950054
H  H161  1  0.67890000  0.36990000  0.49970000  1.0 0.0997472453
H  H162  1  0.54690000  0.49360000  0.60030000  1.0 0.1106808946
H  H163  1  0.68820000  0.51070000  0.51720000  1.0 0.0903306138
H  H164  1  0.56590000  0.61370000  0.62660000  1.0 0.0997472453
H  H165  1  0.56620000  0.75750000  0.64150000  1.0 0.1106808946
H  H166  1  0.73760000  0.79990000  0.51610000  1.0 0.079708083
H  H167  1  0.73760000  0.65760000  0.49660000  1.0 0.079708083
H  H168  1  0.42580000  0.94070000  0.54970000  1.0 0.34304988
H  H169  1  0.39560000  0.93070000  0.95420000  1.0 0.3512552492
H  H170  1  0.12020000  0.72150000  0.98090000  1.0 0.0903306138
H  H171  1  0.05890000  0.79770000  0.95180000  1.0 0.0903306138
H  H172  1  0.97550000  0.71950000  0.96720000  1.0 0.079708083
H  H173  1  0.91360000  0.70810000  0.86490000  1.0 0.0500750825
H  H174  1  0.01410000  0.78090000  0.85680000  1.0 0.079708083
H  H175  1  0.02290000  0.69120000  0.82900000  1.0 0.0997472453
H  H176  1  0.23990000  0.71230000  0.86150000  1.0 0.0700926995
H  H177  1  0.21740000  0.79230000  0.89720000  1.0 0.079708083
H  H178  1  0.27250000  0.71040000  0.92220000  1.0 0.0903306138
H  H179  1  0.53250000  0.63300000  0.64850000  1.0 0.0903306138
H  H180  1  0.55190000  0.77620000  0.65280000  1.0 0.079708083
H  H181  1  0.71490000  0.78120000  0.52310000  1.0 0.1106808946
H  H182  1  0.70260000  0.63580000  0.51520000  1.0 0.0903306138
H  H183  1  0.54880000  0.50230000  0.60570000  1.0 0.0903306138
H  H184  1  0.66760000  0.49680000  0.51610000  1.0 0.1106808946
H  H185  1  0.49760000  0.37590000  0.60410000  1.0 0.0997472453
H  H186  1  0.45950000  0.23070000  0.59720000  1.0 0.1189950054
H  H187  1  0.65260000  0.21300000  0.47690000  1.0 0.079708083
H  H188  1  0.69460000  0.35710000  0.48000000  1.0 0.0700926995
H  H189  1  0.65950000  0.62140000  0.97730000  1.0 0.0903306138
H  H190  1  0.66940000  0.77410000  0.97460000  1.0 0.0997472453
H  H191  1  0.49520000  0.76430000  0.83790000  1.0 0.0700926995
H  H192  1  0.47930000  0.61880000  0.84070000  1.0 0.079708083
H  H193  1  0.50760000  0.48700000  0.87870000  1.0 0.1106808946
H  H194  1  0.63010000  0.49270000  0.97250000  1.0 0.1106808946
H  H195  1  0.67540000  0.35840000  0.00650000  1.0 0.0700926995
H  H196  1  0.64190000  0.21090000  0.01100000  1.0 0.0574404628
H  H197  1  0.38430000  0.21520000  0.89590000  1.0 0.1189950054
H  H198  1  0.42150000  0.36150000  0.88660000  1.0 0.0997472453
C  C1  1  0.78415000  0.96196000  0.04703000  1.0 0.5577922574
C  C2  1  0.90363000  0.91934000  0.05672000  1.0 0.0107093648
C  C3  1  0.01495000  0.96569000  0.06252000  1.0 -0.1040677963
C  C4  1  0.12504000  0.92486000  0.06880000  1.0 -0.0026475758
C  C5  1  0.12322000  0.83825000  0.07174000  1.0 -0.1911552866
C  C6  1  0.01287000  0.79152000  0.06737000  1.0 0.1489218808
C  C7  1  0.90278000  0.83236000  0.05954000  1.0 -0.2797756025
C  C8  1  0.93130000  0.57423000  0.07119000  1.0 0.1296631457
C  C9  1  0.03880000  0.53187000  0.07120000  1.0 -0.1694707741
C  C10  1  0.03680000  0.44595000  0.07818000  1.0 -0.2008034588
C  C11  1  0.92920000  0.40119000  0.08641000  1.0 0.0027788934
C  C12  1  0.82190000  0.44465000  0.08491000  1.0 -0.2797756025
C  C13  1  0.82250000  0.53019000  0.07683000  1.0 -0.2797756025
C  C14  1  0.92720000  0.30674000  0.09666000  1.0 0.2058722786
C  C15  1  0.06070000  0.26970000  0.08700000  1.0 -0.2008034588
C  C16  1  0.83570000  0.26030000  0.06460000  1.0 -0.2008034588
C  C17  1  0.91630000  0.30120000  0.15490000  1.0 -0.211455343
C  C18  1  0.46930000  0.63067000  0.07828000  1.0 0.0574404628
C  C19  1  0.56100000  0.68193000  0.10414000  1.0 -0.1104217253
C  C20  1  0.57390000  0.76560000  0.09169000  1.0 0.0574404628
C  C21  1  0.41100000  0.75180000  0.03148000  1.0 0.079708083
C  C22  1  0.39210000  0.66745000  0.04112000  1.0 -0.025820654
C  C23  1  0.46000000  0.54176000  0.09005000  1.0 -0.0818045115
C  C24  1  0.39690000  0.48261000  0.06171000  1.0 -0.0818045115
C  C25  1  0.39580000  0.39320000  0.07225000  1.0 0.0500750825
C  C26  1  0.45760000  0.36060000  0.11521000  1.0 -0.0565909353
C  C27  1  0.46020000  0.27470000  0.12059000  1.0 0.0700926995
C  C28  1  0.33780000  0.25110000  0.04568000  1.0 0.0500750825
C  C29  1  0.33360000  0.33550000  0.03772000  1.0 -0.1104217253
C  C30  1  0.54470000  0.99178000  0.15705000  1.0 0.5743531994
C  C31  1  0.57640000  0.95897000  0.20964000  1.0 0.0027788934
C  C32  1  0.66240000  0.89774000  0.21514000  1.0 -0.1834270943
C  C33  1  0.68790000  0.86420000  0.26326000  1.0 0.1743271462
C  C34  1  0.62500000  0.89015000  0.30503000  1.0 -0.1694707741
C  C35  1  0.53980000  0.95200000  0.29923000  1.0 -0.0026475758
C  C36  1  0.51610000  0.98673000  0.25209000  1.0 -0.1209434566
C  C37  1  0.47260000  0.97696000  0.34461000  1.0 0.581885945
C  C38  1  0.92170000  0.72157000  0.24402000  1.0 0.1418444029
C  C39  1  0.98850000  0.70260000  0.20370000  1.0 -0.1454962717
C  C40  1  0.07390000  0.64010000  0.20701000  1.0 -0.1209434566
C  C41  1  0.09030000  0.59425000  0.25201000  1.0 0.0700926995
C  C42  1  0.02790000  0.62030000  0.29298000  1.0 -0.1209434566
C  C43  1  0.94360000  0.68220000  0.28989000  1.0 -0.1454962717
C  C44  1  0.17730000  0.52120000  0.25702000  1.0 0.3108596615
C  C45  1  0.25530000  0.51390000  0.21125000  1.0 -0.5105233678
C  C46  1  0.26080000  0.53120000  0.30519000  1.0 -0.4997259715
C  C47  1  0.09830000  0.44310000  0.26110000  1.0 -0.4726027438
C  C48  1  0.74132000  0.95036000  0.43662000  1.0 0.5577922574
C  C49  1  0.86161000  0.90808000  0.43153000  1.0 0.0027788934
C  C50  1  0.97106000  0.95516000  0.43203000  1.0 -0.1209434566
C  C51  1  0.08210000  0.91481000  0.43233000  1.0 0.0027788934
C  C52  1  0.08207000  0.82727000  0.42961000  1.0 -0.1834270943
C  C53  1  0.97250000  0.78079000  0.42638000  1.0 0.177118387
C  C54  1  0.86131000  0.82096000  0.42846000  1.0 -0.2335945853
C  C55  1  0.89333000  0.56284000  0.41559000  1.0 0.1418444029
C  C56  1  0.99940000  0.52108000  0.42885000  1.0 -0.1911552866
C  C57  1  0.99920000  0.43498000  0.42297000  1.0 -0.1694707741
C  C58  1  0.89510000  0.38806000  0.40293000  1.0 0.079708083
C  C59  1  0.79150000  0.43135000  0.38976000  1.0 -0.1834270943
C  C60  1  0.78990000  0.51748000  0.39652000  1.0 -0.2425892093
C  C61  1  0.89880000  0.29226000  0.39667000  1.0 0.3108596615
C  C62  1  0.98810000  0.26980000  0.35826000  1.0 -0.4726027438
C  C63  1  0.93980000  0.25597000  0.44982000  1.0 -0.4997259715
C  C64  1  0.77070000  0.25202000  0.38076000  1.0 -0.4884288498
C  C65  1  0.42530000  0.61800000  0.43900000  1.0 0.0574404628
C  C66  1  0.49620000  0.66530000  0.40740000  1.0 -0.1104217253
C  C67  1  0.51150000  0.75120000  0.41560000  1.0 0.0399867854
C  C68  1  0.38760000  0.74720000  0.48340000  1.0 0.0700926995
C  C69  1  0.37010000  0.66000000  0.47780000  1.0 -0.0565909353
C  C70  1  0.41350000  0.52700000  0.42839000  1.0 -0.0736766663
C  C71  1  0.35390000  0.47070000  0.45433000  1.0 -0.0818045115
C  C72  1  0.34980000  0.38030000  0.44120000  1.0 0.0202995612
C  C73  1  0.40000000  0.34930000  0.39690000  1.0 -0.0141507793
C  C74  1  0.39880000  0.26360000  0.38820000  1.0 0.0574404628
C  C75  1  0.29890000  0.23850000  0.46190000  1.0 0.0500750825
C  C76  1  0.29820000  0.32310000  0.47340000  1.0 -0.1040677963
C  C77  1  0.24578000  0.97178000  0.07147000  1.0 0.5743531994
C  C78  1  0.20290000  0.96207000  0.43741000  1.0 0.581885945
C  C79  1  0.94480000  0.26300000  0.04440000  1.0 -0.2008034588
C  C80  1  0.99980000  0.27950000  0.13990000  1.0 -0.1694707741
C  C81  1  0.78440000  0.26900000  0.10480000  1.0 -0.251634609
C  C82  1  0.38700000  0.38250000  0.41950000  1.0 0.0399867854
C  C83  1  0.42990000  0.33800000  0.37790000  1.0 -0.1104217253
C  C84  1  0.41730000  0.25260000  0.37550000  1.0 0.0293376612
C  C85  1  0.32180000  0.24960000  0.45110000  1.0 0.0700926995
C  C86  1  0.33000000  0.33660000  0.45640000  1.0 -0.0212901021
C  C87  1  0.40910000  0.47420000  0.42140000  1.0 -0.0818045115
C  C88  1  0.37590000  0.52610000  0.45700000  1.0 -0.0818045115
C  C89  1  0.40090000  0.61750000  0.45850000  1.0 0.0399867854
C  C90  1  0.47010000  0.65600000  0.42260000  1.0 -0.0457473585
C  C91  1  0.49120000  0.74290000  0.42660000  1.0 0.0700926995
C  C92  1  0.37870000  0.75340000  0.49690000  1.0 0.0399867854
C  C93  1  0.35450000  0.66730000  0.49530000  1.0 -0.1209434566
C  C94  1  0.37460000  0.35040000  0.05170000  1.0 -0.0212901021
C  C95  1  0.36690000  0.25900000  0.05370000  1.0 0.0903306138
C  C96  1  0.47000000  0.26450000  0.13370000  1.0 0.0500750825
C  C97  1  0.47850000  0.35050000  0.13130000  1.0 -0.1104217253
C  C98  1  0.43130000  0.39290000  0.09210000  1.0 0.0399867854
C  C99  1  0.45040000  0.48660000  0.09170000  1.0 -0.0736766663
C  C100  1  0.41640000  0.53280000  0.05630000  1.0 -0.0818045115
C  C101  1  0.44370000  0.62860000  0.05540000  1.0 0.0500750825
C  C102  1  0.38160000  0.67080000  0.01740000  1.0 -0.1104217253
C  C103  1  0.40270000  0.75810000  0.01410000  1.0 0.0399867854
C  C104  1  0.55390000  0.75550000  0.08250000  1.0 0.079708083
C  C105  1  0.53280000  0.66830000  0.08800000  1.0 -0.0415402466
C  C106  1  0.21585000  0.03804000  0.95297000  1.0 0.5577922574
C  C107  1  0.09637000  0.08066000  0.94328000  1.0 0.0107093648
C  C108  1  0.98505000  0.03431000  0.93748000  1.0 -0.1104217253
C  C109  1  0.87496000  0.07514000  0.93120000  1.0 -0.0026475758
C  C110  1  0.87678000  0.16175000  0.92826000  1.0 -0.1911552866
C  C111  1  0.98713000  0.20848000  0.93263000  1.0 0.1489218808
C  C112  1  0.09722000  0.16764000  0.94046000  1.0 -0.2797756025
C  C113  1  0.06870000  0.42577000  0.92881000  1.0 0.1296631457
C  C114  1  0.96120000  0.46813000  0.92880000  1.0 -0.1694707741
C  C115  1  0.96320000  0.55405000  0.92182000  1.0 -0.2008034588
C  C116  1  0.07080000  0.59881000  0.91359000  1.0 0.0027788934
C  C117  1  0.17810000  0.55535000  0.91509000  1.0 -0.2797756025
C  C118  1  0.17750000  0.46981000  0.92317000  1.0 -0.2850046941
C  C119  1  0.07280000  0.69326000  0.90334000  1.0 0.2058722786
C  C120  1  0.93930000  0.73030000  0.91300000  1.0 -0.2008034588
C  C121  1  0.16430000  0.73970000  0.93540000  1.0 -0.2008034588
C  C122  1  0.08370000  0.69880000  0.84510000  1.0 -0.211455343
C  C123  1  0.53070000  0.36933000  0.92172000  1.0 0.0574404628
C  C124  1  0.43900000  0.31807000  0.89586000  1.0 -0.1104217253
C  C125  1  0.42610000  0.23440000  0.90831000  1.0 0.0574404628
C  C126  1  0.58900000  0.24820000  0.96852000  1.0 0.079708083
C  C127  1  0.60790000  0.33255000  0.95888000  1.0 -0.025820654
C  C128  1  0.54000000  0.45824000  0.90995000  1.0 -0.0818045115
C  C129  1  0.60310000  0.51739000  0.93829000  1.0 -0.0818045115
C  C130  1  0.60420000  0.60680000  0.92775000  1.0 0.0500750825
C  C131  1  0.54240000  0.63940000  0.88479000  1.0 -0.0565909353
C  C132  1  0.53980000  0.72530000  0.87941000  1.0 0.0700926995
C  C133  1  0.66220000  0.74890000  0.95432000  1.0 0.0500750825
C  C134  1  0.66640000  0.66450000  0.96228000  1.0 -0.1104217253
C  C135  1  0.45530000  0.00822000  0.84295000  1.0 0.5743531994
C  C136  1  0.42360000  0.04103000  0.79036000  1.0 0.0027788934
C  C137  1  0.33760000  0.10226000  0.78486000  1.0 -0.1834270943
C  C138  1  0.31210000  0.13580000  0.73674000  1.0 0.1743271462
C  C139  1  0.37500000  0.10985000  0.69497000  1.0 -0.1694707741
C  C140  1  0.46020000  0.04800000  0.70077000  1.0 -0.0026475758
C  C141  1  0.48390000  0.01327000  0.74791000  1.0 -0.1209434566
C  C142  1  0.52740000  0.02304000  0.65539000  1.0 0.581885945
C  C143  1  0.07830000  0.27843000  0.75598000  1.0 0.1418444029
C  C144  1  0.01150000  0.29740000  0.79630000  1.0 -0.1454962717
C  C145  1  0.92610000  0.35990000  0.79299000  1.0 -0.1209434566
C  C146  1  0.90970000  0.40575000  0.74799000  1.0 0.0700926995
C  C147  1  0.97210000  0.37970000  0.70702000  1.0 -0.1209434566
C  C148  1  0.05640000  0.31780000  0.71011000  1.0 -0.1454962717
C  C149  1  0.82270000  0.47880000  0.74298000  1.0 0.3108596615
C  C150  1  0.74470000  0.48610000  0.78875000  1.0 -0.5105233678
C  C151  1  0.73920000  0.46880000  0.69481000  1.0 -0.4997259715
C  C152  1  0.90170000  0.55690000  0.73890000  1.0 -0.4726027438
C  C153  1  0.25868000  0.04964000  0.56338000  1.0 0.5577922574
C  C154  1  0.13839000  0.09192000  0.56847000  1.0 0.0027788934
C  C155  1  0.02894000  0.04484000  0.56797000  1.0 -0.1209434566
C  C156  1  0.91790000  0.08519000  0.56767000  1.0 -0.0026475758
C  C157  1  0.91793000  0.17273000  0.57039000  1.0 -0.1834270943
C  C158  1  0.02750000  0.21921000  0.57362000  1.0 0.177118387
C  C159  1  0.13869000  0.17904000  0.57154000  1.0 -0.2335945853
C  C160  1  0.10667000  0.43716000  0.58441000  1.0 0.1418444029
C  C161  1  0.00060000  0.47892000  0.57115000  1.0 -0.1911552866
C  C162  1  0.00080000  0.56502000  0.57703000  1.0 -0.1694707741
C  C163  1  0.10490000  0.61194000  0.59707000  1.0 0.079708083
C  C164  1  0.20850000  0.56865000  0.61024000  1.0 -0.1834270943
C  C165  1  0.21010000  0.48252000  0.60348000  1.0 -0.2425892093
C  C166  1  0.10120000  0.70774000  0.60333000  1.0 0.3108596615
C  C167  1  0.01190000  0.73020000  0.64174000  1.0 -0.4726027438
C  C168  1  0.06020000  0.74403000  0.55018000  1.0 -0.4997259715
C  C169  1  0.22930000  0.74798000  0.61924000  1.0 -0.4884288498
C  C170  1  0.57470000  0.38200000  0.56100000  1.0 0.0574404628
C  C171  1  0.50380000  0.33470000  0.59260000  1.0 -0.1104217253
C  C172  1  0.48850000  0.24880000  0.58440000  1.0 0.0399867854
C  C173  1  0.61240000  0.25280000  0.51660000  1.0 0.0700926995
C  C174  1  0.62990000  0.34000000  0.52220000  1.0 -0.0565909353
C  C175  1  0.58650000  0.47300000  0.57161000  1.0 -0.0736766663
C  C176  1  0.64610000  0.52930000  0.54567000  1.0 -0.0818045115
C  C177  1  0.65020000  0.61970000  0.55880000  1.0 0.0202995612
C  C178  1  0.60000000  0.65070000  0.60310000  1.0 -0.0141507793
C  C179  1  0.60120000  0.73640000  0.61180000  1.0 0.0574404628
C  C180  1  0.70110000  0.76150000  0.53810000  1.0 0.0500750825
C  C181  1  0.70180000  0.67690000  0.52660000  1.0 -0.1040677963
C  C182  1  0.75422000  0.02822000  0.92853000  1.0 0.5743531994
C  C183  1  0.79710000  0.03793000  0.56259000  1.0 0.581885945
C  C184  1  0.05520000  0.73700000  0.95560000  1.0 -0.2008034588
C  C185  1  0.00020000  0.72050000  0.86010000  1.0 -0.1694707741
C  C186  1  0.21560000  0.73100000  0.89520000  1.0 -0.251634609
C  C187  1  0.61300000  0.61750000  0.58050000  1.0 0.0399867854
C  C188  1  0.57010000  0.66200000  0.62210000  1.0 -0.1104217253
C  C189  1  0.58270000  0.74740000  0.62450000  1.0 0.0293376612
C  C190  1  0.67820000  0.75040000  0.54890000  1.0 0.0700926995
C  C191  1  0.67000000  0.66340000  0.54360000  1.0 -0.0212901021
C  C192  1  0.59090000  0.52580000  0.57860000  1.0 -0.0818045115
C  C193  1  0.62410000  0.47390000  0.54300000  1.0 -0.0818045115
C  C194  1  0.59910000  0.38250000  0.54150000  1.0 0.0399867854
C  C195  1  0.52990000  0.34400000  0.57740000  1.0 -0.0457473585
C  C196  1  0.50880000  0.25710000  0.57340000  1.0 0.0700926995
C  C197  1  0.62130000  0.24660000  0.50310000  1.0 0.0399867854
C  C198  1  0.64550000  0.33270000  0.50470000  1.0 -0.1104217253
C  C199  1  0.62540000  0.64960000  0.94830000  1.0 -0.0212901021
C  C200  1  0.63310000  0.74100000  0.94630000  1.0 0.0903306138
C  C201  1  0.53000000  0.73550000  0.86630000  1.0 0.0500750825
C  C202  1  0.52150000  0.64950000  0.86870000  1.0 -0.1104217253
C  C203  1  0.56870000  0.60710000  0.90790000  1.0 0.0399867854
C  C204  1  0.54960000  0.51340000  0.90830000  1.0 -0.0736766663
C  C205  1  0.58360000  0.46720000  0.94370000  1.0 -0.0818045115
C  C206  1  0.55630000  0.37140000  0.94460000  1.0 0.0500750825
C  C207  1  0.61840000  0.32920000  0.98260000  1.0 -0.1104217253
C  C208  1  0.59730000  0.24190000  0.98590000  1.0 0.0399867854
C  C209  1  0.44610000  0.24450000  0.91750000  1.0 0.079708083
C  C210  1  0.46720000  0.33170000  0.91200000  1.0 -0.0415402466
N  N1  1  0.02238000  0.70319000  0.07098000  1.0 -0.1361972132
N  N2  1  0.92108000  0.66252000  0.06619000  1.0 -0.1361972132
N  N3  1  0.98321000  0.69230000  0.42343000  1.0 -0.1310384374
N  N4  1  0.88287000  0.65127000  0.41905000  1.0 -0.1561485046
N  N5  1  0.77410000  0.80097000  0.27269000  1.0 -0.1310384374
N  N6  1  0.83680000  0.78574000  0.23554000  1.0 -0.1310384374
N  N7  1  0.50100000  0.80080000  0.05560000  1.0 -0.2008034588
N  N8  1  0.40290000  0.21940000  0.08620000  1.0 -0.211455343
N  N9  1  0.45900000  0.79340000  0.45310000  1.0 -0.1911552866
N  N10  1  0.35050000  0.20930000  0.41980000  1.0 -0.2192764887
N  N11  1  0.36330000  0.20680000  0.41110000  1.0 -0.2192764887
N  N12  1  0.44480000  0.78900000  0.46230000  1.0 -0.1911552866
N  N13  1  0.41000000  0.22500000  0.09430000  1.0 -0.2192764887
N  N14  1  0.48900000  0.79600000  0.04780000  1.0 -0.2008034588
N  N15  1  0.97762000  0.29681000  0.92902000  1.0 -0.1361972132
N  N16  1  0.07892000  0.33748000  0.93381000  1.0 -0.1361972132
N  N17  1  0.01679000  0.30770000  0.57657000  1.0 -0.1310384374
N  N18  1  0.11713000  0.34873000  0.58095000  1.0 -0.1561485046
N  N19  1  0.22590000  0.19903000  0.72731000  1.0 -0.1310384374
N  N20  1  0.16320000  0.21426000  0.76446000  1.0 -0.1310384374
N  N21  1  0.49900000  0.19920000  0.94440000  1.0 -0.2008034588
N  N22  1  0.59710000  0.78060000  0.91380000  1.0 -0.211455343
N  N23  1  0.54100000  0.20660000  0.54690000  1.0 -0.1911552866
N  N24  1  0.64950000  0.79070000  0.58020000  1.0 -0.2192764887
N  N25  1  0.63670000  0.79320000  0.58890000  1.0 -0.2192764887
N  N26  1  0.55520000  0.21100000  0.53770000  1.0 -0.1911552866
N  N27  1  0.59000000  0.77500000  0.90570000  1.0 -0.211455343
N  N28  1  0.51100000  0.20400000  0.95220000  1.0 -0.2008034588
O  O1  1  0.53172000  0.06667000  0.03529000  1.0 -0.7528016158
O  O2  1  0.48449000  0.05853000  0.15453000  1.0 -0.5220731874
O  O3  1  0.57826000  0.95008000  0.12005000  1.0 -0.5289561518
O  O4  1  0.69493000  0.91324000  0.02960000  1.0 -0.5524457582
O  O5  1  0.78093000  0.03868000  0.05621000  1.0 -0.5524457582
O  O6  1  0.50781000  0.05758000  0.46037000  1.0 -0.7434507498
O  O7  1  0.42887000  0.05020000  0.34505000  1.0 -0.5220731874
O  O8  1  0.46169000  0.92552000  0.37917000  1.0 -0.5387166925
O  O9  1  0.66160000  0.90495000  0.45790000  1.0 -0.5860025176
O  O10  1  0.72934000  0.02250000  0.42110000  1.0 -0.5220731874
O  O11  1  0.24822000  0.05052000  0.08031000  1.0 -0.5220731874
O  O12  1  0.33783000  0.93022000  0.06511000  1.0 -0.5289561518
O  O13  1  0.29023000  0.92594000  0.45895000  1.0 -0.5220731874
O  O14  1  0.20814000  0.03541000  0.41946000  1.0 -0.5220731874
O  O15  1  0.46828000  0.93333000  0.96471000  1.0 -0.7528016158
O  O16  1  0.51551000  0.94147000  0.84547000  1.0 -0.5220731874
O  O17  1  0.42174000  0.04992000  0.87995000  1.0 -0.5289561518
O  O18  1  0.30507000  0.08676000  0.97040000  1.0 -0.5524457582
O  O19  1  0.21907000  0.96132000  0.94379000  1.0 -0.555401493
O  O20  1  0.49219000  0.94242000  0.53963000  1.0 -0.7434507498
O  O21  1  0.57113000  0.94980000  0.65495000  1.0 -0.5220731874
O  O22  1  0.53831000  0.07448000  0.62083000  1.0 -0.5387166925
O  O23  1  0.33840000  0.09505000  0.54210000  1.0 -0.5860025176
O  O24  1  0.27066000  0.97750000  0.57890000  1.0 -0.5220731874
O  O25  1  0.75178000  0.94948000  0.91969000  1.0 -0.5289561518
O  O26  1  0.66217000  0.06978000  0.93489000  1.0 -0.5289561518
O  O27  1  0.70977000  0.07406000  0.54105000  1.0 -0.5220731874
O  O28  1  0.79186000  0.96459000  0.58054000  1.0 -0.5220731874
