# DDEC6 charges by PACMAN v1.1 (https://github.com/mtap-research/PACMAN-charge/)
data_SENWAL_ASR_pacman
_symmetry_space_group_name_H-M   'P 1'
_cell_length_a   13.38500000
_cell_length_b   14.71200000
_cell_length_c   15.57300000
_cell_angle_alpha   90.00000000
_cell_angle_beta   90.00000000
_cell_angle_gamma   90.00000000
_symmetry_Int_Tables_number   1
_chemical_formula_structural   Zn2H3(C3O2)3
_chemical_formula_sum   'Zn8 H12 C36 O24'
_cell_volume   3066.63702876
_cell_formula_units_Z   4
loop_
 _symmetry_equiv_pos_site_id
 _symmetry_equiv_pos_as_xyz
  1  'x, y, z'
loop_
 _atom_site_type_symbol
 _atom_site_label
 _atom_site_symmetry_multiplicity
 _atom_site_fract_x
 _atom_site_fract_y
 _atom_site_fract_z
 _atom_site_occupancy
 _atom_site_charge
Zn  Zn1  1  0.78752000  0.29730000  0.20923000  1.0 0.9157870515
Zn  Zn2  1  0.71248000  0.70270000  0.70923000  1.0 0.9157870515
Zn  Zn3  1  0.21248000  0.79730000  0.29077000  1.0 0.9157870515
Zn  Zn4  1  0.28752000  0.20270000  0.79077000  1.0 0.9157870515
Zn  Zn5  1  0.95004000  0.44806000  0.09328000  1.0 1.0393580748
Zn  Zn6  1  0.54996000  0.55194000  0.59328000  1.0 1.0393580748
Zn  Zn7  1  0.04996000  0.94806000  0.40672000  1.0 1.0393580748
Zn  Zn8  1  0.45004000  0.05194000  0.90672000  1.0 1.0393580748
H  H1  1  0.09660000  0.22400000  0.00820000  1.0 0.1099794393
H  H2  1  0.40340000  0.77600000  0.50820000  1.0 0.1099794393
H  H3  1  0.90340000  0.72400000  0.49180000  1.0 0.1099794393
H  H4  1  0.59660000  0.27600000  0.99180000  1.0 0.1099794393
H  H5  1  0.24330000  0.99570000  0.07660000  1.0 0.1099794393
H  H6  1  0.25670000  0.00430000  0.57660000  1.0 0.1099794393
H  H7  1  0.75670000  0.49570000  0.42340000  1.0 0.1099794393
H  H8  1  0.74330000  0.50430000  0.92340000  1.0 0.1099794393
H  H9  1  0.01820000  0.09110000  0.22550000  1.0 0.1099794393
H  H10  1  0.48180000  0.90890000  0.72550000  1.0 0.1048887028
H  H11  1  0.98180000  0.59110000  0.27450000  1.0 0.1099794393
H  H12  1  0.51820000  0.40890000  0.77450000  1.0 0.1099794393
C  C1  1  0.04390000  0.16880000  0.11990000  1.0 -0.0700158414
C  C2  1  0.45610000  0.83120000  0.61990000  1.0 -0.0700158414
C  C3  1  0.95610000  0.66880000  0.38010000  1.0 -0.0700158414
C  C4  1  0.54390000  0.33120000  0.88010000  1.0 -0.0700158414
C  C5  1  0.10480000  0.17440000  0.04660000  1.0 -0.091662979
C  C6  1  0.39520000  0.82560000  0.54660000  1.0 -0.091662979
C  C7  1  0.89520000  0.67440000  0.45340000  1.0 -0.091662979
C  C8  1  0.60480000  0.32560000  0.95340000  1.0 -0.091662979
C  C9  1  0.17550000  0.11010000  0.02940000  1.0 -0.0700158414
C  C10  1  0.32450000  0.88990000  0.52940000  1.0 -0.0700158414
C  C11  1  0.82450000  0.61010000  0.47060000  1.0 -0.0700158414
C  C12  1  0.67550000  0.38990000  0.97060000  1.0 -0.0700158414
C  C13  1  0.19170000  0.03870000  0.08700000  1.0 -0.091662979
C  C14  1  0.30830000  0.96130000  0.58700000  1.0 -0.091662979
C  C15  1  0.80830000  0.53870000  0.41300000  1.0 -0.091662979
C  C16  1  0.69170000  0.46130000  0.91300000  1.0 -0.091662979
C  C17  1  0.13150000  0.03090000  0.16010000  1.0 -0.0700158414
C  C18  1  0.36850000  0.96910000  0.66010000  1.0 -0.0700158414
C  C19  1  0.86850000  0.53090000  0.33990000  1.0 -0.0700158414
C  C20  1  0.63150000  0.46910000  0.83990000  1.0 -0.0700158414
C  C21  1  0.05870000  0.09620000  0.17560000  1.0 -0.091662979
C  C22  1  0.44130000  0.90380000  0.67560000  1.0 -0.091662979
C  C23  1  0.94130000  0.59620000  0.32440000  1.0 -0.091662979
C  C24  1  0.55870000  0.40380000  0.82440000  1.0 -0.091662979
C  C25  1  0.96690000  0.23920000  0.13680000  1.0 0.5822365759
C  C26  1  0.53310000  0.76080000  0.63680000  1.0 0.5822365759
C  C27  1  0.03310000  0.73920000  0.36320000  1.0 0.5822365759
C  C28  1  0.46690000  0.26080000  0.86320000  1.0 0.5822365759
C  C29  1  0.23880000  0.11430000  0.95050000  1.0 0.5907736076
C  C30  1  0.26120000  0.88570000  0.45050000  1.0 0.5907736076
C  C31  1  0.76120000  0.61430000  0.54950000  1.0 0.5907736076
C  C32  1  0.73880000  0.38570000  0.04950000  1.0 0.5907736076
C  C33  1  0.14370000  0.95340000  0.22080000  1.0 0.5822365759
C  C34  1  0.35630000  0.04660000  0.72080000  1.0 0.5822365759
C  C35  1  0.85630000  0.45340000  0.27920000  1.0 0.5822365759
C  C36  1  0.64370000  0.54660000  0.77920000  1.0 0.5822365759
O  O1  1  0.90680000  0.22410000  0.19740000  1.0 -0.5711975963
O  O2  1  0.59320000  0.77590000  0.69740000  1.0 -0.5711975963
O  O3  1  0.09320000  0.72410000  0.30260000  1.0 -0.5711975963
O  O4  1  0.40680000  0.27590000  0.80260000  1.0 -0.5711975963
O  O5  1  0.96570000  0.30730000  0.08710000  1.0 -0.616537054
O  O6  1  0.53430000  0.69270000  0.58710000  1.0 -0.616537054
O  O7  1  0.03430000  0.80730000  0.41290000  1.0 -0.616537054
O  O8  1  0.46570000  0.19270000  0.91290000  1.0 -0.616537054
O  O9  1  0.22330000  0.18420000  0.90230000  1.0 -0.5827859016
O  O10  1  0.27670000  0.81580000  0.40230000  1.0 -0.5827859016
O  O11  1  0.77670000  0.68420000  0.59770000  1.0 -0.5827859016
O  O12  1  0.72330000  0.31580000  0.09770000  1.0 -0.5827859016
O  O13  1  0.30060000  0.05420000  0.93530000  1.0 -0.5827859016
O  O14  1  0.19940000  0.94580000  0.43530000  1.0 -0.5827859016
O  O15  1  0.69940000  0.55420000  0.56470000  1.0 -0.5827859016
O  O16  1  0.80060000  0.44580000  0.06470000  1.0 -0.5827859016
O  O17  1  0.21920000  0.90240000  0.21560000  1.0 -0.5711975963
O  O18  1  0.28080000  0.09760000  0.71560000  1.0 -0.5711975963
O  O19  1  0.78080000  0.40240000  0.28440000  1.0 -0.5711975963
O  O20  1  0.71920000  0.59760000  0.78440000  1.0 -0.5711975963
O  O21  1  0.07390000  0.94070000  0.27500000  1.0 -0.6295170085
O  O22  1  0.42610000  0.05930000  0.77500000  1.0 -0.6295170085
O  O23  1  0.92610000  0.44070000  0.22500000  1.0 -0.6295170085
O  O24  1  0.57390000  0.55930000  0.72500000  1.0 -0.6295170085
