# DDEC6 charges by PACMAN v1.1 (https://github.com/mtap-research/PACMAN-charge/)
data_SEQDIE_ASR_pacman
_symmetry_space_group_name_H-M   'P 1'
_cell_length_a   33.62290000
_cell_length_b   33.62290000
_cell_length_c   33.62290000
_cell_angle_alpha   146.57000000
_cell_angle_beta   146.57000000
_cell_angle_gamma   48.00070000
_symmetry_Int_Tables_number   1
_chemical_formula_structural   Zn2CuH46C54(NO6)2
_chemical_formula_sum   'Zn8 Cu4 H184 C216 N8 O48'
_cell_volume   11489.63602443
_cell_formula_units_Z   4
loop_
 _symmetry_equiv_pos_site_id
 _symmetry_equiv_pos_as_xyz
  1  'x, y, z'
loop_
 _atom_site_type_symbol
 _atom_site_label
 _atom_site_symmetry_multiplicity
 _atom_site_fract_x
 _atom_site_fract_y
 _atom_site_fract_z
 _atom_site_occupancy
 _atom_site_charge
Zn  Zn1  1  0.87756000  0.70373000  0.82617000  1.0 0.7625046598
Zn  Zn2  1  0.87756000  0.05139000  0.17383000  1.0 0.7625046598
Zn  Zn3  1  0.45373000  0.12756000  0.32617000  1.0 0.7625046598
Zn  Zn4  1  0.80139000  0.12756000  0.67383000  1.0 0.7625046598
Zn  Zn5  1  0.87244000  0.54627000  0.67383000  1.0 0.7625046598
Zn  Zn6  1  0.87244000  0.19861000  0.32617000  1.0 0.7625046598
Zn  Zn7  1  0.94861000  0.12244000  0.82617000  1.0 0.7625046598
Zn  Zn8  1  0.29627000  0.12244000  0.17383000  1.0 0.7625046598
Cu  Cu1  1  0.27149000  0.77149000  0.50000000  1.0 0.8595118599
Cu  Cu2  1  0.52149000  0.52149000  0.00000000  1.0 0.8595118599
Cu  Cu3  1  0.47851000  0.47851000  0.00000000  1.0 0.8595118599
Cu  Cu4  1  0.22851000  0.72851000  0.50000000  1.0 0.8595118599
H  H1  1  0.68115000  0.69315000  0.71948000  1.0 0.1188911428
H  H2  1  0.58176000  0.67672000  0.66398000  1.0 0.1188911428
H  H3  1  0.57434000  0.46398000  0.46444000  1.0 0.1188911428
H  H4  1  0.67277000  0.48020000  0.51815000  1.0 0.1302910333
H  H5  1  0.45695000  0.64691000  0.54158000  1.0 0.1302910333
H  H6  1  0.96580000  0.84826000  0.00638000  1.0 0.0902703175
H  H7  1  0.98463000  0.82619000  0.04726000  1.0 0.0783461999
H  H8  1  0.88812000  0.79096000  0.98402000  1.0 0.0902703175
H  H9  1  0.86671000  0.85048000  0.90261000  1.0 0.0902703175
H  H10  1  0.79464000  0.79456000  0.88654000  1.0 0.0990118376
H  H11  1  0.77300000  0.81617000  0.84329000  1.0 0.0783461999
H  H12  1  0.97367000  0.96167000  0.28052000  1.0 0.1188911428
H  H13  1  0.01274000  0.91778000  0.33602000  1.0 0.1188911428
H  H14  1  0.99953000  0.10990000  0.53556000  1.0 0.1188911428
H  H15  1  0.96205000  0.15462000  0.48185000  1.0 0.1302910333
H  H16  1  0.10533000  0.91537000  0.45842000  1.0 0.1302910333
H  H17  1  0.84188000  0.95942000  0.99362000  1.0 0.0902703175
H  H18  1  0.77893000  0.93737000  0.95274000  1.0 0.0783461999
H  H19  1  0.80694000  0.90410000  0.01598000  1.0 0.0990118376
H  H20  1  0.94787000  0.96410000  0.09739000  1.0 0.0902703175
H  H21  1  0.90802000  0.90810000  0.11346000  1.0 0.0990118376
H  H22  1  0.97288000  0.92971000  0.15671000  1.0 0.0783461999
H  H23  1  0.44315000  0.22367000  0.51200000  1.0 0.1188911428
H  H24  1  0.42672000  0.26274000  0.59496000  1.0 0.1188911428
H  H25  1  0.21398000  0.24954000  0.38964000  1.0 0.1188911428
H  H26  1  0.23020000  0.21205000  0.30743000  1.0 0.1302910333
H  H27  1  0.39691000  0.35533000  0.68996000  1.0 0.1302910333
H  H28  1  0.59826000  0.09188000  0.38246000  1.0 0.0902703175
H  H29  1  0.57619000  0.02893000  0.34156000  1.0 0.0783461999
H  H30  1  0.54096000  0.05694000  0.40284000  1.0 0.0990118376
H  H31  1  0.60048000  0.19787000  0.48377000  1.0 0.0902703175
H  H32  1  0.54456000  0.15802000  0.49992000  1.0 0.0990118376
H  H33  1  0.56617000  0.22288000  0.54317000  1.0 0.0783461999
H  H34  1  0.71167000  0.93115000  0.48800000  1.0 0.1188911428
H  H35  1  0.66778000  0.83176000  0.40504000  1.0 0.1188911428
H  H36  1  0.85990000  0.82434000  0.61037000  1.0 0.1188911428
H  H37  1  0.90462000  0.92277000  0.69257000  1.0 0.1302910333
H  H38  1  0.66537000  0.70695000  0.31004000  1.0 0.1302910333
H  H39  1  0.70942000  0.21580000  0.61754000  1.0 0.0902703175
H  H40  1  0.68737000  0.23463000  0.65844000  1.0 0.0783461999
H  H41  1  0.65410000  0.13812000  0.59716000  1.0 0.0990118376
H  H42  1  0.71410000  0.11671000  0.51623000  1.0 0.0902703175
H  H43  1  0.65810000  0.04464000  0.50008000  1.0 0.0990118376
H  H44  1  0.67971000  0.02300000  0.45683000  1.0 0.0783461999
H  H45  1  0.77633000  0.55685000  0.48800000  1.0 0.1188911428
H  H46  1  0.73726000  0.57328000  0.40504000  1.0 0.1188911428
H  H47  1  0.75047000  0.78602000  0.61037000  1.0 0.1188911428
H  H48  1  0.78795000  0.76980000  0.69257000  1.0 0.1302910333
H  H49  1  0.64467000  0.60309000  0.31004000  1.0 0.1302910333
H  H50  1  0.90812000  0.40174000  0.61754000  1.0 0.0902703175
H  H51  1  0.97107000  0.42381000  0.65844000  1.0 0.0783461999
H  H52  1  0.94306000  0.45904000  0.59716000  1.0 0.0990118376
H  H53  1  0.80213000  0.39952000  0.51623000  1.0 0.0902703175
H  H54  1  0.84198000  0.45544000  0.50008000  1.0 0.0990118376
H  H55  1  0.77712000  0.43383000  0.45683000  1.0 0.0783461999
H  H56  1  0.06885000  0.28833000  0.51200000  1.0 0.1188911428
H  H57  1  0.16824000  0.33222000  0.59496000  1.0 0.1188911428
H  H58  1  0.17566000  0.14010000  0.38964000  1.0 0.1188911428
H  H59  1  0.07723000  0.09538000  0.30743000  1.0 0.1302910333
H  H60  1  0.29305000  0.33463000  0.68996000  1.0 0.1302910333
H  H61  1  0.78420000  0.29058000  0.38246000  1.0 0.0902703175
H  H62  1  0.76537000  0.31263000  0.34156000  1.0 0.0783461999
H  H63  1  0.86188000  0.34590000  0.40284000  1.0 0.0902703175
H  H64  1  0.88329000  0.28590000  0.48377000  1.0 0.0902703175
H  H65  1  0.95536000  0.34190000  0.49992000  1.0 0.0990118376
H  H66  1  0.97700000  0.32029000  0.54317000  1.0 0.0783461999
H  H67  1  0.03833000  0.02633000  0.71948000  1.0 0.1188911428
H  H68  1  0.08222000  0.98726000  0.66398000  1.0 0.1188911428
H  H69  1  0.89010000  0.00046000  0.46444000  1.0 0.1188911428
H  H70  1  0.84538000  0.03795000  0.51815000  1.0 0.1302910333
H  H71  1  0.08463000  0.89467000  0.54158000  1.0 0.1302910333
H  H72  1  0.04058000  0.15812000  0.00638000  1.0 0.0902703175
H  H73  1  0.06263000  0.22107000  0.04726000  1.0 0.0783461999
H  H74  1  0.09590000  0.19306000  0.98402000  1.0 0.0990118376
H  H75  1  0.03590000  0.05213000  0.90261000  1.0 0.0902703175
H  H76  1  0.09190000  0.09198000  0.88654000  1.0 0.0990118376
H  H77  1  0.07029000  0.02712000  0.84329000  1.0 0.0783461999
H  H78  1  0.30685000  0.31885000  0.28052000  1.0 0.1188911428
H  H79  1  0.32328000  0.41824000  0.33602000  1.0 0.1188911428
H  H80  1  0.53602000  0.42566000  0.53556000  1.0 0.1188911428
H  H81  1  0.51980000  0.32723000  0.48185000  1.0 0.1302910333
H  H82  1  0.35309000  0.54305000  0.45842000  1.0 0.1302910333
H  H83  1  0.15174000  0.03420000  0.99362000  1.0 0.0902703175
H  H84  1  0.17381000  0.01537000  0.95274000  1.0 0.0783461999
H  H85  1  0.20904000  0.11188000  0.01598000  1.0 0.0990118376
H  H86  1  0.14952000  0.13329000  0.09739000  1.0 0.0902703175
H  H87  1  0.20544000  0.20536000  0.11346000  1.0 0.0990118376
H  H88  1  0.18383000  0.22700000  0.15671000  1.0 0.0783461999
H  H89  1  0.06885000  0.55685000  0.78052000  1.0 0.1188911428
H  H90  1  0.16824000  0.57328000  0.83602000  1.0 0.1188911428
H  H91  1  0.17566000  0.78602000  0.03556000  1.0 0.1188911428
H  H92  1  0.07723000  0.76980000  0.98185000  1.0 0.1302910333
H  H93  1  0.29305000  0.60309000  0.95842000  1.0 0.1302910333
H  H94  1  0.78420000  0.40174000  0.49362000  1.0 0.0902703175
H  H95  1  0.76537000  0.42381000  0.45274000  1.0 0.0783461999
H  H96  1  0.86188000  0.45904000  0.51598000  1.0 0.0990118376
H  H97  1  0.88329000  0.39952000  0.59739000  1.0 0.0902703175
H  H98  1  0.95536000  0.45544000  0.61346000  1.0 0.0990118376
H  H99  1  0.97700000  0.43383000  0.65671000  1.0 0.0783461999
H  H100  1  0.77633000  0.28833000  0.21948000  1.0 0.1188911428
H  H101  1  0.73726000  0.33222000  0.16398000  1.0 0.1188911428
H  H102  1  0.75047000  0.14010000  0.96444000  1.0 0.1188911428
H  H103  1  0.78795000  0.09538000  0.01815000  1.0 0.1302910333
H  H104  1  0.64467000  0.33463000  0.04158000  1.0 0.1302910333
H  H105  1  0.90812000  0.29058000  0.50638000  1.0 0.0902703175
H  H106  1  0.97107000  0.31263000  0.54726000  1.0 0.0783461999
H  H107  1  0.94306000  0.34590000  0.48402000  1.0 0.0990118376
H  H108  1  0.80213000  0.28590000  0.40261000  1.0 0.0902703175
H  H109  1  0.84198000  0.34190000  0.38654000  1.0 0.0990118376
H  H110  1  0.77712000  0.32029000  0.34329000  1.0 0.0783461999
H  H111  1  0.30685000  0.02633000  0.98800000  1.0 0.1188911428
H  H112  1  0.32328000  0.98726000  0.90504000  1.0 0.1188911428
H  H113  1  0.53602000  0.00046000  0.11036000  1.0 0.1188911428
H  H114  1  0.51980000  0.03795000  0.19257000  1.0 0.1302910333
H  H115  1  0.35309000  0.89467000  0.81004000  1.0 0.1302910333
H  H116  1  0.15174000  0.15812000  0.11754000  1.0 0.0902703175
H  H117  1  0.17381000  0.22107000  0.15844000  1.0 0.0783461999
H  H118  1  0.20904000  0.19306000  0.09716000  1.0 0.0990118376
H  H119  1  0.14952000  0.05213000  0.01623000  1.0 0.0902703175
H  H120  1  0.20544000  0.09198000  0.00008000  1.0 0.0990118376
H  H121  1  0.18383000  0.02712000  0.95683000  1.0 0.0783461999
H  H122  1  0.03833000  0.31885000  0.01200000  1.0 0.1188911428
H  H123  1  0.08222000  0.41824000  0.09496000  1.0 0.1188911428
H  H124  1  0.89010000  0.42565000  0.88963000  1.0 0.1188911428
H  H125  1  0.84538000  0.32723000  0.80743000  1.0 0.1302910333
H  H126  1  0.08463000  0.54305000  0.18996000  1.0 0.1302910333
H  H127  1  0.04058000  0.03420000  0.88246000  1.0 0.0902703175
H  H128  1  0.06263000  0.01537000  0.84156000  1.0 0.0783461999
H  H129  1  0.09590000  0.11188000  0.90284000  1.0 0.0990118376
H  H130  1  0.03590000  0.13329000  0.98377000  1.0 0.0902703175
H  H131  1  0.09190000  0.20536000  0.99992000  1.0 0.0990118376
H  H132  1  0.07029000  0.22700000  0.04317000  1.0 0.0783461999
H  H133  1  0.97367000  0.69315000  0.01200000  1.0 0.1188911428
H  H134  1  0.01274000  0.67672000  0.09496000  1.0 0.1188911428
H  H135  1  0.99954000  0.46398000  0.88963000  1.0 0.1188911428
H  H136  1  0.96205000  0.48020000  0.80743000  1.0 0.1302910333
H  H137  1  0.10533000  0.64691000  0.18996000  1.0 0.1302910333
H  H138  1  0.84188000  0.84826000  0.88246000  1.0 0.0902703175
H  H139  1  0.77893000  0.82619000  0.84156000  1.0 0.0783461999
H  H140  1  0.80694000  0.79096000  0.90284000  1.0 0.0902703175
H  H141  1  0.94787000  0.85048000  0.98377000  1.0 0.0902703175
H  H142  1  0.90802000  0.79456000  0.99992000  1.0 0.0990118376
H  H143  1  0.97288000  0.81617000  0.04317000  1.0 0.0783461999
H  H144  1  0.68115000  0.96167000  0.98800000  1.0 0.1188911428
H  H145  1  0.58176000  0.91778000  0.90504000  1.0 0.1188911428
H  H146  1  0.57434000  0.10990000  0.11036000  1.0 0.1188911428
H  H147  1  0.67277000  0.15462000  0.19257000  1.0 0.1302910333
H  H148  1  0.45695000  0.91537000  0.81004000  1.0 0.1302910333
H  H149  1  0.96580000  0.95942000  0.11754000  1.0 0.0902703175
H  H150  1  0.98463000  0.93737000  0.15844000  1.0 0.0783461999
H  H151  1  0.88812000  0.90410000  0.09716000  1.0 0.0902703175
H  H152  1  0.86671000  0.96410000  0.01623000  1.0 0.0902703175
H  H153  1  0.79464000  0.90810000  0.00008000  1.0 0.0990118376
H  H154  1  0.77300000  0.92971000  0.95683000  1.0 0.0783461999
H  H155  1  0.71167000  0.22367000  0.78052000  1.0 0.1188911428
H  H156  1  0.66778000  0.26274000  0.83602000  1.0 0.1188911428
H  H157  1  0.85990000  0.24954000  0.03556000  1.0 0.1188911428
H  H158  1  0.90462000  0.21205000  0.98185000  1.0 0.1302910333
H  H159  1  0.66537000  0.35533000  0.95842000  1.0 0.1302910333
H  H160  1  0.70942000  0.09188000  0.49362000  1.0 0.0902703175
H  H161  1  0.68737000  0.02893000  0.45274000  1.0 0.0783461999
H  H162  1  0.65410000  0.05694000  0.51598000  1.0 0.0990118376
H  H163  1  0.71410000  0.19787000  0.59739000  1.0 0.0902703175
H  H164  1  0.65810000  0.15802000  0.61346000  1.0 0.0990118376
H  H165  1  0.67971000  0.22288000  0.65671000  1.0 0.0783461999
H  H166  1  0.44315000  0.93115000  0.21948000  1.0 0.1188911428
H  H167  1  0.42672000  0.83176000  0.16398000  1.0 0.1188911428
H  H168  1  0.21398000  0.82434000  0.96444000  1.0 0.1188911428
H  H169  1  0.23020000  0.92277000  0.01815000  1.0 0.1302910333
H  H170  1  0.39691000  0.70695000  0.04158000  1.0 0.1302910333
H  H171  1  0.59826000  0.21580000  0.50638000  1.0 0.0902703175
H  H172  1  0.57619000  0.23463000  0.54726000  1.0 0.0783461999
H  H173  1  0.54096000  0.13812000  0.48402000  1.0 0.0990118376
H  H174  1  0.60048000  0.11671000  0.40261000  1.0 0.0902703175
H  H175  1  0.54456000  0.04464000  0.38654000  1.0 0.0990118376
H  H176  1  0.56617000  0.02300000  0.34329000  1.0 0.0783461999
H  H177  1  0.53093000  0.46907000  0.50000000  1.0 0.1188911428
H  H178  1  0.96907000  0.03093000  0.50000000  1.0 0.1188911428
H  H179  1  0.21907000  0.21907000  0.43814000  1.0 0.1188911428
H  H180  1  0.78093000  0.78093000  0.56186000  1.0 0.1188911428
H  H181  1  0.21907000  0.78093000  0.00000000  1.0 0.1188911428
H  H182  1  0.78093000  0.21907000  0.00000000  1.0 0.1188911428
H  H183  1  0.53093000  0.03093000  0.06186000  1.0 0.1188911428
H  H184  1  0.96907000  0.46907000  0.93814000  1.0 0.1188911428
C  C1  1  0.75421000  0.59877000  0.66388000  1.0 0.5575591999
C  C2  1  0.68830000  0.58843000  0.62607000  1.0 -0.0184512452
C  C3  1  0.66015000  0.64655000  0.66812000  1.0 -0.1094717903
C  C4  1  0.60028000  0.63642000  0.63454000  1.0 -0.1502172767
C  C5  1  0.56778000  0.56878000  0.55942000  1.0 0.0783461999
C  C6  1  0.59568000  0.51054000  0.51626000  1.0 -0.1502172767
C  C7  1  0.65505000  0.52026000  0.54881000  1.0 -0.1094717903
C  C8  1  0.45350000  0.60911000  0.52545000  1.0 -0.165472172
C  C9  1  0.50516000  0.55969000  0.52733000  1.0 0.0734336357
C  C10  1  0.95034000  0.84994000  0.02240000  1.0 -0.1277799924
C  C11  1  0.80852000  0.82602000  0.90210000  1.0 -0.1277799924
C  C12  1  0.93489000  0.09033000  0.33612000  1.0 0.5575591999
C  C13  1  0.96236000  0.06223000  0.37393000  1.0 -0.0184512452
C  C14  1  0.97843000  0.99203000  0.33188000  1.0 -0.1094717903
C  C15  1  0.00188000  0.96574000  0.36546000  1.0 -0.1502172767
C  C16  1  0.00936000  0.00836000  0.44058000  1.0 0.0783461999
C  C17  1  0.99428000  0.07942000  0.48374000  1.0 -0.1502172767
C  C18  1  0.97145000  0.10624000  0.45119000  1.0 -0.1094717903
C  C19  1  0.08366000  0.92805000  0.47455000  1.0 -0.1646971328
C  C20  1  0.03236000  0.97783000  0.47267000  1.0 0.0734336357
C  C21  1  0.82754000  0.92794000  0.97760000  1.0 -0.1277799924
C  C22  1  0.92392000  0.90642000  0.09790000  1.0 -0.1277799924
C  C23  1  0.34877000  0.18489000  0.34456000  1.0 0.5575591999
C  C24  1  0.33843000  0.21236000  0.40013000  1.0 -0.0184512452
C  C25  1  0.39655000  0.22843000  0.48640000  1.0 -0.1094717903
C  C26  1  0.38642000  0.25188000  0.53614000  1.0 -0.1502172767
C  C27  1  0.31878000  0.25936000  0.50100000  1.0 0.0783461999
C  C28  1  0.26054000  0.24428000  0.41486000  1.0 -0.1502172767
C  C29  1  0.27026000  0.22145000  0.36521000  1.0 -0.1094717903
C  C30  1  0.35911000  0.33366000  0.65561000  1.0 -0.1646971328
C  C31  1  0.30969000  0.28236000  0.55453000  1.0 0.0734336357
C  C32  1  0.59994000  0.07754000  0.39960000  1.0 -0.1277799924
C  C33  1  0.57602000  0.17392000  0.51750000  1.0 -0.1277799924
C  C34  1  0.84033000  0.00421000  0.65544000  1.0 0.5575591999
C  C35  1  0.81223000  0.93830000  0.59987000  1.0 -0.0184512452
C  C36  1  0.74203000  0.91015000  0.51360000  1.0 -0.1094717903
C  C37  1  0.71574000  0.85028000  0.46386000  1.0 -0.1502172767
C  C38  1  0.75836000  0.81778000  0.49900000  1.0 0.0783461999
C  C39  1  0.82942000  0.84568000  0.58514000  1.0 -0.1502172767
C  C40  1  0.85624000  0.90505000  0.63479000  1.0 -0.1094717903
C  C41  1  0.67805000  0.70350000  0.34439000  1.0 -0.1646971328
C  C42  1  0.72783000  0.75516000  0.44547000  1.0 0.0734336357
C  C43  1  0.67794000  0.20034000  0.60040000  1.0 -0.1277799924
C  C44  1  0.65642000  0.05852000  0.48250000  1.0 -0.1277799924
C  C45  1  0.81511000  0.65123000  0.65544000  1.0 0.5575591999
C  C46  1  0.78764000  0.66157000  0.59987000  1.0 -0.0184512452
C  C47  1  0.77157000  0.60345000  0.51360000  1.0 -0.1094717903
C  C48  1  0.74812000  0.61358000  0.46386000  1.0 -0.1502172767
C  C49  1  0.74064000  0.68122000  0.49900000  1.0 0.0783461999
C  C50  1  0.75572000  0.73946000  0.58514000  1.0 -0.1502172767
C  C51  1  0.77855000  0.72974000  0.63479000  1.0 -0.1094717903
C  C52  1  0.66634000  0.64089000  0.34439000  1.0 -0.1646971328
C  C53  1  0.71764000  0.69031000  0.44547000  1.0 0.0734336357
C  C54  1  0.92246000  0.40006000  0.60040000  1.0 -0.1277799924
C  C55  1  0.82608000  0.42398000  0.48250000  1.0 -0.1277799924
C  C56  1  0.99579000  0.15967000  0.34456000  1.0 0.5575591999
C  C57  1  0.06170000  0.18777000  0.40013000  1.0 -0.0184512452
C  C58  1  0.08985000  0.25797000  0.48640000  1.0 -0.1094717903
C  C59  1  0.14972000  0.28426000  0.53614000  1.0 -0.1502172767
C  C60  1  0.18222000  0.24164000  0.50100000  1.0 0.0783461999
C  C61  1  0.15432000  0.17058000  0.41486000  1.0 -0.1502172767
C  C62  1  0.09495000  0.14376000  0.36521000  1.0 -0.1094717903
C  C63  1  0.29650000  0.32195000  0.65561000  1.0 -0.1646971328
C  C64  1  0.24484000  0.27217000  0.55453000  1.0 0.0734336357
C  C65  1  0.79966000  0.32206000  0.39960000  1.0 -0.1277799924
C  C66  1  0.94148000  0.34358000  0.51750000  1.0 -0.1277799924
C  C67  1  0.90967000  0.06511000  0.66388000  1.0 0.5575591999
C  C68  1  0.93777000  0.03764000  0.62607000  1.0 -0.0184512452
C  C69  1  0.00797000  0.02157000  0.66812000  1.0 -0.1094717903
C  C70  1  0.03426000  0.99812000  0.63454000  1.0 -0.1502172767
C  C71  1  0.99164000  0.99064000  0.55942000  1.0 0.0783461999
C  C72  1  0.92058000  0.00572000  0.51626000  1.0 -0.1502172767
C  C73  1  0.89376000  0.02855000  0.54881000  1.0 -0.1094717903
C  C74  1  0.07195000  0.91634000  0.52545000  1.0 -0.165472172
C  C75  1  0.02217000  0.96764000  0.52733000  1.0 0.0734336357
C  C76  1  0.07206000  0.17246000  0.02240000  1.0 -0.1277799924
C  C77  1  0.09358000  0.07608000  0.90210000  1.0 -0.1277799924
C  C78  1  0.40123000  0.24579000  0.33612000  1.0 0.5575591999
C  C79  1  0.41157000  0.31170000  0.37393000  1.0 -0.0184512452
C  C80  1  0.35345000  0.33985000  0.33188000  1.0 -0.1094717903
C  C81  1  0.36358000  0.39972000  0.36546000  1.0 -0.1502172767
C  C82  1  0.43122000  0.43222000  0.44058000  1.0 0.0783461999
C  C83  1  0.48946000  0.40432000  0.48374000  1.0 -0.1502172767
C  C84  1  0.47974000  0.34495000  0.45119000  1.0 -0.1094717903
C  C85  1  0.39089000  0.54650000  0.47455000  1.0 -0.165472172
C  C86  1  0.44031000  0.49484000  0.47267000  1.0 0.0734336357
C  C87  1  0.15006000  0.04966000  0.97760000  1.0 -0.1277799924
C  C88  1  0.17398000  0.19148000  0.09790000  1.0 -0.1277799924
C  C89  1  0.99579000  0.65123000  0.83612000  1.0 0.5575591999
C  C90  1  0.06170000  0.66157000  0.87393000  1.0 -0.0184512452
C  C91  1  0.08985000  0.60345000  0.83188000  1.0 -0.1094717903
C  C92  1  0.14972000  0.61358000  0.86546000  1.0 -0.1502172767
C  C93  1  0.18222000  0.68122000  0.94058000  1.0 0.0783461999
C  C94  1  0.15432000  0.73946000  0.98374000  1.0 -0.1502172767
C  C95  1  0.09495000  0.72974000  0.95119000  1.0 -0.1094717903
C  C96  1  0.29650000  0.64089000  0.97455000  1.0 -0.165472172
C  C97  1  0.24484000  0.69031000  0.97267000  1.0 0.0734336357
C  C98  1  0.79966000  0.40006000  0.47760000  1.0 -0.1277799924
C  C99  1  0.94148000  0.42398000  0.59790000  1.0 -0.1277799924
C  C100  1  0.81511000  0.15967000  0.16388000  1.0 0.5575591999
C  C101  1  0.78764000  0.18777000  0.12607000  1.0 -0.0184512452
C  C102  1  0.77157000  0.25797000  0.16812000  1.0 -0.1094717903
C  C103  1  0.74812000  0.28426000  0.13454000  1.0 -0.1502172767
C  C104  1  0.74064000  0.24164000  0.05942000  1.0 0.0783461999
C  C105  1  0.75572000  0.17058000  0.01626000  1.0 -0.1502172767
C  C106  1  0.77855000  0.14376000  0.04881000  1.0 -0.1094717903
C  C107  1  0.66634000  0.32195000  0.02545000  1.0 -0.1646971328
C  C108  1  0.71764000  0.27217000  0.02733000  1.0 0.0734336357
C  C109  1  0.92246000  0.32206000  0.52240000  1.0 -0.1277799924
C  C110  1  0.82608000  0.34358000  0.40210000  1.0 -0.1277799924
C  C111  1  0.40123000  0.06511000  0.15544000  1.0 0.5575591999
C  C112  1  0.41157000  0.03764000  0.09987000  1.0 -0.0184512452
C  C113  1  0.35345000  0.02157000  0.01360000  1.0 -0.1094717903
C  C114  1  0.36358000  0.99812000  0.96386000  1.0 -0.1502172767
C  C115  1  0.43122000  0.99064000  0.99900000  1.0 0.0783461999
C  C116  1  0.48946000  0.00572000  0.08514000  1.0 -0.1502172767
C  C117  1  0.47974000  0.02855000  0.13479000  1.0 -0.1094717903
C  C118  1  0.39089000  0.91634000  0.84439000  1.0 -0.1646971328
C  C119  1  0.44031000  0.96764000  0.94547000  1.0 0.0734336357
C  C120  1  0.15006000  0.17246000  0.10040000  1.0 -0.1277799924
C  C121  1  0.17398000  0.07608000  0.98250000  1.0 -0.1277799924
C  C122  1  0.90967000  0.24579000  0.84456000  1.0 0.5575591999
C  C123  1  0.93777000  0.31170000  0.90013000  1.0 -0.0184512452
C  C124  1  0.00797000  0.33985000  0.98640000  1.0 -0.1094717903
C  C125  1  0.03426000  0.39972000  0.03614000  1.0 -0.1502172767
C  C126  1  0.99164000  0.43222000  0.00100000  1.0 0.0783461999
C  C127  1  0.92058000  0.40432000  0.91486000  1.0 -0.1502172767
C  C128  1  0.89376000  0.34495000  0.86521000  1.0 -0.1094717903
C  C129  1  0.07195000  0.54650000  0.15561000  1.0 -0.1646971328
C  C130  1  0.02217000  0.49484000  0.05453000  1.0 0.0734336357
C  C131  1  0.07206000  0.04966000  0.89960000  1.0 -0.1277799924
C  C132  1  0.09358000  0.19148000  0.01750000  1.0 -0.1277799924
C  C133  1  0.93489000  0.59877000  0.84456000  1.0 0.5575591999
C  C134  1  0.96236000  0.58843000  0.90013000  1.0 -0.0184512452
C  C135  1  0.97843000  0.64655000  0.98640000  1.0 -0.1094717903
C  C136  1  0.00188000  0.63642000  0.03614000  1.0 -0.1502172767
C  C137  1  0.00936000  0.56878000  0.00100000  1.0 0.0783461999
C  C138  1  0.99428000  0.51054000  0.91486000  1.0 -0.1502172767
C  C139  1  0.97145000  0.52026000  0.86521000  1.0 -0.1094717903
C  C140  1  0.08366000  0.60911000  0.15561000  1.0 -0.1646971328
C  C141  1  0.03236000  0.55969000  0.05453000  1.0 0.0734336357
C  C142  1  0.82754000  0.84994000  0.89960000  1.0 -0.1277799924
C  C143  1  0.92392000  0.82602000  0.01750000  1.0 -0.1277799924
C  C144  1  0.75421000  0.09033000  0.15544000  1.0 0.5575591999
C  C145  1  0.68830000  0.06223000  0.09987000  1.0 -0.0184512452
C  C146  1  0.66015000  0.99203000  0.01360000  1.0 -0.1094717903
C  C147  1  0.60028000  0.96574000  0.96386000  1.0 -0.1502172767
C  C148  1  0.56778000  0.00836000  0.99900000  1.0 0.0783461999
C  C149  1  0.59568000  0.07942000  0.08514000  1.0 -0.1502172767
C  C150  1  0.65505000  0.10624000  0.13479000  1.0 -0.1094717903
C  C151  1  0.45350000  0.92805000  0.84439000  1.0 -0.1646971328
C  C152  1  0.50516000  0.97783000  0.94547000  1.0 0.0734336357
C  C153  1  0.95034000  0.92794000  0.10040000  1.0 -0.1277799924
C  C154  1  0.80852000  0.90642000  0.98250000  1.0 -0.1277799924
C  C155  1  0.84033000  0.18489000  0.83612000  1.0 0.5575591999
C  C156  1  0.81223000  0.21236000  0.87393000  1.0 -0.0184512452
C  C157  1  0.74203000  0.22843000  0.83188000  1.0 -0.1094717903
C  C158  1  0.71574000  0.25188000  0.86546000  1.0 -0.1502172767
C  C159  1  0.75836000  0.25936000  0.94058000  1.0 0.0783461999
C  C160  1  0.82942000  0.24428000  0.98374000  1.0 -0.1502172767
C  C161  1  0.85624000  0.22145000  0.95119000  1.0 -0.1094717903
C  C162  1  0.67805000  0.33366000  0.97455000  1.0 -0.1646971328
C  C163  1  0.72783000  0.28236000  0.97267000  1.0 0.0734336357
C  C164  1  0.67794000  0.07754000  0.47760000  1.0 -0.1277799924
C  C165  1  0.65642000  0.17392000  0.59790000  1.0 -0.1277799924
C  C166  1  0.34877000  0.00421000  0.16388000  1.0 0.5575591999
C  C167  1  0.33843000  0.93830000  0.12607000  1.0 -0.0184512452
C  C168  1  0.39655000  0.91015000  0.16812000  1.0 -0.1094717903
C  C169  1  0.38642000  0.85028000  0.13454000  1.0 -0.1502172767
C  C170  1  0.31878000  0.81778000  0.05942000  1.0 0.0734336357
C  C171  1  0.26054000  0.84568000  0.01626000  1.0 -0.1502172767
C  C172  1  0.27026000  0.90505000  0.04881000  1.0 -0.1094717903
C  C173  1  0.35911000  0.70350000  0.02545000  1.0 -0.165472172
C  C174  1  0.30969000  0.75516000  0.02733000  1.0 0.0734336357
C  C175  1  0.59994000  0.20034000  0.52240000  1.0 -0.1277799924
C  C176  1  0.57602000  0.05852000  0.40210000  1.0 -0.1277799924
C  C177  1  0.85516000  0.81536000  0.96020000  1.0 -0.1094717903
C  C178  1  0.89965000  0.85955000  0.95990000  1.0 -0.1246009541
C  C179  1  0.85516000  0.89496000  0.03980000  1.0 -0.1094717903
C  C180  1  0.89965000  0.93975000  0.04010000  1.0 -0.1246009541
C  C181  1  0.56536000  0.10516000  0.46020000  1.0 -0.1094717903
C  C182  1  0.60955000  0.14965000  0.45990000  1.0 -0.1246009541
C  C183  1  0.64496000  0.10516000  0.53980000  1.0 -0.1094717903
C  C184  1  0.68975000  0.14965000  0.54010000  1.0 -0.1246009541
C  C185  1  0.89484000  0.43464000  0.53980000  1.0 -0.1094717903
C  C186  1  0.85035000  0.39045000  0.54010000  1.0 -0.1246009541
C  C187  1  0.89484000  0.35504000  0.46020000  1.0 -0.1094717903
C  C188  1  0.85035000  0.31025000  0.45990000  1.0 -0.1246009541
C  C189  1  0.10504000  0.14484000  0.96020000  1.0 -0.1094717903
C  C190  1  0.06025000  0.10035000  0.95990000  1.0 -0.1277799924
C  C191  1  0.18464000  0.14484000  0.03980000  1.0 -0.1094717903
C  C192  1  0.14045000  0.10035000  0.04010000  1.0 -0.1277799924
C  C193  1  0.34215000  0.65785000  0.50000000  1.0 0.5817357379
C  C194  1  0.39695000  0.60305000  0.50000000  1.0 -0.0087632395
C  C195  1  0.49693000  0.50307000  0.50000000  1.0 -0.1814965398
C  C196  1  0.15785000  0.84215000  0.50000000  1.0 0.5817357379
C  C197  1  0.10305000  0.89695000  0.50000000  1.0 -0.0087632395
C  C198  1  0.00307000  0.99693000  0.50000000  1.0 -0.1814965398
C  C199  1  0.40785000  0.40785000  0.81570000  1.0 0.5817357379
C  C200  1  0.35305000  0.35305000  0.70610000  1.0 -0.0087632395
C  C201  1  0.25307000  0.25307000  0.50614000  1.0 -0.1814965398
C  C202  1  0.59215000  0.59215000  0.18430000  1.0 0.5817357379
C  C203  1  0.64695000  0.64695000  0.29390000  1.0 -0.0087632395
C  C204  1  0.74693000  0.74693000  0.49386000  1.0 -0.1814965398
C  C205  1  0.40785000  0.59215000  0.00000000  1.0 0.5817357379
C  C206  1  0.35305000  0.64695000  0.00000000  1.0 -0.0087632395
C  C207  1  0.25307000  0.74693000  0.00000000  1.0 -0.1814965398
C  C208  1  0.59215000  0.40785000  0.00000000  1.0 0.5817357379
C  C209  1  0.64695000  0.35305000  0.00000000  1.0 -0.0087632395
C  C210  1  0.74693000  0.25307000  0.00000000  1.0 -0.1814965398
C  C211  1  0.34215000  0.84215000  0.68430000  1.0 0.5817357379
C  C212  1  0.39695000  0.89695000  0.79390000  1.0 -0.0087632395
C  C213  1  0.49693000  0.99693000  0.99386000  1.0 -0.1814965398
C  C214  1  0.15785000  0.65785000  0.31570000  1.0 0.5817357379
C  C215  1  0.10305000  0.60305000  0.20610000  1.0 -0.0087632395
C  C216  1  0.00307000  0.50307000  0.00614000  1.0 -0.1814965398
N  N1  1  0.87767000  0.81073000  0.93306000  1.0 -0.0877489837
N  N2  1  0.87767000  0.94461000  0.06694000  1.0 -0.0877489837
N  N3  1  0.56073000  0.12767000  0.43306000  1.0 -0.0877489837
N  N4  1  0.69461000  0.12767000  0.56694000  1.0 -0.0877489837
N  N5  1  0.87233000  0.43927000  0.56694000  1.0 -0.0877489837
N  N6  1  0.87233000  0.30539000  0.43306000  1.0 -0.0877489837
N  N7  1  0.05539000  0.12233000  0.93306000  1.0 -0.0877489837
N  N8  1  0.18927000  0.12233000  0.06694000  1.0 -0.0877489837
O  O1  1  0.78185000  0.66230000  0.73577000  1.0 -0.5433769745
O  O2  1  0.77755000  0.54392000  0.62255000  1.0 -0.5302928758
O  O3  1  0.33952000  0.69754000  0.50076000  1.0 -0.5173658801
O  O4  1  0.92653000  0.04608000  0.26423000  1.0 -0.5433769745
O  O5  1  0.92137000  0.15500000  0.37745000  1.0 -0.5302928758
O  O6  1  0.19678000  0.83876000  0.49924000  1.0 -0.5173658801
O  O7  1  0.41230000  0.17653000  0.38045000  1.0 -0.5433769745
O  O8  1  0.29392000  0.17137000  0.26637000  1.0 -0.5302928758
O  O9  1  0.44754000  0.44678000  0.85802000  1.0 -0.5173658801
O  O10  1  0.79608000  0.03185000  0.61955000  1.0 -0.5433769745
O  O11  1  0.90500000  0.02755000  0.73363000  1.0 -0.5302928758
O  O12  1  0.58876000  0.58952000  0.14198000  1.0 -0.5173658801
O  O13  1  0.82347000  0.58770000  0.61955000  1.0 -0.5433769745
O  O14  1  0.82863000  0.70608000  0.73363000  1.0 -0.5302928758
O  O15  1  0.55322000  0.55246000  0.14198000  1.0 -0.5173658801
O  O16  1  0.96815000  0.20392000  0.38045000  1.0 -0.5433769745
O  O17  1  0.97245000  0.09500000  0.26637000  1.0 -0.5302928758
O  O18  1  0.41048000  0.41124000  0.85802000  1.0 -0.5173658801
O  O19  1  0.95392000  0.07347000  0.73577000  1.0 -0.5433769745
O  O20  1  0.84500000  0.07863000  0.62255000  1.0 -0.5302928758
O  O21  1  0.16124000  0.80322000  0.50076000  1.0 -0.5173658801
O  O22  1  0.33770000  0.21815000  0.26423000  1.0 -0.5433769745
O  O23  1  0.45608000  0.22245000  0.37745000  1.0 -0.5302928758
O  O24  1  0.30246000  0.66048000  0.49924000  1.0 -0.5173658801
O  O25  1  0.96815000  0.58770000  0.76423000  1.0 -0.5433769745
O  O26  1  0.97245000  0.70608000  0.87745000  1.0 -0.5302928758
O  O27  1  0.41048000  0.55246000  0.99924000  1.0 -0.5173658801
O  O28  1  0.82347000  0.20392000  0.23577000  1.0 -0.5433769745
O  O29  1  0.82863000  0.09500000  0.12255000  1.0 -0.5302928758
O  O30  1  0.55322000  0.41124000  0.00076000  1.0 -0.5173658801
O  O31  1  0.33770000  0.07347000  0.11955000  1.0 -0.5433769745
O  O32  1  0.45608000  0.07863000  0.23363000  1.0 -0.5302928758
O  O33  1  0.30246000  0.80322000  0.64198000  1.0 -0.5173658801
O  O34  1  0.95392000  0.21815000  0.88045000  1.0 -0.5433769745
O  O35  1  0.84500000  0.22245000  0.76637000  1.0 -0.5302928758
O  O36  1  0.16124000  0.66048000  0.35802000  1.0 -0.5173658801
O  O37  1  0.92653000  0.66230000  0.88045000  1.0 -0.5433769745
O  O38  1  0.92137000  0.54392000  0.76637000  1.0 -0.5302928758
O  O39  1  0.19678000  0.69754000  0.35802000  1.0 -0.5173658801
O  O40  1  0.78185000  0.04608000  0.11955000  1.0 -0.5433769745
O  O41  1  0.77755000  0.15500000  0.23363000  1.0 -0.5302928758
O  O42  1  0.33952000  0.83876000  0.64198000  1.0 -0.5173658801
O  O43  1  0.79608000  0.17653000  0.76423000  1.0 -0.5433769745
O  O44  1  0.90500000  0.17137000  0.87745000  1.0 -0.5302928758
O  O45  1  0.58876000  0.44678000  0.99924000  1.0 -0.5173658801
O  O46  1  0.41230000  0.03185000  0.23577000  1.0 -0.5433769745
O  O47  1  0.29392000  0.02755000  0.12255000  1.0 -0.5302928758
O  O48  1  0.44754000  0.58952000  0.00076000  1.0 -0.5173658801
