# DDEC6 charges by PACMAN v1.1 (https://github.com/mtap-research/PACMAN-charge/)
data_SEQDEA_ASR_pacman
_symmetry_space_group_name_H-M   'P 1'
_cell_length_a   33.04630000
_cell_length_b   33.04630000
_cell_length_c   33.04630000
_cell_angle_alpha   145.39000000
_cell_angle_beta   145.39000000
_cell_angle_gamma   49.75430000
_symmetry_Int_Tables_number   1
_chemical_formula_structural   Zn3H46C54(NO6)2
_chemical_formula_sum   'Zn12 H184 C216 N8 O48'
_cell_volume   11587.48266864
_cell_formula_units_Z   4
loop_
 _symmetry_equiv_pos_site_id
 _symmetry_equiv_pos_as_xyz
  1  'x, y, z'
loop_
 _atom_site_type_symbol
 _atom_site_label
 _atom_site_symmetry_multiplicity
 _atom_site_fract_x
 _atom_site_fract_y
 _atom_site_fract_z
 _atom_site_occupancy
 _atom_site_charge
Zn  Zn1  1  0.87716000  0.70340000  0.82624000  1.0 0.7864167462
Zn  Zn2  1  0.87716000  0.05092000  0.17376000  1.0 0.7864167462
Zn  Zn3  1  0.45340000  0.12716000  0.32624000  1.0 0.7864167462
Zn  Zn4  1  0.80092000  0.12716000  0.67376000  1.0 0.7864167462
Zn  Zn5  1  0.87284000  0.54660000  0.67376000  1.0 0.7864167462
Zn  Zn6  1  0.87284000  0.19908000  0.32624000  1.0 0.7864167462
Zn  Zn7  1  0.94908000  0.12284000  0.82624000  1.0 0.7864167462
Zn  Zn8  1  0.29660000  0.12284000  0.17376000  1.0 0.7864167462
Zn  Zn9  1  0.27418000  0.77418000  0.50000000  1.0 0.9243838708
Zn  Zn10  1  0.52418000  0.52418000  0.00000000  1.0 0.9253330748
Zn  Zn11  1  0.47582000  0.47582000  0.00000000  1.0 0.9253330748
Zn  Zn12  1  0.22582000  0.72582000  0.50000000  1.0 0.9253330748
H  H1  1  0.97181000  0.69112000  0.00863000  1.0 0.1177157567
H  H2  1  0.96125000  0.47781000  0.80352000  1.0 0.129316905
H  H3  1  0.00882000  0.67363000  0.08973000  1.0 0.1177157567
H  H4  1  0.99750000  0.46088000  0.88462000  1.0 0.1177157567
H  H5  1  0.10377000  0.64323000  0.18372000  1.0 0.129316905
H  H6  1  0.90686000  0.79258000  0.00052000  1.0 0.0980479475
H  H7  1  0.88637000  0.79101000  0.98442000  1.0 0.0980479475
H  H8  1  0.98231000  0.82439000  0.04460000  1.0 0.0778230207
H  H9  1  0.84233000  0.84708000  0.88193000  1.0 0.0865961518
H  H10  1  0.97194000  0.81464000  0.04354000  1.0 0.0778230207
H  H11  1  0.86743000  0.85145000  0.90422000  1.0 0.0865961518
H  H12  1  0.68249000  0.96318000  0.99137000  1.0 0.1177157567
H  H13  1  0.67429000  0.15773000  0.19648000  1.0 0.129316905
H  H14  1  0.58390000  0.91909000  0.91027000  1.0 0.1177157567
H  H15  1  0.57626000  0.11288000  0.11538000  1.0 0.1177157567
H  H16  1  0.45951000  0.92005000  0.81628000  1.0 0.129316905
H  H17  1  0.79206000  0.90634000  0.99948000  1.0 0.0980479475
H  H18  1  0.80659000  0.90195000  0.01558000  1.0 0.0980479475
H  H19  1  0.77979000  0.93771000  0.95540000  1.0 0.0778230207
H  H20  1  0.96515000  0.96040000  0.11807000  1.0 0.0865961518
H  H21  1  0.77110000  0.92840000  0.95646000  1.0 0.0778230207
H  H22  1  0.94723000  0.96321000  0.09578000  1.0 0.0865961518
H  H23  1  0.44112000  0.93249000  0.21931000  1.0 0.1177157567
H  H24  1  0.22781000  0.92429000  0.01656000  1.0 0.129316905
H  H25  1  0.42363000  0.83390000  0.16481000  1.0 0.1177157567
H  H26  1  0.21088000  0.82626000  0.96338000  1.0 0.1177157567
H  H27  1  0.39323000  0.70951000  0.03946000  1.0 0.129316905
H  H28  1  0.54258000  0.04206000  0.38572000  1.0 0.0980479475
H  H29  1  0.54101000  0.05659000  0.40464000  1.0 0.0980479475
H  H30  1  0.57439000  0.02979000  0.34208000  1.0 0.0778230207
H  H31  1  0.59708000  0.21515000  0.50475000  1.0 0.0865961518
H  H32  1  0.56464000  0.02110000  0.34270000  1.0 0.0778230207
H  H33  1  0.60145000  0.19723000  0.48402000  1.0 0.0865961518
H  H34  1  0.71318000  0.22181000  0.78069000  1.0 0.1177157567
H  H35  1  0.90773000  0.21125000  0.98344000  1.0 0.129316905
H  H36  1  0.66909000  0.25882000  0.83519000  1.0 0.1177157567
H  H37  1  0.86288000  0.24750000  0.03662000  1.0 0.1177157567
H  H38  1  0.67005000  0.35377000  0.96054000  1.0 0.129316905
H  H39  1  0.65634000  0.15686000  0.61428000  1.0 0.0980479475
H  H40  1  0.65195000  0.13637000  0.59536000  1.0 0.0980479475
H  H41  1  0.68771000  0.23231000  0.65792000  1.0 0.0778230207
H  H42  1  0.71040000  0.09233000  0.49525000  1.0 0.0865961518
H  H43  1  0.67840000  0.22194000  0.65730000  1.0 0.0778230207
H  H44  1  0.71321000  0.11743000  0.51598000  1.0 0.0865961518
H  H45  1  0.06751000  0.55888000  0.78069000  1.0 0.1177157567
H  H46  1  0.07571000  0.77219000  0.98344000  1.0 0.129316905
H  H47  1  0.16610000  0.57637000  0.83519000  1.0 0.1177157567
H  H48  1  0.17374000  0.78912000  0.03662000  1.0 0.1177157567
H  H49  1  0.29049000  0.60677000  0.96054000  1.0 0.129316905
H  H50  1  0.95794000  0.45742000  0.61428000  1.0 0.0980479475
H  H51  1  0.94341000  0.45899000  0.59536000  1.0 0.0980479475
H  H52  1  0.97021000  0.42561000  0.65792000  1.0 0.0778230207
H  H53  1  0.78485000  0.40292000  0.49525000  1.0 0.0865961518
H  H54  1  0.97890000  0.43536000  0.65730000  1.0 0.0778230207
H  H55  1  0.80277000  0.39855000  0.51598000  1.0 0.0865961518
H  H56  1  0.77819000  0.28682000  0.21931000  1.0 0.1177157567
H  H57  1  0.78875000  0.09227000  0.01656000  1.0 0.129316905
H  H58  1  0.74118000  0.33091000  0.16481000  1.0 0.1177157567
H  H59  1  0.75250000  0.13712000  0.96338000  1.0 0.1177157567
H  H60  1  0.64623000  0.32995000  0.03946000  1.0 0.129316905
H  H61  1  0.84314000  0.34366000  0.38572000  1.0 0.0980479475
H  H62  1  0.86363000  0.34805000  0.40464000  1.0 0.0980479475
H  H63  1  0.76769000  0.31229000  0.34208000  1.0 0.0778230207
H  H64  1  0.90767000  0.28960000  0.50475000  1.0 0.0865961518
H  H65  1  0.77806000  0.32160000  0.34270000  1.0 0.0778230207
H  H66  1  0.88257000  0.28679000  0.48402000  1.0 0.0865961518
H  H67  1  0.03682000  0.31751000  0.00863000  1.0 0.1177157567
H  H68  1  0.84227000  0.32571000  0.80352000  1.0 0.129316905
H  H69  1  0.08091000  0.41610000  0.08973000  1.0 0.1177157567
H  H70  1  0.88712000  0.42374000  0.88462000  1.0 0.1177157567
H  H71  1  0.07995000  0.54049000  0.18372000  1.0 0.129316905
H  H72  1  0.09366000  0.20794000  0.00052000  1.0 0.0980479475
H  H73  1  0.09805000  0.19341000  0.98442000  1.0 0.0980479475
H  H74  1  0.06229000  0.22021000  0.04460000  1.0 0.0778230207
H  H75  1  0.03960000  0.03485000  0.88193000  1.0 0.0865961518
H  H76  1  0.07160000  0.22890000  0.04354000  1.0 0.0778230207
H  H77  1  0.03679000  0.05277000  0.90422000  1.0 0.0865961518
H  H78  1  0.30888000  0.02819000  0.99137000  1.0 0.1177157567
H  H79  1  0.52219000  0.03875000  0.19648000  1.0 0.129316905
H  H80  1  0.32637000  0.99118000  0.91027000  1.0 0.1177157567
H  H81  1  0.53912000  0.00250000  0.11538000  1.0 0.1177157567
H  H82  1  0.35677000  0.89623000  0.81628000  1.0 0.129316905
H  H83  1  0.20742000  0.09314000  0.99948000  1.0 0.0980479475
H  H84  1  0.20899000  0.11363000  0.01558000  1.0 0.0980479475
H  H85  1  0.17561000  0.01769000  0.95540000  1.0 0.0778230207
H  H86  1  0.15292000  0.15767000  0.11807000  1.0 0.0865961518
H  H87  1  0.18536000  0.02806000  0.95646000  1.0 0.0778230207
H  H88  1  0.14855000  0.13257000  0.09578000  1.0 0.0865961518
H  H89  1  0.77819000  0.55888000  0.49137000  1.0 0.1177157567
H  H90  1  0.78875000  0.77219000  0.69648000  1.0 0.129316905
H  H91  1  0.74118000  0.57637000  0.41027000  1.0 0.1177157567
H  H92  1  0.75250000  0.78912000  0.61538000  1.0 0.1177157567
H  H93  1  0.64623000  0.60677000  0.31628000  1.0 0.129316905
H  H94  1  0.84314000  0.45742000  0.49948000  1.0 0.0980479475
H  H95  1  0.86363000  0.45899000  0.51558000  1.0 0.0980479475
H  H96  1  0.76769000  0.42561000  0.45540000  1.0 0.0778230207
H  H97  1  0.90767000  0.40292000  0.61807000  1.0 0.0865961518
H  H98  1  0.77806000  0.43536000  0.45646000  1.0 0.0778230207
H  H99  1  0.88257000  0.39855000  0.59578000  1.0 0.0865961518
H  H100  1  0.06751000  0.28682000  0.50863000  1.0 0.1177157567
H  H101  1  0.07571000  0.09227000  0.30352000  1.0 0.129316905
H  H102  1  0.16610000  0.33091000  0.58973000  1.0 0.1177157567
H  H103  1  0.17374000  0.13712000  0.38462000  1.0 0.1177157567
H  H104  1  0.29049000  0.32995000  0.68372000  1.0 0.129316905
H  H105  1  0.95794000  0.34366000  0.50052000  1.0 0.0980479475
H  H106  1  0.94341000  0.34805000  0.48442000  1.0 0.0980479475
H  H107  1  0.97021000  0.31229000  0.54460000  1.0 0.0778230207
H  H108  1  0.78485000  0.28960000  0.38193000  1.0 0.0865961518
H  H109  1  0.97890000  0.32160000  0.54354000  1.0 0.0778230207
H  H110  1  0.80277000  0.28679000  0.40422000  1.0 0.0865961518
H  H111  1  0.30888000  0.31751000  0.28069000  1.0 0.1177157567
H  H112  1  0.52219000  0.32571000  0.48344000  1.0 0.129316905
H  H113  1  0.32637000  0.41610000  0.33519000  1.0 0.1177157567
H  H114  1  0.53912000  0.42374000  0.53662000  1.0 0.1177157567
H  H115  1  0.35677000  0.54049000  0.46054000  1.0 0.129316905
H  H116  1  0.20742000  0.20794000  0.11428000  1.0 0.0980479475
H  H117  1  0.20899000  0.19341000  0.09536000  1.0 0.0980479475
H  H118  1  0.17561000  0.22021000  0.15792000  1.0 0.0778230207
H  H119  1  0.15292000  0.03485000  0.99525000  1.0 0.0865961518
H  H120  1  0.18536000  0.22890000  0.15730000  1.0 0.0778230207
H  H121  1  0.14855000  0.05277000  0.01598000  1.0 0.0865961518
H  H122  1  0.03682000  0.02819000  0.71931000  1.0 0.1177157567
H  H123  1  0.84227000  0.03875000  0.51656000  1.0 0.129316905
H  H124  1  0.08091000  0.99118000  0.66481000  1.0 0.1177157567
H  H125  1  0.88712000  0.00250000  0.46338000  1.0 0.1177157567
H  H126  1  0.07995000  0.89623000  0.53946000  1.0 0.129316905
H  H127  1  0.09366000  0.09314000  0.88572000  1.0 0.0980479475
H  H128  1  0.09805000  0.11363000  0.90464000  1.0 0.0980479475
H  H129  1  0.06229000  0.01769000  0.84208000  1.0 0.0778230207
H  H130  1  0.03960000  0.15767000  0.00475000  1.0 0.0865961518
H  H131  1  0.07160000  0.02806000  0.84270000  1.0 0.0778230207
H  H132  1  0.03679000  0.13257000  0.98402000  1.0 0.0865961518
H  H133  1  0.68249000  0.69112000  0.71931000  1.0 0.1177157567
H  H134  1  0.67429000  0.47781000  0.51656000  1.0 0.129316905
H  H135  1  0.58390000  0.67363000  0.66481000  1.0 0.1177157567
H  H136  1  0.57626000  0.46088000  0.46338000  1.0 0.1177157567
H  H137  1  0.45951000  0.64323000  0.53946000  1.0 0.129316905
H  H138  1  0.79206000  0.79258000  0.88572000  1.0 0.0980479475
H  H139  1  0.80659000  0.79101000  0.90464000  1.0 0.0980479475
H  H140  1  0.77979000  0.82439000  0.84208000  1.0 0.0778230207
H  H141  1  0.96515000  0.84708000  0.00475000  1.0 0.0865961518
H  H142  1  0.77110000  0.81464000  0.84270000  1.0 0.0778230207
H  H143  1  0.94723000  0.85145000  0.98402000  1.0 0.0865961518
H  H144  1  0.97181000  0.96318000  0.28069000  1.0 0.1177157567
H  H145  1  0.96125000  0.15773000  0.48344000  1.0 0.129316905
H  H146  1  0.00882000  0.91909000  0.33519000  1.0 0.1177157567
H  H147  1  0.99750000  0.11288000  0.53662000  1.0 0.1177157567
H  H148  1  0.10377000  0.92005000  0.46054000  1.0 0.129316905
H  H149  1  0.90686000  0.90634000  0.11428000  1.0 0.0980479475
H  H150  1  0.88637000  0.90195000  0.09536000  1.0 0.0980479475
H  H151  1  0.98231000  0.93771000  0.15792000  1.0 0.0778230207
H  H152  1  0.84233000  0.96040000  0.99525000  1.0 0.0865961518
H  H153  1  0.97194000  0.92840000  0.15730000  1.0 0.0778230207
H  H154  1  0.86743000  0.96321000  0.01598000  1.0 0.0865961518
H  H155  1  0.71318000  0.93249000  0.49137000  1.0 0.1177157567
H  H156  1  0.90773000  0.92429000  0.69648000  1.0 0.129316905
H  H157  1  0.66909000  0.83390000  0.41027000  1.0 0.1177157567
H  H158  1  0.86288000  0.82626000  0.61538000  1.0 0.1177157567
H  H159  1  0.67005000  0.70951000  0.31628000  1.0 0.129316905
H  H160  1  0.65634000  0.04206000  0.49948000  1.0 0.0980479475
H  H161  1  0.65195000  0.05659000  0.51558000  1.0 0.0980479475
H  H162  1  0.68771000  0.02979000  0.45540000  1.0 0.0778230207
H  H163  1  0.71040000  0.21515000  0.61807000  1.0 0.0865961518
H  H164  1  0.67840000  0.02110000  0.45646000  1.0 0.0778230207
H  H165  1  0.71321000  0.19723000  0.59578000  1.0 0.0865961518
H  H166  1  0.44112000  0.22181000  0.50863000  1.0 0.1177157567
H  H167  1  0.22781000  0.21125000  0.30352000  1.0 0.129316905
H  H168  1  0.42363000  0.25882000  0.58973000  1.0 0.1177157567
H  H169  1  0.21088000  0.24750000  0.38462000  1.0 0.1177157567
H  H170  1  0.39323000  0.35377000  0.68372000  1.0 0.129316905
H  H171  1  0.54258000  0.15686000  0.50052000  1.0 0.0980479475
H  H172  1  0.54101000  0.13637000  0.48442000  1.0 0.0980479475
H  H173  1  0.57439000  0.23231000  0.54460000  1.0 0.0778230207
H  H174  1  0.59708000  0.09233000  0.38193000  1.0 0.0865961518
H  H175  1  0.56464000  0.22194000  0.54354000  1.0 0.0778230207
H  H176  1  0.60145000  0.11743000  0.40422000  1.0 0.0865961518
H  H177  1  0.96574000  0.46574000  0.93148000  1.0 0.1177157567
H  H178  1  0.53426000  0.03426000  0.06852000  1.0 0.1177157567
H  H179  1  0.21574000  0.78426000  0.00000000  1.0 0.1177157567
H  H180  1  0.78426000  0.21574000  0.00000000  1.0 0.1177157567
H  H181  1  0.78426000  0.78426000  0.56852000  1.0 0.1177157567
H  H182  1  0.21574000  0.21574000  0.43148000  1.0 0.1177157567
H  H183  1  0.53426000  0.46574000  0.50000000  1.0 0.1177157567
H  H184  1  0.96574000  0.03426000  0.50000000  1.0 0.1177157567
C  C1  1  0.93534000  0.59726000  0.84320000  1.0 0.5603235285
C  C2  1  0.96174000  0.58615000  0.89717000  1.0 -0.0317717888
C  C3  1  0.97684000  0.64507000  0.98409000  1.0 -0.1104932306
C  C4  1  0.97027000  0.51663000  0.86026000  1.0 -0.1104932306
C  C5  1  0.99877000  0.63473000  0.03224000  1.0 -0.1429052451
C  C6  1  0.99192000  0.50681000  0.90861000  1.0 -0.1482339124
C  C7  1  0.00607000  0.56593000  0.99524000  1.0 0.0778230207
C  C8  1  0.02891000  0.55665000  0.04832000  1.0 0.0690445714
C  C9  1  0.08169000  0.60618000  0.15065000  1.0 -0.1676872163
C  C10  1  0.82788000  0.84828000  0.89920000  1.0 -0.1242098441
C  C11  1  0.92351000  0.82431000  0.01840000  1.0 -0.126184288
C  C12  1  0.75406000  0.09214000  0.15680000  1.0 0.5603235285
C  C13  1  0.68898000  0.06457000  0.10283000  1.0 -0.0317717888
C  C14  1  0.66098000  0.99275000  0.01591000  1.0 -0.1104932306
C  C15  1  0.65637000  0.11001000  0.13974000  1.0 -0.1104932306
C  C16  1  0.60249000  0.96653000  0.96776000  1.0 -0.1429052451
C  C17  1  0.59820000  0.08331000  0.09139000  1.0 -0.1482339124
C  C18  1  0.57069000  0.01083000  0.00476000  1.0 0.0778230207
C  C19  1  0.50833000  0.98059000  0.95168000  1.0 0.0690445714
C  C20  1  0.45553000  0.93104000  0.84935000  1.0 -0.1676872163
C  C21  1  0.94908000  0.92868000  0.10080000  1.0 -0.1242098441
C  C22  1  0.80591000  0.90511000  0.98160000  1.0 -0.126184288
C  C23  1  0.34726000  0.00406000  0.16192000  1.0 0.5603235285
C  C24  1  0.33615000  0.93898000  0.12441000  1.0 -0.0317717888
C  C25  1  0.39507000  0.91098000  0.16823000  1.0 -0.1104932306
C  C26  1  0.26663000  0.90637000  0.04636000  1.0 -0.1104932306
C  C27  1  0.38473000  0.85249000  0.13596000  1.0 -0.1429052451
C  C28  1  0.25681000  0.84820000  0.01489000  1.0 -0.1482339124
C  C29  1  0.31593000  0.82069000  0.05986000  1.0 0.0778230207
C  C30  1  0.30665000  0.75833000  0.02774000  1.0 0.0690445714
C  C31  1  0.35618000  0.70553000  0.02449000  1.0 -0.1676872163
C  C32  1  0.59828000  0.19908000  0.52040000  1.0 -0.1242098441
C  C33  1  0.57431000  0.05591000  0.40080000  1.0 -0.126184288
C  C34  1  0.84214000  0.18534000  0.83808000  1.0 0.5603235285
C  C35  1  0.81457000  0.21174000  0.87559000  1.0 -0.0317717888
C  C36  1  0.74275000  0.22684000  0.83177000  1.0 -0.1104932306
C  C37  1  0.86001000  0.22027000  0.95364000  1.0 -0.1104932306
C  C38  1  0.71653000  0.24877000  0.86404000  1.0 -0.1429052451
C  C39  1  0.83331000  0.24192000  0.98511000  1.0 -0.1482339124
C  C40  1  0.76083000  0.25607000  0.94014000  1.0 0.0778230207
C  C41  1  0.73059000  0.27891000  0.97226000  1.0 0.0690445714
C  C42  1  0.68104000  0.33169000  0.97551000  1.0 -0.1676872163
C  C43  1  0.67868000  0.07788000  0.47960000  1.0 -0.1242098441
C  C44  1  0.65511000  0.17351000  0.59920000  1.0 -0.126184288
C  C45  1  0.99594000  0.65274000  0.83808000  1.0 0.5603235285
C  C46  1  0.06102000  0.66385000  0.87559000  1.0 -0.0317717888
C  C47  1  0.08902000  0.60493000  0.83177000  1.0 -0.1104932306
C  C48  1  0.09363000  0.73337000  0.95364000  1.0 -0.1104932306
C  C49  1  0.14751000  0.61527000  0.86404000  1.0 -0.1429052451
C  C50  1  0.15180000  0.74319000  0.98511000  1.0 -0.1482339124
C  C51  1  0.17931000  0.68407000  0.94014000  1.0 0.0778230207
C  C52  1  0.24167000  0.69335000  0.97226000  1.0 0.0690445714
C  C53  1  0.29447000  0.64382000  0.97551000  1.0 -0.1676872163
C  C54  1  0.80092000  0.40172000  0.47960000  1.0 -0.1242098441
C  C55  1  0.94409000  0.42569000  0.59920000  1.0 -0.126184288
C  C56  1  0.81466000  0.15786000  0.16192000  1.0 0.5603235285
C  C57  1  0.78826000  0.18543000  0.12441000  1.0 -0.0317717888
C  C58  1  0.77316000  0.25725000  0.16823000  1.0 -0.1104932306
C  C59  1  0.77973000  0.13999000  0.04636000  1.0 -0.1104932306
C  C60  1  0.75123000  0.28347000  0.13596000  1.0 -0.1429052451
C  C61  1  0.75808000  0.16669000  0.01489000  1.0 -0.1482339124
C  C62  1  0.74393000  0.23917000  0.05986000  1.0 0.0778230207
C  C63  1  0.72109000  0.26941000  0.02774000  1.0 0.0690445714
C  C64  1  0.66831000  0.31896000  0.02449000  1.0 -0.1676872163
C  C65  1  0.92212000  0.32132000  0.52040000  1.0 -0.1242098441
C  C66  1  0.82649000  0.34489000  0.40080000  1.0 -0.126184288
C  C67  1  0.90786000  0.24594000  0.84320000  1.0 0.5603235285
C  C68  1  0.93543000  0.31102000  0.89717000  1.0 -0.0317717888
C  C69  1  0.00725000  0.33902000  0.98409000  1.0 -0.1104932306
C  C70  1  0.88999000  0.34363000  0.86026000  1.0 -0.1104932306
C  C71  1  0.03347000  0.39751000  0.03224000  1.0 -0.1429052451
C  C72  1  0.91669000  0.40180000  0.90861000  1.0 -0.1482339124
C  C73  1  0.98917000  0.42931000  0.99524000  1.0 0.0778230207
C  C74  1  0.01941000  0.49167000  0.04832000  1.0 0.0690445714
C  C75  1  0.06896000  0.54447000  0.15065000  1.0 -0.1676872163
C  C76  1  0.07132000  0.05092000  0.89920000  1.0 -0.1242098441
C  C77  1  0.09489000  0.19409000  0.01840000  1.0 -0.126184288
C  C78  1  0.40274000  0.06466000  0.15680000  1.0 0.5603235285
C  C79  1  0.41385000  0.03826000  0.10283000  1.0 -0.0317717888
C  C80  1  0.35493000  0.02316000  0.01591000  1.0 -0.1104932306
C  C81  1  0.48337000  0.02973000  0.13974000  1.0 -0.1104932306
C  C82  1  0.36527000  0.00123000  0.96776000  1.0 -0.1429052451
C  C83  1  0.49319000  0.00808000  0.09139000  1.0 -0.1482339124
C  C84  1  0.43407000  0.99393000  0.00476000  1.0 0.0778230207
C  C85  1  0.44335000  0.97109000  0.95168000  1.0 0.0690445714
C  C86  1  0.39382000  0.91831000  0.84935000  1.0 -0.1676872163
C  C87  1  0.15172000  0.17212000  0.10080000  1.0 -0.1242098441
C  C88  1  0.17569000  0.07649000  0.98160000  1.0 -0.126184288
C  C89  1  0.81466000  0.65274000  0.65680000  1.0 0.5603235285
C  C90  1  0.78826000  0.66385000  0.60283000  1.0 -0.0317717888
C  C91  1  0.77316000  0.60493000  0.51591000  1.0 -0.1104932306
C  C92  1  0.77973000  0.73337000  0.63974000  1.0 -0.1104932306
C  C93  1  0.75123000  0.61527000  0.46776000  1.0 -0.1429052451
C  C94  1  0.75808000  0.74319000  0.59139000  1.0 -0.1482339124
C  C95  1  0.74393000  0.68407000  0.50476000  1.0 0.0778230207
C  C96  1  0.72109000  0.69335000  0.45168000  1.0 0.0690445714
C  C97  1  0.66831000  0.64382000  0.34935000  1.0 -0.1676872163
C  C98  1  0.92212000  0.40172000  0.60080000  1.0 -0.1242098441
C  C99  1  0.82649000  0.42569000  0.48160000  1.0 -0.126184288
C  C100  1  0.99594000  0.15786000  0.34320000  1.0 0.5603235285
C  C101  1  0.06102000  0.18543000  0.39717000  1.0 -0.0317717888
C  C102  1  0.08902000  0.25725000  0.48409000  1.0 -0.1104932306
C  C103  1  0.09363000  0.13999000  0.36026000  1.0 -0.1104932306
C  C104  1  0.14751000  0.28347000  0.53224000  1.0 -0.1429052451
C  C105  1  0.15180000  0.16669000  0.40861000  1.0 -0.1482339124
C  C106  1  0.17931000  0.23917000  0.49524000  1.0 0.0778230207
C  C107  1  0.24167000  0.26941000  0.54832000  1.0 0.0690445714
C  C108  1  0.29447000  0.31896000  0.65065000  1.0 -0.1676872163
C  C109  1  0.80092000  0.32132000  0.39920000  1.0 -0.1242098441
C  C110  1  0.94409000  0.34489000  0.51840000  1.0 -0.126184288
C  C111  1  0.40274000  0.24594000  0.33808000  1.0 0.5603235285
C  C112  1  0.41385000  0.31102000  0.37559000  1.0 -0.0317717888
C  C113  1  0.35493000  0.33902000  0.33177000  1.0 -0.1104932306
C  C114  1  0.48337000  0.34363000  0.45364000  1.0 -0.1104932306
C  C115  1  0.36527000  0.39751000  0.36404000  1.0 -0.1429052451
C  C116  1  0.49319000  0.40180000  0.48511000  1.0 -0.1482339124
C  C117  1  0.43407000  0.42931000  0.44014000  1.0 0.0778230207
C  C118  1  0.44335000  0.49167000  0.47226000  1.0 0.0690445714
C  C119  1  0.39382000  0.54447000  0.47551000  1.0 -0.1676872163
C  C120  1  0.15172000  0.05092000  0.97960000  1.0 -0.1242098441
C  C121  1  0.17569000  0.19409000  0.09920000  1.0 -0.126184288
C  C122  1  0.90786000  0.06466000  0.66192000  1.0 0.5603235285
C  C123  1  0.93543000  0.03826000  0.62441000  1.0 -0.0317717888
C  C124  1  0.00725000  0.02316000  0.66823000  1.0 -0.1104932306
C  C125  1  0.88999000  0.02973000  0.54636000  1.0 -0.1104932306
C  C126  1  0.03347000  0.00123000  0.63596000  1.0 -0.1429052451
C  C127  1  0.91669000  0.00808000  0.51489000  1.0 -0.1482339124
C  C128  1  0.98917000  0.99393000  0.55986000  1.0 0.0778230207
C  C129  1  0.01941000  0.97109000  0.52774000  1.0 0.0690445714
C  C130  1  0.06896000  0.91831000  0.52449000  1.0 -0.1676872163
C  C131  1  0.07132000  0.17212000  0.02040000  1.0 -0.1242098441
C  C132  1  0.09489000  0.07649000  0.90080000  1.0 -0.126184288
C  C133  1  0.75406000  0.59726000  0.66192000  1.0 0.5603235285
C  C134  1  0.68898000  0.58615000  0.62441000  1.0 -0.0317717888
C  C135  1  0.66098000  0.64507000  0.66823000  1.0 -0.1104932306
C  C136  1  0.65637000  0.51663000  0.54636000  1.0 -0.1104932306
C  C137  1  0.60249000  0.63473000  0.63596000  1.0 -0.1429052451
C  C138  1  0.59820000  0.50681000  0.51489000  1.0 -0.1482339124
C  C139  1  0.57069000  0.56593000  0.55986000  1.0 0.0778230207
C  C140  1  0.50833000  0.55665000  0.52774000  1.0 0.0690445714
C  C141  1  0.45553000  0.60618000  0.52449000  1.0 -0.1676872163
C  C142  1  0.94908000  0.84828000  0.02040000  1.0 -0.1242098441
C  C143  1  0.80591000  0.82431000  0.90080000  1.0 -0.126184288
C  C144  1  0.93534000  0.09214000  0.33808000  1.0 0.5603235285
C  C145  1  0.96174000  0.06457000  0.37559000  1.0 -0.0317717888
C  C146  1  0.97684000  0.99275000  0.33177000  1.0 -0.1104932306
C  C147  1  0.97027000  0.11001000  0.45364000  1.0 -0.1104932306
C  C148  1  0.99877000  0.96653000  0.36404000  1.0 -0.1429052451
C  C149  1  0.99192000  0.08331000  0.48511000  1.0 -0.1482339124
C  C150  1  0.00607000  0.01083000  0.44014000  1.0 0.0778230207
C  C151  1  0.02891000  0.98059000  0.47226000  1.0 0.0690445714
C  C152  1  0.08169000  0.93104000  0.47551000  1.0 -0.1676872163
C  C153  1  0.82788000  0.92868000  0.97960000  1.0 -0.1242098441
C  C154  1  0.92351000  0.90511000  0.09920000  1.0 -0.126184288
C  C155  1  0.84214000  0.00406000  0.65680000  1.0 0.5603235285
C  C156  1  0.81457000  0.93898000  0.60283000  1.0 -0.0317717888
C  C157  1  0.74275000  0.91098000  0.51591000  1.0 -0.1104932306
C  C158  1  0.86001000  0.90637000  0.63974000  1.0 -0.1104932306
C  C159  1  0.71653000  0.85249000  0.46776000  1.0 -0.1429052451
C  C160  1  0.83331000  0.84820000  0.59139000  1.0 -0.1482339124
C  C161  1  0.76083000  0.82069000  0.50476000  1.0 0.0778230207
C  C162  1  0.73059000  0.75833000  0.45168000  1.0 0.0690445714
C  C163  1  0.68104000  0.70553000  0.34935000  1.0 -0.1676872163
C  C164  1  0.67868000  0.19908000  0.60080000  1.0 -0.1242098441
C  C165  1  0.65511000  0.05591000  0.48160000  1.0 -0.126184288
C  C166  1  0.34726000  0.18534000  0.34320000  1.0 0.5603235285
C  C167  1  0.33615000  0.21174000  0.39717000  1.0 -0.0317717888
C  C168  1  0.39507000  0.22684000  0.48409000  1.0 -0.1104932306
C  C169  1  0.26663000  0.22027000  0.36026000  1.0 -0.1104932306
C  C170  1  0.38473000  0.24877000  0.53224000  1.0 -0.1429052451
C  C171  1  0.25681000  0.24192000  0.40861000  1.0 -0.1482339124
C  C172  1  0.31593000  0.25607000  0.49524000  1.0 0.0778230207
C  C173  1  0.30665000  0.27891000  0.54832000  1.0 0.0690445714
C  C174  1  0.35618000  0.33169000  0.65065000  1.0 -0.1676872163
C  C175  1  0.59828000  0.07788000  0.39920000  1.0 -0.1242098441
C  C176  1  0.57431000  0.17351000  0.51840000  1.0 -0.126184288
C  C177  1  0.85437000  0.81517000  0.96080000  1.0 -0.1104932306
C  C178  1  0.89945000  0.85985000  0.96040000  1.0 -0.1242098441
C  C179  1  0.85437000  0.89357000  0.03920000  1.0 -0.1104932306
C  C180  1  0.89945000  0.93905000  0.03960000  1.0 -0.1242098441
C  C181  1  0.56517000  0.10437000  0.46080000  1.0 -0.1104932306
C  C182  1  0.60985000  0.14945000  0.46040000  1.0 -0.1242098441
C  C183  1  0.64357000  0.10437000  0.53920000  1.0 -0.1104932306
C  C184  1  0.68905000  0.14945000  0.53960000  1.0 -0.1242098441
C  C185  1  0.89563000  0.43483000  0.53920000  1.0 -0.1104932306
C  C186  1  0.85055000  0.39015000  0.53960000  1.0 -0.1242098441
C  C187  1  0.89563000  0.35643000  0.46080000  1.0 -0.1104932306
C  C188  1  0.85055000  0.31095000  0.46040000  1.0 -0.1242098441
C  C189  1  0.10643000  0.14563000  0.96080000  1.0 -0.1104932306
C  C190  1  0.06095000  0.10055000  0.96040000  1.0 -0.1242098441
C  C191  1  0.18483000  0.14563000  0.03920000  1.0 -0.1104932306
C  C192  1  0.14015000  0.10055000  0.03960000  1.0 -0.1242098441
C  C193  1  0.99919000  0.49919000  0.99838000  1.0 -0.17678145
C  C194  1  0.10075000  0.60075000  0.20150000  1.0 -0.0135910409
C  C195  1  0.15551000  0.65551000  0.31102000  1.0 0.5933855692
C  C196  1  0.50081000  0.00081000  0.00162000  1.0 -0.17678145
C  C197  1  0.39925000  0.89925000  0.79850000  1.0 -0.0135910409
C  C198  1  0.34449000  0.84449000  0.68898000  1.0 0.5933855692
C  C199  1  0.24919000  0.75081000  0.00000000  1.0 -0.17678145
C  C200  1  0.35075000  0.64925000  0.00000000  1.0 -0.0135910409
C  C201  1  0.40551000  0.59449000  0.00000000  1.0 0.5933855692
C  C202  1  0.75081000  0.24919000  0.00000000  1.0 -0.17678145
C  C203  1  0.64925000  0.35075000  0.00000000  1.0 -0.0135910409
C  C204  1  0.59449000  0.40551000  0.00000000  1.0 0.5933855692
C  C205  1  0.75081000  0.75081000  0.50162000  1.0 -0.17678145
C  C206  1  0.64925000  0.64925000  0.29850000  1.0 -0.0135910409
C  C207  1  0.59449000  0.59449000  0.18898000  1.0 0.5933855692
C  C208  1  0.24919000  0.24919000  0.49838000  1.0 -0.17678145
C  C209  1  0.35075000  0.35075000  0.70150000  1.0 -0.0135910409
C  C210  1  0.40551000  0.40551000  0.81102000  1.0 0.5933855692
C  C211  1  0.50081000  0.49919000  0.50000000  1.0 -0.17678145
C  C212  1  0.39925000  0.60075000  0.50000000  1.0 -0.0135910409
C  C213  1  0.34449000  0.65551000  0.50000000  1.0 0.5933855692
C  C214  1  0.99919000  0.00081000  0.50000000  1.0 -0.17678145
C  C215  1  0.10075000  0.89925000  0.50000000  1.0 -0.0135910409
C  C216  1  0.15551000  0.84449000  0.50000000  1.0 0.5933855692
N  N1  1  0.87704000  0.80995000  0.93291000  1.0 -0.0869205748
N  N2  1  0.87704000  0.94413000  0.06709000  1.0 -0.0869205748
N  N3  1  0.55995000  0.12704000  0.43291000  1.0 -0.0869205748
N  N4  1  0.69413000  0.12704000  0.56709000  1.0 -0.0869205748
N  N5  1  0.87296000  0.44005000  0.56709000  1.0 -0.0869205748
N  N6  1  0.87296000  0.30587000  0.43291000  1.0 -0.0869205748
N  N7  1  0.05587000  0.12296000  0.93291000  1.0 -0.0869205748
N  N8  1  0.19005000  0.12296000  0.06709000  1.0 -0.0869205748
O  O1  1  0.19466000  0.69507000  0.35369000  1.0 -0.515791285
O  O2  1  0.92230000  0.54267000  0.76521000  1.0 -0.5406925124
O  O3  1  0.92695000  0.66109000  0.87960000  1.0 -0.5499360641
O  O4  1  0.34138000  0.84097000  0.64631000  1.0 -0.5147461034
O  O5  1  0.77746000  0.15709000  0.23479000  1.0 -0.5406925124
O  O6  1  0.78149000  0.04735000  0.12040000  1.0 -0.5499360641
O  O7  1  0.44507000  0.59138000  0.00041000  1.0 -0.5147461034
O  O8  1  0.29267000  0.02746000  0.12037000  1.0 -0.5406925124
O  O9  1  0.41109000  0.03149000  0.23414000  1.0 -0.5499360641
O  O10  1  0.59097000  0.44466000  0.99959000  1.0 -0.515791285
O  O11  1  0.90709000  0.17230000  0.87963000  1.0 -0.5406925124
O  O12  1  0.79735000  0.17695000  0.76586000  1.0 -0.5499360641
O  O13  1  0.40862000  0.55493000  0.99959000  1.0 -0.515791285
O  O14  1  0.97254000  0.70733000  0.87963000  1.0 -0.5406925124
O  O15  1  0.96851000  0.58891000  0.76586000  1.0 -0.5499360641
O  O16  1  0.55534000  0.40903000  0.00041000  1.0 -0.5147461034
O  O17  1  0.82770000  0.09291000  0.12037000  1.0 -0.5406925124
O  O18  1  0.82305000  0.20265000  0.23414000  1.0 -0.5499360641
O  O19  1  0.15903000  0.65862000  0.35369000  1.0 -0.5147461034
O  O20  1  0.84291000  0.22254000  0.76521000  1.0 -0.5406925124
O  O21  1  0.95265000  0.21851000  0.87960000  1.0 -0.5499360641
O  O22  1  0.30493000  0.80534000  0.64631000  1.0 -0.515791285
O  O23  1  0.45733000  0.07770000  0.23479000  1.0 -0.5406925124
O  O24  1  0.33891000  0.07305000  0.12040000  1.0 -0.5499360641
O  O25  1  0.55534000  0.55493000  0.14631000  1.0 -0.5147461034
O  O26  1  0.82770000  0.70733000  0.73479000  1.0 -0.5406925124
O  O27  1  0.82305000  0.58891000  0.62040000  1.0 -0.5499360641
O  O28  1  0.40862000  0.40903000  0.85369000  1.0 -0.515791285
O  O29  1  0.97254000  0.09291000  0.26521000  1.0 -0.5406925124
O  O30  1  0.96851000  0.20265000  0.37960000  1.0 -0.5499360641
O  O31  1  0.30493000  0.65862000  0.49959000  1.0 -0.515791285
O  O32  1  0.45733000  0.22254000  0.37963000  1.0 -0.5406925124
O  O33  1  0.33891000  0.21851000  0.26586000  1.0 -0.5499360641
O  O34  1  0.15903000  0.80534000  0.50041000  1.0 -0.515791285
O  O35  1  0.84291000  0.07770000  0.62037000  1.0 -0.5406925124
O  O36  1  0.95265000  0.07305000  0.73414000  1.0 -0.5499360641
O  O37  1  0.34138000  0.69507000  0.50041000  1.0 -0.515791285
O  O38  1  0.77746000  0.54267000  0.62037000  1.0 -0.5406925124
O  O39  1  0.78149000  0.66109000  0.73414000  1.0 -0.5499360641
O  O40  1  0.19466000  0.84097000  0.49959000  1.0 -0.5147461034
O  O41  1  0.92230000  0.15709000  0.37963000  1.0 -0.5406925124
O  O42  1  0.92695000  0.04735000  0.26586000  1.0 -0.5499360641
O  O43  1  0.59097000  0.59138000  0.14631000  1.0 -0.5147461034
O  O44  1  0.90709000  0.02746000  0.73479000  1.0 -0.5406925124
O  O45  1  0.79735000  0.03149000  0.62040000  1.0 -0.5499360641
O  O46  1  0.44507000  0.44466000  0.85369000  1.0 -0.515791285
O  O47  1  0.29267000  0.17230000  0.26521000  1.0 -0.5406925124
O  O48  1  0.41109000  0.17695000  0.37960000  1.0 -0.5499360641
