# DDEC6 charges by PACMAN v1.1 (https://github.com/mtap-research/PACMAN-charge/)
data_SERWAP_FSR_pacman
_symmetry_space_group_name_H-M   'P 1'
_cell_length_a   22.04400000
_cell_length_b   22.04400000
_cell_length_c   15.15130000
_cell_angle_alpha   90.00000000
_cell_angle_beta   90.00000000
_cell_angle_gamma   90.00000000
_symmetry_Int_Tables_number   1
_chemical_formula_structural   ZnSiH48C44N4(O4F3)2
_chemical_formula_sum   'Zn4 Si4 H192 C176 N16 O32 F24'
_cell_volume   7362.59144972
_cell_formula_units_Z   4
loop_
 _symmetry_equiv_pos_site_id
 _symmetry_equiv_pos_as_xyz
  1  'x, y, z'
loop_
 _atom_site_type_symbol
 _atom_site_label
 _atom_site_symmetry_multiplicity
 _atom_site_fract_x
 _atom_site_fract_y
 _atom_site_fract_z
 _atom_site_occupancy
 _atom_site_charge
Zn  Zn1  1  0.50000000  0.50000000  0.01429000  1.0 0.7786964453
Zn  Zn2  1  0.50000000  0.50000000  0.51289000  1.0 0.7561284579
Zn  Zn3  1  0.00000000  0.00000000  0.99946000  1.0 0.7338316716
Zn  Zn4  1  0.00000000  0.00000000  0.49761000  1.0 0.7937175907
Si  Si1  1  0.50000000  0.50000000  0.26290000  1.0 1.7125681318
Si  Si2  1  0.50000000  0.50000000  0.76300000  1.0 1.6680034078
Si  Si3  1  0.00000000  0.00000000  0.24800000  1.0 1.7125681318
Si  Si4  1  0.00000000  0.00000000  0.75120000  1.0 1.6680034078
H  H1  1  0.38920000  0.46310000  0.11930000  1.0 0.1289233172
H  H2  1  0.61080000  0.53690000  0.11930000  1.0 0.1289233172
H  H3  1  0.46310000  0.61080000  0.11930000  1.0 0.1289233172
H  H4  1  0.53690000  0.38920000  0.11930000  1.0 0.1289233172
H  H5  1  0.31530000  0.38690000  0.12150000  1.0 0.1395629537
H  H6  1  0.68470000  0.61310000  0.12150000  1.0 0.1395629537
H  H7  1  0.38690000  0.68470000  0.12150000  1.0 0.1395629537
H  H8  1  0.61310000  0.31530000  0.12150000  1.0 0.1395629537
H  H9  1  0.39570000  0.30600000  0.91170000  1.0 0.1289233172
H  H10  1  0.60430000  0.69400000  0.91170000  1.0 0.1395629537
H  H11  1  0.30600000  0.60430000  0.91170000  1.0 0.1289233172
H  H12  1  0.69400000  0.39570000  0.91170000  1.0 0.1289233172
H  H13  1  0.46960000  0.38220000  0.90950000  1.0 0.1289233172
H  H14  1  0.53040000  0.61780000  0.90950000  1.0 0.1289233172
H  H15  1  0.38220000  0.53040000  0.90950000  1.0 0.1289233172
H  H16  1  0.61780000  0.46960000  0.90950000  1.0 0.1289233172
H  H17  1  0.27250000  0.14550000  0.00570000  1.0 0.1199070744
H  H18  1  0.72750000  0.85450000  0.00570000  1.0 0.1199070744
H  H19  1  0.14550000  0.72750000  0.00570000  1.0 0.1199070744
H  H20  1  0.85450000  0.27250000  0.00570000  1.0 0.1199070744
H  H21  1  0.22960000  0.35260000  0.03090000  1.0 0.1289233172
H  H22  1  0.77040000  0.64740000  0.03090000  1.0 0.1289233172
H  H23  1  0.35260000  0.77040000  0.03090000  1.0 0.1289233172
H  H24  1  0.64740000  0.22960000  0.03090000  1.0 0.1289233172
H  H25  1  0.37530000  0.13090000  0.94450000  1.0 0.1199070744
H  H26  1  0.62470000  0.86910000  0.94450000  1.0 0.1106177139
H  H27  1  0.13090000  0.62470000  0.94450000  1.0 0.1106177139
H  H28  1  0.86910000  0.37530000  0.94450000  1.0 0.1199070744
H  H29  1  0.36250000  0.12810000  0.04880000  1.0 0.0880236211
H  H30  1  0.63750000  0.87190000  0.04880000  1.0 0.0880236211
H  H31  1  0.12810000  0.63750000  0.04880000  1.0 0.0880236211
H  H32  1  0.87190000  0.36250000  0.04880000  1.0 0.0880236211
H  H33  1  0.45470000  0.15800000  0.08140000  1.0 0.0778779141
H  H34  1  0.54530000  0.84200000  0.08140000  1.0 0.0778779141
H  H35  1  0.15800000  0.54530000  0.08140000  1.0 0.0778779141
H  H36  1  0.84200000  0.45470000  0.08140000  1.0 0.0778779141
H  H37  1  0.45460000  0.06490000  0.06960000  1.0 0.3315449632
H  H38  1  0.54540000  0.93510000  0.06960000  1.0 0.3315449632
H  H39  1  0.06490000  0.54540000  0.06960000  1.0 0.3315449632
H  H40  1  0.93510000  0.45460000  0.06960000  1.0 0.3315449632
H  H41  1  0.49200000  0.19600000  0.92400000  1.0 0.1473857228
H  H42  1  0.50800000  0.80400000  0.92400000  1.0 0.1473857228
H  H43  1  0.19600000  0.50800000  0.92400000  1.0 0.1473857228
H  H44  1  0.80400000  0.49200000  0.92400000  1.0 0.1473857228
H  H45  1  0.52370000  0.20220000  0.01860000  1.0 0.1289233172
H  H46  1  0.47630000  0.79780000  0.01860000  1.0 0.1289233172
H  H47  1  0.20220000  0.47630000  0.01860000  1.0 0.1289233172
H  H48  1  0.79780000  0.52370000  0.01860000  1.0 0.1289233172
H  H49  1  0.53520000  0.14310000  0.95970000  1.0 0.1289233172
H  H50  1  0.46480000  0.85690000  0.95970000  1.0 0.1289233172
H  H51  1  0.14310000  0.46480000  0.95970000  1.0 0.1289233172
H  H52  1  0.85690000  0.53520000  0.95970000  1.0 0.1289233172
H  H53  1  0.13640000  0.37380000  0.98340000  1.0 0.1106177139
H  H54  1  0.86360000  0.62620000  0.98340000  1.0 0.1106177139
H  H55  1  0.37380000  0.86360000  0.98340000  1.0 0.1106177139
H  H56  1  0.62620000  0.13640000  0.98340000  1.0 0.1106177139
H  H57  1  0.10310000  0.32820000  0.91550000  1.0 0.1106177139
H  H58  1  0.89690000  0.67180000  0.91550000  1.0 0.1106177139
H  H59  1  0.32820000  0.89690000  0.91550000  1.0 0.1106177139
H  H60  1  0.67180000  0.10310000  0.91550000  1.0 0.1106177139
H  H61  1  0.03920000  0.33550000  0.08930000  1.0 0.0726089734
H  H62  1  0.96080000  0.66450000  0.08930000  1.0 0.0726089734
H  H63  1  0.33550000  0.96080000  0.08930000  1.0 0.0726089734
H  H64  1  0.66450000  0.03920000  0.08930000  1.0 0.0726089734
H  H65  1  0.99830000  0.41920000  0.99520000  1.0 0.3098476208
H  H66  1  0.00170000  0.58080000  0.99520000  1.0 0.3098476208
H  H67  1  0.41920000  0.00170000  0.99520000  1.0 0.3098476208
H  H68  1  0.58080000  0.99830000  0.99520000  1.0 0.3098476208
H  H69  1  0.01050000  0.35600000  0.90560000  1.0 0.1289233172
H  H70  1  0.98950000  0.64400000  0.90560000  1.0 0.1289233172
H  H71  1  0.35600000  0.98950000  0.90560000  1.0 0.1289233172
H  H72  1  0.64400000  0.01050000  0.90560000  1.0 0.1289233172
H  H73  1  0.03020000  0.28840000  0.93170000  1.0 0.1289233172
H  H74  1  0.96980000  0.71160000  0.93170000  1.0 0.1289233172
H  H75  1  0.28840000  0.96980000  0.93170000  1.0 0.1289233172
H  H76  1  0.71160000  0.03020000  0.93170000  1.0 0.1289233172
H  H77  1  0.96980000  0.31730000  0.97250000  1.0 0.1106177139
H  H78  1  0.03020000  0.68270000  0.97250000  1.0 0.1106177139
H  H79  1  0.31730000  0.03020000  0.97250000  1.0 0.1106177139
H  H80  1  0.68270000  0.96980000  0.97250000  1.0 0.1106177139
H  H81  1  0.18890000  0.11500000  0.90430000  1.0 0.1395629537
H  H82  1  0.81110000  0.88500000  0.90430000  1.0 0.1395629537
H  H83  1  0.11500000  0.81110000  0.90430000  1.0 0.1395629537
H  H84  1  0.88500000  0.18890000  0.90430000  1.0 0.1395629537
H  H85  1  0.11300000  0.04030000  0.90070000  1.0 0.1199070744
H  H86  1  0.88700000  0.95970000  0.90070000  1.0 0.1199070744
H  H87  1  0.04030000  0.88700000  0.90070000  1.0 0.1199070744
H  H88  1  0.95970000  0.11300000  0.90070000  1.0 0.1199070744
H  H89  1  0.03620000  0.11050000  0.10540000  1.0 0.1199070744
H  H90  1  0.96380000  0.88950000  0.10540000  1.0 0.1199070744
H  H91  1  0.11050000  0.96380000  0.10540000  1.0 0.1289233172
H  H92  1  0.88950000  0.03620000  0.10540000  1.0 0.1199070744
H  H93  1  0.10660000  0.18560000  0.11470000  1.0 0.1395629537
H  H94  1  0.89340000  0.81440000  0.11470000  1.0 0.1395629537
H  H95  1  0.18560000  0.89340000  0.11470000  1.0 0.1395629537
H  H96  1  0.81440000  0.10660000  0.11470000  1.0 0.1395629537
H  H97  1  0.38730000  0.46380000  0.40530000  1.0 0.1289233172
H  H98  1  0.61270000  0.53620000  0.40530000  1.0 0.1289233172
H  H99  1  0.46380000  0.61270000  0.40530000  1.0 0.1289233172
H  H100  1  0.53620000  0.38730000  0.40530000  1.0 0.1289233172
H  H101  1  0.31260000  0.39570000  0.39950000  1.0 0.1395629537
H  H102  1  0.68740000  0.60430000  0.39950000  1.0 0.1395629537
H  H103  1  0.39570000  0.68740000  0.39950000  1.0 0.1395629537
H  H104  1  0.60430000  0.31260000  0.39950000  1.0 0.1395629537
H  H105  1  0.38870000  0.31170000  0.61240000  1.0 0.1395629537
H  H106  1  0.61130000  0.68830000  0.61240000  1.0 0.1395629537
H  H107  1  0.31170000  0.61130000  0.61240000  1.0 0.1395629537
H  H108  1  0.68830000  0.38870000  0.61240000  1.0 0.1395629537
H  H109  1  0.45700000  0.39080000  0.61530000  1.0 0.1289233172
H  H110  1  0.54300000  0.60920000  0.61530000  1.0 0.1289233172
H  H111  1  0.39080000  0.54300000  0.61530000  1.0 0.1289233172
H  H112  1  0.60920000  0.45700000  0.61530000  1.0 0.1289233172
H  H113  1  0.14710000  0.26950000  0.49590000  1.0 0.1289233172
H  H114  1  0.85290000  0.73050000  0.49590000  1.0 0.1289233172
H  H115  1  0.26950000  0.85290000  0.49590000  1.0 0.1289233172
H  H116  1  0.73050000  0.14710000  0.49590000  1.0 0.1289233172
H  H117  1  0.35460000  0.22640000  0.51570000  1.0 0.1199070744
H  H118  1  0.64540000  0.77360000  0.51570000  1.0 0.1199070744
H  H119  1  0.22640000  0.64540000  0.51570000  1.0 0.1199070744
H  H120  1  0.77360000  0.35460000  0.51570000  1.0 0.1199070744
H  H121  1  0.16520000  0.38790000  0.59550000  1.0 0.1199070744
H  H122  1  0.83480000  0.61210000  0.59550000  1.0 0.1199070744
H  H123  1  0.38790000  0.83480000  0.59550000  1.0 0.1199070744
H  H124  1  0.61210000  0.16520000  0.59550000  1.0 0.1199070744
H  H125  1  0.12310000  0.36340000  0.51660000  1.0 0.0968456506
H  H126  1  0.87690000  0.63660000  0.51660000  1.0 0.0968456506
H  H127  1  0.36340000  0.87690000  0.51660000  1.0 0.0968456506
H  H128  1  0.63660000  0.12310000  0.51660000  1.0 0.0968456506
H  H129  1  0.15730000  0.45560000  0.43950000  1.0 0.0726089734
H  H130  1  0.84270000  0.54440000  0.43950000  1.0 0.0726089734
H  H131  1  0.45560000  0.84270000  0.43950000  1.0 0.0726089734
H  H132  1  0.54440000  0.15730000  0.43950000  1.0 0.0726089734
H  H133  1  0.05850000  0.44530000  0.47930000  1.0 0.346289841
H  H134  1  0.94150000  0.55470000  0.47930000  1.0 0.346289841
H  H135  1  0.44530000  0.94150000  0.47930000  1.0 0.346289841
H  H136  1  0.55470000  0.05850000  0.47930000  1.0 0.346289841
H  H137  1  0.22880000  0.49550000  0.53240000  1.0 0.1395629537
H  H138  1  0.77120000  0.50450000  0.53240000  1.0 0.1395629537
H  H139  1  0.49550000  0.77120000  0.53240000  1.0 0.1395629537
H  H140  1  0.50450000  0.22880000  0.53240000  1.0 0.1395629537
H  H141  1  0.17210000  0.54020000  0.54330000  1.0 0.1199070744
H  H142  1  0.82790000  0.45980000  0.54330000  1.0 0.1199070744
H  H143  1  0.54020000  0.82790000  0.54330000  1.0 0.1199070744
H  H144  1  0.45980000  0.17210000  0.54330000  1.0 0.1199070744
H  H145  1  0.18570000  0.49010000  0.61710000  1.0 0.1473857228
H  H146  1  0.81430000  0.50990000  0.61710000  1.0 0.1473857228
H  H147  1  0.49010000  0.81430000  0.61710000  1.0 0.1473857228
H  H148  1  0.50990000  0.18570000  0.61710000  1.0 0.1473857228
H  H149  1  0.36980000  0.13550000  0.45020000  1.0 0.0968456506
H  H150  1  0.63020000  0.86450000  0.45020000  1.0 0.0968456506
H  H151  1  0.13550000  0.63020000  0.45020000  1.0 0.0968456506
H  H152  1  0.86450000  0.36980000  0.45020000  1.0 0.0968456506
H  H153  1  0.36810000  0.12650000  0.55580000  1.0 0.1106177139
H  H154  1  0.63190000  0.87350000  0.55580000  1.0 0.1106177139
H  H155  1  0.12650000  0.63190000  0.55580000  1.0 0.1106177139
H  H156  1  0.87350000  0.36810000  0.55580000  1.0 0.1106177139
H  H157  1  0.33400000  0.03530000  0.42610000  1.0 0.0726089734
H  H158  1  0.66600000  0.96470000  0.42610000  1.0 0.0726089734
H  H159  1  0.03530000  0.66600000  0.42610000  1.0 0.0726089734
H  H160  1  0.96470000  0.33400000  0.42610000  1.0 0.0726089734
H  H161  1  0.43320000  0.06310000  0.46890000  1.0 0.346289841
H  H162  1  0.56680000  0.93690000  0.46890000  1.0 0.346289841
H  H163  1  0.06310000  0.56680000  0.46890000  1.0 0.346289841
H  H164  1  0.93690000  0.43320000  0.46890000  1.0 0.346289841
H  H165  1  0.27440000  0.01370000  0.55120000  1.0 0.1395629537
H  H166  1  0.72560000  0.98630000  0.55120000  1.0 0.1395629537
H  H167  1  0.01370000  0.72560000  0.55120000  1.0 0.1395629537
H  H168  1  0.98630000  0.27440000  0.55120000  1.0 0.1395629537
H  H169  1  0.32440000  0.96240000  0.53380000  1.0 0.1289233172
H  H170  1  0.67560000  0.03760000  0.53380000  1.0 0.1289233172
H  H171  1  0.96240000  0.67560000  0.53380000  1.0 0.1289233172
H  H172  1  0.03760000  0.32440000  0.53380000  1.0 0.1289233172
H  H173  1  0.33470000  0.01170000  0.60990000  1.0 0.1473857228
H  H174  1  0.66530000  0.98830000  0.60990000  1.0 0.1473857228
H  H175  1  0.01170000  0.66530000  0.60990000  1.0 0.1473857228
H  H176  1  0.98830000  0.33470000  0.60990000  1.0 0.1473857228
H  H177  1  0.11860000  0.18550000  0.39080000  1.0 0.1395629537
H  H178  1  0.88140000  0.81450000  0.39080000  1.0 0.1395629537
H  H179  1  0.18550000  0.88140000  0.39080000  1.0 0.1395629537
H  H180  1  0.81450000  0.11860000  0.39080000  1.0 0.1395629537
H  H181  1  0.04080000  0.11320000  0.38990000  1.0 0.1289233172
H  H182  1  0.95920000  0.88680000  0.38990000  1.0 0.1289233172
H  H183  1  0.11320000  0.95920000  0.38990000  1.0 0.1289233172
H  H184  1  0.88680000  0.04080000  0.38990000  1.0 0.1289233172
H  H185  1  0.11660000  0.03050000  0.60190000  1.0 0.1289233172
H  H186  1  0.88340000  0.96950000  0.60190000  1.0 0.1289233172
H  H187  1  0.03050000  0.88340000  0.60190000  1.0 0.1289233172
H  H188  1  0.96950000  0.11660000  0.60190000  1.0 0.1289233172
H  H189  1  0.19440000  0.10270000  0.60270000  1.0 0.1289233172
H  H190  1  0.80560000  0.89730000  0.60270000  1.0 0.1289233172
H  H191  1  0.10270000  0.80560000  0.60270000  1.0 0.1289233172
H  H192  1  0.89730000  0.19440000  0.60270000  1.0 0.1289233172
C  C1  1  0.39050000  0.43120000  0.07710000  1.0 0.0880236211
C  C2  1  0.60950000  0.56880000  0.07710000  1.0 0.0880236211
C  C3  1  0.43120000  0.60950000  0.07710000  1.0 0.0880236211
C  C4  1  0.56880000  0.39050000  0.07710000  1.0 0.0880236211
C  C5  1  0.34660000  0.38590000  0.07850000  1.0 -0.1986104869
C  C6  1  0.65340000  0.61410000  0.07850000  1.0 -0.1986104869
C  C7  1  0.38590000  0.65340000  0.07850000  1.0 -0.1986104869
C  C8  1  0.61410000  0.34660000  0.07850000  1.0 -0.1986104869
C  C9  1  0.34850000  0.33930000  0.01680000  1.0 0.1395629537
C  C10  1  0.65150000  0.66070000  0.01680000  1.0 0.1289233172
C  C11  1  0.33930000  0.65150000  0.01680000  1.0 0.1395629537
C  C12  1  0.66070000  0.34850000  0.01680000  1.0 0.1289233172
C  C13  1  0.39440000  0.33790000  0.95380000  1.0 -0.1908146158
C  C14  1  0.60560000  0.66210000  0.95380000  1.0 -0.1908146158
C  C15  1  0.33790000  0.60560000  0.95380000  1.0 -0.1908146158
C  C16  1  0.66210000  0.39440000  0.95380000  1.0 -0.1908146158
C  C17  1  0.43830000  0.38310000  0.95250000  1.0 0.0880236211
C  C18  1  0.56170000  0.61690000  0.95250000  1.0 0.0880236211
C  C19  1  0.38310000  0.56170000  0.95250000  1.0 0.0880236211
C  C20  1  0.61690000  0.43830000  0.95250000  1.0 0.0880236211
C  C21  1  0.29740000  0.29160000  0.01360000  1.0 -0.043625182
C  C22  1  0.70260000  0.70840000  0.01360000  1.0 -0.043625182
C  C23  1  0.29160000  0.70260000  0.01360000  1.0 -0.043625182
C  C24  1  0.70840000  0.29740000  0.01360000  1.0 -0.043625182
C  C25  1  0.31120000  0.23180000  0.01300000  1.0 0.1995498664
C  C26  1  0.68880000  0.76820000  0.01300000  1.0 0.1995498664
C  C27  1  0.23180000  0.68880000  0.01300000  1.0 0.1995498664
C  C28  1  0.76820000  0.31120000  0.01300000  1.0 0.1995498664
C  C29  1  0.26330000  0.18750000  0.00870000  1.0 -0.3180455365
C  C30  1  0.73670000  0.81250000  0.00870000  1.0 -0.3180455365
C  C31  1  0.18750000  0.73670000  0.00870000  1.0 -0.3180455365
C  C32  1  0.81250000  0.26330000  0.00870000  1.0 -0.3180455365
C  C33  1  0.20080000  0.20800000  0.00890000  1.0 -0.0109478072
C  C34  1  0.79920000  0.79200000  0.00890000  1.0 -0.0109478072
C  C35  1  0.20800000  0.79920000  0.00890000  1.0 -0.0109478072
C  C36  1  0.79200000  0.20080000  0.00890000  1.0 -0.0109478072
C  C37  1  0.19190000  0.27110000  0.01890000  1.0 0.1995498664
C  C38  1  0.80810000  0.72890000  0.01890000  1.0 0.1995498664
C  C39  1  0.27110000  0.80810000  0.01890000  1.0 0.1995498664
C  C40  1  0.72890000  0.19190000  0.01890000  1.0 0.1995498664
C  C41  1  0.23790000  0.31070000  0.02230000  1.0 -0.2370219179
C  C42  1  0.76210000  0.68930000  0.02230000  1.0 -0.2370219179
C  C43  1  0.31070000  0.76210000  0.02230000  1.0 -0.2370219179
C  C44  1  0.68930000  0.23790000  0.02230000  1.0 -0.2370219179
C  C45  1  0.38570000  0.14930000  0.00210000  1.0 -0.1411994048
C  C46  1  0.61430000  0.85070000  0.00210000  1.0 -0.1411994048
C  C47  1  0.14930000  0.61430000  0.00210000  1.0 -0.1411994048
C  C48  1  0.85070000  0.38570000  0.00210000  1.0 -0.1411994048
C  C49  1  0.45150000  0.14350000  0.01900000  1.0 0.179052517
C  C50  1  0.54850000  0.85650000  0.01900000  1.0 0.179052517
C  C51  1  0.14350000  0.54850000  0.01900000  1.0 0.179052517
C  C52  1  0.85650000  0.45150000  0.01900000  1.0 0.179052517
C  C53  1  0.50530000  0.17390000  0.97670000  1.0 -0.4800427444
C  C54  1  0.49470000  0.82610000  0.97670000  1.0 -0.4800427444
C  C55  1  0.17390000  0.49470000  0.97670000  1.0 -0.490242202
C  C56  1  0.82610000  0.50530000  0.97670000  1.0 -0.4800427444
C  C57  1  0.10920000  0.33820000  0.97850000  1.0 -0.119840411
C  C58  1  0.89080000  0.66180000  0.97850000  1.0 -0.119840411
C  C59  1  0.33820000  0.89080000  0.97850000  1.0 -0.119840411
C  C60  1  0.66180000  0.10920000  0.97850000  1.0 -0.119840411
C  C61  1  0.04630000  0.34970000  0.02750000  1.0 0.179052517
C  C62  1  0.95370000  0.65030000  0.02750000  1.0 0.179052517
C  C63  1  0.34970000  0.95370000  0.02750000  1.0 0.179052517
C  C64  1  0.65030000  0.04630000  0.02750000  1.0 0.179052517
C  C65  1  0.01130000  0.32590000  0.95320000  1.0 -0.490242202
C  C66  1  0.98870000  0.67410000  0.95320000  1.0 -0.490242202
C  C67  1  0.32590000  0.98870000  0.95320000  1.0 -0.490242202
C  C68  1  0.67410000  0.01130000  0.95320000  1.0 -0.490242202
C  C69  1  0.15400000  0.16160000  0.00730000  1.0 0.1289233172
C  C70  1  0.84600000  0.83840000  0.00730000  1.0 0.1289233172
C  C71  1  0.16160000  0.84600000  0.00730000  1.0 0.1289233172
C  C72  1  0.83840000  0.15400000  0.00730000  1.0 0.1289233172
C  C73  1  0.15670000  0.11610000  0.94590000  1.0 -0.2097405628
C  C74  1  0.84330000  0.88390000  0.94590000  1.0 -0.2097405628
C  C75  1  0.11610000  0.84330000  0.94590000  1.0 -0.2097405628
C  C76  1  0.88390000  0.15670000  0.94590000  1.0 -0.2097405628
C  C77  1  0.11130000  0.07090000  0.94490000  1.0 0.1106177139
C  C78  1  0.88870000  0.92910000  0.94490000  1.0 0.1106177139
C  C79  1  0.07090000  0.88870000  0.94490000  1.0 0.1106177139
C  C80  1  0.92910000  0.11130000  0.94490000  1.0 0.1106177139
C  C81  1  0.06760000  0.11180000  0.06250000  1.0 0.0778779141
C  C82  1  0.93240000  0.88820000  0.06250000  1.0 0.0778779141
C  C83  1  0.11180000  0.93240000  0.06250000  1.0 0.0778779141
C  C84  1  0.88820000  0.06760000  0.06250000  1.0 0.0778779141
C  C85  1  0.10900000  0.15690000  0.06800000  1.0 -0.1815307611
C  C86  1  0.89100000  0.84310000  0.06800000  1.0 -0.1815307611
C  C87  1  0.15690000  0.89100000  0.06800000  1.0 -0.1815307611
C  C88  1  0.84310000  0.10900000  0.06800000  1.0 -0.1815307611
C  C89  1  0.38680000  0.43260000  0.44850000  1.0 0.0726089734
C  C90  1  0.61320000  0.56740000  0.44850000  1.0 0.0726089734
C  C91  1  0.43260000  0.61320000  0.44850000  1.0 0.0726089734
C  C92  1  0.56740000  0.38680000  0.44850000  1.0 0.0726089734
C  C93  1  0.34250000  0.39270000  0.44440000  1.0 -0.1908146158
C  C94  1  0.65750000  0.60730000  0.44440000  1.0 -0.1908146158
C  C95  1  0.39270000  0.65750000  0.44440000  1.0 -0.1908146158
C  C96  1  0.60730000  0.34250000  0.44440000  1.0 -0.1908146158
C  C97  1  0.33960000  0.34530000  0.50690000  1.0 0.1395629537
C  C98  1  0.66040000  0.65470000  0.50690000  1.0 0.1395629537
C  C99  1  0.34530000  0.66040000  0.50690000  1.0 0.1395629537
C  C100  1  0.65470000  0.33960000  0.50690000  1.0 0.1395629537
C  C101  1  0.38620000  0.34360000  0.57030000  1.0 -0.2097405628
C  C102  1  0.61380000  0.65640000  0.57030000  1.0 -0.2097405628
C  C103  1  0.34360000  0.61380000  0.57030000  1.0 -0.2097405628
C  C104  1  0.65640000  0.38620000  0.57030000  1.0 -0.2097405628
C  C105  1  0.42800000  0.38980000  0.56890000  1.0 0.0968456506
C  C106  1  0.57200000  0.61020000  0.56890000  1.0 0.0968456506
C  C107  1  0.38980000  0.57200000  0.56890000  1.0 0.0968456506
C  C108  1  0.61020000  0.42800000  0.56890000  1.0 0.0968456506
C  C109  1  0.29280000  0.29500000  0.50770000  1.0 -0.0109478072
C  C110  1  0.70720000  0.70500000  0.50770000  1.0 -0.0109478072
C  C111  1  0.29500000  0.70720000  0.50770000  1.0 -0.0109478072
C  C112  1  0.70500000  0.29280000  0.50770000  1.0 -0.0109478072
C  C113  1  0.23120000  0.30780000  0.50180000  1.0 0.1915776707
C  C114  1  0.76880000  0.69220000  0.50180000  1.0 0.1915776707
C  C115  1  0.30780000  0.76880000  0.50180000  1.0 0.1915776707
C  C116  1  0.69220000  0.23120000  0.50180000  1.0 0.1915776707
C  C117  1  0.18920000  0.26080000  0.49990000  1.0 -0.2539909207
C  C118  1  0.81080000  0.73920000  0.49990000  1.0 -0.2539909207
C  C119  1  0.26080000  0.81080000  0.49990000  1.0 -0.2539909207
C  C120  1  0.73920000  0.18920000  0.49990000  1.0 -0.2539909207
C  C121  1  0.20890000  0.20090000  0.50390000  1.0 -0.0310460445
C  C122  1  0.79110000  0.79910000  0.50390000  1.0 -0.0310460445
C  C123  1  0.20090000  0.79110000  0.50390000  1.0 -0.0310460445
C  C124  1  0.79910000  0.20890000  0.50390000  1.0 -0.0310460445
C  C125  1  0.27050000  0.18810000  0.50980000  1.0 0.2155478872
C  C126  1  0.72950000  0.81190000  0.50980000  1.0 0.2155478872
C  C127  1  0.18810000  0.72950000  0.50980000  1.0 0.2155478872
C  C128  1  0.81190000  0.27050000  0.50980000  1.0 0.2155478872
C  C129  1  0.31240000  0.23510000  0.51170000  1.0 -0.2746665799
C  C130  1  0.68760000  0.76490000  0.51170000  1.0 -0.2746665799
C  C131  1  0.23510000  0.68760000  0.51170000  1.0 -0.2746665799
C  C132  1  0.76490000  0.31240000  0.51170000  1.0 -0.2746665799
C  C133  1  0.15820000  0.38970000  0.53100000  1.0 -0.1317350329
C  C134  1  0.84180000  0.61030000  0.53100000  1.0 -0.1317350329
C  C135  1  0.38970000  0.84180000  0.53100000  1.0 -0.1317350329
C  C136  1  0.61030000  0.15820000  0.53100000  1.0 -0.1317350329
C  C137  1  0.14590000  0.45280000  0.50330000  1.0 0.179052517
C  C138  1  0.85410000  0.54720000  0.50330000  1.0 0.179052517
C  C139  1  0.45280000  0.85410000  0.50330000  1.0 0.179052517
C  C140  1  0.54720000  0.14590000  0.50330000  1.0 0.179052517
C  C141  1  0.18700000  0.49890000  0.55370000  1.0 -0.4735565507
C  C142  1  0.81300000  0.50110000  0.55370000  1.0 -0.4735565507
C  C143  1  0.49890000  0.81300000  0.55370000  1.0 -0.4735565507
C  C144  1  0.50110000  0.18700000  0.55370000  1.0 -0.4735565507
C  C145  1  0.34860000  0.11500000  0.49940000  1.0 -0.119840411
C  C146  1  0.65140000  0.88500000  0.49940000  1.0 -0.119840411
C  C147  1  0.11500000  0.65140000  0.49940000  1.0 -0.119840411
C  C148  1  0.88500000  0.34860000  0.49940000  1.0 -0.119840411
C  C149  1  0.34870000  0.04510000  0.48690000  1.0 0.1915776707
C  C150  1  0.65130000  0.95490000  0.48690000  1.0 0.1915776707
C  C151  1  0.04510000  0.65130000  0.48690000  1.0 0.1915776707
C  C152  1  0.95490000  0.34870000  0.48690000  1.0 0.1915776707
C  C153  1  0.31790000  0.00480000  0.55080000  1.0 -0.5011594616
C  C154  1  0.68210000  0.99520000  0.55080000  1.0 -0.5011594616
C  C155  1  0.00480000  0.68210000  0.55080000  1.0 -0.5011594616
C  C156  1  0.99520000  0.31790000  0.55080000  1.0 -0.5011594616
C  C157  1  0.16380000  0.15090000  0.49680000  1.0 0.1289233172
C  C158  1  0.83620000  0.84910000  0.49680000  1.0 0.1289233172
C  C159  1  0.15090000  0.83620000  0.49680000  1.0 0.1289233172
C  C160  1  0.84910000  0.16380000  0.49680000  1.0 0.1289233172
C  C161  1  0.11820000  0.15400000  0.43360000  1.0 -0.1908146158
C  C162  1  0.88180000  0.84600000  0.43360000  1.0 -0.1908146158
C  C163  1  0.15400000  0.88180000  0.43360000  1.0 -0.1908146158
C  C164  1  0.84600000  0.11820000  0.43360000  1.0 -0.1908146158
C  C165  1  0.07200000  0.11110000  0.43310000  1.0 0.0880236211
C  C166  1  0.92800000  0.88890000  0.43310000  1.0 0.0880236211
C  C167  1  0.11110000  0.92800000  0.43310000  1.0 0.0880236211
C  C168  1  0.88890000  0.07200000  0.43310000  1.0 0.0880236211
C  C169  1  0.11700000  0.06190000  0.55900000  1.0 0.0880236211
C  C170  1  0.88300000  0.93810000  0.55900000  1.0 0.0880236211
C  C171  1  0.06190000  0.88300000  0.55900000  1.0 0.0880236211
C  C172  1  0.93810000  0.11700000  0.55900000  1.0 0.0880236211
C  C173  1  0.16320000  0.10490000  0.55950000  1.0 -0.1908146158
C  C174  1  0.83680000  0.89510000  0.55950000  1.0 -0.1908146158
C  C175  1  0.10490000  0.83680000  0.55950000  1.0 -0.1908146158
C  C176  1  0.89510000  0.16320000  0.55950000  1.0 -0.1908146158
N  N1  1  0.43633000  0.42979000  0.01420000  1.0 -0.2589948833
N  N2  1  0.56367000  0.57021000  0.01420000  1.0 -0.2589948833
N  N3  1  0.42979000  0.56367000  0.01420000  1.0 -0.2589948833
N  N4  1  0.57021000  0.43633000  0.01420000  1.0 -0.2589948833
N  N5  1  0.06820000  0.06960000  0.00080000  1.0 -0.2097405628
N  N6  1  0.93180000  0.93040000  0.00080000  1.0 -0.2097405628
N  N7  1  0.06960000  0.93180000  0.00080000  1.0 -0.2097405628
N  N8  1  0.93040000  0.06820000  0.00080000  1.0 -0.2097405628
N  N9  1  0.43150000  0.43270000  0.50920000  1.0 -0.2220857762
N  N10  1  0.56850000  0.56730000  0.50920000  1.0 -0.2220857762
N  N11  1  0.43270000  0.56850000  0.50920000  1.0 -0.2220857762
N  N12  1  0.56730000  0.43150000  0.50920000  1.0 -0.2220857762
N  N13  1  0.07140000  0.06510000  0.49580000  1.0 -0.2589948833
N  N14  1  0.92860000  0.93490000  0.49580000  1.0 -0.2589948833
N  N15  1  0.06510000  0.92860000  0.49580000  1.0 -0.2589948833
N  N16  1  0.93490000  0.07140000  0.49580000  1.0 -0.2589948833
O  O1  1  0.37060000  0.21550000  0.00180000  1.0 -0.1815307611
O  O2  1  0.62940000  0.78450000  0.00180000  1.0 -0.1815307611
O  O3  1  0.21550000  0.62940000  0.00180000  1.0 -0.1815307611
O  O4  1  0.78450000  0.37060000  0.00180000  1.0 -0.1815307611
O  O5  1  0.47190000  0.08150000  0.02650000  1.0 -0.4800427444
O  O6  1  0.52810000  0.91850000  0.02650000  1.0 -0.4800427444
O  O7  1  0.08150000  0.52810000  0.02650000  1.0 -0.4800427444
O  O8  1  0.91850000  0.47190000  0.02650000  1.0 -0.4800427444
O  O9  1  0.13210000  0.28700000  0.02750000  1.0 -0.1908146158
O  O10  1  0.86790000  0.71300000  0.02750000  1.0 -0.1908146158
O  O11  1  0.28700000  0.86790000  0.02750000  1.0 -0.1908146158
O  O12  1  0.71300000  0.13210000  0.02750000  1.0 -0.1908146158
O  O13  1  0.03580000  0.41320000  0.00100000  1.0 -0.4266561889
O  O14  1  0.96420000  0.58680000  0.00100000  1.0 -0.4266561889
O  O15  1  0.41320000  0.96420000  0.00100000  1.0 -0.4266561889
O  O16  1  0.58680000  0.03580000  0.00100000  1.0 -0.4266561889
O  O17  1  0.21310000  0.36850000  0.48280000  1.0 -0.2097405628
O  O18  1  0.78690000  0.63150000  0.48280000  1.0 -0.2097405628
O  O19  1  0.36850000  0.78690000  0.48280000  1.0 -0.2097405628
O  O20  1  0.63150000  0.21310000  0.48280000  1.0 -0.2097405628
O  O21  1  0.07910000  0.46980000  0.50940000  1.0 -0.5103728659
O  O22  1  0.92090000  0.53020000  0.50940000  1.0 -0.5103728659
O  O23  1  0.46980000  0.92090000  0.50940000  1.0 -0.5103728659
O  O24  1  0.53020000  0.07910000  0.50940000  1.0 -0.5103728659
O  O25  1  0.28550000  0.12990000  0.50000000  1.0 -0.1673164838
O  O26  1  0.71450000  0.87010000  0.50000000  1.0 -0.1673164838
O  O27  1  0.12990000  0.71450000  0.50000000  1.0 -0.1673164838
O  O28  1  0.87010000  0.28550000  0.50000000  1.0 -0.1673164838
O  O29  1  0.41450000  0.03370000  0.49140000  1.0 -0.490242202
O  O30  1  0.58550000  0.96630000  0.49140000  1.0 -0.490242202
O  O31  1  0.03370000  0.58550000  0.49140000  1.0 -0.490242202
O  O32  1  0.96630000  0.41450000  0.49140000  1.0 -0.490242202
F  F1  1  0.50000000  0.50000000  0.87740000  1.0 -0.4800427444
F  F2  1  0.50000000  0.50000000  0.14910000  1.0 -0.4800427444
F  F3  1  0.42654000  0.51690000  0.25950000  1.0 -0.5425909632
F  F4  1  0.57346000  0.48310000  0.25950000  1.0 -0.5425909632
F  F5  1  0.51690000  0.57346000  0.25950000  1.0 -0.5425909632
F  F6  1  0.48310000  0.42654000  0.25950000  1.0 -0.5425909632
F  F7  1  0.50000000  0.50000000  0.37600000  1.0 -0.5264209234
F  F8  1  0.50000000  0.50000000  0.65280000  1.0 -0.5160941802
F  F9  1  0.49740000  0.57270000  0.76800000  1.0 -0.5103728659
F  F10  1  0.50260000  0.42730000  0.76800000  1.0 -0.5103728659
F  F11  1  0.57270000  0.50260000  0.76800000  1.0 -0.5103728659
F  F12  1  0.42730000  0.49740000  0.76800000  1.0 -0.5103728659
F  F13  1  0.00000000  0.00000000  0.13890000  1.0 -0.4800427444
F  F14  1  0.01903000  0.92679000  0.24670000  1.0 -0.5425909632
F  F15  1  0.98097000  0.07321000  0.24670000  1.0 -0.5425909632
F  F16  1  0.92679000  0.98097000  0.24670000  1.0 -0.5425909632
F  F17  1  0.07321000  0.01903000  0.24670000  1.0 -0.5425909632
F  F18  1  0.00000000  0.00000000  0.36640000  1.0 -0.5264209234
F  F19  1  0.00000000  0.00000000  0.63310000  1.0 -0.5103728659
F  F20  1  0.00950000  0.07230000  0.74850000  1.0 -0.5160941802
F  F21  1  0.99050000  0.92770000  0.74850000  1.0 -0.5103728659
F  F22  1  0.07230000  0.99050000  0.74850000  1.0 -0.5103728659
F  F23  1  0.92770000  0.00950000  0.74850000  1.0 -0.5160941802
F  F24  1  0.00000000  0.00000000  0.85790000  1.0 -0.4800427444
