# DDEC6 charges by PACMAN v1.1 (https://github.com/mtap-research/PACMAN-charge/)
data_SERWIX_FSR_pacman
_symmetry_space_group_name_H-M   'P 1'
_cell_length_a   22.06560000
_cell_length_b   22.06560000
_cell_length_c   15.27300000
_cell_angle_alpha   90.00000000
_cell_angle_beta   90.00000000
_cell_angle_gamma   90.00000000
_symmetry_Int_Tables_number   1
_chemical_formula_structural   ZnSiH38C53N4(O2F3)2
_chemical_formula_sum   'Zn4 Si4 H152 C212 N16 O16 F24'
_cell_volume   7436.28171242
_cell_formula_units_Z   4
loop_
 _symmetry_equiv_pos_site_id
 _symmetry_equiv_pos_as_xyz
  1  'x, y, z'
loop_
 _atom_site_type_symbol
 _atom_site_label
 _atom_site_symmetry_multiplicity
 _atom_site_fract_x
 _atom_site_fract_y
 _atom_site_fract_z
 _atom_site_occupancy
 _atom_site_charge
Zn  Zn1  1  0.50000000  0.50000000  0.02092000  1.0 0.7535895173
Zn  Zn2  1  0.50000000  0.50000000  0.51983000  1.0 0.7535895173
Zn  Zn3  1  0.00000000  0.00000000  0.99105000  1.0 0.7691198651
Zn  Zn4  1  0.00000000  0.00000000  0.48979000  1.0 0.7691198651
Si  Si1  1  0.50000000  0.50000000  0.26970000  1.0 1.7021867398
Si  Si2  1  0.50000000  0.50000000  0.76860000  1.0 1.7257165674
Si  Si3  1  0.00000000  0.00000000  0.24050000  1.0 1.7212824587
Si  Si4  1  0.00000000  0.00000000  0.74210000  1.0 1.7021867398
H  H1  1  0.39260000  0.44950000  0.13420000  1.0 0.1218548124
H  H2  1  0.60740000  0.55050000  0.13420000  1.0 0.1218548124
H  H3  1  0.44950000  0.60740000  0.13420000  1.0 0.1218548124
H  H4  1  0.55050000  0.39260000  0.13420000  1.0 0.1218548124
H  H5  1  0.31450000  0.38370000  0.12060000  1.0 0.1296324632
H  H6  1  0.68550000  0.61630000  0.12060000  1.0 0.1296324632
H  H7  1  0.38370000  0.68550000  0.12060000  1.0 0.1296324632
H  H8  1  0.61630000  0.31450000  0.12060000  1.0 0.1296324632
H  H9  1  0.39780000  0.31000000  0.91100000  1.0 0.1296324632
H  H10  1  0.60220000  0.69000000  0.91100000  1.0 0.1296324632
H  H11  1  0.31000000  0.60220000  0.91100000  1.0 0.1296324632
H  H12  1  0.69000000  0.39780000  0.91100000  1.0 0.1296324632
H  H13  1  0.46840000  0.38720000  0.91670000  1.0 0.1218548124
H  H14  1  0.53160000  0.61280000  0.91670000  1.0 0.1218548124
H  H15  1  0.38720000  0.53160000  0.91670000  1.0 0.1218548124
H  H16  1  0.61280000  0.46840000  0.91670000  1.0 0.1218548124
H  H17  1  0.22710000  0.34980000  0.02730000  1.0 0.1296324632
H  H18  1  0.77290000  0.65020000  0.02730000  1.0 0.1296324632
H  H19  1  0.34980000  0.77290000  0.02730000  1.0 0.1296324632
H  H20  1  0.65020000  0.22710000  0.02730000  1.0 0.1296324632
H  H21  1  0.27450000  0.14500000  0.00320000  1.0 0.1478775282
H  H22  1  0.72550000  0.85500000  0.00320000  1.0 0.1478775282
H  H23  1  0.14500000  0.72550000  0.00320000  1.0 0.1478775282
H  H24  1  0.85500000  0.27450000  0.00320000  1.0 0.1478775282
H  H25  1  0.18900000  0.11330000  0.89170000  1.0 0.1478775282
H  H26  1  0.81100000  0.88670000  0.89170000  1.0 0.1478775282
H  H27  1  0.11330000  0.81100000  0.89170000  1.0 0.1478775282
H  H28  1  0.88670000  0.18900000  0.89170000  1.0 0.1478775282
H  H29  1  0.11330000  0.03630000  0.89440000  1.0 0.1218548124
H  H30  1  0.88670000  0.96370000  0.89440000  1.0 0.1218548124
H  H31  1  0.03630000  0.88670000  0.89440000  1.0 0.1218548124
H  H32  1  0.96370000  0.11330000  0.89440000  1.0 0.1218548124
H  H33  1  0.03390000  0.11130000  0.09690000  1.0 0.1218548124
H  H34  1  0.96610000  0.88870000  0.09690000  1.0 0.1218548124
H  H35  1  0.11130000  0.96610000  0.09690000  1.0 0.1218548124
H  H36  1  0.88870000  0.03390000  0.09690000  1.0 0.1218548124
H  H37  1  0.10910000  0.19170000  0.10430000  1.0 0.1401916632
H  H38  1  0.89090000  0.80830000  0.10430000  1.0 0.1401916632
H  H39  1  0.19170000  0.89090000  0.10430000  1.0 0.1401916632
H  H40  1  0.80830000  0.10910000  0.10430000  1.0 0.1401916632
H  H41  1  0.45760000  0.38950000  0.62530000  1.0 0.1218548124
H  H42  1  0.54240000  0.61050000  0.62530000  1.0 0.1218548124
H  H43  1  0.38950000  0.54240000  0.62530000  1.0 0.1218548124
H  H44  1  0.61050000  0.45760000  0.62530000  1.0 0.1218548124
H  H45  1  0.38300000  0.31140000  0.61820000  1.0 0.1401916632
H  H46  1  0.61700000  0.68860000  0.61820000  1.0 0.1401916632
H  H47  1  0.31140000  0.61700000  0.61820000  1.0 0.1401916632
H  H48  1  0.68860000  0.38300000  0.61820000  1.0 0.1401916632
H  H49  1  0.31480000  0.39330000  0.40500000  1.0 0.1478775282
H  H50  1  0.68520000  0.60670000  0.40500000  1.0 0.1478775282
H  H51  1  0.39330000  0.68520000  0.40500000  1.0 0.1478775282
H  H52  1  0.60670000  0.31480000  0.40500000  1.0 0.1478775282
H  H53  1  0.38610000  0.46510000  0.41380000  1.0 0.1218548124
H  H54  1  0.61390000  0.53490000  0.41380000  1.0 0.1218548124
H  H55  1  0.46510000  0.61390000  0.41380000  1.0 0.1218548124
H  H56  1  0.53490000  0.38610000  0.41380000  1.0 0.1218548124
H  H57  1  0.14930000  0.27100000  0.48240000  1.0 0.1218548124
H  H58  1  0.85070000  0.72900000  0.48240000  1.0 0.1218548124
H  H59  1  0.27100000  0.85070000  0.48240000  1.0 0.1218548124
H  H60  1  0.72900000  0.14930000  0.48240000  1.0 0.1218548124
H  H61  1  0.35520000  0.22680000  0.51890000  1.0 0.1296324632
H  H62  1  0.64480000  0.77320000  0.51890000  1.0 0.1296324632
H  H63  1  0.22680000  0.64480000  0.51890000  1.0 0.1296324632
H  H64  1  0.77320000  0.35520000  0.51890000  1.0 0.1296324632
H  H65  1  0.12600000  0.36210000  0.47810000  1.0 0.0811089638
H  H66  1  0.87400000  0.63790000  0.47810000  1.0 0.0811089638
H  H67  1  0.36210000  0.87400000  0.47810000  1.0 0.0811089638
H  H68  1  0.63790000  0.12600000  0.47810000  1.0 0.0811089638
H  H69  1  0.10100000  0.41570000  0.62440000  1.0 0.1218548124
H  H70  1  0.89900000  0.58430000  0.62440000  1.0 0.1218548124
H  H71  1  0.41570000  0.89900000  0.62440000  1.0 0.1218548124
H  H72  1  0.58430000  0.10100000  0.62440000  1.0 0.1296324632
H  H73  1  0.08740000  0.34670000  0.59920000  1.0 0.1296324632
H  H74  1  0.91260000  0.65330000  0.59920000  1.0 0.1296324632
H  H75  1  0.34670000  0.91260000  0.59920000  1.0 0.1296324632
H  H76  1  0.65330000  0.08740000  0.59920000  1.0 0.1296324632
H  H77  1  0.14820000  0.36370000  0.65080000  1.0 0.1401916632
H  H78  1  0.85180000  0.63630000  0.65080000  1.0 0.1401916632
H  H79  1  0.36370000  0.85180000  0.65080000  1.0 0.1401916632
H  H80  1  0.63630000  0.14820000  0.65080000  1.0 0.1401916632
H  H81  1  0.10200000  0.46710000  0.50140000  1.0 0.1004305345
H  H82  1  0.89800000  0.53290000  0.50140000  1.0 0.1004305345
H  H83  1  0.46710000  0.89800000  0.50140000  1.0 0.1004305345
H  H84  1  0.53290000  0.10200000  0.50140000  1.0 0.1004305345
H  H85  1  0.14730000  0.45370000  0.42000000  1.0 0.1004305345
H  H86  1  0.85270000  0.54630000  0.42000000  1.0 0.1004305345
H  H87  1  0.45370000  0.85270000  0.42000000  1.0 0.1004305345
H  H88  1  0.54630000  0.14730000  0.42000000  1.0 0.1004305345
H  H89  1  0.23050000  0.45540000  0.53110000  1.0 0.1218548124
H  H90  1  0.76950000  0.54460000  0.53110000  1.0 0.1218548124
H  H91  1  0.45540000  0.76950000  0.53110000  1.0 0.1218548124
H  H92  1  0.54460000  0.23050000  0.53110000  1.0 0.1218548124
H  H93  1  0.20310000  0.52070000  0.50860000  1.0 0.1004305345
H  H94  1  0.79690000  0.47930000  0.50860000  1.0 0.1004305345
H  H95  1  0.52070000  0.79690000  0.50860000  1.0 0.1004305345
H  H96  1  0.47930000  0.20310000  0.50860000  1.0 0.1004305345
H  H97  1  0.18270000  0.48630000  0.59600000  1.0 0.1218548124
H  H98  1  0.81730000  0.51370000  0.59600000  1.0 0.1218548124
H  H99  1  0.48630000  0.81730000  0.59600000  1.0 0.1218548124
H  H100  1  0.51370000  0.18270000  0.59600000  1.0 0.1218548124
H  H101  1  0.38660000  0.13350000  0.51750000  1.0 0.0373146672
H  H102  1  0.61340000  0.86650000  0.51750000  1.0 0.0373146672
H  H103  1  0.13350000  0.61340000  0.51750000  1.0 0.0373146672
H  H104  1  0.86650000  0.38660000  0.51750000  1.0 0.0373146672
H  H105  1  0.30610000  0.12800000  0.38120000  1.0 0.1122006241
H  H106  1  0.69390000  0.87200000  0.38120000  1.0 0.1122006241
H  H107  1  0.12800000  0.69390000  0.38120000  1.0 0.1122006241
H  H108  1  0.87200000  0.30610000  0.38120000  1.0 0.1122006241
H  H109  1  0.36750000  0.16350000  0.38460000  1.0 0.0811089638
H  H110  1  0.63250000  0.83650000  0.38460000  1.0 0.0811089638
H  H111  1  0.16350000  0.63250000  0.38460000  1.0 0.0811089638
H  H112  1  0.83650000  0.36750000  0.38460000  1.0 0.0811089638
H  H113  1  0.36810000  0.05290000  0.29930000  1.0 0.1296324632
H  H114  1  0.63190000  0.94710000  0.29930000  1.0 0.1296324632
H  H115  1  0.05290000  0.63190000  0.29930000  1.0 0.1296324632
H  H116  1  0.94710000  0.36810000  0.29930000  1.0 0.1296324632
H  H117  1  0.33690000  0.11040000  0.25420000  1.0 0.1122006241
H  H118  1  0.66310000  0.88960000  0.25420000  1.0 0.1122006241
H  H119  1  0.11040000  0.66310000  0.25420000  1.0 0.1122006241
H  H120  1  0.88960000  0.33690000  0.25420000  1.0 0.1122006241
H  H121  1  0.40710000  0.11250000  0.28020000  1.0 0.1122006241
H  H122  1  0.59290000  0.88750000  0.28020000  1.0 0.1122006241
H  H123  1  0.11250000  0.59290000  0.28020000  1.0 0.1122006241
H  H124  1  0.88750000  0.40710000  0.28020000  1.0 0.1122006241
H  H125  1  0.30790000  0.02830000  0.49760000  1.0 0.1401916632
H  H126  1  0.69210000  0.97170000  0.49760000  1.0 0.1401916632
H  H127  1  0.02830000  0.69210000  0.49760000  1.0 0.1401916632
H  H128  1  0.97170000  0.30790000  0.49760000  1.0 0.1401916632
H  H129  1  0.37970000  0.01860000  0.49240000  1.0 0.1296324632
H  H130  1  0.62030000  0.98140000  0.49240000  1.0 0.1296324632
H  H131  1  0.01860000  0.62030000  0.49240000  1.0 0.1296324632
H  H132  1  0.98140000  0.37970000  0.49240000  1.0 0.1296324632
H  H133  1  0.34940000  0.04250000  0.58110000  1.0 0.1296324632
H  H134  1  0.65060000  0.95750000  0.58110000  1.0 0.1296324632
H  H135  1  0.04250000  0.65060000  0.58110000  1.0 0.1296324632
H  H136  1  0.95750000  0.34940000  0.58110000  1.0 0.1296324632
H  H137  1  0.19310000  0.10110000  0.59210000  1.0 0.1296324632
H  H138  1  0.80690000  0.89890000  0.59210000  1.0 0.1296324632
H  H139  1  0.10110000  0.80690000  0.59210000  1.0 0.1296324632
H  H140  1  0.89890000  0.19310000  0.59210000  1.0 0.1296324632
H  H141  1  0.11600000  0.02840000  0.58690000  1.0 0.1218548124
H  H142  1  0.88400000  0.97160000  0.58690000  1.0 0.1218548124
H  H143  1  0.02840000  0.88400000  0.58690000  1.0 0.1218548124
H  H144  1  0.97160000  0.11600000  0.58690000  1.0 0.1218548124
H  H145  1  0.04020000  0.11580000  0.38080000  1.0 0.1218548124
H  H146  1  0.95980000  0.88420000  0.38080000  1.0 0.1218548124
H  H147  1  0.11580000  0.95980000  0.38080000  1.0 0.1218548124
H  H148  1  0.88420000  0.04020000  0.38080000  1.0 0.1218548124
H  H149  1  0.11730000  0.18850000  0.38590000  1.0 0.1296324632
H  H150  1  0.88270000  0.81150000  0.38590000  1.0 0.1296324632
H  H151  1  0.18850000  0.88270000  0.38590000  1.0 0.1296324632
H  H152  1  0.81150000  0.11730000  0.38590000  1.0 0.1296324632
C  C1  1  0.39090000  0.42410000  0.08400000  1.0 0.069619305
C  C2  1  0.60910000  0.57590000  0.08400000  1.0 0.069619305
C  C3  1  0.42410000  0.60910000  0.08400000  1.0 0.069619305
C  C4  1  0.57590000  0.39090000  0.08400000  1.0 0.069619305
C  C5  1  0.34670000  0.38210000  0.07920000  1.0 -0.1743766453
C  C6  1  0.65330000  0.61790000  0.07920000  1.0 -0.1743766453
C  C7  1  0.38210000  0.65330000  0.07920000  1.0 -0.1743766453
C  C8  1  0.61790000  0.34670000  0.07920000  1.0 -0.1743766453
C  C9  1  0.34600000  0.33620000  0.01570000  1.0 0.1296324632
C  C10  1  0.65400000  0.66380000  0.01570000  1.0 0.1296324632
C  C11  1  0.33620000  0.65400000  0.01570000  1.0 0.1296324632
C  C12  1  0.66380000  0.34600000  0.01570000  1.0 0.1296324632
C  C13  1  0.39420000  0.34010000  0.95520000  1.0 -0.1787470031
C  C14  1  0.60580000  0.65990000  0.95520000  1.0 -0.1787470031
C  C15  1  0.34010000  0.60580000  0.95520000  1.0 -0.1787470031
C  C16  1  0.65990000  0.39420000  0.95520000  1.0 -0.1787470031
C  C17  1  0.43650000  0.38680000  0.95850000  1.0 0.0887589974
C  C18  1  0.56350000  0.61320000  0.95850000  1.0 0.0887589974
C  C19  1  0.38680000  0.56350000  0.95850000  1.0 0.0887589974
C  C20  1  0.61320000  0.43650000  0.95850000  1.0 0.0887589974
C  C21  1  0.30110000  0.29170000  0.01070000  1.0 -0.0194680463
C  C22  1  0.69890000  0.70830000  0.01070000  1.0 -0.0194680463
C  C23  1  0.29170000  0.69890000  0.01070000  1.0 -0.0194680463
C  C24  1  0.70830000  0.30110000  0.01070000  1.0 -0.0194680463
C  C25  1  0.23760000  0.30840000  0.01880000  1.0 -0.2525421206
C  C26  1  0.76240000  0.69160000  0.01880000  1.0 -0.2525421206
C  C27  1  0.30840000  0.76240000  0.01880000  1.0 -0.2525421206
C  C28  1  0.69160000  0.23760000  0.01880000  1.0 -0.2525421206
C  C29  1  0.19280000  0.26580000  0.01430000  1.0 0.2033646766
C  C30  1  0.80720000  0.73420000  0.01430000  1.0 0.2033646766
C  C31  1  0.26580000  0.80720000  0.01430000  1.0 0.2033646766
C  C32  1  0.73420000  0.19280000  0.01430000  1.0 0.2033646766
C  C33  1  0.20710000  0.20550000  0.00370000  1.0 -0.0094444893
C  C34  1  0.79290000  0.79450000  0.00370000  1.0 -0.0094444893
C  C35  1  0.20550000  0.79290000  0.00370000  1.0 -0.0094444893
C  C36  1  0.79450000  0.20710000  0.00370000  1.0 -0.0094444893
C  C37  1  0.26610000  0.18720000  0.00460000  1.0 -0.2298910691
C  C38  1  0.73390000  0.81280000  0.00460000  1.0 -0.2298910691
C  C39  1  0.18720000  0.73390000  0.00460000  1.0 -0.2298910691
C  C40  1  0.81280000  0.26610000  0.00460000  1.0 -0.2298910691
C  C41  1  0.31450000  0.22740000  0.00730000  1.0 0.2869834367
C  C42  1  0.68550000  0.77260000  0.00730000  1.0 0.2869834367
C  C43  1  0.22740000  0.68550000  0.00730000  1.0 0.2869834367
C  C44  1  0.77260000  0.31450000  0.00730000  1.0 0.2869834367
C  C45  1  0.11270000  0.34940000  0.98710000  1.0 0.2070633199
C  C46  1  0.88730000  0.65060000  0.98710000  1.0 0.2070633199
C  C47  1  0.34940000  0.88730000  0.98710000  1.0 0.2070633199
C  C48  1  0.65060000  0.11270000  0.98710000  1.0 0.2070633199
C  C49  1  0.14620000  0.37540000  0.90640000  1.0 -0.028945866
C  C50  1  0.85380000  0.62460000  0.90640000  1.0 -0.0194680463
C  C51  1  0.37540000  0.85380000  0.90640000  1.0 -0.028945866
C  C52  1  0.62460000  0.14620000  0.90640000  1.0 -0.0194680463
C  C53  1  0.04930000  0.34990000  0.02740000  1.0 0.0887589974
C  C54  1  0.95070000  0.65010000  0.02740000  1.0 0.1004305345
C  C55  1  0.34990000  0.95070000  0.02740000  1.0 0.1004305345
C  C56  1  0.65010000  0.04930000  0.02740000  1.0 0.1004305345
C  C57  1  0.00300000  0.31830000  0.96700000  1.0 -0.260698409
C  C58  1  0.99700000  0.68170000  0.96700000  1.0 -0.260698409
C  C59  1  0.31830000  0.99700000  0.96700000  1.0 -0.260698409
C  C60  1  0.68170000  0.00300000  0.96700000  1.0 -0.260698409
C  C61  1  0.38530000  0.14600000  0.00780000  1.0 0.1401916632
C  C62  1  0.61470000  0.85400000  0.00780000  1.0 0.1401916632
C  C63  1  0.14600000  0.61470000  0.00780000  1.0 0.1401916632
C  C64  1  0.85400000  0.38530000  0.00780000  1.0 0.1401916632
C  C65  1  0.44760000  0.13000000  0.96800000  1.0 0.0104483944
C  C66  1  0.55240000  0.87000000  0.96800000  1.0 0.0104483944
C  C67  1  0.13000000  0.55240000  0.96800000  1.0 0.0104483944
C  C68  1  0.87000000  0.44760000  0.96800000  1.0 0.0104483944
C  C69  1  0.38640000  0.12740000  0.10610000  1.0 0.0373146672
C  C70  1  0.61360000  0.87260000  0.10610000  1.0 0.0373146672
C  C71  1  0.12740000  0.61360000  0.10610000  1.0 0.0373146672
C  C72  1  0.87260000  0.38640000  0.10610000  1.0 0.0373146672
C  C73  1  0.42370000  0.17450000  0.15850000  1.0 -0.0532047903
C  C74  1  0.57630000  0.82550000  0.15850000  1.0 -0.0532047903
C  C75  1  0.17450000  0.57630000  0.15850000  1.0 -0.055555259
C  C76  1  0.82550000  0.42370000  0.15850000  1.0 -0.0532047903
C  C77  1  0.15720000  0.15630000  0.00120000  1.0 0.1478775282
C  C78  1  0.84280000  0.84370000  0.00120000  1.0 0.1478775282
C  C79  1  0.15630000  0.84280000  0.00120000  1.0 0.1478775282
C  C80  1  0.84370000  0.15720000  0.00120000  1.0 0.1478775282
C  C81  1  0.15830000  0.11320000  0.93530000  1.0 -0.1882225715
C  C82  1  0.84170000  0.88680000  0.93530000  1.0 -0.1882225715
C  C83  1  0.11320000  0.84170000  0.93530000  1.0 -0.1882225715
C  C84  1  0.88680000  0.15830000  0.93530000  1.0 -0.1882225715
C  C85  1  0.11160000  0.06870000  0.93540000  1.0 0.1401916632
C  C86  1  0.88840000  0.93130000  0.93540000  1.0 0.1401916632
C  C87  1  0.06870000  0.88840000  0.93540000  1.0 0.1401916632
C  C88  1  0.93130000  0.11160000  0.93540000  1.0 0.1401916632
C  C89  1  0.06570000  0.11330000  0.05510000  1.0 0.0887589974
C  C90  1  0.93430000  0.88670000  0.05510000  1.0 0.0887589974
C  C91  1  0.11330000  0.93430000  0.05510000  1.0 0.0887589974
C  C92  1  0.88670000  0.06570000  0.05510000  1.0 0.0887589974
C  C93  1  0.11100000  0.16040000  0.06170000  1.0 -0.1787470031
C  C94  1  0.88900000  0.83960000  0.06170000  1.0 -0.1787470031
C  C95  1  0.16040000  0.88900000  0.06170000  1.0 -0.1787470031
C  C96  1  0.83960000  0.11100000  0.06170000  1.0 -0.1787470031
C  C97  1  0.42850000  0.38900000  0.57940000  1.0 0.069619305
C  C98  1  0.57150000  0.61100000  0.57940000  1.0 0.069619305
C  C99  1  0.38900000  0.57150000  0.57940000  1.0 0.069619305
C  C100  1  0.61100000  0.42850000  0.57940000  1.0 0.069619305
C  C101  1  0.38360000  0.34300000  0.57600000  1.0 -0.1978552576
C  C102  1  0.61640000  0.65700000  0.57600000  1.0 -0.1978552576
C  C103  1  0.34300000  0.61640000  0.57600000  1.0 -0.1978552576
C  C104  1  0.65700000  0.38360000  0.57600000  1.0 -0.1978552576
C  C105  1  0.33990000  0.34490000  0.50890000  1.0 0.1296324632
C  C106  1  0.66010000  0.65510000  0.50890000  1.0 0.1296324632
C  C107  1  0.34490000  0.66010000  0.50890000  1.0 0.1296324632
C  C108  1  0.65510000  0.33990000  0.50890000  1.0 0.1296324632
C  C109  1  0.34380000  0.39100000  0.45090000  1.0 -0.1882225715
C  C110  1  0.65620000  0.60900000  0.45090000  1.0 -0.1882225715
C  C111  1  0.39100000  0.65620000  0.45090000  1.0 -0.1882225715
C  C112  1  0.60900000  0.34380000  0.45090000  1.0 -0.1882225715
C  C113  1  0.38650000  0.43320000  0.45550000  1.0 0.1004305345
C  C114  1  0.61350000  0.56680000  0.45550000  1.0 0.1004305345
C  C115  1  0.43320000  0.61350000  0.45550000  1.0 0.1004305345
C  C116  1  0.56680000  0.38650000  0.45550000  1.0 0.1004305345
C  C117  1  0.29430000  0.29570000  0.50660000  1.0 -0.028945866
C  C118  1  0.70570000  0.70430000  0.50660000  1.0 -0.028945866
C  C119  1  0.29570000  0.70570000  0.50660000  1.0 -0.028945866
C  C120  1  0.70430000  0.29430000  0.50660000  1.0 -0.028945866
C  C121  1  0.23310000  0.30882000  0.49580000  1.0 0.2162650887
C  C122  1  0.76690000  0.69118000  0.49580000  1.0 0.2162650887
C  C123  1  0.30882000  0.76690000  0.49580000  1.0 0.2162650887
C  C124  1  0.69118000  0.23310000  0.49580000  1.0 0.2162650887
C  C125  1  0.19110000  0.26210000  0.48980000  1.0 -0.260698409
C  C126  1  0.80890000  0.73790000  0.48980000  1.0 -0.260698409
C  C127  1  0.26210000  0.80890000  0.48980000  1.0 -0.260698409
C  C128  1  0.73790000  0.19110000  0.48980000  1.0 -0.260698409
C  C129  1  0.21030000  0.20210000  0.49460000  1.0 -0.0094444893
C  C130  1  0.78970000  0.79790000  0.49460000  1.0 -0.0094444893
C  C131  1  0.20210000  0.78970000  0.49460000  1.0 -0.0094444893
C  C132  1  0.79790000  0.21030000  0.49460000  1.0 -0.0094444893
C  C133  1  0.27140000  0.18899000  0.50550000  1.0 0.1872561339
C  C134  1  0.72860000  0.81101000  0.50550000  1.0 0.1872561339
C  C135  1  0.18899000  0.72860000  0.50550000  1.0 0.1872561339
C  C136  1  0.81101000  0.27140000  0.50550000  1.0 0.1872561339
C  C137  1  0.31340000  0.23580000  0.51150000  1.0 -0.260698409
C  C138  1  0.68660000  0.76420000  0.51150000  1.0 -0.260698409
C  C139  1  0.23580000  0.68660000  0.51150000  1.0 -0.260698409
C  C140  1  0.76420000  0.31340000  0.51150000  1.0 -0.260698409
C  C141  1  0.15240000  0.38610000  0.51860000  1.0 0.1575166945
C  C142  1  0.84760000  0.61390000  0.51860000  1.0 0.1575166945
C  C143  1  0.38610000  0.84760000  0.51860000  1.0 0.1575166945
C  C144  1  0.61390000  0.15240000  0.51860000  1.0 0.1575166945
C  C145  1  0.11930000  0.37730000  0.60620000  1.0 -0.474117839
C  C146  1  0.88070000  0.62270000  0.60620000  1.0 -0.474117839
C  C147  1  0.37730000  0.88070000  0.60620000  1.0 -0.474117839
C  C148  1  0.62270000  0.11930000  0.60620000  1.0 -0.474117839
C  C149  1  0.14210000  0.45080000  0.48430000  1.0 -0.1978552576
C  C150  1  0.85790000  0.54920000  0.48430000  1.0 -0.1978552576
C  C151  1  0.45080000  0.85790000  0.48430000  1.0 -0.1978552576
C  C152  1  0.54920000  0.14210000  0.48430000  1.0 -0.1978552576
C  C153  1  0.19440000  0.48100000  0.53460000  1.0 -0.3797915514
C  C154  1  0.80560000  0.51900000  0.53460000  1.0 -0.3797915514
C  C155  1  0.48100000  0.80560000  0.53460000  1.0 -0.3797915514
C  C156  1  0.51900000  0.19440000  0.53460000  1.0 -0.3797915514
C  C157  1  0.35510000  0.10940000  0.48570000  1.0 0.2070633199
C  C158  1  0.64490000  0.89060000  0.48570000  1.0 0.2070633199
C  C159  1  0.10940000  0.64490000  0.48570000  1.0 0.2070633199
C  C160  1  0.89060000  0.35510000  0.48570000  1.0 0.2070633199
C  C161  1  0.35030000  0.12210000  0.38780000  1.0 -0.210712257
C  C162  1  0.64970000  0.87790000  0.38780000  1.0 -0.210712257
C  C163  1  0.12210000  0.64970000  0.38780000  1.0 -0.210712257
C  C164  1  0.87790000  0.35030000  0.38780000  1.0 -0.210712257
C  C165  1  0.36710000  0.09720000  0.29720000  1.0 -0.3626072641
C  C166  1  0.63290000  0.90280000  0.29720000  1.0 -0.3626072641
C  C167  1  0.09720000  0.63290000  0.29720000  1.0 -0.3626072641
C  C168  1  0.90280000  0.36710000  0.29720000  1.0 -0.3626072641
C  C169  1  0.34730000  0.04380000  0.51700000  1.0 -0.4815476697
C  C170  1  0.65270000  0.95620000  0.51700000  1.0 -0.4815476697
C  C171  1  0.04380000  0.65270000  0.51700000  1.0 -0.4815476697
C  C172  1  0.95620000  0.34730000  0.51700000  1.0 -0.4815476697
C  C173  1  0.16240000  0.15160000  0.48950000  1.0 0.1218548124
C  C174  1  0.83760000  0.84840000  0.48950000  1.0 0.1218548124
C  C175  1  0.15160000  0.83760000  0.48950000  1.0 0.1218548124
C  C176  1  0.84840000  0.16240000  0.48950000  1.0 0.1218548124
C  C177  1  0.16200000  0.10410000  0.54920000  1.0 -0.1882225715
C  C178  1  0.83800000  0.89590000  0.54920000  1.0 -0.1882225715
C  C179  1  0.10410000  0.83800000  0.54920000  1.0 -0.1882225715
C  C180  1  0.89590000  0.16200000  0.54920000  1.0 -0.1882225715
C  C181  1  0.11620000  0.06090000  0.54610000  1.0 0.0887589974
C  C182  1  0.88380000  0.93910000  0.54610000  1.0 0.0887589974
C  C183  1  0.06090000  0.88380000  0.54610000  1.0 0.0887589974
C  C184  1  0.93910000  0.11620000  0.54610000  1.0 0.0887589974
C  C185  1  0.07120000  0.11280000  0.42370000  1.0 0.0887589974
C  C186  1  0.92880000  0.88720000  0.42370000  1.0 0.0887589974
C  C187  1  0.11280000  0.92880000  0.42370000  1.0 0.0887589974
C  C188  1  0.88720000  0.07120000  0.42370000  1.0 0.0887589974
C  C189  1  0.11700000  0.15600000  0.42670000  1.0 -0.1978552576
C  C190  1  0.88300000  0.84400000  0.42670000  1.0 -0.1978552576
C  C191  1  0.15600000  0.88300000  0.42670000  1.0 -0.1978552576
C  C192  1  0.84400000  0.11700000  0.42670000  1.0 -0.1978552576
C  C193  1  0.12970000  0.35520000  0.88600000  1.0 0.0020943159
C  C194  1  0.87030000  0.64480000  0.88600000  1.0 0.0020943159
C  C195  1  0.35520000  0.87030000  0.88600000  1.0 0.0020943159
C  C196  1  0.64480000  0.12970000  0.88600000  1.0 0.0020943159
C  C197  1  0.04340000  0.34820000  0.96850000  1.0 0.069619305
C  C198  1  0.95660000  0.65180000  0.96850000  1.0 0.069619305
C  C199  1  0.34820000  0.95660000  0.96850000  1.0 0.069619305
C  C200  1  0.65180000  0.04340000  0.96850000  1.0 0.069619305
C  C201  1  0.01330000  0.40550000  0.00630000  1.0 -0.028945866
C  C202  1  0.98670000  0.59450000  0.00630000  1.0 -0.028945866
C  C203  1  0.40550000  0.98670000  0.00630000  1.0 -0.028945866
C  C204  1  0.59450000  0.01330000  0.00630000  1.0 -0.028945866
C  C205  1  0.45190000  0.15670000  0.97900000  1.0 -0.0194680463
C  C206  1  0.54810000  0.84330000  0.97900000  1.0 -0.0194680463
C  C207  1  0.15670000  0.54810000  0.97900000  1.0 -0.0194680463
C  C208  1  0.84330000  0.45190000  0.97900000  1.0 -0.0194680463
C  C209  1  0.45330000  0.10680000  0.09800000  1.0 -0.0532047903
C  C210  1  0.54670000  0.89320000  0.09800000  1.0 -0.0532047903
C  C211  1  0.10680000  0.54670000  0.09800000  1.0 -0.0532047903
C  C212  1  0.89320000  0.45330000  0.09800000  1.0 -0.0532047903
N  N1  1  0.43420000  0.43190000  0.01890000  1.0 -0.2525421206
N  N2  1  0.56580000  0.56810000  0.01890000  1.0 -0.2525421206
N  N3  1  0.43190000  0.56580000  0.01890000  1.0 -0.2525421206
N  N4  1  0.56810000  0.43420000  0.01890000  1.0 -0.2525421206
N  N5  1  0.06840000  0.07140000  0.98830000  1.0 -0.2298910691
N  N6  1  0.93160000  0.92860000  0.98830000  1.0 -0.2298910691
N  N7  1  0.07140000  0.93160000  0.98830000  1.0 -0.2298910691
N  N8  1  0.92860000  0.06840000  0.98830000  1.0 -0.2298910691
N  N9  1  0.42930000  0.43300000  0.51480000  1.0 -0.2298910691
N  N10  1  0.57070000  0.56700000  0.51480000  1.0 -0.2298910691
N  N11  1  0.43300000  0.57070000  0.51480000  1.0 -0.2298910691
N  N12  1  0.56700000  0.42930000  0.51480000  1.0 -0.2298910691
N  N13  1  0.07080000  0.06530000  0.48340000  1.0 -0.260698409
N  N14  1  0.92920000  0.93470000  0.48340000  1.0 -0.260698409
N  N15  1  0.06530000  0.92920000  0.48340000  1.0 -0.260698409
N  N16  1  0.93470000  0.07080000  0.48340000  1.0 -0.260698409
O  O1  1  0.13370000  0.28610000  0.01680000  1.0 -0.2934815597
O  O2  1  0.86630000  0.71390000  0.01680000  1.0 -0.2934815597
O  O3  1  0.28610000  0.86630000  0.01680000  1.0 -0.2934815597
O  O4  1  0.71390000  0.13370000  0.01680000  1.0 -0.2934815597
O  O5  1  0.37120000  0.21390000  0.99950000  1.0 -0.210712257
O  O6  1  0.62880000  0.78610000  0.99950000  1.0 -0.210712257
O  O7  1  0.21390000  0.62880000  0.99950000  1.0 -0.210712257
O  O8  1  0.78610000  0.37120000  0.99950000  1.0 -0.210712257
O  O9  1  0.21640000  0.36630000  0.48800000  1.0 -0.1882225715
O  O10  1  0.78360000  0.63370000  0.48800000  1.0 -0.1882225715
O  O11  1  0.36630000  0.78360000  0.48800000  1.0 -0.1882225715
O  O12  1  0.63370000  0.21640000  0.48800000  1.0 -0.1882225715
O  O13  1  0.29030000  0.12840000  0.50240000  1.0 -0.2393817838
O  O14  1  0.70970000  0.87160000  0.50240000  1.0 -0.2393817838
O  O15  1  0.12840000  0.70970000  0.50240000  1.0 -0.2393817838
O  O16  1  0.87160000  0.29030000  0.50240000  1.0 -0.2393817838
F  F1  1  0.50000000  0.50000000  0.15850000  1.0 -0.4885292586
F  F2  1  0.42600000  0.51030000  0.26870000  1.0 -0.5366418994
F  F3  1  0.57400000  0.48970000  0.26870000  1.0 -0.5366418994
F  F4  1  0.51030000  0.57400000  0.26870000  1.0 -0.5366418994
F  F5  1  0.48970000  0.42600000  0.26870000  1.0 -0.5366418994
F  F6  1  0.50000000  0.50000000  0.38060000  1.0 -0.5124254461
F  F7  1  0.50000000  0.50000000  0.66050000  1.0 -0.500809683
F  F8  1  0.50060000  0.57530000  0.77180000  1.0 -0.5366418994
F  F9  1  0.49940000  0.42470000  0.77180000  1.0 -0.5366418994
F  F10  1  0.57530000  0.49940000  0.77180000  1.0 -0.5366418994
F  F11  1  0.42470000  0.50060000  0.77180000  1.0 -0.5366418994
F  F12  1  0.50000000  0.50000000  0.88190000  1.0 -0.500809683
F  F13  1  0.00000000  0.00000000  0.35520000  1.0 -0.5194458719
F  F14  1  0.98800000  0.07380000  0.24020000  1.0 -0.5323113318
F  F15  1  0.01200000  0.92620000  0.24020000  1.0 -0.5323113318
F  F16  1  0.07380000  0.01200000  0.24020000  1.0 -0.5323113318
F  F17  1  0.92620000  0.98800000  0.24020000  1.0 -0.5323113318
F  F18  1  0.00000000  0.00000000  0.12570000  1.0 -0.5323113318
F  F19  1  0.00000000  0.00000000  0.62770000  1.0 -0.500809683
F  F20  1  0.00870000  0.07280000  0.74010000  1.0 -0.5194458719
F  F21  1  0.99130000  0.92720000  0.74010000  1.0 -0.5194458719
F  F22  1  0.07280000  0.99130000  0.74010000  1.0 -0.5194458719
F  F23  1  0.92720000  0.00870000  0.74010000  1.0 -0.5194458719
F  F24  1  0.00000000  0.00000000  0.85580000  1.0 -0.5366418994
