# DDEC6 charges by PACMAN v1.1 (https://github.com/mtap-research/PACMAN-charge/)
data_SESLUZ_ion_pacman
_symmetry_space_group_name_H-M   'P 1'
_cell_length_a   20.23800000
_cell_length_b   5.28270000
_cell_length_c   28.85900000
_cell_angle_alpha   90.00000000
_cell_angle_beta   112.66300000
_cell_angle_gamma   90.00000000
_symmetry_Int_Tables_number   1
_chemical_formula_structural   Zn6P6H13C6NO24
_chemical_formula_sum   'Zn24 P24 H52 C24 N4 O96'
_cell_volume   2847.12368807
_cell_formula_units_Z   4
loop_
 _symmetry_equiv_pos_site_id
 _symmetry_equiv_pos_as_xyz
  1  'x, y, z'
loop_
 _atom_site_type_symbol
 _atom_site_label
 _atom_site_symmetry_multiplicity
 _atom_site_fract_x
 _atom_site_fract_y
 _atom_site_fract_z
 _atom_site_occupancy
 _atom_site_charge
Zn  Zn1  1  0.03252000  0.96446000  0.23114000  1.0 1.0542771934
Zn  Zn2  1  0.96748000  0.46446000  0.26886000  1.0 1.0542771934
Zn  Zn3  1  0.96748000  0.03554000  0.76886000  1.0 1.0542771934
Zn  Zn4  1  0.03252000  0.53554000  0.73114000  1.0 1.0542771934
Zn  Zn5  1  0.46284000  0.64710000  0.26574000  1.0 1.0542771934
Zn  Zn6  1  0.53716000  0.14710000  0.23426000  1.0 1.0542771934
Zn  Zn7  1  0.53716000  0.35290000  0.73426000  1.0 1.0542771934
Zn  Zn8  1  0.46284000  0.85290000  0.76574000  1.0 1.0542771934
Zn  Zn9  1  0.34834000  0.46251000  0.10649000  1.0 1.0036392479
Zn  Zn10  1  0.65166000  0.96251000  0.39351000  1.0 1.0036392479
Zn  Zn11  1  0.65166000  0.53749000  0.89351000  1.0 1.0036392479
Zn  Zn12  1  0.34834000  0.03749000  0.60649000  1.0 1.0036392479
Zn  Zn13  1  0.15939000  0.58040000  0.22547000  1.0 1.0994327165
Zn  Zn14  1  0.84061000  0.08040000  0.27453000  1.0 1.0994327165
Zn  Zn15  1  0.84061000  0.41960000  0.77453000  1.0 1.0994327165
Zn  Zn16  1  0.15939000  0.91960000  0.72547000  1.0 1.0994327165
Zn  Zn17  1  0.15870000  0.16479000  0.38898000  1.0 1.0272975235
Zn  Zn18  1  0.84130000  0.66479000  0.11102000  1.0 1.0272975235
Zn  Zn19  1  0.84130000  0.83521000  0.61102000  1.0 1.0272975235
Zn  Zn20  1  0.15870000  0.33521000  0.88898000  1.0 1.0272975235
Zn  Zn21  1  0.33555000  0.03435000  0.26502000  1.0 1.0994327165
Zn  Zn22  1  0.66445000  0.53435000  0.23498000  1.0 1.0994327165
Zn  Zn23  1  0.66445000  0.96565000  0.73498000  1.0 1.094847825
Zn  Zn24  1  0.33555000  0.46565000  0.76502000  1.0 1.0994327165
P  P1  1  0.19135000  0.07160000  0.29060000  1.0 1.5513481168
P  P2  1  0.80865000  0.57160000  0.20940000  1.0 1.5513481168
P  P3  1  0.80865000  0.92840000  0.70940000  1.0 1.5513481168
P  P4  1  0.19135000  0.42840000  0.79060000  1.0 1.5513481168
P  P5  1  0.50364000  0.63540000  0.17135000  1.0 1.5334791212
P  P6  1  0.49636000  0.13540000  0.32865000  1.0 1.5334791212
P  P7  1  0.49636000  0.36460000  0.82865000  1.0 1.5334791212
P  P8  1  0.50364000  0.86460000  0.67135000  1.0 1.5334791212
P  P9  1  0.30378000  0.54070000  0.19972000  1.0 1.573154953
P  P10  1  0.69622000  0.04070000  0.30028000  1.0 1.573154953
P  P11  1  0.69622000  0.45930000  0.80028000  1.0 1.573154953
P  P12  1  0.30378000  0.95930000  0.69972000  1.0 1.573154953
P  P13  1  0.99649000  0.47530000  0.16895000  1.0 1.5770972936
P  P14  1  0.00351000  0.97530000  0.33105000  1.0 1.5770972936
P  P15  1  0.00351000  0.52470000  0.83105000  1.0 1.5770972936
P  P16  1  0.99649000  0.02470000  0.66895000  1.0 1.5770972936
P  P17  1  0.25931000  0.21540000  0.50220000  1.0 0.5442295788
P  P18  1  0.74069000  0.71540000  0.99780000  1.0 0.5442295788
P  P19  1  0.74069000  0.78460000  0.49780000  1.0 0.5442295788
P  P20  1  0.25931000  0.28460000  0.00220000  1.0 0.5442295788
P  P21  1  0.22940000  0.00560000  0.49988000  1.0 0.5670879154
P  P22  1  0.77060000  0.50560000  0.00012000  1.0 0.5670879154
P  P23  1  0.77060000  0.99440000  0.50012000  1.0 0.5670879154
P  P24  1  0.22940000  0.49440000  0.99988000  1.0 0.5670879154
H  H1  1  0.32820000  0.98730000  0.10180000  1.0 0.3209823637
H  H2  1  0.67180000  0.48730000  0.39820000  1.0 0.3209823637
H  H3  1  0.67180000  0.01270000  0.89820000  1.0 0.3209823637
H  H4  1  0.32820000  0.51270000  0.60180000  1.0 0.3209823637
H  H5  1  0.38750000  0.98650000  0.13940000  1.0 0.3462703495
H  H6  1  0.61250000  0.48650000  0.36060000  1.0 0.3462703495
H  H7  1  0.61250000  0.01350000  0.86060000  1.0 0.3462703495
H  H8  1  0.38750000  0.51350000  0.63940000  1.0 0.3462703495
H  H9  1  0.15800000  0.66320000  0.35920000  1.0 0.419549313
H  H10  1  0.84200000  0.16320000  0.14080000  1.0 0.419549313
H  H11  1  0.84200000  0.33680000  0.64080000  1.0 0.419549313
H  H12  1  0.15800000  0.83680000  0.85920000  1.0 0.419549313
H  H13  1  0.13890000  0.62510000  0.40390000  1.0 0.4106182723
H  H14  1  0.86110000  0.12510000  0.09610000  1.0 0.4106182723
H  H15  1  0.86110000  0.37490000  0.59610000  1.0 0.4106182723
H  H16  1  0.13890000  0.87490000  0.90390000  1.0 0.4106182723
H  H17  1  0.30810000  0.57160000  0.51280000  1.0 0.3627131252
H  H18  1  0.69190000  0.07160000  0.98720000  1.0 0.3627131252
H  H19  1  0.69190000  0.42840000  0.48720000  1.0 0.3627131252
H  H20  1  0.30810000  0.92840000  0.01280000  1.0 0.3627131252
H  H21  1  0.18740000  0.64070000  0.49720000  1.0 0.3692639737
H  H22  1  0.81260000  0.14070000  0.00280000  1.0 0.3692639737
H  H23  1  0.81260000  0.35930000  0.50280000  1.0 0.3692639737
H  H24  1  0.18740000  0.85930000  0.99720000  1.0 0.3692639737
H  H25  1  0.46680000  0.48760000  0.39820000  1.0 0.1425084496
H  H26  1  0.53320000  0.51240000  0.60180000  1.0 0.1425084496
H  H27  1  0.54800000  0.71800000  0.46400000  1.0 0.1486441238
H  H28  1  0.45200000  0.28200000  0.53600000  1.0 0.1486441238
H  H29  1  0.38530000  0.09120000  0.48030000  1.0 0.1486441238
H  H30  1  0.61470000  0.90880000  0.51970000  1.0 0.1486441238
H  H31  1  0.30410000  0.86090000  0.41450000  1.0 0.1323887078
H  H32  1  0.69590000  0.13910000  0.58550000  1.0 0.1323887078
H  H33  1  0.34210000  0.48450000  0.33290000  1.0 0.1569414554
H  H34  1  0.65790000  0.51550000  0.66710000  1.0 0.1569414554
H  H35  1  0.32120000  0.33880000  0.37260000  1.0 0.1486441238
H  H36  1  0.67880000  0.66120000  0.62740000  1.0 0.1486441238
H  H37  1  0.28030000  0.58700000  0.34790000  1.0 0.1569414554
H  H38  1  0.71970000  0.41300000  0.65210000  1.0 0.1569414554
H  H39  1  0.53320000  0.98760000  0.10180000  1.0 0.1425084496
H  H40  1  0.46680000  0.01240000  0.89820000  1.0 0.1425084496
H  H41  1  0.45200000  0.21800000  0.03600000  1.0 0.1486441238
H  H42  1  0.54800000  0.78200000  0.96400000  1.0 0.1486441238
H  H43  1  0.61470000  0.59120000  0.01970000  1.0 0.1486441238
H  H44  1  0.38530000  0.40880000  0.98030000  1.0 0.1486441238
H  H45  1  0.69590000  0.36090000  0.08550000  1.0 0.1323887078
H  H46  1  0.30410000  0.63910000  0.91450000  1.0 0.1323887078
H  H47  1  0.65790000  0.98450000  0.16710000  1.0 0.1569414554
H  H48  1  0.34210000  0.01550000  0.83290000  1.0 0.1569414554
H  H49  1  0.67880000  0.83880000  0.12740000  1.0 0.1486441238
H  H50  1  0.32120000  0.16120000  0.87260000  1.0 0.1486441238
H  H51  1  0.71970000  0.08700000  0.15210000  1.0 0.1569414554
H  H52  1  0.28030000  0.91300000  0.84790000  1.0 0.1569414554
C  C1  1  0.45050000  0.60860000  0.41463000  1.0 0.067127858
C  C2  1  0.54950000  0.39140000  0.58537000  1.0 0.067127858
C  C3  1  0.49908000  0.74660000  0.45410000  1.0 -0.1666145207
C  C4  1  0.50092000  0.25340000  0.54590000  1.0 -0.1666145207
C  C5  1  0.47470000  0.92740000  0.47869000  1.0 0.1111870898
C  C6  1  0.52530000  0.07260000  0.52131000  1.0 0.1111870898
C  C7  1  0.40160000  0.97030000  0.46390000  1.0 -0.1819195742
C  C8  1  0.59840000  0.02970000  0.53610000  1.0 -0.1819195742
C  C9  1  0.35299000  0.83230000  0.42440000  1.0 0.0535721487
C  C10  1  0.64701000  0.16770000  0.57560000  1.0 0.0535721487
C  C11  1  0.32590000  0.50290000  0.35990000  1.0 -0.3371646436
C  C12  1  0.67410000  0.49710000  0.64010000  1.0 -0.3371646436
C  C13  1  0.54950000  0.10860000  0.08537000  1.0 0.067127858
C  C14  1  0.45050000  0.89140000  0.91463000  1.0 0.067127858
C  C15  1  0.50092000  0.24660000  0.04590000  1.0 -0.1666145207
C  C16  1  0.49908000  0.75340000  0.95410000  1.0 -0.1666145207
C  C17  1  0.52530000  0.42740000  0.02131000  1.0 0.1111870898
C  C18  1  0.47470000  0.57260000  0.97869000  1.0 0.1111870898
C  C19  1  0.59840000  0.47030000  0.03610000  1.0 -0.1819195742
C  C20  1  0.40160000  0.52970000  0.96390000  1.0 -0.1819195742
C  C21  1  0.64701000  0.33230000  0.07560000  1.0 0.0535721487
C  C22  1  0.35299000  0.66770000  0.92440000  1.0 0.0535721487
C  C23  1  0.67410000  0.00290000  0.14010000  1.0 -0.3371646436
C  C24  1  0.32590000  0.99710000  0.85990000  1.0 -0.3371646436
N  N1  1  0.37740000  0.65140000  0.39980000  1.0 0.1425084496
N  N2  1  0.62260000  0.34860000  0.60020000  1.0 0.1425084496
N  N3  1  0.62260000  0.15140000  0.10020000  1.0 0.1425084496
N  N4  1  0.37740000  0.84860000  0.89980000  1.0 0.1425084496
O  O1  1  0.99130000  0.62050000  0.21512000  1.0 -0.820158902
O  O2  1  0.00870000  0.12050000  0.28488000  1.0 -0.820158902
O  O3  1  0.00870000  0.37950000  0.78488000  1.0 -0.820158902
O  O4  1  0.99130000  0.87950000  0.71512000  1.0 -0.820158902
O  O5  1  0.06930000  0.52930000  0.16812000  1.0 -0.7684215935
O  O6  1  0.93070000  0.02930000  0.33188000  1.0 -0.7684215935
O  O7  1  0.93070000  0.47070000  0.83188000  1.0 -0.7684215935
O  O8  1  0.06930000  0.97070000  0.66812000  1.0 -0.7684215935
O  O9  1  0.17230000  0.34680000  0.27890000  1.0 -0.8133080385
O  O10  1  0.82770000  0.84680000  0.22110000  1.0 -0.8133080385
O  O11  1  0.82770000  0.65320000  0.72110000  1.0 -0.8133080385
O  O12  1  0.17230000  0.15320000  0.77890000  1.0 -0.8133080385
O  O13  1  0.98560000  0.19260000  0.17650000  1.0 -0.7866779224
O  O14  1  0.01440000  0.69260000  0.32350000  1.0 -0.7866779224
O  O15  1  0.01440000  0.80740000  0.82350000  1.0 -0.7866779224
O  O16  1  0.98560000  0.30740000  0.67650000  1.0 -0.7866779224
O  O17  1  0.13390000  0.90820000  0.24916000  1.0 -0.820158902
O  O18  1  0.86610000  0.40820000  0.25084000  1.0 -0.820158902
O  O19  1  0.86610000  0.09180000  0.75084000  1.0 -0.820158902
O  O20  1  0.13390000  0.59180000  0.74916000  1.0 -0.820158902
O  O21  1  0.23060000  0.61090000  0.19853000  1.0 -0.7994053544
O  O22  1  0.76940000  0.11090000  0.30147000  1.0 -0.7994053544
O  O23  1  0.76940000  0.38910000  0.80147000  1.0 -0.7994053544
O  O24  1  0.23060000  0.88910000  0.69853000  1.0 -0.7994053544
O  O25  1  0.35980000  0.70450000  0.24185000  1.0 -0.820158902
O  O26  1  0.64020000  0.20450000  0.25815000  1.0 -0.820158902
O  O27  1  0.64020000  0.29550000  0.75815000  1.0 -0.820158902
O  O28  1  0.35980000  0.79550000  0.74185000  1.0 -0.820158902
O  O29  1  0.30690000  0.61380000  0.14957000  1.0 -0.7843678327
O  O30  1  0.69310000  0.11380000  0.35043000  1.0 -0.7843678327
O  O31  1  0.69310000  0.38620000  0.85043000  1.0 -0.7843678327
O  O32  1  0.30690000  0.88620000  0.64957000  1.0 -0.7843678327
O  O33  1  0.49380000  0.48920000  0.21564000  1.0 -0.820158902
O  O34  1  0.50620000  0.98920000  0.28436000  1.0 -0.820158902
O  O35  1  0.50620000  0.51080000  0.78436000  1.0 -0.820158902
O  O36  1  0.49380000  0.01080000  0.71564000  1.0 -0.820158902
O  O37  1  0.44760000  0.55320000  0.12182000  1.0 -0.7631032796
O  O38  1  0.55240000  0.05320000  0.37818000  1.0 -0.7631032796
O  O39  1  0.55240000  0.44680000  0.87818000  1.0 -0.7631032796
O  O40  1  0.44760000  0.94680000  0.62182000  1.0 -0.7631032796
O  O41  1  0.35920000  0.08970000  0.11920000  1.0 -0.6342350425
O  O42  1  0.64080000  0.58970000  0.38080000  1.0 -0.6342350425
O  O43  1  0.64080000  0.91030000  0.88080000  1.0 -0.6342350425
O  O44  1  0.35920000  0.41030000  0.61920000  1.0 -0.6342350425
O  O45  1  0.49310000  0.91820000  0.17904000  1.0 -0.7866779224
O  O46  1  0.50690000  0.41820000  0.32096000  1.0 -0.7866779224
O  O47  1  0.50690000  0.08180000  0.82096000  1.0 -0.7866779224
O  O48  1  0.49310000  0.58180000  0.67904000  1.0 -0.7866779224
O  O49  1  0.57810000  0.57970000  0.17383000  1.0 -0.7994053544
O  O50  1  0.42190000  0.07970000  0.32617000  1.0 -0.7994053544
O  O51  1  0.42190000  0.42030000  0.82617000  1.0 -0.7994053544
O  O52  1  0.57810000  0.92030000  0.67383000  1.0 -0.7994053544
O  O53  1  0.26300000  0.99770000  0.29050000  1.0 -0.8133080385
O  O54  1  0.73700000  0.49770000  0.20950000  1.0 -0.8133080385
O  O55  1  0.73700000  0.00230000  0.70950000  1.0 -0.8133080385
O  O56  1  0.26300000  0.50230000  0.79050000  1.0 -0.8133080385
O  O57  1  0.19020000  0.00580000  0.34138000  1.0 -0.7994053544
O  O58  1  0.80980000  0.50580000  0.15862000  1.0 -0.7994053544
O  O59  1  0.80980000  0.99420000  0.65862000  1.0 -0.7994053544
O  O60  1  0.19020000  0.49420000  0.84138000  1.0 -0.7994053544
O  O61  1  0.14960000  0.53730000  0.38010000  1.0 -0.7198443891
O  O62  1  0.85040000  0.03730000  0.11990000  1.0 -0.7198443891
O  O63  1  0.85040000  0.46270000  0.61990000  1.0 -0.7198443891
O  O64  1  0.14960000  0.96270000  0.88010000  1.0 -0.7198443891
O  O65  1  0.93730000  0.56550000  0.12090000  1.0 -0.7684215935
O  O66  1  0.06270000  0.06550000  0.37910000  1.0 -0.7684215935
O  O67  1  0.06270000  0.43450000  0.87910000  1.0 -0.7684215935
O  O68  1  0.93730000  0.93450000  0.62090000  1.0 -0.7684215935
O  O69  1  0.32350000  0.26350000  0.21140000  1.0 -0.8133080385
O  O70  1  0.67650000  0.76350000  0.28860000  1.0 -0.8133080385
O  O71  1  0.67650000  0.73650000  0.78860000  1.0 -0.8133080385
O  O72  1  0.32350000  0.23650000  0.71140000  1.0 -0.8133080385
O  O73  1  0.23250000  0.10900000  0.45290000  1.0 -0.5234623285
O  O74  1  0.76750000  0.60900000  0.04710000  1.0 -0.5234623285
O  O75  1  0.76750000  0.89100000  0.54710000  1.0 -0.5234623285
O  O76  1  0.23250000  0.39100000  0.95290000  1.0 -0.5234623285
O  O77  1  0.29750000  0.95380000  0.53700000  1.0 -0.5381940336
O  O78  1  0.70250000  0.45380000  0.96300000  1.0 -0.5381940336
O  O79  1  0.70250000  0.04620000  0.46300000  1.0 -0.5381940336
O  O80  1  0.29750000  0.54620000  0.03700000  1.0 -0.5381940336
O  O81  1  0.20380000  0.34300000  0.51620000  1.0 -0.121096495
O  O82  1  0.79620000  0.84300000  0.98380000  1.0 -0.121096495
O  O83  1  0.79620000  0.65700000  0.48380000  1.0 -0.121096495
O  O84  1  0.20380000  0.15700000  0.01620000  1.0 -0.121096495
O  O85  1  0.31880000  0.43710000  0.50340000  1.0 -0.5999057622
O  O86  1  0.68120000  0.93710000  0.99660000  1.0 -0.5999057622
O  O87  1  0.68120000  0.56290000  0.49660000  1.0 -0.5999057622
O  O88  1  0.31880000  0.06290000  0.00340000  1.0 -0.5999057622
O  O89  1  0.20360000  0.19000000  0.52950000  1.0 -0.1526052834
O  O90  1  0.79640000  0.69000000  0.97050000  1.0 -0.1526052834
O  O91  1  0.79640000  0.81000000  0.47050000  1.0 -0.1526052834
O  O92  1  0.20360000  0.31000000  0.02950000  1.0 -0.1526052834
O  O93  1  0.17250000  0.77880000  0.47850000  1.0 -0.5706247272
O  O94  1  0.82750000  0.27880000  0.02150000  1.0 -0.5706247272
O  O95  1  0.82750000  0.22120000  0.52150000  1.0 -0.5706247272
O  O96  1  0.17250000  0.72120000  0.97850000  1.0 -0.5706247272
