# DDEC6 charges by PACMAN v1.1 (https://github.com/mtap-research/PACMAN-charge/)
data_SESRUG_ASR_pacman
_symmetry_space_group_name_H-M   'P 1'
_cell_length_a   24.19750000
_cell_length_b   24.19750000
_cell_length_c   24.19750000
_cell_angle_alpha   109.47100000
_cell_angle_beta   109.47100000
_cell_angle_gamma   109.47100000
_symmetry_Int_Tables_number   1
_chemical_formula_structural   Cu2H10C20N7O10
_chemical_formula_sum   'Cu24 H120 C240 N84 O120'
_cell_volume   10906.69459707
_cell_formula_units_Z   12
loop_
 _symmetry_equiv_pos_site_id
 _symmetry_equiv_pos_as_xyz
  1  'x, y, z'
loop_
 _atom_site_type_symbol
 _atom_site_label
 _atom_site_symmetry_multiplicity
 _atom_site_fract_x
 _atom_site_fract_y
 _atom_site_fract_z
 _atom_site_occupancy
 _atom_site_charge
Cu  Cu1  1  0.79810000  0.20190000  0.00000000  1.0 0.8726300608
Cu  Cu2  1  0.73084000  0.26916000  0.00000000  1.0 0.7805191885
Cu  Cu3  1  0.79810000  0.79810000  0.59620000  1.0 0.8726300608
Cu  Cu4  1  0.73084000  0.73084000  0.46168000  1.0 0.7805191885
Cu  Cu5  1  0.20190000  0.20190000  0.40380000  1.0 0.8726300608
Cu  Cu6  1  0.26916000  0.26916000  0.53832000  1.0 0.7805191885
Cu  Cu7  1  0.20190000  0.79810000  0.00000000  1.0 0.8726300608
Cu  Cu8  1  0.26916000  0.73084000  0.00000000  1.0 0.7805191885
Cu  Cu9  1  0.59620000  0.79810000  0.79810000  1.0 0.8726300608
Cu  Cu10  1  0.46168000  0.73084000  0.73084000  1.0 0.7805191885
Cu  Cu11  1  0.00000000  0.79810000  0.20190000  1.0 0.8726300608
Cu  Cu12  1  0.00000000  0.73084000  0.26916000  1.0 0.7805191885
Cu  Cu13  1  0.00000000  0.20190000  0.79810000  1.0 0.8726300608
Cu  Cu14  1  0.00000000  0.26916000  0.73084000  1.0 0.7805191885
Cu  Cu15  1  0.40380000  0.20190000  0.20190000  1.0 0.8726300608
Cu  Cu16  1  0.53832000  0.26916000  0.26916000  1.0 0.7805191885
Cu  Cu17  1  0.79810000  0.00000000  0.20190000  1.0 0.8726300608
Cu  Cu18  1  0.73084000  0.00000000  0.26916000  1.0 0.7805191885
Cu  Cu19  1  0.20190000  0.40380000  0.20190000  1.0 0.8726300608
Cu  Cu20  1  0.26916000  0.53832000  0.26916000  1.0 0.7805191885
Cu  Cu21  1  0.79810000  0.59620000  0.79810000  1.0 0.8726300608
Cu  Cu22  1  0.73084000  0.46168000  0.73084000  1.0 0.7805191885
Cu  Cu23  1  0.20190000  0.00000000  0.79810000  1.0 0.8726300608
Cu  Cu24  1  0.26916000  0.00000000  0.73084000  1.0 0.7805191885
H  H1  1  0.53120000  0.10130000  0.83890000  1.0 0.1462505614
H  H2  1  0.73760000  0.89870000  0.42990000  1.0 0.1462505614
H  H3  1  0.46880000  0.30770000  0.57010000  1.0 0.1462505614
H  H4  1  0.26240000  0.69230000  0.16110000  1.0 0.1462505614
H  H5  1  0.42990000  0.73760000  0.89870000  1.0 0.1462505614
H  H6  1  0.83890000  0.53120000  0.10130000  1.0 0.1462505614
H  H7  1  0.16110000  0.26240000  0.69230000  1.0 0.1462505614
H  H8  1  0.57010000  0.46880000  0.30770000  1.0 0.1462505614
H  H9  1  0.69230000  0.16110000  0.26240000  1.0 0.1462505614
H  H10  1  0.30770000  0.57010000  0.46880000  1.0 0.1462505614
H  H11  1  0.89870000  0.42990000  0.73760000  1.0 0.1462505614
H  H12  1  0.10130000  0.83890000  0.53120000  1.0 0.1462505614
H  H13  1  0.16110000  0.89870000  0.46880000  1.0 0.1462505614
H  H14  1  0.57010000  0.10130000  0.26240000  1.0 0.1462505614
H  H15  1  0.42990000  0.69230000  0.53120000  1.0 0.1462505614
H  H16  1  0.83890000  0.30770000  0.73760000  1.0 0.1462505614
H  H17  1  0.10130000  0.26240000  0.57010000  1.0 0.1462505614
H  H18  1  0.89870000  0.46880000  0.16110000  1.0 0.1462505614
H  H19  1  0.30770000  0.73760000  0.83890000  1.0 0.1462505614
H  H20  1  0.69230000  0.53120000  0.42990000  1.0 0.1462505614
H  H21  1  0.73760000  0.83890000  0.30770000  1.0 0.1462505614
H  H22  1  0.53120000  0.42990000  0.69230000  1.0 0.1462505614
H  H23  1  0.26240000  0.57010000  0.10130000  1.0 0.1462505614
H  H24  1  0.46880000  0.16110000  0.89870000  1.0 0.1462505614
H  H25  1  0.46880000  0.89870000  0.16110000  1.0 0.1462505614
H  H26  1  0.26240000  0.10130000  0.57010000  1.0 0.1462505614
H  H27  1  0.53120000  0.69230000  0.42990000  1.0 0.1462505614
H  H28  1  0.73760000  0.30770000  0.83890000  1.0 0.1462505614
H  H29  1  0.57010000  0.26240000  0.10130000  1.0 0.1462505614
H  H30  1  0.16110000  0.46880000  0.89870000  1.0 0.1462505614
H  H31  1  0.83890000  0.73760000  0.30770000  1.0 0.1462505614
H  H32  1  0.42990000  0.53120000  0.69230000  1.0 0.1462505614
H  H33  1  0.30770000  0.83890000  0.73760000  1.0 0.1462505614
H  H34  1  0.69230000  0.42990000  0.53120000  1.0 0.1462505614
H  H35  1  0.10130000  0.57010000  0.26240000  1.0 0.1462505614
H  H36  1  0.89870000  0.16110000  0.46880000  1.0 0.1462505614
H  H37  1  0.83890000  0.10130000  0.53120000  1.0 0.1462505614
H  H38  1  0.42990000  0.89870000  0.73760000  1.0 0.1462505614
H  H39  1  0.57010000  0.30770000  0.46880000  1.0 0.1462505614
H  H40  1  0.16110000  0.69230000  0.26240000  1.0 0.1462505614
H  H41  1  0.89870000  0.73760000  0.42990000  1.0 0.1462505614
H  H42  1  0.10130000  0.53120000  0.83890000  1.0 0.1462505614
H  H43  1  0.69230000  0.26240000  0.16110000  1.0 0.1462505614
H  H44  1  0.30770000  0.46880000  0.57010000  1.0 0.1462505614
H  H45  1  0.26240000  0.16110000  0.69230000  1.0 0.1462505614
H  H46  1  0.46880000  0.57010000  0.30770000  1.0 0.1462505614
H  H47  1  0.73760000  0.42990000  0.89870000  1.0 0.1462505614
H  H48  1  0.53120000  0.83890000  0.10130000  1.0 0.1462505614
H  H49  1  0.63070000  0.00000000  0.86410000  1.0 0.1462505614
H  H50  1  0.38720000  0.00000000  0.77400000  1.0 0.310455532
H  H51  1  0.86410000  0.00000000  0.63070000  1.0 0.1462505614
H  H52  1  0.77400000  0.00000000  0.38720000  1.0 0.310455532
H  H53  1  0.36930000  0.23340000  0.36930000  1.0 0.1462505614
H  H54  1  0.61280000  0.38680000  0.61280000  1.0 0.310455532
H  H55  1  0.13590000  0.76660000  0.13590000  1.0 0.1462505614
H  H56  1  0.22600000  0.61320000  0.22600000  1.0 0.310455532
H  H57  1  0.63070000  0.86410000  0.00000000  1.0 0.1462505614
H  H58  1  0.38720000  0.77400000  0.00000000  1.0 0.310455532
H  H59  1  0.86410000  0.63070000  0.00000000  1.0 0.1462505614
H  H60  1  0.77400000  0.38720000  0.00000000  1.0 0.310455532
H  H61  1  0.13590000  0.13590000  0.76660000  1.0 0.1462505614
H  H62  1  0.22600000  0.22600000  0.61320000  1.0 0.310455532
H  H63  1  0.36930000  0.36930000  0.23340000  1.0 0.1462505614
H  H64  1  0.61280000  0.61280000  0.38680000  1.0 0.310455532
H  H65  1  0.76660000  0.13590000  0.13590000  1.0 0.1462505614
H  H66  1  0.61320000  0.22600000  0.22600000  1.0 0.310455532
H  H67  1  0.23340000  0.36930000  0.36930000  1.0 0.1462505614
H  H68  1  0.38680000  0.61280000  0.61280000  1.0 0.310455532
H  H69  1  0.00000000  0.63070000  0.86410000  1.0 0.1462505614
H  H70  1  0.00000000  0.38720000  0.77400000  1.0 0.310455532
H  H71  1  0.00000000  0.86410000  0.63070000  1.0 0.1462505614
H  H72  1  0.00000000  0.77400000  0.38720000  1.0 0.310455532
H  H73  1  0.13590000  0.00000000  0.36930000  1.0 0.1462505614
H  H74  1  0.22600000  0.00000000  0.61280000  1.0 0.310455532
H  H75  1  0.36930000  0.00000000  0.13590000  1.0 0.1462505614
H  H76  1  0.61280000  0.00000000  0.22600000  1.0 0.310455532
H  H77  1  0.63070000  0.76660000  0.63070000  1.0 0.1462505614
H  H78  1  0.38720000  0.61320000  0.38720000  1.0 0.310455532
H  H79  1  0.86410000  0.23340000  0.86410000  1.0 0.1462505614
H  H80  1  0.77400000  0.38680000  0.77400000  1.0 0.310455532
H  H81  1  0.00000000  0.13590000  0.36930000  1.0 0.1462505614
H  H82  1  0.00000000  0.22600000  0.61280000  1.0 0.310455532
H  H83  1  0.00000000  0.36930000  0.13590000  1.0 0.1462505614
H  H84  1  0.00000000  0.61280000  0.22600000  1.0 0.310455532
H  H85  1  0.23340000  0.86410000  0.86410000  1.0 0.1462505614
H  H86  1  0.38680000  0.77400000  0.77400000  1.0 0.310455532
H  H87  1  0.76660000  0.63070000  0.63070000  1.0 0.1462505614
H  H88  1  0.61320000  0.38720000  0.38720000  1.0 0.310455532
H  H89  1  0.86410000  0.86410000  0.23340000  1.0 0.1462505614
H  H90  1  0.77400000  0.77400000  0.38680000  1.0 0.310455532
H  H91  1  0.63070000  0.63070000  0.76660000  1.0 0.1462505614
H  H92  1  0.38720000  0.38720000  0.61320000  1.0 0.310455532
H  H93  1  0.13590000  0.36930000  0.00000000  1.0 0.1462505614
H  H94  1  0.22600000  0.61280000  0.00000000  1.0 0.310455532
H  H95  1  0.36930000  0.13590000  0.00000000  1.0 0.1462505614
H  H96  1  0.61280000  0.22600000  0.00000000  1.0 0.310455532
H  H97  1  0.44390000  0.02600000  0.58210000  1.0 0.285553747
H  H98  1  0.55610000  0.97400000  0.41790000  1.0 0.285553747
H  H99  1  0.55610000  0.13820000  0.58210000  1.0 0.285553747
H  H100  1  0.44390000  0.86180000  0.41790000  1.0 0.285553747
H  H101  1  0.41790000  0.55610000  0.97400000  1.0 0.285553747
H  H102  1  0.58210000  0.44390000  0.02600000  1.0 0.285553747
H  H103  1  0.41790000  0.44390000  0.86180000  1.0 0.285553747
H  H104  1  0.58210000  0.55610000  0.13820000  1.0 0.285553747
H  H105  1  0.86180000  0.41790000  0.44390000  1.0 0.285553747
H  H106  1  0.13820000  0.58210000  0.55610000  1.0 0.285553747
H  H107  1  0.97400000  0.41790000  0.55610000  1.0 0.285553747
H  H108  1  0.02600000  0.58210000  0.44390000  1.0 0.285553747
H  H109  1  0.41790000  0.97400000  0.55610000  1.0 0.285553747
H  H110  1  0.58210000  0.02600000  0.44390000  1.0 0.285553747
H  H111  1  0.41790000  0.86180000  0.44390000  1.0 0.285553747
H  H112  1  0.58210000  0.13820000  0.55610000  1.0 0.285553747
H  H113  1  0.02600000  0.44390000  0.58210000  1.0 0.285553747
H  H114  1  0.97400000  0.55610000  0.41790000  1.0 0.285553747
H  H115  1  0.13820000  0.55610000  0.58210000  1.0 0.285553747
H  H116  1  0.86180000  0.44390000  0.41790000  1.0 0.285553747
H  H117  1  0.55610000  0.58210000  0.13820000  1.0 0.285553747
H  H118  1  0.44390000  0.41790000  0.86180000  1.0 0.285553747
H  H119  1  0.44390000  0.58210000  0.02600000  1.0 0.285553747
H  H120  1  0.55610000  0.41790000  0.97400000  1.0 0.285553747
C  C1  1  0.65553000  0.12622000  0.91101000  1.0 0.5796927597
C  C2  1  0.59087000  0.06082000  0.85997000  1.0 0.0042528959
C  C3  1  0.53096000  0.06061000  0.82891000  1.0 -0.1730342663
C  C4  1  0.78479000  0.87378000  0.52931000  1.0 0.5796927597
C  C5  1  0.79915000  0.93918000  0.53005000  1.0 0.0042528959
C  C6  1  0.76830000  0.93939000  0.47035000  1.0 -0.1730342663
C  C7  1  0.34447000  0.25548000  0.47069000  1.0 0.5796927597
C  C8  1  0.40913000  0.26910000  0.46995000  1.0 0.0042528959
C  C9  1  0.46904000  0.29795000  0.52965000  1.0 -0.1730342663
C  C10  1  0.21521000  0.74452000  0.08899000  1.0 0.5796927597
C  C11  1  0.20085000  0.73090000  0.14003000  1.0 0.0042528959
C  C12  1  0.23170000  0.70205000  0.17109000  1.0 -0.1730342663
C  C13  1  0.52931000  0.78479000  0.87378000  1.0 0.5796927597
C  C14  1  0.53005000  0.79915000  0.93918000  1.0 0.0042528959
C  C15  1  0.47035000  0.76830000  0.93939000  1.0 -0.1730342663
C  C16  1  0.91101000  0.65553000  0.12622000  1.0 0.5796927597
C  C17  1  0.85997000  0.59087000  0.06082000  1.0 0.0042528959
C  C18  1  0.82891000  0.53096000  0.06061000  1.0 -0.1730342663
C  C19  1  0.08899000  0.21521000  0.74452000  1.0 0.5796927597
C  C20  1  0.14003000  0.20085000  0.73090000  1.0 0.0042528959
C  C21  1  0.17109000  0.23170000  0.70205000  1.0 -0.1730342663
C  C22  1  0.47069000  0.34447000  0.25548000  1.0 0.5796927597
C  C23  1  0.46995000  0.40913000  0.26910000  1.0 0.0042528959
C  C24  1  0.52965000  0.46904000  0.29795000  1.0 -0.1730342663
C  C25  1  0.74452000  0.08899000  0.21521000  1.0 0.5796927597
C  C26  1  0.73090000  0.14003000  0.20085000  1.0 0.0042528959
C  C27  1  0.70205000  0.17109000  0.23170000  1.0 -0.1730342663
C  C28  1  0.25548000  0.47069000  0.34447000  1.0 0.5796927597
C  C29  1  0.26910000  0.46995000  0.40913000  1.0 0.0042528959
C  C30  1  0.29795000  0.52965000  0.46904000  1.0 -0.1730342663
C  C31  1  0.87378000  0.52931000  0.78479000  1.0 0.5796927597
C  C32  1  0.93918000  0.53005000  0.79915000  1.0 0.0042528959
C  C33  1  0.93939000  0.47035000  0.76830000  1.0 -0.1730342663
C  C34  1  0.12622000  0.91101000  0.65553000  1.0 0.5796927597
C  C35  1  0.06082000  0.85997000  0.59087000  1.0 0.0042528959
C  C36  1  0.06061000  0.82891000  0.53096000  1.0 -0.1730342663
C  C37  1  0.08899000  0.87378000  0.34447000  1.0 0.5796927597
C  C38  1  0.14003000  0.93918000  0.40913000  1.0 0.0042528959
C  C39  1  0.17109000  0.93939000  0.46904000  1.0 -0.1730342663
C  C40  1  0.47069000  0.12622000  0.21521000  1.0 0.5796927597
C  C41  1  0.46995000  0.06082000  0.20085000  1.0 0.0042528959
C  C42  1  0.52965000  0.06061000  0.23170000  1.0 -0.1730342663
C  C43  1  0.52931000  0.74452000  0.65553000  1.0 0.5796927597
C  C44  1  0.53005000  0.73090000  0.59087000  1.0 0.0042528959
C  C45  1  0.47035000  0.70205000  0.53096000  1.0 -0.1730342663
C  C46  1  0.91101000  0.25548000  0.78479000  1.0 0.5796927597
C  C47  1  0.85997000  0.26910000  0.79915000  1.0 0.0042528959
C  C48  1  0.82891000  0.29795000  0.76830000  1.0 -0.1730342663
C  C49  1  0.12622000  0.21521000  0.47069000  1.0 0.5796927597
C  C50  1  0.06082000  0.20085000  0.46995000  1.0 0.0042528959
C  C51  1  0.06061000  0.23170000  0.52965000  1.0 -0.1730342663
C  C52  1  0.87378000  0.34447000  0.08899000  1.0 0.5796927597
C  C53  1  0.93918000  0.40913000  0.14003000  1.0 0.0042528959
C  C54  1  0.93939000  0.46904000  0.17109000  1.0 -0.1730342663
C  C55  1  0.25548000  0.78479000  0.91101000  1.0 0.5796927597
C  C56  1  0.26910000  0.79915000  0.85997000  1.0 0.0042528959
C  C57  1  0.29795000  0.76830000  0.82891000  1.0 -0.1730342663
C  C58  1  0.74452000  0.65553000  0.52931000  1.0 0.5796927597
C  C59  1  0.73090000  0.59087000  0.53005000  1.0 0.0042528959
C  C60  1  0.70205000  0.53096000  0.47035000  1.0 -0.1730342663
C  C61  1  0.78479000  0.91101000  0.25548000  1.0 0.5796927597
C  C62  1  0.79915000  0.85997000  0.26910000  1.0 0.0042528959
C  C63  1  0.76830000  0.82891000  0.29795000  1.0 -0.1730342663
C  C64  1  0.65553000  0.52931000  0.74452000  1.0 0.5796927597
C  C65  1  0.59087000  0.53005000  0.73090000  1.0 0.0042528959
C  C66  1  0.53096000  0.47035000  0.70205000  1.0 -0.1730342663
C  C67  1  0.21521000  0.47069000  0.12622000  1.0 0.5796927597
C  C68  1  0.20085000  0.46995000  0.06082000  1.0 0.0042528959
C  C69  1  0.23170000  0.52965000  0.06061000  1.0 -0.1730342663
C  C70  1  0.34447000  0.08899000  0.87378000  1.0 0.5796927597
C  C71  1  0.40913000  0.14003000  0.93918000  1.0 0.0042528959
C  C72  1  0.46904000  0.17109000  0.93939000  1.0 -0.1730342663
C  C73  1  0.34447000  0.87378000  0.08899000  1.0 0.5796927597
C  C74  1  0.40913000  0.93918000  0.14003000  1.0 0.0042528959
C  C75  1  0.46904000  0.93939000  0.17109000  1.0 -0.1730342663
C  C76  1  0.21521000  0.12622000  0.47069000  1.0 0.5796927597
C  C77  1  0.20085000  0.06082000  0.46995000  1.0 0.0042528959
C  C78  1  0.23170000  0.06061000  0.52965000  1.0 -0.1730342663
C  C79  1  0.65553000  0.74452000  0.52931000  1.0 0.5796927597
C  C80  1  0.59087000  0.73090000  0.53005000  1.0 0.0042528959
C  C81  1  0.53096000  0.70205000  0.47035000  1.0 -0.1730342663
C  C82  1  0.78479000  0.25548000  0.91101000  1.0 0.5796927597
C  C83  1  0.79915000  0.26910000  0.85997000  1.0 0.0042528959
C  C84  1  0.76830000  0.29795000  0.82891000  1.0 -0.1730342663
C  C85  1  0.47069000  0.21521000  0.12622000  1.0 0.5796927597
C  C86  1  0.46995000  0.20085000  0.06082000  1.0 0.0042528959
C  C87  1  0.52965000  0.23170000  0.06061000  1.0 -0.1730342663
C  C88  1  0.08899000  0.34447000  0.87378000  1.0 0.5796927597
C  C89  1  0.14003000  0.40913000  0.93918000  1.0 0.0042528959
C  C90  1  0.17109000  0.46904000  0.93939000  1.0 -0.1730342663
C  C91  1  0.91101000  0.78479000  0.25548000  1.0 0.5796927597
C  C92  1  0.85997000  0.79915000  0.26910000  1.0 0.0042528959
C  C93  1  0.82891000  0.76830000  0.29795000  1.0 -0.1730342663
C  C94  1  0.52931000  0.65553000  0.74452000  1.0 0.5796927597
C  C95  1  0.53005000  0.59087000  0.73090000  1.0 0.0042528959
C  C96  1  0.47035000  0.53096000  0.70205000  1.0 -0.1730342663
C  C97  1  0.25548000  0.91101000  0.78479000  1.0 0.5796927597
C  C98  1  0.26910000  0.85997000  0.79915000  1.0 0.0042528959
C  C99  1  0.29795000  0.82891000  0.76830000  1.0 -0.1730342663
C  C100  1  0.74452000  0.52931000  0.65553000  1.0 0.5796927597
C  C101  1  0.73090000  0.53005000  0.59087000  1.0 0.0042528959
C  C102  1  0.70205000  0.47035000  0.53096000  1.0 -0.1730342663
C  C103  1  0.12622000  0.47069000  0.21521000  1.0 0.5796927597
C  C104  1  0.06082000  0.46995000  0.20085000  1.0 0.0042528959
C  C105  1  0.06061000  0.52965000  0.23170000  1.0 -0.1730342663
C  C106  1  0.87378000  0.08899000  0.34447000  1.0 0.5796927597
C  C107  1  0.93918000  0.14003000  0.40913000  1.0 0.0042528959
C  C108  1  0.93939000  0.17109000  0.46904000  1.0 -0.1730342663
C  C109  1  0.91101000  0.12622000  0.65553000  1.0 0.5796927597
C  C110  1  0.85997000  0.06082000  0.59087000  1.0 0.0042528959
C  C111  1  0.82891000  0.06061000  0.53096000  1.0 -0.1730342663
C  C112  1  0.52931000  0.87378000  0.78479000  1.0 0.5796927597
C  C113  1  0.53005000  0.93918000  0.79915000  1.0 0.0042528959
C  C114  1  0.47035000  0.93939000  0.76830000  1.0 -0.1730342663
C  C115  1  0.47069000  0.25548000  0.34447000  1.0 0.5796927597
C  C116  1  0.46995000  0.26910000  0.40913000  1.0 0.0042528959
C  C117  1  0.52965000  0.29795000  0.46904000  1.0 -0.1730342663
C  C118  1  0.08899000  0.74452000  0.21521000  1.0 0.5796927597
C  C119  1  0.14003000  0.73090000  0.20085000  1.0 0.0042528959
C  C120  1  0.17109000  0.70205000  0.23170000  1.0 -0.1730342663
C  C121  1  0.87378000  0.78479000  0.52931000  1.0 0.5796927597
C  C122  1  0.93918000  0.79915000  0.53005000  1.0 0.0042528959
C  C123  1  0.93939000  0.76830000  0.47035000  1.0 -0.1730342663
C  C124  1  0.12622000  0.65553000  0.91101000  1.0 0.5796927597
C  C125  1  0.06082000  0.59087000  0.85997000  1.0 0.0042528959
C  C126  1  0.06061000  0.53096000  0.82891000  1.0 -0.1730342663
C  C127  1  0.74452000  0.21521000  0.08899000  1.0 0.5796927597
C  C128  1  0.73090000  0.20085000  0.14003000  1.0 0.0042528959
C  C129  1  0.70205000  0.23170000  0.17109000  1.0 -0.1730342663
C  C130  1  0.25548000  0.34447000  0.47069000  1.0 0.5796927597
C  C131  1  0.26910000  0.40913000  0.46995000  1.0 0.0042528959
C  C132  1  0.29795000  0.46904000  0.52965000  1.0 -0.1730342663
C  C133  1  0.21521000  0.08899000  0.74452000  1.0 0.5796927597
C  C134  1  0.20085000  0.14003000  0.73090000  1.0 0.0042528959
C  C135  1  0.23170000  0.17109000  0.70205000  1.0 -0.1730342663
C  C136  1  0.34447000  0.47069000  0.25548000  1.0 0.5796927597
C  C137  1  0.40913000  0.46995000  0.26910000  1.0 0.0042528959
C  C138  1  0.46904000  0.52965000  0.29795000  1.0 -0.1730342663
C  C139  1  0.78479000  0.52931000  0.87378000  1.0 0.5796927597
C  C140  1  0.79915000  0.53005000  0.93918000  1.0 0.0042528959
C  C141  1  0.76830000  0.47035000  0.93939000  1.0 -0.1730342663
C  C142  1  0.65553000  0.91101000  0.12622000  1.0 0.5796927597
C  C143  1  0.59087000  0.85997000  0.06082000  1.0 0.0042528959
C  C144  1  0.53096000  0.82891000  0.06061000  1.0 -0.1730342663
C  C145  1  0.59047000  0.00000000  0.84429000  1.0 -0.119094105
C  C146  1  0.47113000  0.00000000  0.78335000  1.0 0.2072526377
C  C147  1  0.38348000  0.00000000  0.69812000  1.0 0.471274377
C  C148  1  0.84429000  0.00000000  0.59047000  1.0 -0.119094105
C  C149  1  0.78335000  0.00000000  0.47113000  1.0 0.2072526377
C  C150  1  0.69812000  0.00000000  0.38348000  1.0 0.471274377
C  C151  1  0.40953000  0.25382000  0.40953000  1.0 -0.119094105
C  C152  1  0.52887000  0.31222000  0.52887000  1.0 0.2072526377
C  C153  1  0.61652000  0.31464000  0.61652000  1.0 0.471274377
C  C154  1  0.15571000  0.74618000  0.15571000  1.0 -0.119094105
C  C155  1  0.21665000  0.68778000  0.21665000  1.0 0.2072526377
C  C156  1  0.30188000  0.68536000  0.30188000  1.0 0.471274377
C  C157  1  0.59047000  0.84429000  0.00000000  1.0 -0.119094105
C  C158  1  0.47113000  0.78335000  0.00000000  1.0 0.2072526377
C  C159  1  0.38348000  0.69812000  0.00000000  1.0 0.471274377
C  C160  1  0.84429000  0.59047000  0.00000000  1.0 -0.119094105
C  C161  1  0.78335000  0.47113000  0.00000000  1.0 0.2072526377
C  C162  1  0.69812000  0.38348000  0.00000000  1.0 0.471274377
C  C163  1  0.15571000  0.15571000  0.74618000  1.0 -0.119094105
C  C164  1  0.21665000  0.21665000  0.68778000  1.0 0.2072526377
C  C165  1  0.30188000  0.30188000  0.68536000  1.0 0.471274377
C  C166  1  0.40953000  0.40953000  0.25382000  1.0 -0.119094105
C  C167  1  0.52887000  0.52887000  0.31222000  1.0 0.2072526377
C  C168  1  0.61652000  0.61652000  0.31464000  1.0 0.471274377
C  C169  1  0.74618000  0.15571000  0.15571000  1.0 -0.119094105
C  C170  1  0.68778000  0.21665000  0.21665000  1.0 0.2072526377
C  C171  1  0.68536000  0.30188000  0.30188000  1.0 0.471274377
C  C172  1  0.25382000  0.40953000  0.40953000  1.0 -0.119094105
C  C173  1  0.31222000  0.52887000  0.52887000  1.0 0.2072526377
C  C174  1  0.31464000  0.61652000  0.61652000  1.0 0.471274377
C  C175  1  0.00000000  0.59047000  0.84429000  1.0 -0.119094105
C  C176  1  0.00000000  0.47113000  0.78335000  1.0 0.2072526377
C  C177  1  0.00000000  0.38348000  0.69812000  1.0 0.471274377
C  C178  1  0.00000000  0.84429000  0.59047000  1.0 -0.119094105
C  C179  1  0.00000000  0.78335000  0.47113000  1.0 0.2072526377
C  C180  1  0.00000000  0.69812000  0.38348000  1.0 0.471274377
C  C181  1  0.15571000  0.00000000  0.40953000  1.0 -0.119094105
C  C182  1  0.21665000  0.00000000  0.52887000  1.0 0.2072526377
C  C183  1  0.30188000  0.00000000  0.61652000  1.0 0.471274377
C  C184  1  0.40953000  0.00000000  0.15571000  1.0 -0.119094105
C  C185  1  0.52887000  0.00000000  0.21665000  1.0 0.2072526377
C  C186  1  0.61652000  0.00000000  0.30188000  1.0 0.471274377
C  C187  1  0.59047000  0.74618000  0.59047000  1.0 -0.119094105
C  C188  1  0.47113000  0.68778000  0.47113000  1.0 0.2072526377
C  C189  1  0.38348000  0.68536000  0.38348000  1.0 0.471274377
C  C190  1  0.84429000  0.25382000  0.84429000  1.0 -0.119094105
C  C191  1  0.78335000  0.31222000  0.78335000  1.0 0.2072526377
C  C192  1  0.69812000  0.31464000  0.69812000  1.0 0.471274377
C  C193  1  0.00000000  0.15571000  0.40953000  1.0 -0.119094105
C  C194  1  0.00000000  0.21665000  0.52887000  1.0 0.2072526377
C  C195  1  0.00000000  0.30188000  0.61652000  1.0 0.471274377
C  C196  1  0.00000000  0.40953000  0.15571000  1.0 -0.119094105
C  C197  1  0.00000000  0.52887000  0.21665000  1.0 0.2072526377
C  C198  1  0.00000000  0.61652000  0.30188000  1.0 0.471274377
C  C199  1  0.25382000  0.84429000  0.84429000  1.0 -0.119094105
C  C200  1  0.31222000  0.78335000  0.78335000  1.0 0.2072526377
C  C201  1  0.31464000  0.69812000  0.69812000  1.0 0.471274377
C  C202  1  0.74618000  0.59047000  0.59047000  1.0 -0.119094105
C  C203  1  0.68778000  0.47113000  0.47113000  1.0 0.2072526377
C  C204  1  0.68536000  0.38348000  0.38348000  1.0 0.471274377
C  C205  1  0.84429000  0.84429000  0.25382000  1.0 -0.119094105
C  C206  1  0.78335000  0.78335000  0.31222000  1.0 0.2072526377
C  C207  1  0.69812000  0.69812000  0.31464000  1.0 0.471274377
C  C208  1  0.59047000  0.59047000  0.74618000  1.0 -0.119094105
C  C209  1  0.47113000  0.47113000  0.68778000  1.0 0.2072526377
C  C210  1  0.38348000  0.38348000  0.68536000  1.0 0.471274377
C  C211  1  0.15571000  0.40953000  0.00000000  1.0 -0.119094105
C  C212  1  0.21665000  0.52887000  0.00000000  1.0 0.2072526377
C  C213  1  0.30188000  0.61652000  0.00000000  1.0 0.471274377
C  C214  1  0.40953000  0.15571000  0.00000000  1.0 -0.119094105
C  C215  1  0.52887000  0.21665000  0.00000000  1.0 0.2072526377
C  C216  1  0.61652000  0.30188000  0.00000000  1.0 0.471274377
C  C217  1  0.41240000  0.05050000  0.63810000  1.0 0.4178837126
C  C218  1  0.58760000  0.94950000  0.36190000  1.0 0.4178837126
C  C219  1  0.58760000  0.22570000  0.63810000  1.0 0.4178837126
C  C220  1  0.41240000  0.77430000  0.36190000  1.0 0.4178837126
C  C221  1  0.36190000  0.58760000  0.94950000  1.0 0.4178837126
C  C222  1  0.63810000  0.41240000  0.05050000  1.0 0.4178837126
C  C223  1  0.36190000  0.41240000  0.77430000  1.0 0.4178837126
C  C224  1  0.63810000  0.58760000  0.22570000  1.0 0.4178837126
C  C225  1  0.77430000  0.36190000  0.41240000  1.0 0.4178837126
C  C226  1  0.22570000  0.63810000  0.58760000  1.0 0.4178837126
C  C227  1  0.94950000  0.36190000  0.58760000  1.0 0.4178837126
C  C228  1  0.05050000  0.63810000  0.41240000  1.0 0.4178837126
C  C229  1  0.36190000  0.94950000  0.58760000  1.0 0.4178837126
C  C230  1  0.63810000  0.05050000  0.41240000  1.0 0.4178837126
C  C231  1  0.36190000  0.77430000  0.41240000  1.0 0.4178837126
C  C232  1  0.63810000  0.22570000  0.58760000  1.0 0.4178837126
C  C233  1  0.05050000  0.41240000  0.63810000  1.0 0.4178837126
C  C234  1  0.94950000  0.58760000  0.36190000  1.0 0.4178837126
C  C235  1  0.22570000  0.58760000  0.63810000  1.0 0.4178837126
C  C236  1  0.77430000  0.41240000  0.36190000  1.0 0.4178837126
C  C237  1  0.58760000  0.63810000  0.22570000  1.0 0.4178837126
C  C238  1  0.41240000  0.36190000  0.77430000  1.0 0.4178837126
C  C239  1  0.41240000  0.63810000  0.05050000  1.0 0.4178837126
C  C240  1  0.58760000  0.36190000  0.94950000  1.0 0.4178837126
N  N1  1  0.43600000  0.04280000  0.69280000  1.0 -0.2780821985
N  N2  1  0.65000000  0.95720000  0.39320000  1.0 -0.2780821985
N  N3  1  0.56400000  0.25680000  0.60680000  1.0 -0.2780821985
N  N4  1  0.35000000  0.74320000  0.30720000  1.0 -0.2780821985
N  N5  1  0.39320000  0.65000000  0.95720000  1.0 -0.2780821985
N  N6  1  0.69280000  0.43600000  0.04280000  1.0 -0.2780821985
N  N7  1  0.30720000  0.35000000  0.74320000  1.0 -0.2780821985
N  N8  1  0.60680000  0.56400000  0.25680000  1.0 -0.2780821985
N  N9  1  0.74320000  0.30720000  0.35000000  1.0 -0.2780821985
N  N10  1  0.25680000  0.60680000  0.56400000  1.0 -0.2780821985
N  N11  1  0.95720000  0.39320000  0.65000000  1.0 -0.2780821985
N  N12  1  0.04280000  0.69280000  0.43600000  1.0 -0.2780821985
N  N13  1  0.30720000  0.95720000  0.56400000  1.0 -0.2780821985
N  N14  1  0.60680000  0.04280000  0.35000000  1.0 -0.2780821985
N  N15  1  0.39320000  0.74320000  0.43600000  1.0 -0.2780821985
N  N16  1  0.69280000  0.25680000  0.65000000  1.0 -0.2780821985
N  N17  1  0.04280000  0.35000000  0.60680000  1.0 -0.2780821985
N  N18  1  0.95720000  0.56400000  0.30720000  1.0 -0.2780821985
N  N19  1  0.25680000  0.65000000  0.69280000  1.0 -0.2780821985
N  N20  1  0.74320000  0.43600000  0.39320000  1.0 -0.2780821985
N  N21  1  0.65000000  0.69280000  0.25680000  1.0 -0.2780821985
N  N22  1  0.43600000  0.39320000  0.74320000  1.0 -0.2780821985
N  N23  1  0.35000000  0.60680000  0.04280000  1.0 -0.2780821985
N  N24  1  0.56400000  0.30720000  0.95720000  1.0 -0.2780821985
N  N25  1  0.56400000  0.95720000  0.30720000  1.0 -0.2780821985
N  N26  1  0.35000000  0.04280000  0.60680000  1.0 -0.2780821985
N  N27  1  0.43600000  0.74320000  0.39320000  1.0 -0.2780821985
N  N28  1  0.65000000  0.25680000  0.69280000  1.0 -0.2780821985
N  N29  1  0.60680000  0.35000000  0.04280000  1.0 -0.2780821985
N  N30  1  0.30720000  0.56400000  0.95720000  1.0 -0.2780821985
N  N31  1  0.69280000  0.65000000  0.25680000  1.0 -0.2780821985
N  N32  1  0.39320000  0.43600000  0.74320000  1.0 -0.2780821985
N  N33  1  0.25680000  0.69280000  0.65000000  1.0 -0.2780821985
N  N34  1  0.74320000  0.39320000  0.43600000  1.0 -0.2780821985
N  N35  1  0.04280000  0.60680000  0.35000000  1.0 -0.2780821985
N  N36  1  0.95720000  0.30720000  0.56400000  1.0 -0.2780821985
N  N37  1  0.69280000  0.04280000  0.43600000  1.0 -0.2780821985
N  N38  1  0.39320000  0.95720000  0.65000000  1.0 -0.2780821985
N  N39  1  0.60680000  0.25680000  0.56400000  1.0 -0.2780821985
N  N40  1  0.30720000  0.74320000  0.35000000  1.0 -0.2780821985
N  N41  1  0.95720000  0.65000000  0.39320000  1.0 -0.2780821985
N  N42  1  0.04280000  0.43600000  0.69280000  1.0 -0.2780821985
N  N43  1  0.74320000  0.35000000  0.30720000  1.0 -0.2780821985
N  N44  1  0.25680000  0.56400000  0.60680000  1.0 -0.2780821985
N  N45  1  0.35000000  0.30720000  0.74320000  1.0 -0.2780821985
N  N46  1  0.56400000  0.60680000  0.25680000  1.0 -0.2721174348
N  N47  1  0.65000000  0.39320000  0.95720000  1.0 -0.2780821985
N  N48  1  0.43600000  0.69280000  0.04280000  1.0 -0.2780821985
N  N49  1  0.40931000  0.00000000  0.75257000  1.0 -0.3232714126
N  N50  1  0.75257000  0.00000000  0.40931000  1.0 -0.3232714126
N  N51  1  0.59069000  0.34326000  0.59069000  1.0 -0.3232714126
N  N52  1  0.24743000  0.65674000  0.24743000  1.0 -0.3232714126
N  N53  1  0.40931000  0.75257000  0.00000000  1.0 -0.3232714126
N  N54  1  0.75257000  0.40931000  0.00000000  1.0 -0.3232714126
N  N55  1  0.24743000  0.24743000  0.65674000  1.0 -0.3232714126
N  N56  1  0.59069000  0.59069000  0.34326000  1.0 -0.3232714126
N  N57  1  0.65674000  0.24743000  0.24743000  1.0 -0.3232714126
N  N58  1  0.34326000  0.59069000  0.59069000  1.0 -0.3232714126
N  N59  1  0.00000000  0.40931000  0.75257000  1.0 -0.3232714126
N  N60  1  0.00000000  0.75257000  0.40931000  1.0 -0.3232714126
N  N61  1  0.24743000  0.00000000  0.59069000  1.0 -0.3232714126
N  N62  1  0.59069000  0.00000000  0.24743000  1.0 -0.3232714126
N  N63  1  0.40931000  0.65674000  0.40931000  1.0 -0.3232714126
N  N64  1  0.75257000  0.34326000  0.75257000  1.0 -0.3232714126
N  N65  1  0.00000000  0.24743000  0.59069000  1.0 -0.3232714126
N  N66  1  0.00000000  0.59069000  0.24743000  1.0 -0.3232714126
N  N67  1  0.34326000  0.75257000  0.75257000  1.0 -0.3232714126
N  N68  1  0.65674000  0.40931000  0.40931000  1.0 -0.3232714126
N  N69  1  0.75257000  0.75257000  0.34326000  1.0 -0.3232714126
N  N70  1  0.40931000  0.40931000  0.65674000  1.0 -0.3232714126
N  N71  1  0.24743000  0.59069000  0.00000000  1.0 -0.3232714126
N  N72  1  0.59069000  0.24743000  0.00000000  1.0 -0.3232714126
N  N73  1  0.32477000  0.00000000  0.67523000  1.0 -0.5655476837
N  N74  1  0.67523000  0.00000000  0.32477000  1.0 -0.5655476837
N  N75  1  0.67523000  0.35046000  0.67523000  1.0 -0.5655476837
N  N76  1  0.32477000  0.64954000  0.32477000  1.0 -0.5655476837
N  N77  1  0.32477000  0.67523000  0.00000000  1.0 -0.5655476837
N  N78  1  0.67523000  0.32477000  0.00000000  1.0 -0.5655476837
N  N79  1  0.32477000  0.32477000  0.64954000  1.0 -0.5655476837
N  N80  1  0.67523000  0.67523000  0.35046000  1.0 -0.5655476837
N  N81  1  0.64954000  0.32477000  0.32477000  1.0 -0.5655476837
N  N82  1  0.35046000  0.67523000  0.67523000  1.0 -0.5655476837
N  N83  1  0.00000000  0.32477000  0.67523000  1.0 -0.5655476837
N  N84  1  0.00000000  0.67523000  0.32477000  1.0 -0.5655476837
O  O1  1  0.65153000  0.17896000  0.92987000  1.0 -0.5246093858
O  O2  1  0.70883000  0.12280000  0.93057000  1.0 -0.5046347431
O  O3  1  0.75091000  0.82104000  0.47257000  1.0 -0.5246093858
O  O4  1  0.80777000  0.87720000  0.58603000  1.0 -0.5046347431
O  O5  1  0.34847000  0.27834000  0.52743000  1.0 -0.5246093858
O  O6  1  0.29117000  0.22174000  0.41397000  1.0 -0.5046347431
O  O7  1  0.24909000  0.72166000  0.07013000  1.0 -0.5246093858
O  O8  1  0.19223000  0.77826000  0.06943000  1.0 -0.5046347431
O  O9  1  0.47257000  0.75091000  0.82104000  1.0 -0.5246093858
O  O10  1  0.58603000  0.80777000  0.87720000  1.0 -0.5046347431
O  O11  1  0.92987000  0.65153000  0.17896000  1.0 -0.5246093858
O  O12  1  0.93057000  0.70883000  0.12280000  1.0 -0.5046347431
O  O13  1  0.07013000  0.24909000  0.72166000  1.0 -0.5246093858
O  O14  1  0.06943000  0.19223000  0.77826000  1.0 -0.5046347431
O  O15  1  0.52743000  0.34847000  0.27834000  1.0 -0.5246093858
O  O16  1  0.41397000  0.29117000  0.22174000  1.0 -0.5046347431
O  O17  1  0.72166000  0.07013000  0.24909000  1.0 -0.5246093858
O  O18  1  0.77826000  0.06943000  0.19223000  1.0 -0.5046347431
O  O19  1  0.27834000  0.52743000  0.34847000  1.0 -0.5246093858
O  O20  1  0.22174000  0.41397000  0.29117000  1.0 -0.5046347431
O  O21  1  0.82104000  0.47257000  0.75091000  1.0 -0.5246093858
O  O22  1  0.87720000  0.58603000  0.80777000  1.0 -0.5046347431
O  O23  1  0.17896000  0.92987000  0.65153000  1.0 -0.5246093858
O  O24  1  0.12280000  0.93057000  0.70883000  1.0 -0.5046347431
O  O25  1  0.07013000  0.82104000  0.34847000  1.0 -0.5246093858
O  O26  1  0.06943000  0.87720000  0.29117000  1.0 -0.5046347431
O  O27  1  0.52743000  0.17896000  0.24909000  1.0 -0.5246093858
O  O28  1  0.41397000  0.12280000  0.19223000  1.0 -0.5046347431
O  O29  1  0.47257000  0.72166000  0.65153000  1.0 -0.5246093858
O  O30  1  0.58603000  0.77826000  0.70883000  1.0 -0.5046347431
O  O31  1  0.92987000  0.27834000  0.75091000  1.0 -0.5246093858
O  O32  1  0.93057000  0.22174000  0.80777000  1.0 -0.5046347431
O  O33  1  0.17896000  0.24909000  0.52743000  1.0 -0.5246093858
O  O34  1  0.12280000  0.19223000  0.41397000  1.0 -0.5046347431
O  O35  1  0.82104000  0.34847000  0.07013000  1.0 -0.5246093858
O  O36  1  0.87720000  0.29117000  0.06943000  1.0 -0.5046347431
O  O37  1  0.27834000  0.75091000  0.92987000  1.0 -0.5246093858
O  O38  1  0.22174000  0.80777000  0.93057000  1.0 -0.5046347431
O  O39  1  0.72166000  0.65153000  0.47257000  1.0 -0.5246093858
O  O40  1  0.77826000  0.70883000  0.58603000  1.0 -0.5046347431
O  O41  1  0.75091000  0.92987000  0.27834000  1.0 -0.5246093858
O  O42  1  0.80777000  0.93057000  0.22174000  1.0 -0.5046347431
O  O43  1  0.65153000  0.47257000  0.72166000  1.0 -0.5246093858
O  O44  1  0.70883000  0.58603000  0.77826000  1.0 -0.5046347431
O  O45  1  0.24909000  0.52743000  0.17896000  1.0 -0.5246093858
O  O46  1  0.19223000  0.41397000  0.12280000  1.0 -0.5046347431
O  O47  1  0.34847000  0.07013000  0.82104000  1.0 -0.5246093858
O  O48  1  0.29117000  0.06943000  0.87720000  1.0 -0.5046347431
O  O49  1  0.34847000  0.82104000  0.07013000  1.0 -0.5246093858
O  O50  1  0.29117000  0.87720000  0.06943000  1.0 -0.5046347431
O  O51  1  0.24909000  0.17896000  0.52743000  1.0 -0.5246093858
O  O52  1  0.19223000  0.12280000  0.41397000  1.0 -0.5046347431
O  O53  1  0.65153000  0.72166000  0.47257000  1.0 -0.5246093858
O  O54  1  0.70883000  0.77826000  0.58603000  1.0 -0.5046347431
O  O55  1  0.75091000  0.27834000  0.92987000  1.0 -0.5246093858
O  O56  1  0.80777000  0.22174000  0.93057000  1.0 -0.5046347431
O  O57  1  0.52743000  0.24909000  0.17896000  1.0 -0.5246093858
O  O58  1  0.41397000  0.19223000  0.12280000  1.0 -0.5046347431
O  O59  1  0.07013000  0.34847000  0.82104000  1.0 -0.5246093858
O  O60  1  0.06943000  0.29117000  0.87720000  1.0 -0.5046347431
O  O61  1  0.92987000  0.75091000  0.27834000  1.0 -0.5246093858
O  O62  1  0.93057000  0.80777000  0.22174000  1.0 -0.5046347431
O  O63  1  0.47257000  0.65153000  0.72166000  1.0 -0.5246093858
O  O64  1  0.58603000  0.70883000  0.77826000  1.0 -0.5046347431
O  O65  1  0.27834000  0.92987000  0.75091000  1.0 -0.5246093858
O  O66  1  0.22174000  0.93057000  0.80777000  1.0 -0.5046347431
O  O67  1  0.72166000  0.47257000  0.65153000  1.0 -0.5246093858
O  O68  1  0.77826000  0.58603000  0.70883000  1.0 -0.5046347431
O  O69  1  0.17896000  0.52743000  0.24909000  1.0 -0.5246093858
O  O70  1  0.12280000  0.41397000  0.19223000  1.0 -0.5046347431
O  O71  1  0.82104000  0.07013000  0.34847000  1.0 -0.5246093858
O  O72  1  0.87720000  0.06943000  0.29117000  1.0 -0.5046347431
O  O73  1  0.92987000  0.17896000  0.65153000  1.0 -0.5246093858
O  O74  1  0.93057000  0.12280000  0.70883000  1.0 -0.5046347431
O  O75  1  0.47257000  0.82104000  0.75091000  1.0 -0.5246093858
O  O76  1  0.58603000  0.87720000  0.80777000  1.0 -0.5046347431
O  O77  1  0.52743000  0.27834000  0.34847000  1.0 -0.5246093858
O  O78  1  0.41397000  0.22174000  0.29117000  1.0 -0.5046347431
O  O79  1  0.07013000  0.72166000  0.24909000  1.0 -0.5246093858
O  O80  1  0.06943000  0.77826000  0.19223000  1.0 -0.5046347431
O  O81  1  0.82104000  0.75091000  0.47257000  1.0 -0.5246093858
O  O82  1  0.87720000  0.80777000  0.58603000  1.0 -0.5046347431
O  O83  1  0.17896000  0.65153000  0.92987000  1.0 -0.5246093858
O  O84  1  0.12280000  0.70883000  0.93057000  1.0 -0.5046347431
O  O85  1  0.72166000  0.24909000  0.07013000  1.0 -0.5246093858
O  O86  1  0.77826000  0.19223000  0.06943000  1.0 -0.5046347431
O  O87  1  0.27834000  0.34847000  0.52743000  1.0 -0.5246093858
O  O88  1  0.22174000  0.29117000  0.41397000  1.0 -0.5046347431
O  O89  1  0.24909000  0.07013000  0.72166000  1.0 -0.5246093858
O  O90  1  0.19223000  0.06943000  0.77826000  1.0 -0.5046347431
O  O91  1  0.34847000  0.52743000  0.27834000  1.0 -0.5246093858
O  O92  1  0.29117000  0.41397000  0.22174000  1.0 -0.5046347431
O  O93  1  0.75091000  0.47257000  0.82104000  1.0 -0.5246093858
O  O94  1  0.80777000  0.58603000  0.87720000  1.0 -0.5046347431
O  O95  1  0.65153000  0.92987000  0.17896000  1.0 -0.5246093858
O  O96  1  0.70883000  0.93057000  0.12280000  1.0 -0.5046347431
O  O97  1  0.45180000  0.06220000  0.61040000  1.0 -0.4400256116
O  O98  1  0.54820000  0.93780000  0.38960000  1.0 -0.4400256116
O  O99  1  0.54820000  0.15860000  0.61040000  1.0 -0.4400256116
O  O100  1  0.45180000  0.84140000  0.38960000  1.0 -0.4400256116
O  O101  1  0.38960000  0.54820000  0.93780000  1.0 -0.4400256116
O  O102  1  0.61040000  0.45180000  0.06220000  1.0 -0.4400256116
O  O103  1  0.38960000  0.45180000  0.84140000  1.0 -0.4400256116
O  O104  1  0.61040000  0.54820000  0.15860000  1.0 -0.4400256116
O  O105  1  0.84140000  0.38960000  0.45180000  1.0 -0.4400256116
O  O106  1  0.15860000  0.61040000  0.54820000  1.0 -0.4400256116
O  O107  1  0.93780000  0.38960000  0.54820000  1.0 -0.4400256116
O  O108  1  0.06220000  0.61040000  0.45180000  1.0 -0.4400256116
O  O109  1  0.38960000  0.93780000  0.54820000  1.0 -0.4400256116
O  O110  1  0.61040000  0.06220000  0.45180000  1.0 -0.4400256116
O  O111  1  0.38960000  0.84140000  0.45180000  1.0 -0.4400256116
O  O112  1  0.61040000  0.15860000  0.54820000  1.0 -0.4400256116
O  O113  1  0.06220000  0.45180000  0.61040000  1.0 -0.4400256116
O  O114  1  0.93780000  0.54820000  0.38960000  1.0 -0.4400256116
O  O115  1  0.15860000  0.54820000  0.61040000  1.0 -0.4400256116
O  O116  1  0.84140000  0.45180000  0.38960000  1.0 -0.4400256116
O  O117  1  0.54820000  0.61040000  0.15860000  1.0 -0.4400256116
O  O118  1  0.45180000  0.38960000  0.84140000  1.0 -0.4400256116
O  O119  1  0.45180000  0.61040000  0.06220000  1.0 -0.4400256116
O  O120  1  0.54820000  0.38960000  0.93780000  1.0 -0.4400256116
