# DDEC6 charges by PACMAN v1.1 (https://github.com/mtap-research/PACMAN-charge/)
data_SETWUL_FSR_pacman
_symmetry_space_group_name_H-M   'P 1'
_cell_length_a   10.54900000
_cell_length_b   10.84200000
_cell_length_c   13.80000000
_cell_angle_alpha   87.13500000
_cell_angle_beta   107.57200000
_cell_angle_gamma   113.58800000
_symmetry_Int_Tables_number   1
_chemical_formula_structural   CoMo4H11C12(N5O7)2
_chemical_formula_sum   'Co2 Mo8 H22 C24 N20 O28'
_cell_volume   1374.42876057
_cell_formula_units_Z   2
loop_
 _symmetry_equiv_pos_site_id
 _symmetry_equiv_pos_as_xyz
  1  'x, y, z'
loop_
 _atom_site_type_symbol
 _atom_site_label
 _atom_site_symmetry_multiplicity
 _atom_site_fract_x
 _atom_site_fract_y
 _atom_site_fract_z
 _atom_site_occupancy
 _atom_site_charge
Co  Co1  1  0.49638000  0.31822000  0.15793000  1.0 0.8749180363
Co  Co2  1  0.50362000  0.68178000  0.84207000  1.0 0.8749180363
Mo  Mo1  1  0.02505000  0.49860000  0.13399000  1.0 2.1216592716
Mo  Mo2  1  0.97495000  0.50140000  0.86601000  1.0 2.1216592716
Mo  Mo3  1  0.32442000  0.79088000  0.13127000  1.0 2.0616893099
Mo  Mo4  1  0.67558000  0.20912000  0.86873000  1.0 2.0616893099
Mo  Mo5  1  0.01004000  0.77085000  0.98250000  1.0 2.0508392379
Mo  Mo6  1  0.98996000  0.22915000  0.01750000  1.0 2.0508392379
Mo  Mo7  1  0.28144000  0.51632000  0.01517000  1.0 2.1216592716
Mo  Mo8  1  0.71856000  0.48368000  0.98483000  1.0 2.1216592716
H  H1  1  0.50140000  0.58640000  0.27420000  1.0 0.1496211813
H  H2  1  0.49860000  0.41360000  0.72580000  1.0 0.1496211813
H  H3  1  0.68200000  0.74520000  0.48550000  1.0 0.1262418902
H  H4  1  0.31800000  0.25480000  0.51450000  1.0 0.1262418902
H  H5  1  0.64530000  0.82080000  0.38810000  1.0 0.1496211813
H  H6  1  0.35470000  0.17920000  0.61190000  1.0 0.1496211813
H  H7  1  0.00680000  0.22880000  0.32620000  1.0 0.1410620959
H  H8  1  0.99320000  0.77120000  0.67380000  1.0 0.1410620959
H  H9  1  0.14590000  0.30610000  0.41810000  1.0 0.1101597847
H  H10  1  0.85410000  0.69390000  0.58190000  1.0 0.1101597847
H  H11  1  0.26570000  0.04030000  0.20140000  1.0 0.1262418902
H  H12  1  0.73430000  0.95970000  0.79860000  1.0 0.1262418902
H  H13  1  0.32300000  0.39150000  0.30370000  1.0 0.1175299661
H  H14  1  0.67700000  0.60850000  0.69630000  1.0 0.1175299661
H  H15  1  0.86770000  0.02650000  0.24900000  1.0 0.1410620959
H  H16  1  0.13230000  0.97350000  0.75100000  1.0 0.1410620959
H  H17  1  0.73870000  0.90700000  0.27330000  1.0 0.1262418902
H  H18  1  0.26130000  0.09300000  0.72670000  1.0 0.1262418902
H  H19  1  0.68260000  0.13860000  0.14780000  1.0 0.1410620959
H  H20  1  0.31740000  0.86140000  0.85220000  1.0 0.1410620959
H  H21  1  0.59650000  0.22430000  0.38180000  1.0 0.1045916603
H  H22  1  0.40350000  0.77570000  0.61820000  1.0 0.1045916603
C  C1  1  0.59340000  0.58510000  0.29470000  1.0 0.0658299812
C  C2  1  0.40660000  0.41490000  0.70530000  1.0 0.0658299812
C  C3  1  0.76750000  0.52880000  0.31670000  1.0 0.1921228618
C  C4  1  0.23250000  0.47120000  0.68330000  1.0 0.1921228618
C  C5  1  0.71240000  0.78280000  0.42700000  1.0 -0.2326729483
C  C6  1  0.28760000  0.21720000  0.57300000  1.0 -0.2326729483
C  C7  1  0.86250000  0.89320000  0.46340000  1.0 0.0208864477
C  C8  1  0.13750000  0.10680000  0.53660000  1.0 0.0208864477
C  C9  1  0.90950000  0.00020000  0.40220000  1.0 0.0208864477
C  C10  1  0.09050000  0.99980000  0.59780000  1.0 0.0208864477
C  C11  1  0.04430000  0.10540000  0.43950000  1.0 0.0208864477
C  C12  1  0.95570000  0.89460000  0.56050000  1.0 0.0208864477
C  C13  1  0.09200000  0.22250000  0.37460000  1.0 -0.1859915032
C  C14  1  0.90800000  0.77750000  0.62540000  1.0 -0.1859915032
C  C15  1  0.25520000  0.10700000  0.23400000  1.0 0.1661169753
C  C16  1  0.74480000  0.89300000  0.76600000  1.0 0.1661169753
C  C17  1  0.28890000  0.29900000  0.28860000  1.0 0.0839196519
C  C18  1  0.71110000  0.70100000  0.71140000  1.0 0.0839196519
C  C19  1  0.81060000  0.99840000  0.29580000  1.0 -0.1859915032
C  C20  1  0.18940000  0.00160000  0.70420000  1.0 -0.1859915032
C  C21  1  0.67790000  0.14480000  0.21350000  1.0 0.1496211813
C  C22  1  0.32210000  0.85520000  0.78650000  1.0 0.1496211813
C  C23  1  0.63290000  0.18960000  0.34150000  1.0 0.1410620959
C  C24  1  0.36710000  0.81040000  0.65850000  1.0 0.1410620959
N  N1  1  0.61280000  0.21000000  0.24230000  1.0 -0.335987009
N  N2  1  0.38720000  0.79000000  0.75770000  1.0 -0.335987009
N  N3  1  0.73680000  0.08790000  0.29350000  1.0 0.1661169753
N  N4  1  0.26320000  0.91210000  0.70650000  1.0 0.1661169753
N  N5  1  0.70780000  0.11680000  0.37680000  1.0 -0.2537226601
N  N6  1  0.29220000  0.88320000  0.62320000  1.0 -0.2537226601
N  N7  1  0.33810000  0.24290000  0.23430000  1.0 -0.3495238422
N  N8  1  0.66190000  0.75710000  0.76570000  1.0 -0.3495238422
N  N9  1  0.18360000  0.20510000  0.31910000  1.0 0.1496211813
N  N10  1  0.81640000  0.79490000  0.68090000  1.0 0.1496211813
N  N11  1  0.16090000  0.08010000  0.28360000  1.0 -0.2449377252
N  N12  1  0.83910000  0.91990000  0.71640000  1.0 -0.2449377252
N  N13  1  0.62270000  0.49490000  0.25810000  1.0 -0.3495238422
N  N14  1  0.37730000  0.50510000  0.74190000  1.0 -0.3495238422
N  N15  1  0.70500000  0.67400000  0.36310000  1.0 0.1846451686
N  N16  1  0.29500000  0.32600000  0.63690000  1.0 0.1846451686
N  N17  1  0.82010000  0.63190000  0.38690000  1.0 -0.0799617468
N  N18  1  0.17990000  0.36810000  0.61310000  1.0 -0.0741219594
N  N19  1  0.82200000  0.68800000  0.33100000  1.0 -0.0355864501
N  N20  1  0.17800000  0.31200000  0.66900000  1.0 -0.0355864501
O  O1  1  0.89670000  0.84160000  0.99100000  1.0 -0.5313118174
O  O2  1  0.10330000  0.15840000  0.00900000  1.0 -0.5313118174
O  O3  1  0.87090000  0.60310000  0.89230000  1.0 -0.9241467788
O  O4  1  0.12910000  0.39690000  0.10770000  1.0 -0.9241467788
O  O5  1  0.09020000  0.85510000  0.89570000  1.0 -0.6160822584
O  O6  1  0.90980000  0.14490000  0.10430000  1.0 -0.6128232552
O  O7  1  0.94440000  0.40370000  0.21640000  1.0 -0.6023175194
O  O8  1  0.05560000  0.59630000  0.78360000  1.0 -0.6023175194
O  O9  1  0.87640000  0.38440000  0.99490000  1.0 -1.1608687116
O  O10  1  0.12360000  0.61560000  0.00510000  1.0 -1.1608687116
O  O11  1  0.43670000  0.87430000  0.24550000  1.0 -0.6389256938
O  O12  1  0.56330000  0.12570000  0.75450000  1.0 -0.6389256938
O  O13  1  0.37750000  0.64020000  0.13010000  1.0 -0.8048809244
O  O14  1  0.62250000  0.35980000  0.86990000  1.0 -0.8048809244
O  O15  1  0.35480000  0.60930000  0.92620000  1.0 -0.6599434091
O  O16  1  0.64520000  0.39070000  0.07380000  1.0 -0.6599434091
O  O17  1  0.36970000  0.41170000  0.05360000  1.0 -0.6389256938
O  O18  1  0.63030000  0.58830000  0.94640000  1.0 -0.6389256938
O  O19  1  0.09360000  0.39800000  0.91780000  1.0 -0.9000862314
O  O20  1  0.90640000  0.60200000  0.08220000  1.0 -0.9000862314
O  O21  1  0.17720000  0.63130000  0.20950000  1.0 -0.7146202995
O  O22  1  0.82280000  0.36870000  0.79050000  1.0 -0.7146202995
O  O23  1  0.16450000  0.84090000  0.10600000  1.0 -0.7860982491
O  O24  1  0.83550000  0.15910000  0.89400000  1.0 -0.7848724796
O  O25  1  0.40230000  0.87930000  0.04380000  1.0 -0.5662987902
O  O26  1  0.59770000  0.12070000  0.95620000  1.0 -0.5662987902
O  O27  1  0.37760000  0.15400000  0.04500000  1.0 -0.2326729483
O  O28  1  0.62240000  0.84600000  0.95500000  1.0 -0.2326729483
