# DDEC6 charges by PACMAN v1.1 (https://github.com/mtap-research/PACMAN-charge/)
data_SETXAS_ASR_pacman
_symmetry_space_group_name_H-M   'P 1'
_cell_length_a   10.57500000
_cell_length_b   10.89400000
_cell_length_c   13.87000000
_cell_angle_alpha   87.23300000
_cell_angle_beta   107.59700000
_cell_angle_gamma   113.59200000
_symmetry_Int_Tables_number   1
_chemical_formula_structural   ZnMo4H11C12(N5O4)2
_chemical_formula_sum   'Zn2 Mo8 H22 C24 N20 O16'
_cell_volume   1390.96108515
_cell_formula_units_Z   2
loop_
 _symmetry_equiv_pos_site_id
 _symmetry_equiv_pos_as_xyz
  1  'x, y, z'
loop_
 _atom_site_type_symbol
 _atom_site_label
 _atom_site_symmetry_multiplicity
 _atom_site_fract_x
 _atom_site_fract_y
 _atom_site_fract_z
 _atom_site_occupancy
 _atom_site_charge
Zn  Zn1  1  0.99776000  0.81777000  0.66416000  1.0 0.7626958139
Zn  Zn2  1  0.00224000  0.18223000  0.33584000  1.0 0.765255297
Mo  Mo1  1  0.21916000  0.98450000  0.48644000  1.0 2.0438708909
Mo  Mo2  1  0.78084000  0.01550000  0.51356000  1.0 2.0438708909
Mo  Mo3  1  0.52725000  0.00117000  0.63356000  1.0 1.7472275741
Mo  Mo4  1  0.47275000  0.99883000  0.36644000  1.0 1.7472275741
Mo  Mo5  1  0.82427000  0.29117000  0.62648000  1.0 1.1874356515
Mo  Mo6  1  0.17573000  0.70883000  0.37352000  1.0 1.1874356515
Mo  Mo7  1  0.50949000  0.26909000  0.47985000  1.0 1.2001917012
Mo  Mo8  1  0.49051000  0.73091000  0.52015000  1.0 1.2001917012
H  H1  1  0.50690000  0.72720000  0.82770000  1.0 0.1107134509
H  H2  1  0.49310000  0.27280000  0.17230000  1.0 0.1107134509
H  H3  1  0.64640000  0.80460000  0.91870000  1.0 0.0976602308
H  H4  1  0.35360000  0.19540000  0.08130000  1.0 0.0976602308
H  H5  1  0.82570000  0.88920000  0.80830000  1.0 0.1194195248
H  H6  1  0.17430000  0.11080000  0.19170000  1.0 0.1194195248
H  H7  1  0.75870000  0.54240000  0.69720000  1.0 0.1107134509
H  H8  1  0.24130000  0.45760000  0.30280000  1.0 0.1194195248
H  H9  1  0.85500000  0.67770000  0.11370000  1.0 0.1194195248
H  H10  1  0.14500000  0.32230000  0.88630000  1.0 0.1194195248
H  H11  1  0.82100000  0.75280000  0.01620000  1.0 0.1107134509
H  H12  1  0.17900000  0.24720000  0.98380000  1.0 0.1107134509
H  H13  1  0.99940000  0.90890000  0.22980000  1.0 0.1392232425
H  H14  1  0.00060000  0.09110000  0.77020000  1.0 0.1392232425
H  H15  1  0.76050000  0.59250000  0.22650000  1.0 0.1107134509
H  H16  1  0.23950000  0.40750000  0.77350000  1.0 0.1107134509
H  H17  1  0.63050000  0.47370000  0.24930000  1.0 0.1107134509
H  H18  1  0.36950000  0.52630000  0.75070000  1.0 0.1107134509
H  H19  1  0.81240000  0.35760000  0.34900000  1.0 0.1107134509
H  H20  1  0.18760000  0.64240000  0.65100000  1.0 0.1107134509
H  H21  1  0.90290000  0.27900000  0.11570000  1.0 0.1107134509
H  H22  1  0.09710000  0.72100000  0.88430000  1.0 0.1107134509
C  C1  1  0.54570000  0.60560000  0.94020000  1.0 0.0086703089
C  C2  1  0.45430000  0.39440000  0.05980000  1.0 0.0086703089
C  C3  1  0.63700000  0.60600000  0.03640000  1.0 0.0086703089
C  C4  1  0.36300000  0.39400000  0.96360000  1.0 0.0086703089
C  C5  1  0.59130000  0.50110000  0.09740000  1.0 0.0086703089
C  C6  1  0.40870000  0.49890000  0.90260000  1.0 0.0086703089
C  C7  1  0.59230000  0.72120000  0.87550000  1.0 -0.2089491166
C  C8  1  0.40770000  0.27880000  0.12450000  1.0 -0.2089491166
C  C9  1  0.78920000  0.79740000  0.79100000  1.0 0.0341914356
C  C10  1  0.21080000  0.20260000  0.20900000  1.0 0.0341914356
C  C11  1  0.75020000  0.60850000  0.73160000  1.0 0.1296263285
C  C12  1  0.24980000  0.39150000  0.26840000  1.0 0.1296263285
C  C13  1  0.78920000  0.71610000  0.07400000  1.0 -0.2594237082
C  C14  1  0.21080000  0.28390000  0.92600000  1.0 -0.2594237082
C  C15  1  0.90870000  0.91210000  0.20700000  1.0 0.0086703089
C  C16  1  0.09130000  0.08790000  0.79300000  1.0 0.0086703089
C  C17  1  0.73430000  0.97010000  0.18150000  1.0 -0.068930322
C  C18  1  0.26570000  0.02990000  0.81850000  1.0 -0.0613494158
C  C19  1  0.68820000  0.50180000  0.20330000  1.0 -0.2089491166
C  C20  1  0.31180000  0.49820000  0.79670000  1.0 -0.2089491166
C  C21  1  0.81860000  0.35330000  0.28380000  1.0 0.0086703089
C  C22  1  0.18140000  0.64670000  0.71620000  1.0 0.0086703089
C  C23  1  0.86700000  0.31300000  0.15660000  1.0 0.1296263285
C  C24  1  0.13300000  0.68700000  0.84340000  1.0 0.1296263285
N  N1  1  0.83550000  0.74110000  0.73480000  1.0 -0.3384385161
N  N2  1  0.16450000  0.25890000  0.26520000  1.0 -0.3384385161
N  N3  1  0.68300000  0.70430000  0.81920000  1.0 0.1296263285
N  N4  1  0.31700000  0.29570000  0.18080000  1.0 0.1296263285
N  N5  1  0.65520000  0.58080000  0.78050000  1.0 -0.2660236858
N  N6  1  0.34480000  0.41920000  0.21950000  1.0 -0.2660236858
N  N7  1  0.87720000  0.00270000  0.24040000  1.0 -0.3063123875
N  N8  1  0.12280000  0.99730000  0.75960000  1.0 -0.3063123875
N  N9  1  0.79590000  0.82540000  0.13680000  1.0 0.1858954526
N  N10  1  0.20410000  0.17460000  0.86320000  1.0 0.1858954526
N  N11  1  0.68200000  0.84300000  0.13740000  1.0 -0.0424281188
N  N12  1  0.31800000  0.15700000  0.86260000  1.0 -0.0424281188
N  N13  1  0.88530000  0.28920000  0.25410000  1.0 -0.3258038812
N  N14  1  0.11470000  0.71080000  0.74590000  1.0 -0.3247190766
N  N15  1  0.76160000  0.41080000  0.20520000  1.0 0.1194195248
N  N16  1  0.23840000  0.58920000  0.79480000  1.0 0.1194195248
N  N17  1  0.79460000  0.38780000  0.12280000  1.0 -0.2594237082
N  N18  1  0.20540000  0.61220000  0.87720000  1.0 -0.2594237082
N  N19  1  0.68620000  0.87870000  0.10080000  1.0 -0.068930322
N  N20  1  0.31380000  0.12130000  0.89920000  1.0 -0.068930322
O  O1  1  0.14830000  0.89400000  0.57600000  1.0 -0.685507273
O  O2  1  0.85170000  0.10600000  0.42400000  1.0 -0.685507273
O  O3  1  0.12240000  0.85860000  0.37310000  1.0 -0.7991143815
O  O4  1  0.87760000  0.14140000  0.62690000  1.0 -0.7991143815
O  O5  1  0.13040000  0.08820000  0.44780000  1.0 -0.6700400763
O  O6  1  0.86960000  0.91180000  0.55220000  1.0 -0.6700400763
O  O7  1  0.37000000  0.10160000  0.39200000  1.0 -0.9210485571
O  O8  1  0.63000000  0.89840000  0.60800000  1.0 -0.9210485571
O  O9  1  0.40740000  0.10360000  0.58210000  1.0 -0.9210485571
O  O10  1  0.59260000  0.89640000  0.41790000  1.0 -0.9210485571
O  O11  1  0.67910000  0.13520000  0.70730000  1.0 -0.703868901
O  O12  1  0.32090000  0.86480000  0.29270000  1.0 -0.703868901
O  O13  1  0.62300000  0.11570000  0.50390000  1.0 -1.1511971109
O  O14  1  0.37700000  0.88430000  0.49610000  1.0 -1.1585797422
O  O15  1  0.66510000  0.34180000  0.60120000  1.0 -0.7650820367
O  O16  1  0.33490000  0.65820000  0.39880000  1.0 -0.7643416278
