# DDEC6 charges by PACMAN v1.1 (https://github.com/mtap-research/PACMAN-charge/)
data_SEVWEV_FSR_pacman
_symmetry_space_group_name_H-M   'P 1'
_cell_length_a   6.12000000
_cell_length_b   9.71900000
_cell_length_c   20.13300000
_cell_angle_alpha   90.00000000
_cell_angle_beta   90.00000000
_cell_angle_gamma   90.00000000
_symmetry_Int_Tables_number   1
_chemical_formula_structural   Nd(CO)9
_chemical_formula_sum   'Nd4 C36 O36'
_cell_volume   1197.51647724
_cell_formula_units_Z   4
loop_
 _symmetry_equiv_pos_site_id
 _symmetry_equiv_pos_as_xyz
  1  'x, y, z'
loop_
 _atom_site_type_symbol
 _atom_site_label
 _atom_site_symmetry_multiplicity
 _atom_site_fract_x
 _atom_site_fract_y
 _atom_site_fract_z
 _atom_site_occupancy
 _atom_site_charge
Nd  Nd1  1  0.28580000  0.96600000  0.68530000  1.0 1.9987981986
Nd  Nd2  1  0.78580000  0.53400000  0.31470000  1.0 1.9987981986
Nd  Nd3  1  0.71420000  0.46600000  0.81470000  1.0 1.9987981986
Nd  Nd4  1  0.21420000  0.03400000  0.18530000  1.0 1.9987981986
C  C1  1  0.78500000  0.12780000  0.37230000  1.0 -0.0569451269
C  C2  1  0.28500000  0.37220000  0.62770000  1.0 -0.0569451269
C  C3  1  0.21500000  0.62780000  0.12770000  1.0 -0.0569451269
C  C4  1  0.71500000  0.87220000  0.87230000  1.0 -0.0569451269
C  C5  1  0.58020000  0.06240000  0.37380000  1.0 -0.0825766329
C  C6  1  0.08020000  0.43760000  0.62620000  1.0 -0.0825766329
C  C7  1  0.41980000  0.56240000  0.12620000  1.0 -0.0825766329
C  C8  1  0.91980000  0.93760000  0.87380000  1.0 -0.0825766329
C  C9  1  0.49480000  0.02210000  0.43480000  1.0 0.0903420835
C  C10  1  0.99480000  0.47790000  0.56520000  1.0 0.0903420835
C  C11  1  0.50520000  0.52210000  0.06520000  1.0 0.0903420835
C  C12  1  0.00520000  0.97790000  0.93480000  1.0 0.0903420835
C  C13  1  0.60660000  0.04570000  0.49330000  1.0 -0.102141377
C  C14  1  0.10660000  0.45430000  0.50670000  1.0 -0.102141377
C  C15  1  0.39340000  0.54570000  0.00670000  1.0 -0.102141377
C  C16  1  0.89340000  0.95430000  0.99330000  1.0 -0.102141377
C  C17  1  0.81390000  0.10580000  0.49090000  1.0 0.0442420327
C  C18  1  0.31390000  0.39420000  0.50910000  1.0 0.0442420327
C  C19  1  0.18610000  0.60580000  0.00910000  1.0 0.0481824923
C  C20  1  0.68610000  0.89420000  0.99090000  1.0 0.0442420327
C  C21  1  0.89750000  0.14810000  0.43090000  1.0 -0.034801681
C  C22  1  0.39750000  0.35190000  0.56910000  1.0 -0.0361249389
C  C23  1  0.10250000  0.64810000  0.06910000  1.0 -0.0361249389
C  C24  1  0.60250000  0.85190000  0.93090000  1.0 -0.0361249389
C  C25  1  0.88450000  0.17330000  0.30730000  1.0 0.6808583956
C  C26  1  0.38450000  0.32670000  0.69270000  1.0 0.6808583956
C  C27  1  0.11550000  0.67330000  0.19270000  1.0 0.6808583956
C  C28  1  0.61550000  0.82670000  0.80730000  1.0 0.6808583956
C  C29  1  0.44740000  0.04270000  0.31320000  1.0 0.563133664
C  C30  1  0.94740000  0.45730000  0.68680000  1.0 0.563133664
C  C31  1  0.55260000  0.54270000  0.18680000  1.0 0.563133664
C  C32  1  0.05260000  0.95730000  0.81320000  1.0 0.563133664
C  C33  1  0.50410000  0.00650000  0.55840000  1.0 0.5930102538
C  C34  1  0.00410000  0.49350000  0.44160000  1.0 0.5930102538
C  C35  1  0.49590000  0.50650000  0.94160000  1.0 0.5950049829
C  C36  1  0.99590000  0.99350000  0.05840000  1.0 0.5930102538
O  O1  1  0.92580000  0.29910000  0.29930000  1.0 -0.5767592717
O  O2  1  0.42580000  0.20090000  0.70070000  1.0 -0.5767592717
O  O3  1  0.07420000  0.79910000  0.20070000  1.0 -0.5767592717
O  O4  1  0.57420000  0.70090000  0.79930000  1.0 -0.5767592717
O  O5  1  0.93420000  0.07850000  0.26760000  1.0 -0.5922780563
O  O6  1  0.43420000  0.42150000  0.73240000  1.0 -0.5922780563
O  O7  1  0.06580000  0.57850000  0.23240000  1.0 -0.5922780563
O  O8  1  0.56580000  0.92150000  0.76760000  1.0 -0.5922780563
O  O9  1  0.35580000  0.93010000  0.30180000  1.0 -0.4747257758
O  O10  1  0.85580000  0.56990000  0.69820000  1.0 -0.4760318924
O  O11  1  0.64420000  0.43010000  0.19820000  1.0 -0.4747257758
O  O12  1  0.14420000  0.06990000  0.80180000  1.0 -0.4760318924
O  O13  1  0.42870000  0.14460000  0.27400000  1.0 -0.5284264613
O  O14  1  0.92870000  0.35540000  0.72600000  1.0 -0.5284264613
O  O15  1  0.57130000  0.64460000  0.22600000  1.0 -0.5284264613
O  O16  1  0.07130000  0.85540000  0.77400000  1.0 -0.5284264613
O  O17  1  0.30240000  0.98420000  0.56020000  1.0 -0.5767592717
O  O18  1  0.80240000  0.51580000  0.43980000  1.0 -0.5767592717
O  O19  1  0.69760000  0.48420000  0.93980000  1.0 -0.5767592717
O  O20  1  0.19760000  0.01580000  0.06020000  1.0 -0.5767592717
O  O21  1  0.61840000  0.99860000  0.61010000  1.0 -0.4955312241
O  O22  1  0.11840000  0.50140000  0.38990000  1.0 -0.4955312241
O  O23  1  0.38160000  0.49860000  0.88990000  1.0 -0.4955312241
O  O24  1  0.88160000  0.00140000  0.11010000  1.0 -0.4941869009
O  O25  1  0.97370000  0.11230000  0.66530000  1.0 -0.2688939724
O  O26  1  0.47370000  0.38770000  0.33470000  1.0 -0.2688939724
O  O27  1  0.02630000  0.61230000  0.83470000  1.0 -0.2688939724
O  O28  1  0.52630000  0.88770000  0.16530000  1.0 -0.2688939724
O  O29  1  0.97790000  0.82020000  0.63530000  1.0 0.0481824923
O  O30  1  0.47790000  0.67980000  0.36470000  1.0 0.0481824923
O  O31  1  0.02210000  0.32020000  0.86470000  1.0 0.0481824923
O  O32  1  0.52210000  0.17980000  0.13530000  1.0 0.0481824923
O  O33  1  0.41420000  0.72710000  0.66050000  1.0 -0.2289026458
O  O34  1  0.91420000  0.77290000  0.33950000  1.0 -0.2289026458
O  O35  1  0.58580000  0.22710000  0.83950000  1.0 -0.2289026458
O  O36  1  0.08580000  0.27290000  0.16050000  1.0 -0.2289026458
