# DDEC6 charges by PACMAN v1.1 (https://github.com/mtap-research/PACMAN-charge/)
data_SEWCED_ASR_pacman
_symmetry_space_group_name_H-M   'P 1'
_cell_length_a   20.30490000
_cell_length_b   20.30490000
_cell_length_c   49.64100000
_cell_angle_alpha   90.00000000
_cell_angle_beta   90.00000000
_cell_angle_gamma   90.00000000
_symmetry_Int_Tables_number   1
_chemical_formula_structural   Cd3H70C120N14(Cl4O13)2
_chemical_formula_sum   'Cd12 H280 C480 N56 Cl32 O104'
_cell_volume   20466.43646242
_cell_formula_units_Z   4
loop_
 _symmetry_equiv_pos_site_id
 _symmetry_equiv_pos_as_xyz
  1  'x, y, z'
loop_
 _atom_site_type_symbol
 _atom_site_label
 _atom_site_symmetry_multiplicity
 _atom_site_fract_x
 _atom_site_fract_y
 _atom_site_fract_z
 _atom_site_occupancy
 _atom_site_charge
Cd  Cd1  1  0.20319000  0.20319000  0.37500000  1.0 0.7338829211
Cd  Cd2  1  0.79681000  0.79681000  0.87500000  1.0 0.7359701764
Cd  Cd3  1  0.12950000  0.30891000  0.26810000  1.0 0.785470463
Cd  Cd4  1  0.87050000  0.69109000  0.76810000  1.0 0.785470463
Cd  Cd5  1  0.69109000  0.87050000  0.98190000  1.0 0.785470463
Cd  Cd6  1  0.30891000  0.12950000  0.48190000  1.0 0.785470463
Cd  Cd7  1  0.20319000  0.79681000  0.12500000  1.0 0.7338829211
Cd  Cd8  1  0.79681000  0.20319000  0.62500000  1.0 0.7338829211
Cd  Cd9  1  0.30891000  0.87050000  0.01810000  1.0 0.785470463
Cd  Cd10  1  0.69109000  0.12950000  0.51810000  1.0 0.785470463
Cd  Cd11  1  0.87050000  0.30891000  0.73190000  1.0 0.785470463
Cd  Cd12  1  0.12950000  0.69109000  0.23190000  1.0 0.7848261964
H  H1  1  0.24450000  0.70700000  0.33860000  1.0 0.3271511417
H  H2  1  0.75550000  0.29300000  0.83860000  1.0 0.3271511417
H  H3  1  0.29300000  0.75550000  0.91140000  1.0 0.3271511417
H  H4  1  0.70700000  0.24450000  0.41140000  1.0 0.3271511417
H  H5  1  0.25120000  0.70260000  0.40730000  1.0 0.3422745053
H  H6  1  0.74880000  0.29740000  0.90730000  1.0 0.3422745053
H  H7  1  0.29740000  0.74880000  0.84270000  1.0 0.3422745053
H  H8  1  0.70260000  0.25120000  0.34270000  1.0 0.3422745053
H  H9  1  0.98190000  0.67630000  0.17420000  1.0 0.3422745053
H  H10  1  0.01810000  0.32370000  0.67420000  1.0 0.3422745053
H  H11  1  0.32370000  0.01810000  0.07580000  1.0 0.3422745053
H  H12  1  0.67630000  0.98190000  0.57580000  1.0 0.3422745053
H  H13  1  0.83400000  0.58430000  0.14040000  1.0 0.3465585183
H  H14  1  0.16600000  0.41570000  0.64040000  1.0 0.3465585183
H  H15  1  0.41570000  0.16600000  0.10960000  1.0 0.3465585183
H  H16  1  0.58430000  0.83400000  0.60960000  1.0 0.3465585183
H  H17  1  0.26360000  0.32930000  0.40390000  1.0 0.1099571125
H  H18  1  0.73640000  0.67070000  0.90390000  1.0 0.1099571125
H  H19  1  0.67070000  0.73640000  0.84610000  1.0 0.1099571125
H  H20  1  0.32930000  0.26360000  0.34610000  1.0 0.1099571125
H  H21  1  0.25730000  0.44280000  0.40650000  1.0 0.1397232015
H  H22  1  0.74270000  0.55720000  0.90650000  1.0 0.1397232015
H  H23  1  0.55720000  0.74270000  0.84350000  1.0 0.1397232015
H  H24  1  0.44280000  0.25730000  0.34350000  1.0 0.1397232015
H  H25  1  0.12630000  0.44090000  0.34590000  1.0 0.1301505735
H  H26  1  0.87370000  0.55910000  0.84590000  1.0 0.1301505735
H  H27  1  0.55910000  0.87370000  0.90410000  1.0 0.1301505735
H  H28  1  0.44090000  0.12630000  0.40410000  1.0 0.1301505735
H  H29  1  0.13340000  0.32610000  0.34490000  1.0 0.1013686392
H  H30  1  0.86660000  0.67390000  0.84490000  1.0 0.1013686392
H  H31  1  0.67390000  0.86660000  0.90510000  1.0 0.1013686392
H  H32  1  0.32610000  0.13340000  0.40510000  1.0 0.1013686392
H  H33  1  0.24530000  0.53940000  0.34320000  1.0 0.149032659
H  H34  1  0.75470000  0.46060000  0.84320000  1.0 0.149032659
H  H35  1  0.46060000  0.75470000  0.90680000  1.0 0.149032659
H  H36  1  0.53940000  0.24530000  0.40680000  1.0 0.149032659
H  H37  1  0.11630000  0.48060000  0.41670000  1.0 0.1194514772
H  H38  1  0.88370000  0.51940000  0.91670000  1.0 0.1194514772
H  H39  1  0.51940000  0.88370000  0.83330000  1.0 0.1194514772
H  H40  1  0.48060000  0.11630000  0.33333333  1.0 0.1194514772
H  H41  1  0.05550000  0.65390000  0.44860000  1.0 0.1397232015
H  H42  1  0.94450000  0.34610000  0.94860000  1.0 0.1397232015
H  H43  1  0.34610000  0.94450000  0.80140000  1.0 0.1397232015
H  H44  1  0.65390000  0.05550000  0.30140000  1.0 0.1397232015
H  H45  1  0.10900000  0.71040000  0.41490000  1.0 0.1194514772
H  H46  1  0.89100000  0.28960000  0.91490000  1.0 0.1194514772
H  H47  1  0.28960000  0.89100000  0.83510000  1.0 0.1194514772
H  H48  1  0.71040000  0.10900000  0.33510000  1.0 0.1194514772
H  H49  1  0.10240000  0.69330000  0.33690000  1.0 0.1099571125
H  H50  1  0.89760000  0.30670000  0.83690000  1.0 0.1099571125
H  H51  1  0.30670000  0.89760000  0.91310000  1.0 0.1099571125
H  H52  1  0.69330000  0.10240000  0.41310000  1.0 0.1099571125
H  H53  1  0.03210000  0.74510000  0.30780000  1.0 0.1397232015
H  H54  1  0.96790000  0.25490000  0.80780000  1.0 0.1397232015
H  H55  1  0.25490000  0.96790000  0.94220000  1.0 0.1397232015
H  H56  1  0.74510000  0.03210000  0.44220000  1.0 0.1397232015
H  H57  1  0.08190000  0.92110000  0.34050000  1.0 0.1194514772
H  H58  1  0.91810000  0.07890000  0.84050000  1.0 0.1194514772
H  H59  1  0.07890000  0.91810000  0.90950000  1.0 0.1194514772
H  H60  1  0.92110000  0.08190000  0.40950000  1.0 0.1194514772
H  H61  1  0.24210000  0.87120000  0.40370000  1.0 0.149032659
H  H62  1  0.75790000  0.12880000  0.90370000  1.0 0.149032659
H  H63  1  0.12880000  0.75790000  0.84630000  1.0 0.149032659
H  H64  1  0.87120000  0.24210000  0.34630000  1.0 0.149032659
H  H65  1  0.18540000  0.07720000  0.41560000  1.0 0.1099571125
H  H66  1  0.81460000  0.92280000  0.91560000  1.0 0.1099571125
H  H67  1  0.92280000  0.81460000  0.83440000  1.0 0.1099571125
H  H68  1  0.07720000  0.18540000  0.33440000  1.0 0.1099571125
H  H69  1  0.16930000  0.96510000  0.41560000  1.0 0.1397232015
H  H70  1  0.83070000  0.03490000  0.91560000  1.0 0.1397232015
H  H71  1  0.03490000  0.83070000  0.83440000  1.0 0.1397232015
H  H72  1  0.96510000  0.16930000  0.33440000  1.0 0.1397232015
H  H73  1  0.18510000  0.96830000  0.33490000  1.0 0.1301505735
H  H74  1  0.81490000  0.03170000  0.83490000  1.0 0.1301505735
H  H75  1  0.03170000  0.81490000  0.91510000  1.0 0.1301505735
H  H76  1  0.96830000  0.18510000  0.41510000  1.0 0.1301505735
H  H77  1  0.20260000  0.08050000  0.33710000  1.0 0.1013686392
H  H78  1  0.79740000  0.91950000  0.83710000  1.0 0.1013686392
H  H79  1  0.91950000  0.79740000  0.91290000  1.0 0.1013686392
H  H80  1  0.08050000  0.20260000  0.41290000  1.0 0.1013686392
H  H81  1  0.15940000  0.38110000  0.21330000  1.0 0.1099571125
H  H82  1  0.84060000  0.61890000  0.71330000  1.0 0.1099571125
H  H83  1  0.61890000  0.84060000  0.03670000  1.0 0.1099571125
H  H84  1  0.38110000  0.15940000  0.53670000  1.0 0.1099571125
H  H85  1  0.11560000  0.43970000  0.17870000  1.0 0.1397232015
H  H86  1  0.88440000  0.56030000  0.67870000  1.0 0.1397232015
H  H87  1  0.56030000  0.88440000  0.07130000  1.0 0.1397232015
H  H88  1  0.43970000  0.11560000  0.57130000  1.0 0.1397232015
H  H89  1  0.94890000  0.44600000  0.21890000  1.0 0.149032659
H  H90  1  0.05110000  0.55400000  0.71890000  1.0 0.149032659
H  H91  1  0.55400000  0.05110000  0.03110000  1.0 0.149032659
H  H92  1  0.44600000  0.94890000  0.53110000  1.0 0.149032659
H  H93  1  0.99560000  0.38480000  0.25170000  1.0 0.1099571125
H  H94  1  0.00440000  0.61520000  0.75170000  1.0 0.1099571125
H  H95  1  0.61520000  0.00440000  0.99830000  1.0 0.1099571125
H  H96  1  0.38480000  0.99560000  0.49830000  1.0 0.1099571125
H  H97  1  0.98780000  0.36440000  0.15820000  1.0 0.1194514772
H  H98  1  0.01220000  0.63560000  0.65820000  1.0 0.1194514772
H  H99  1  0.63560000  0.01220000  0.09180000  1.0 0.1194514772
H  H100  1  0.36440000  0.98780000  0.59180000  1.0 0.1194514772
H  H101  1  0.90730000  0.39150000  0.08370000  1.0 0.1301505735
H  H102  1  0.09270000  0.60850000  0.58370000  1.0 0.1301505735
H  H103  1  0.60850000  0.09270000  0.16630000  1.0 0.1301505735
H  H104  1  0.39150000  0.90730000  0.66630000  1.0 0.1301505735
H  H105  1  0.91160000  0.50430000  0.08890000  1.0 0.1099571125
H  H106  1  0.08840000  0.49570000  0.58890000  1.0 0.1099571125
H  H107  1  0.49570000  0.08840000  0.16110000  1.0 0.1099571125
H  H108  1  0.50430000  0.91160000  0.66110000  1.0 0.1099571125
H  H109  1  0.00840000  0.57650000  0.19220000  1.0 0.149032659
H  H110  1  0.99160000  0.42350000  0.69220000  1.0 0.149032659
H  H111  1  0.42350000  0.99160000  0.05780000  1.0 0.149032659
H  H112  1  0.57650000  0.00840000  0.55780000  1.0 0.149032659
H  H113  1  0.04530000  0.61100000  0.10490000  1.0 0.1099571125
H  H114  1  0.95470000  0.38900000  0.60490000  1.0 0.1099571125
H  H115  1  0.38900000  0.95470000  0.14510000  1.0 0.1099571125
H  H116  1  0.61100000  0.04530000  0.64510000  1.0 0.1099571125
H  H117  1  0.11360000  0.65060000  0.07140000  1.0 0.1301505735
H  H118  1  0.88640000  0.34940000  0.57140000  1.0 0.1301505735
H  H119  1  0.34940000  0.88640000  0.17860000  1.0 0.1301505735
H  H120  1  0.65060000  0.11360000  0.67860000  1.0 0.1301505735
H  H121  1  0.95360000  0.72450000  0.03220000  1.0 0.1194514772
H  H122  1  0.04640000  0.27550000  0.53220000  1.0 0.1099571125
H  H123  1  0.27550000  0.04640000  0.21780000  1.0 0.1194514772
H  H124  1  0.72450000  0.95360000  0.71780000  1.0 0.1194514772
H  H125  1  0.77660000  0.67820000  0.08860000  1.0 0.1301505735
H  H126  1  0.22340000  0.32180000  0.58860000  1.0 0.1301505735
H  H127  1  0.32180000  0.22340000  0.16140000  1.0 0.1301505735
H  H128  1  0.67820000  0.77660000  0.66140000  1.0 0.1301505735
H  H129  1  0.88610000  0.81160000  0.04640000  1.0 0.149032659
H  H130  1  0.11390000  0.18840000  0.54640000  1.0 0.149032659
H  H131  1  0.18840000  0.11390000  0.20360000  1.0 0.149032659
H  H132  1  0.81160000  0.88610000  0.70360000  1.0 0.149032659
H  H133  1  0.75410000  0.66430000  0.03930000  1.0 0.1397232015
H  H134  1  0.24590000  0.33570000  0.53930000  1.0 0.1397232015
H  H135  1  0.33570000  0.24590000  0.21070000  1.0 0.1397232015
H  H136  1  0.66430000  0.75410000  0.71070000  1.0 0.1397232015
H  H137  1  0.69570000  0.72810000  0.00890000  1.0 0.1194514772
H  H138  1  0.30430000  0.27190000  0.50890000  1.0 0.1194514772
H  H139  1  0.27190000  0.30430000  0.24110000  1.0 0.1194514772
H  H140  1  0.72810000  0.69570000  0.74110000  1.0 0.1194514772
H  H141  1  0.70700000  0.75550000  0.08860000  1.0 0.3271511417
H  H142  1  0.29300000  0.24450000  0.58860000  1.0 0.3271511417
H  H143  1  0.75550000  0.70700000  0.66140000  1.0 0.3271511417
H  H144  1  0.24450000  0.29300000  0.16140000  1.0 0.3271511417
H  H145  1  0.70260000  0.74880000  0.15730000  1.0 0.3422745053
H  H146  1  0.29740000  0.25120000  0.65730000  1.0 0.3422745053
H  H147  1  0.74880000  0.70260000  0.59270000  1.0 0.3422745053
H  H148  1  0.25120000  0.29740000  0.09270000  1.0 0.3422745053
H  H149  1  0.67630000  0.01810000  0.92420000  1.0 0.3422745053
H  H150  1  0.32370000  0.98190000  0.42420000  1.0 0.3422745053
H  H151  1  0.01810000  0.67630000  0.82580000  1.0 0.3422745053
H  H152  1  0.98190000  0.32370000  0.32580000  1.0 0.3422745053
H  H153  1  0.58430000  0.16600000  0.89040000  1.0 0.3465585183
H  H154  1  0.41570000  0.83400000  0.39040000  1.0 0.3465585183
H  H155  1  0.16600000  0.58430000  0.85960000  1.0 0.3465585183
H  H156  1  0.83400000  0.41570000  0.35960000  1.0 0.3465585183
H  H157  1  0.32930000  0.73640000  0.15390000  1.0 0.1099571125
H  H158  1  0.67070000  0.26360000  0.65390000  1.0 0.1099571125
H  H159  1  0.73640000  0.32930000  0.59610000  1.0 0.1099571125
H  H160  1  0.26360000  0.67070000  0.09610000  1.0 0.1099571125
H  H161  1  0.44280000  0.74270000  0.15650000  1.0 0.1397232015
H  H162  1  0.55720000  0.25730000  0.65650000  1.0 0.1397232015
H  H163  1  0.74270000  0.44280000  0.59350000  1.0 0.1397232015
H  H164  1  0.25730000  0.55720000  0.09350000  1.0 0.1397232015
H  H165  1  0.44090000  0.87370000  0.09590000  1.0 0.1301505735
H  H166  1  0.55910000  0.12630000  0.59590000  1.0 0.1301505735
H  H167  1  0.87370000  0.44090000  0.65410000  1.0 0.1301505735
H  H168  1  0.12630000  0.55910000  0.15410000  1.0 0.1301505735
H  H169  1  0.32610000  0.86660000  0.09490000  1.0 0.1013686392
H  H170  1  0.67390000  0.13340000  0.59490000  1.0 0.1013686392
H  H171  1  0.86660000  0.32610000  0.65510000  1.0 0.1013686392
H  H172  1  0.13340000  0.67390000  0.15510000  1.0 0.1013686392
H  H173  1  0.53940000  0.75470000  0.09320000  1.0 0.149032659
H  H174  1  0.46060000  0.24530000  0.59320000  1.0 0.149032659
H  H175  1  0.75470000  0.53940000  0.65680000  1.0 0.149032659
H  H176  1  0.24530000  0.46060000  0.15680000  1.0 0.149032659
H  H177  1  0.48060000  0.88370000  0.16670000  1.0 0.1194514772
H  H178  1  0.51940000  0.11630000  0.66666667  1.0 0.1194514772
H  H179  1  0.88370000  0.48060000  0.58330000  1.0 0.1194514772
H  H180  1  0.11630000  0.51940000  0.08330000  1.0 0.1194514772
H  H181  1  0.65390000  0.94450000  0.19860000  1.0 0.1397232015
H  H182  1  0.34610000  0.05550000  0.69860000  1.0 0.1301505735
H  H183  1  0.94450000  0.65390000  0.55140000  1.0 0.1397232015
H  H184  1  0.05550000  0.34610000  0.05140000  1.0 0.1301505735
H  H185  1  0.71040000  0.89100000  0.16490000  1.0 0.1194514772
H  H186  1  0.28960000  0.10900000  0.66490000  1.0 0.1194514772
H  H187  1  0.89100000  0.71040000  0.58510000  1.0 0.1194514772
H  H188  1  0.10900000  0.28960000  0.08510000  1.0 0.1194514772
H  H189  1  0.69330000  0.89760000  0.08690000  1.0 0.1099571125
H  H190  1  0.30670000  0.10240000  0.58690000  1.0 0.1099571125
H  H191  1  0.89760000  0.69330000  0.66310000  1.0 0.1099571125
H  H192  1  0.10240000  0.30670000  0.16310000  1.0 0.1099571125
H  H193  1  0.74510000  0.96790000  0.05780000  1.0 0.1397232015
H  H194  1  0.25490000  0.03210000  0.55780000  1.0 0.1397232015
H  H195  1  0.96790000  0.74510000  0.69220000  1.0 0.1397232015
H  H196  1  0.03210000  0.25490000  0.19220000  1.0 0.1397232015
H  H197  1  0.92110000  0.91810000  0.09050000  1.0 0.1194514772
H  H198  1  0.07890000  0.08190000  0.59050000  1.0 0.1194514772
H  H199  1  0.91810000  0.92110000  0.65950000  1.0 0.1194514772
H  H200  1  0.08190000  0.07890000  0.15950000  1.0 0.1194514772
H  H201  1  0.87120000  0.75790000  0.15370000  1.0 0.149032659
H  H202  1  0.12880000  0.24210000  0.65370000  1.0 0.149032659
H  H203  1  0.75790000  0.87120000  0.59630000  1.0 0.149032659
H  H204  1  0.24210000  0.12880000  0.09630000  1.0 0.149032659
H  H205  1  0.07720000  0.81460000  0.16560000  1.0 0.1099571125
H  H206  1  0.92280000  0.18540000  0.66560000  1.0 0.1099571125
H  H207  1  0.81460000  0.07720000  0.58440000  1.0 0.1099571125
H  H208  1  0.18540000  0.92280000  0.08440000  1.0 0.1099571125
H  H209  1  0.96510000  0.83070000  0.16560000  1.0 0.1397232015
H  H210  1  0.03490000  0.16930000  0.66560000  1.0 0.1397232015
H  H211  1  0.83070000  0.96510000  0.58440000  1.0 0.1397232015
H  H212  1  0.16930000  0.03490000  0.08440000  1.0 0.1397232015
H  H213  1  0.96830000  0.81490000  0.08490000  1.0 0.1301505735
H  H214  1  0.03170000  0.18510000  0.58490000  1.0 0.1301505735
H  H215  1  0.81490000  0.96830000  0.66510000  1.0 0.1301505735
H  H216  1  0.18510000  0.03170000  0.16510000  1.0 0.1301505735
H  H217  1  0.08050000  0.79740000  0.08710000  1.0 0.1013686392
H  H218  1  0.91950000  0.20260000  0.58710000  1.0 0.1013686392
H  H219  1  0.79740000  0.08050000  0.66290000  1.0 0.1013686392
H  H220  1  0.20260000  0.91950000  0.16290000  1.0 0.1013686392
H  H221  1  0.38110000  0.84060000  0.96330000  1.0 0.1099571125
H  H222  1  0.61890000  0.15940000  0.46330000  1.0 0.1099571125
H  H223  1  0.84060000  0.38110000  0.78670000  1.0 0.1099571125
H  H224  1  0.15940000  0.61890000  0.28670000  1.0 0.1099571125
H  H225  1  0.43970000  0.88440000  0.92870000  1.0 0.1397232015
H  H226  1  0.56030000  0.11560000  0.42870000  1.0 0.1397232015
H  H227  1  0.88440000  0.43970000  0.82130000  1.0 0.1397232015
H  H228  1  0.11560000  0.56030000  0.32130000  1.0 0.1397232015
H  H229  1  0.44600000  0.05110000  0.96890000  1.0 0.149032659
H  H230  1  0.55400000  0.94890000  0.46890000  1.0 0.149032659
H  H231  1  0.05110000  0.44600000  0.78110000  1.0 0.149032659
H  H232  1  0.94890000  0.55400000  0.28110000  1.0 0.149032659
H  H233  1  0.38480000  0.00440000  0.00170000  1.0 0.1099571125
H  H234  1  0.61520000  0.99560000  0.50170000  1.0 0.1099571125
H  H235  1  0.00440000  0.38480000  0.74830000  1.0 0.1099571125
H  H236  1  0.99560000  0.61520000  0.24830000  1.0 0.1099571125
H  H237  1  0.36440000  0.01220000  0.90820000  1.0 0.1194514772
H  H238  1  0.63560000  0.98780000  0.40820000  1.0 0.1194514772
H  H239  1  0.01220000  0.36440000  0.84180000  1.0 0.1194514772
H  H240  1  0.98780000  0.63560000  0.34180000  1.0 0.1194514772
H  H241  1  0.39150000  0.09270000  0.83370000  1.0 0.1301505735
H  H242  1  0.60850000  0.90730000  0.33370000  1.0 0.1301505735
H  H243  1  0.09270000  0.39150000  0.91630000  1.0 0.1301505735
H  H244  1  0.90730000  0.60850000  0.41630000  1.0 0.1301505735
H  H245  1  0.50430000  0.08840000  0.83890000  1.0 0.1099571125
H  H246  1  0.49570000  0.91160000  0.33890000  1.0 0.1099571125
H  H247  1  0.08840000  0.50430000  0.91110000  1.0 0.1099571125
H  H248  1  0.91160000  0.49570000  0.41110000  1.0 0.1099571125
H  H249  1  0.57650000  0.99160000  0.94220000  1.0 0.149032659
H  H250  1  0.42350000  0.00840000  0.44220000  1.0 0.149032659
H  H251  1  0.99160000  0.57650000  0.80780000  1.0 0.149032659
H  H252  1  0.00840000  0.42350000  0.30780000  1.0 0.149032659
H  H253  1  0.61100000  0.95470000  0.85490000  1.0 0.1099571125
H  H254  1  0.38900000  0.04530000  0.35490000  1.0 0.1099571125
H  H255  1  0.95470000  0.61100000  0.89510000  1.0 0.1099571125
H  H256  1  0.04530000  0.38900000  0.39510000  1.0 0.1099571125
H  H257  1  0.65060000  0.88640000  0.82140000  1.0 0.1301505735
H  H258  1  0.34940000  0.11360000  0.32140000  1.0 0.1301505735
H  H259  1  0.88640000  0.65060000  0.92860000  1.0 0.1301505735
H  H260  1  0.11360000  0.34940000  0.42860000  1.0 0.1301505735
H  H261  1  0.72450000  0.04640000  0.78220000  1.0 0.1194514772
H  H262  1  0.27550000  0.95360000  0.28220000  1.0 0.1194514772
H  H263  1  0.04640000  0.72450000  0.96780000  1.0 0.1194514772
H  H264  1  0.95360000  0.27550000  0.46780000  1.0 0.1194514772
H  H265  1  0.67820000  0.22340000  0.83860000  1.0 0.1301505735
H  H266  1  0.32180000  0.77660000  0.33860000  1.0 0.1301505735
H  H267  1  0.22340000  0.67820000  0.91140000  1.0 0.1301505735
H  H268  1  0.77660000  0.32180000  0.41140000  1.0 0.1301505735
H  H269  1  0.81160000  0.11390000  0.79640000  1.0 0.149032659
H  H270  1  0.18840000  0.88610000  0.29640000  1.0 0.149032659
H  H271  1  0.11390000  0.81160000  0.95360000  1.0 0.149032659
H  H272  1  0.88610000  0.18840000  0.45360000  1.0 0.149032659
H  H273  1  0.66430000  0.24590000  0.78930000  1.0 0.1397232015
H  H274  1  0.33570000  0.75410000  0.28930000  1.0 0.1397232015
H  H275  1  0.24590000  0.66430000  0.96070000  1.0 0.1397232015
H  H276  1  0.75410000  0.33570000  0.46070000  1.0 0.1397232015
H  H277  1  0.72810000  0.30430000  0.75890000  1.0 0.1194514772
H  H278  1  0.27190000  0.69570000  0.25890000  1.0 0.1194514772
H  H279  1  0.30430000  0.72810000  0.99110000  1.0 0.1194514772
H  H280  1  0.69570000  0.27190000  0.49110000  1.0 0.1194514772
C  C1  1  0.23590000  0.35220000  0.39162000  1.0 0.0720252391
C  C2  1  0.76410000  0.64780000  0.89162000  1.0 0.0720252391
C  C3  1  0.64780000  0.76410000  0.85838000  1.0 0.0720252391
C  C4  1  0.35220000  0.23590000  0.35838000  1.0 0.0720252391
C  C5  1  0.23250000  0.42010000  0.39326000  1.0 -0.1788759878
C  C6  1  0.76750000  0.57990000  0.89326000  1.0 -0.1788759878
C  C7  1  0.57990000  0.76750000  0.85674000  1.0 -0.1788759878
C  C8  1  0.42010000  0.23250000  0.35674000  1.0 -0.1788759878
C  C9  1  0.19300000  0.45500000  0.37554000  1.0 0.1099571125
C  C10  1  0.80700000  0.54500000  0.87554000  1.0 0.1099571125
C  C11  1  0.54500000  0.80700000  0.87446000  1.0 0.1099571125
C  C12  1  0.45500000  0.19300000  0.37446000  1.0 0.1099571125
C  C13  1  0.15560000  0.41900000  0.35781000  1.0 -0.1788759878
C  C14  1  0.84440000  0.58100000  0.85781000  1.0 -0.1788759878
C  C15  1  0.58100000  0.84440000  0.89219000  1.0 -0.1788759878
C  C16  1  0.41900000  0.15560000  0.39219000  1.0 -0.1788759878
C  C17  1  0.16030000  0.35000000  0.35719000  1.0 0.0892380025
C  C18  1  0.83970000  0.65000000  0.85719000  1.0 0.0892380025
C  C19  1  0.65000000  0.83970000  0.89281000  1.0 0.0892380025
C  C20  1  0.35000000  0.16030000  0.39281000  1.0 0.0892380025
C  C21  1  0.18930000  0.52750000  0.37659000  1.0 0.0395267143
C  C22  1  0.81070000  0.47250000  0.87659000  1.0 0.0395267143
C  C23  1  0.47250000  0.81070000  0.87341000  1.0 0.0395267143
C  C24  1  0.52750000  0.18930000  0.37341000  1.0 0.0395267143
C  C25  1  0.22130000  0.56260000  0.35659000  1.0 -0.2702055503
C  C26  1  0.77870000  0.43740000  0.85659000  1.0 -0.2702055503
C  C27  1  0.43740000  0.77870000  0.89341000  1.0 -0.2702055503
C  C28  1  0.56260000  0.22130000  0.39341000  1.0 -0.2702055503
C  C29  1  0.21920000  0.63260000  0.35561000  1.0 0.2643059414
C  C30  1  0.78080000  0.36740000  0.85561000  1.0 0.2643059414
C  C31  1  0.36740000  0.78080000  0.89439000  1.0 0.2643059414
C  C32  1  0.63260000  0.21920000  0.39439000  1.0 0.2643059414
C  C33  1  0.18350000  0.66740000  0.37481000  1.0 -0.1527743623
C  C34  1  0.81650000  0.33260000  0.87481000  1.0 -0.1527743623
C  C35  1  0.33260000  0.81650000  0.87519000  1.0 -0.1527743623
C  C36  1  0.66740000  0.18350000  0.37519000  1.0 -0.1527743623
C  C37  1  0.14850000  0.63100000  0.39558000  1.0 0.0395267143
C  C38  1  0.85150000  0.36900000  0.89558000  1.0 0.0395267143
C  C39  1  0.36900000  0.85150000  0.85442000  1.0 0.0395267143
C  C40  1  0.63100000  0.14850000  0.35442000  1.0 0.0395267143
C  C41  1  0.15080000  0.56220000  0.39609000  1.0 0.0314811794
C  C42  1  0.84920000  0.43780000  0.89609000  1.0 0.0314811794
C  C43  1  0.43780000  0.84920000  0.85391000  1.0 0.0314811794
C  C44  1  0.56220000  0.15080000  0.35391000  1.0 0.0314811794
C  C45  1  0.11520000  0.52730000  0.41624000  1.0 -0.209243757
C  C46  1  0.88480000  0.47270000  0.91624000  1.0 -0.209243757
C  C47  1  0.47270000  0.88480000  0.83376000  1.0 -0.209243757
C  C48  1  0.52730000  0.11520000  0.33376000  1.0 -0.209243757
C  C49  1  0.07990000  0.56110000  0.43460000  1.0 0.149032659
C  C50  1  0.92010000  0.43890000  0.93460000  1.0 0.149032659
C  C51  1  0.43890000  0.92010000  0.81540000  1.0 0.149032659
C  C52  1  0.56110000  0.07990000  0.31540000  1.0 0.149032659
C  C53  1  0.07870000  0.63080000  0.43490000  1.0 -0.1527743623
C  C54  1  0.92130000  0.36920000  0.93490000  1.0 -0.1527743623
C  C55  1  0.36920000  0.92130000  0.81510000  1.0 -0.1527743623
C  C56  1  0.63080000  0.07870000  0.31510000  1.0 -0.1527743623
C  C57  1  0.11130000  0.66360000  0.41531000  1.0 -0.1308808852
C  C58  1  0.88870000  0.33640000  0.91531000  1.0 -0.1308808852
C  C59  1  0.33640000  0.88870000  0.83469000  1.0 -0.1308808852
C  C60  1  0.66360000  0.11130000  0.33469000  1.0 -0.1308808852
C  C61  1  0.18110000  0.74040000  0.37434000  1.0 -0.1398196633
C  C62  1  0.81890000  0.25960000  0.87434000  1.0 -0.1398196633
C  C63  1  0.25960000  0.81890000  0.87566000  1.0 -0.1398196633
C  C64  1  0.74040000  0.18110000  0.37566000  1.0 -0.1398196633
C  C65  1  0.13860000  0.77390000  0.35589000  1.0 0.0395267143
C  C66  1  0.86140000  0.22610000  0.85589000  1.0 0.0395267143
C  C67  1  0.22610000  0.86140000  0.89411000  1.0 0.0395267143
C  C68  1  0.77390000  0.13860000  0.39411000  1.0 0.0395267143
C  C69  1  0.09920000  0.74000000  0.33750000  1.0 -0.1398196633
C  C70  1  0.90080000  0.26000000  0.83750000  1.0 -0.1398196633
C  C71  1  0.26000000  0.90080000  0.91250000  1.0 -0.1398196633
C  C72  1  0.74000000  0.09920000  0.41250000  1.0 -0.1398196633
C  C73  1  0.05670000  0.76990000  0.32049000  1.0 -0.1712970996
C  C74  1  0.94330000  0.23010000  0.82049000  1.0 -0.1712970996
C  C75  1  0.23010000  0.94330000  0.92951000  1.0 -0.1712970996
C  C76  1  0.76990000  0.05670000  0.42951000  1.0 -0.1712970996
C  C77  1  0.04980000  0.83870000  0.32205000  1.0 0.1397232015
C  C78  1  0.95020000  0.16130000  0.82205000  1.0 0.1397232015
C  C79  1  0.16130000  0.95020000  0.92795000  1.0 0.1397232015
C  C80  1  0.83870000  0.04980000  0.42795000  1.0 0.1397232015
C  C81  1  0.08740000  0.87470000  0.33966000  1.0 -0.2311204918
C  C82  1  0.91260000  0.12530000  0.83966000  1.0 -0.2311204918
C  C83  1  0.12530000  0.91260000  0.91034000  1.0 -0.2311204918
C  C84  1  0.87470000  0.08740000  0.41034000  1.0 -0.2311204918
C  C85  1  0.13370000  0.84440000  0.35645000  1.0 0.0395267143
C  C86  1  0.86630000  0.15560000  0.85645000  1.0 0.0395267143
C  C87  1  0.15560000  0.86630000  0.89355000  1.0 0.0395267143
C  C88  1  0.84440000  0.13370000  0.39355000  1.0 0.0395267143
C  C89  1  0.17490000  0.87950000  0.37484000  1.0 0.0395267143
C  C90  1  0.82510000  0.12050000  0.87484000  1.0 0.0395267143
C  C91  1  0.12050000  0.82510000  0.87516000  1.0 0.0395267143
C  C92  1  0.87950000  0.17490000  0.37516000  1.0 0.0395267143
C  C93  1  0.21450000  0.84680000  0.39193000  1.0 -0.2377918282
C  C94  1  0.78550000  0.15320000  0.89193000  1.0 -0.2377918282
C  C95  1  0.15320000  0.78550000  0.85807000  1.0 -0.2377918282
C  C96  1  0.84680000  0.21450000  0.35807000  1.0 -0.2377918282
C  C97  1  0.21650000  0.77630000  0.39283000  1.0 0.270418327
C  C98  1  0.78350000  0.22370000  0.89283000  1.0 0.270418327
C  C99  1  0.22370000  0.78350000  0.85717000  1.0 0.270418327
C  C100  1  0.77630000  0.21650000  0.35717000  1.0 0.270418327
C  C101  1  0.18660000  0.05450000  0.39883000  1.0 0.082371022
C  C102  1  0.81340000  0.94550000  0.89883000  1.0 0.082371022
C  C103  1  0.94550000  0.81340000  0.85117000  1.0 0.082371022
C  C104  1  0.05450000  0.18660000  0.35117000  1.0 0.082371022
C  C105  1  0.17710000  0.98730000  0.39903000  1.0 -0.1712970996
C  C106  1  0.82290000  0.01270000  0.89903000  1.0 -0.1788759878
C  C107  1  0.01270000  0.82290000  0.85097000  1.0 -0.1788759878
C  C108  1  0.98730000  0.17710000  0.35097000  1.0 -0.1712970996
C  C109  1  0.17900000  0.95260000  0.37556000  1.0 0.1301505735
C  C110  1  0.82100000  0.04740000  0.87556000  1.0 0.1301505735
C  C111  1  0.04740000  0.82100000  0.87444000  1.0 0.1301505735
C  C112  1  0.95260000  0.17900000  0.37444000  1.0 0.1301505735
C  C113  1  0.18660000  0.98950000  0.35195000  1.0 -0.1942782033
C  C114  1  0.81340000  0.01050000  0.85195000  1.0 -0.1942782033
C  C115  1  0.01050000  0.81340000  0.89805000  1.0 -0.1942782033
C  C116  1  0.98950000  0.18660000  0.39805000  1.0 -0.1942782033
C  C117  1  0.19630000  0.05660000  0.35336000  1.0 0.082371022
C  C118  1  0.80370000  0.94340000  0.85336000  1.0 0.082371022
C  C119  1  0.94340000  0.80370000  0.89664000  1.0 0.082371022
C  C120  1  0.05660000  0.19630000  0.39664000  1.0 0.082371022
C  C121  1  0.11420000  0.39310000  0.21427000  1.0 0.082371022
C  C122  1  0.88580000  0.60690000  0.71427000  1.0 0.082371022
C  C123  1  0.60690000  0.88580000  0.03573000  1.0 0.082371022
C  C124  1  0.39310000  0.11420000  0.53573000  1.0 0.082371022
C  C125  1  0.08870000  0.42920000  0.19376000  1.0 -0.199262977
C  C126  1  0.91130000  0.57080000  0.69376000  1.0 -0.199262977
C  C127  1  0.57080000  0.91130000  0.05624000  1.0 -0.199262977
C  C128  1  0.42920000  0.08870000  0.55624000  1.0 -0.199262977
C  C129  1  0.02550000  0.45040000  0.19445000  1.0 0.1194514772
C  C130  1  0.97450000  0.54960000  0.69445000  1.0 0.1194514772
C  C131  1  0.54960000  0.97450000  0.05555000  1.0 0.1194514772
C  C132  1  0.45040000  0.02550000  0.55555000  1.0 0.1194514772
C  C133  1  0.99330000  0.43230000  0.21670000  1.0 -0.209243757
C  C134  1  0.00670000  0.56770000  0.71670000  1.0 -0.209243757
C  C135  1  0.56770000  0.00670000  0.03330000  1.0 -0.209243757
C  C136  1  0.43230000  0.99330000  0.53330000  1.0 -0.209243757
C  C137  1  0.02110000  0.39550000  0.23630000  1.0 0.082371022
C  C138  1  0.97890000  0.60450000  0.73630000  1.0 0.082371022
C  C139  1  0.60450000  0.97890000  0.01370000  1.0 0.082371022
C  C140  1  0.39550000  0.02110000  0.51370000  1.0 0.082371022
C  C141  1  0.99620000  0.49240000  0.17288000  1.0 0.0460429491
C  C142  1  0.00380000  0.50760000  0.67288000  1.0 0.0460429491
C  C143  1  0.50760000  0.00380000  0.07712000  1.0 0.0460429491
C  C144  1  0.49240000  0.99620000  0.57712000  1.0 0.0460429491
C  C145  1  0.97260000  0.46330000  0.14854000  1.0 0.0395267143
C  C146  1  0.02740000  0.53670000  0.64854000  1.0 0.0395267143
C  C147  1  0.53670000  0.02740000  0.10146000  1.0 0.0395267143
C  C148  1  0.46330000  0.97260000  0.60146000  1.0 0.0395267143
C  C149  1  0.97310000  0.39310000  0.14430000  1.0 -0.2232591812
C  C150  1  0.02690000  0.60690000  0.64430000  1.0 -0.2232591812
C  C151  1  0.60690000  0.02690000  0.10570000  1.0 -0.2232591812
C  C152  1  0.39310000  0.97310000  0.60570000  1.0 -0.2232591812
C  C153  1  0.95230000  0.36830000  0.12040000  1.0 0.149032659
C  C154  1  0.04770000  0.63170000  0.62040000  1.0 0.149032659
C  C155  1  0.63170000  0.04770000  0.12960000  1.0 0.149032659
C  C156  1  0.36830000  0.95230000  0.62960000  1.0 0.149032659
C  C157  1  0.92530000  0.41010000  0.09960000  1.0 -0.1712970996
C  C158  1  0.07470000  0.58990000  0.59960000  1.0 -0.1712970996
C  C159  1  0.58990000  0.07470000  0.15040000  1.0 -0.1712970996
C  C160  1  0.41010000  0.92530000  0.65040000  1.0 -0.1712970996
C  C161  1  0.92610000  0.47640000  0.10309000  1.0 -0.122287989
C  C162  1  0.07390000  0.52360000  0.60309000  1.0 -0.122287989
C  C163  1  0.52360000  0.07390000  0.14691000  1.0 -0.122287989
C  C164  1  0.47640000  0.92610000  0.64691000  1.0 -0.122287989
C  C165  1  0.94820000  0.50460000  0.12753000  1.0 0.0314811794
C  C166  1  0.05180000  0.49540000  0.62753000  1.0 0.0314811794
C  C167  1  0.49540000  0.05180000  0.12247000  1.0 0.0314811794
C  C168  1  0.50460000  0.94820000  0.62247000  1.0 0.0314811794
C  C169  1  0.94520000  0.57390000  0.13155000  1.0 -0.1014676633
C  C170  1  0.05480000  0.42610000  0.63155000  1.0 -0.1014676633
C  C171  1  0.42610000  0.05480000  0.11845000  1.0 -0.1014676633
C  C172  1  0.57390000  0.94520000  0.61845000  1.0 -0.1014676633
C  C173  1  0.96680000  0.59990000  0.15554000  1.0 0.2377122563
C  C174  1  0.03320000  0.40010000  0.65554000  1.0 0.2377122563
C  C175  1  0.40010000  0.03320000  0.09446000  1.0 0.2377122563
C  C176  1  0.59990000  0.96680000  0.59446000  1.0 0.2377122563
C  C177  1  0.99290000  0.55750000  0.17592000  1.0 -0.2599559865
C  C178  1  0.00710000  0.44250000  0.67592000  1.0 -0.2599559865
C  C179  1  0.44250000  0.00710000  0.07408000  1.0 -0.2599559865
C  C180  1  0.55750000  0.99290000  0.57408000  1.0 -0.2599559865
C  C181  1  0.91660000  0.61690000  0.11005000  1.0 -0.1014676633
C  C182  1  0.08340000  0.38310000  0.61005000  1.0 -0.1014676633
C  C183  1  0.38310000  0.08340000  0.13995000  1.0 -0.1014676633
C  C184  1  0.61690000  0.91660000  0.63995000  1.0 -0.1014676633
C  C185  1  0.95670000  0.64390000  0.08969000  1.0 0.0395267143
C  C186  1  0.04330000  0.35610000  0.58969000  1.0 0.0395267143
C  C187  1  0.35610000  0.04330000  0.16031000  1.0 0.0395267143
C  C188  1  0.64390000  0.95670000  0.66031000  1.0 0.0395267143
C  C189  1  0.02650000  0.63430000  0.09019000  1.0 -0.122287989
C  C190  1  0.97350000  0.36570000  0.59019000  1.0 -0.122287989
C  C191  1  0.36570000  0.97350000  0.15981000  1.0 -0.122287989
C  C192  1  0.63430000  0.02650000  0.65981000  1.0 -0.122287989
C  C193  1  0.06730000  0.65730000  0.07042000  1.0 -0.1788759878
C  C194  1  0.93270000  0.34270000  0.57042000  1.0 -0.1788759878
C  C195  1  0.34270000  0.93270000  0.17958000  1.0 -0.1788759878
C  C196  1  0.65730000  0.06730000  0.67958000  1.0 -0.1788759878
C  C197  1  0.03850000  0.69180000  0.04830000  1.0 0.149032659
C  C198  1  0.96150000  0.30820000  0.54830000  1.0 0.149032659
C  C199  1  0.30820000  0.96150000  0.20170000  1.0 0.149032659
C  C200  1  0.69180000  0.03850000  0.70170000  1.0 0.149032659
C  C201  1  0.97170000  0.70200000  0.04727000  1.0 -0.2232591812
C  C202  1  0.02830000  0.29800000  0.54727000  1.0 -0.2232591812
C  C203  1  0.29800000  0.02830000  0.20273000  1.0 -0.2232591812
C  C204  1  0.70200000  0.97170000  0.70273000  1.0 -0.2232591812
C  C205  1  0.93000000  0.68050000  0.06754000  1.0 0.0314811794
C  C206  1  0.07000000  0.31950000  0.56754000  1.0 0.0314811794
C  C207  1  0.31950000  0.07000000  0.18246000  1.0 0.0314811794
C  C208  1  0.68050000  0.93000000  0.68246000  1.0 0.0314811794
C  C209  1  0.85950000  0.69230000  0.06829000  1.0 0.0395267143
C  C210  1  0.14050000  0.30770000  0.56829000  1.0 0.0395267143
C  C211  1  0.30770000  0.14050000  0.18171000  1.0 0.0395267143
C  C212  1  0.69230000  0.85950000  0.68171000  1.0 0.0395267143
C  C213  1  0.82240000  0.66870000  0.08842000  1.0 -0.2599559865
C  C214  1  0.17760000  0.33130000  0.58842000  1.0 -0.2599559865
C  C215  1  0.33130000  0.17760000  0.16158000  1.0 -0.2599559865
C  C216  1  0.66870000  0.82240000  0.66158000  1.0 -0.2599559865
C  C217  1  0.85020000  0.62950000  0.10970000  1.0 0.270418327
C  C218  1  0.14980000  0.37050000  0.60970000  1.0 0.270418327
C  C219  1  0.37050000  0.14980000  0.14030000  1.0 0.270418327
C  C220  1  0.62950000  0.85020000  0.64030000  1.0 0.270418327
C  C221  1  0.80920000  0.83120000  0.02101000  1.0 0.0720252391
C  C222  1  0.19080000  0.16880000  0.52101000  1.0 0.0720252391
C  C223  1  0.16880000  0.19080000  0.22899000  1.0 0.0720252391
C  C224  1  0.83120000  0.80920000  0.72899000  1.0 0.0720252391
C  C225  1  0.84660000  0.79380000  0.03917000  1.0 -0.2232591812
C  C226  1  0.15340000  0.20620000  0.53917000  1.0 -0.2232591812
C  C227  1  0.20620000  0.15340000  0.21083000  1.0 -0.2232591812
C  C228  1  0.79380000  0.84660000  0.71083000  1.0 -0.2232591812
C  C229  1  0.82700000  0.73190000  0.04667000  1.0 0.1397232015
C  C230  1  0.17300000  0.26810000  0.54667000  1.0 0.1397232015
C  C231  1  0.26810000  0.17300000  0.20333000  1.0 0.1397232015
C  C232  1  0.73190000  0.82700000  0.70333000  1.0 0.1397232015
C  C233  1  0.76920000  0.70730000  0.03488000  1.0 -0.199262977
C  C234  1  0.23080000  0.29270000  0.53488000  1.0 -0.199262977
C  C235  1  0.29270000  0.23080000  0.21512000  1.0 -0.199262977
C  C236  1  0.70730000  0.76920000  0.71512000  1.0 -0.199262977
C  C237  1  0.73440000  0.74570000  0.01685000  1.0 0.082371022
C  C238  1  0.26560000  0.25430000  0.51685000  1.0 0.082371022
C  C239  1  0.25430000  0.26560000  0.23315000  1.0 0.082371022
C  C240  1  0.74570000  0.73440000  0.73315000  1.0 0.082371022
C  C241  1  0.35220000  0.76410000  0.14162000  1.0 0.0720252391
C  C242  1  0.64780000  0.23590000  0.64162000  1.0 0.0720252391
C  C243  1  0.76410000  0.35220000  0.60838000  1.0 0.0720252391
C  C244  1  0.23590000  0.64780000  0.10838000  1.0 0.0720252391
C  C245  1  0.42010000  0.76750000  0.14326000  1.0 -0.1788759878
C  C246  1  0.57990000  0.23250000  0.64326000  1.0 -0.1788759878
C  C247  1  0.76750000  0.42010000  0.60674000  1.0 -0.1788759878
C  C248  1  0.23250000  0.57990000  0.10674000  1.0 -0.1788759878
C  C249  1  0.45500000  0.80700000  0.12554000  1.0 0.1099571125
C  C250  1  0.54500000  0.19300000  0.62554000  1.0 0.1099571125
C  C251  1  0.80700000  0.45500000  0.62446000  1.0 0.1099571125
C  C252  1  0.19300000  0.54500000  0.12446000  1.0 0.1099571125
C  C253  1  0.41900000  0.84440000  0.10781000  1.0 -0.1788759878
C  C254  1  0.58100000  0.15560000  0.60781000  1.0 -0.1788759878
C  C255  1  0.84440000  0.41900000  0.64219000  1.0 -0.1788759878
C  C256  1  0.15560000  0.58100000  0.14219000  1.0 -0.1788759878
C  C257  1  0.35000000  0.83970000  0.10719000  1.0 0.0892380025
C  C258  1  0.65000000  0.16030000  0.60719000  1.0 0.0892380025
C  C259  1  0.83970000  0.35000000  0.64281000  1.0 0.0892380025
C  C260  1  0.16030000  0.65000000  0.14281000  1.0 0.0892380025
C  C261  1  0.52750000  0.81070000  0.12659000  1.0 0.0395267143
C  C262  1  0.47250000  0.18930000  0.62659000  1.0 0.0395267143
C  C263  1  0.81070000  0.52750000  0.62341000  1.0 0.0395267143
C  C264  1  0.18930000  0.47250000  0.12341000  1.0 0.0395267143
C  C265  1  0.56260000  0.77870000  0.10659000  1.0 -0.2702055503
C  C266  1  0.43740000  0.22130000  0.60659000  1.0 -0.2702055503
C  C267  1  0.77870000  0.56260000  0.64341000  1.0 -0.2702055503
C  C268  1  0.22130000  0.43740000  0.14341000  1.0 -0.2702055503
C  C269  1  0.63260000  0.78080000  0.10561000  1.0 0.2643059414
C  C270  1  0.36740000  0.21920000  0.60561000  1.0 0.2643059414
C  C271  1  0.78080000  0.63260000  0.64439000  1.0 0.2643059414
C  C272  1  0.21920000  0.36740000  0.14439000  1.0 0.2643059414
C  C273  1  0.66740000  0.81650000  0.12481000  1.0 -0.1527743623
C  C274  1  0.33260000  0.18350000  0.62481000  1.0 -0.1527743623
C  C275  1  0.81650000  0.66740000  0.62519000  1.0 -0.1527743623
C  C276  1  0.18350000  0.33260000  0.12519000  1.0 -0.1527743623
C  C277  1  0.63100000  0.85150000  0.14558000  1.0 0.0395267143
C  C278  1  0.36900000  0.14850000  0.64558000  1.0 0.0395267143
C  C279  1  0.85150000  0.63100000  0.60442000  1.0 0.0395267143
C  C280  1  0.14850000  0.36900000  0.10442000  1.0 0.0395267143
C  C281  1  0.56220000  0.84920000  0.14609000  1.0 0.0314811794
C  C282  1  0.43780000  0.15080000  0.64609000  1.0 0.0314811794
C  C283  1  0.84920000  0.56220000  0.60391000  1.0 0.0314811794
C  C284  1  0.15080000  0.43780000  0.10391000  1.0 0.0314811794
C  C285  1  0.52730000  0.88480000  0.16624000  1.0 -0.209243757
C  C286  1  0.47270000  0.11520000  0.66624000  1.0 -0.209243757
C  C287  1  0.88480000  0.52730000  0.58376000  1.0 -0.209243757
C  C288  1  0.11520000  0.47270000  0.08376000  1.0 -0.209243757
C  C289  1  0.56110000  0.92010000  0.18460000  1.0 0.149032659
C  C290  1  0.43890000  0.07990000  0.68460000  1.0 0.149032659
C  C291  1  0.92010000  0.56110000  0.56540000  1.0 0.149032659
C  C292  1  0.07990000  0.43890000  0.06540000  1.0 0.149032659
C  C293  1  0.63080000  0.92130000  0.18490000  1.0 -0.1527743623
C  C294  1  0.36920000  0.07870000  0.68490000  1.0 -0.1527743623
C  C295  1  0.92130000  0.63080000  0.56510000  1.0 -0.1527743623
C  C296  1  0.07870000  0.36920000  0.06510000  1.0 -0.1527743623
C  C297  1  0.66360000  0.88870000  0.16531000  1.0 -0.1308808852
C  C298  1  0.33640000  0.11130000  0.66531000  1.0 -0.1308808852
C  C299  1  0.88870000  0.66360000  0.58469000  1.0 -0.1308808852
C  C300  1  0.11130000  0.33640000  0.08469000  1.0 -0.1308808852
C  C301  1  0.74040000  0.81890000  0.12434000  1.0 -0.1398196633
C  C302  1  0.25960000  0.18110000  0.62434000  1.0 -0.1398196633
C  C303  1  0.81890000  0.74040000  0.62566000  1.0 -0.1398196633
C  C304  1  0.18110000  0.25960000  0.12566000  1.0 -0.1398196633
C  C305  1  0.77390000  0.86140000  0.10589000  1.0 0.0395267143
C  C306  1  0.22610000  0.13860000  0.60589000  1.0 0.0395267143
C  C307  1  0.86140000  0.77390000  0.64411000  1.0 0.0395267143
C  C308  1  0.13860000  0.22610000  0.14411000  1.0 0.0395267143
C  C309  1  0.74000000  0.90080000  0.08750000  1.0 -0.1398196633
C  C310  1  0.26000000  0.09920000  0.58750000  1.0 -0.1398196633
C  C311  1  0.90080000  0.74000000  0.66250000  1.0 -0.1398196633
C  C312  1  0.09920000  0.26000000  0.16250000  1.0 -0.1398196633
C  C313  1  0.76990000  0.94330000  0.07049000  1.0 -0.1712970996
C  C314  1  0.23010000  0.05670000  0.57049000  1.0 -0.1712970996
C  C315  1  0.94330000  0.76990000  0.67951000  1.0 -0.1712970996
C  C316  1  0.05670000  0.23010000  0.17951000  1.0 -0.1712970996
C  C317  1  0.83870000  0.95020000  0.07205000  1.0 0.1397232015
C  C318  1  0.16130000  0.04980000  0.57205000  1.0 0.1397232015
C  C319  1  0.95020000  0.83870000  0.67795000  1.0 0.1397232015
C  C320  1  0.04980000  0.16130000  0.17795000  1.0 0.1397232015
C  C321  1  0.87470000  0.91260000  0.08966000  1.0 -0.2311204918
C  C322  1  0.12530000  0.08740000  0.58966000  1.0 -0.2311204918
C  C323  1  0.91260000  0.87470000  0.66034000  1.0 -0.2311204918
C  C324  1  0.08740000  0.12530000  0.16034000  1.0 -0.2311204918
C  C325  1  0.84440000  0.86630000  0.10645000  1.0 0.0395267143
C  C326  1  0.15560000  0.13370000  0.60645000  1.0 0.0395267143
C  C327  1  0.86630000  0.84440000  0.64355000  1.0 0.0395267143
C  C328  1  0.13370000  0.15560000  0.14355000  1.0 0.0395267143
C  C329  1  0.87950000  0.82510000  0.12484000  1.0 0.0395267143
C  C330  1  0.12050000  0.17490000  0.62484000  1.0 0.0395267143
C  C331  1  0.82510000  0.87950000  0.62516000  1.0 0.0395267143
C  C332  1  0.17490000  0.12050000  0.12516000  1.0 0.0395267143
C  C333  1  0.84680000  0.78550000  0.14193000  1.0 -0.2377918282
C  C334  1  0.15320000  0.21450000  0.64193000  1.0 -0.2377918282
C  C335  1  0.78550000  0.84680000  0.60807000  1.0 -0.2377918282
C  C336  1  0.21450000  0.15320000  0.10807000  1.0 -0.2377918282
C  C337  1  0.77630000  0.78350000  0.14283000  1.0 0.270418327
C  C338  1  0.22370000  0.21650000  0.64283000  1.0 0.270418327
C  C339  1  0.78350000  0.77630000  0.60717000  1.0 0.270418327
C  C340  1  0.21650000  0.22370000  0.10717000  1.0 0.270418327
C  C341  1  0.05450000  0.81340000  0.14883000  1.0 0.082371022
C  C342  1  0.94550000  0.18660000  0.64883000  1.0 0.082371022
C  C343  1  0.81340000  0.05450000  0.60117000  1.0 0.082371022
C  C344  1  0.18660000  0.94550000  0.10117000  1.0 0.082371022
C  C345  1  0.98730000  0.82290000  0.14903000  1.0 -0.1712970996
C  C346  1  0.01270000  0.17710000  0.64903000  1.0 -0.1712970996
C  C347  1  0.82290000  0.98730000  0.60097000  1.0 -0.1788759878
C  C348  1  0.17710000  0.01270000  0.10097000  1.0 -0.1712970996
C  C349  1  0.95260000  0.82100000  0.12556000  1.0 0.1301505735
C  C350  1  0.04740000  0.17900000  0.62556000  1.0 0.1301505735
C  C351  1  0.82100000  0.95260000  0.62444000  1.0 0.1301505735
C  C352  1  0.17900000  0.04740000  0.12444000  1.0 0.1301505735
C  C353  1  0.98950000  0.81340000  0.10195000  1.0 -0.1942782033
C  C354  1  0.01050000  0.18660000  0.60195000  1.0 -0.1942782033
C  C355  1  0.81340000  0.98950000  0.64805000  1.0 -0.1942782033
C  C356  1  0.18660000  0.01050000  0.14805000  1.0 -0.1942782033
C  C357  1  0.05660000  0.80370000  0.10336000  1.0 0.082371022
C  C358  1  0.94340000  0.19630000  0.60336000  1.0 0.082371022
C  C359  1  0.80370000  0.05660000  0.64664000  1.0 0.082371022
C  C360  1  0.19630000  0.94340000  0.14664000  1.0 0.082371022
C  C361  1  0.39310000  0.88580000  0.96427000  1.0 0.082371022
C  C362  1  0.60690000  0.11420000  0.46427000  1.0 0.082371022
C  C363  1  0.88580000  0.39310000  0.78573000  1.0 0.082371022
C  C364  1  0.11420000  0.60690000  0.28573000  1.0 0.082371022
C  C365  1  0.42920000  0.91130000  0.94376000  1.0 -0.199262977
C  C366  1  0.57080000  0.08870000  0.44376000  1.0 -0.199262977
C  C367  1  0.91130000  0.42920000  0.80624000  1.0 -0.199262977
C  C368  1  0.08870000  0.57080000  0.30624000  1.0 -0.199262977
C  C369  1  0.45040000  0.97450000  0.94445000  1.0 0.1194514772
C  C370  1  0.54960000  0.02550000  0.44445000  1.0 0.1194514772
C  C371  1  0.97450000  0.45040000  0.80555000  1.0 0.1194514772
C  C372  1  0.02550000  0.54960000  0.30555000  1.0 0.1194514772
C  C373  1  0.43230000  0.00670000  0.96670000  1.0 -0.209243757
C  C374  1  0.56770000  0.99330000  0.46670000  1.0 -0.209243757
C  C375  1  0.00670000  0.43230000  0.78330000  1.0 -0.209243757
C  C376  1  0.99330000  0.56770000  0.28330000  1.0 -0.209243757
C  C377  1  0.39550000  0.97890000  0.98630000  1.0 0.082371022
C  C378  1  0.60450000  0.02110000  0.48630000  1.0 0.082371022
C  C379  1  0.97890000  0.39550000  0.76370000  1.0 0.082371022
C  C380  1  0.02110000  0.60450000  0.26370000  1.0 0.082371022
C  C381  1  0.49240000  0.00380000  0.92288000  1.0 0.0460429491
C  C382  1  0.50760000  0.99620000  0.42288000  1.0 0.0460429491
C  C383  1  0.00380000  0.49240000  0.82712000  1.0 0.0460429491
C  C384  1  0.99620000  0.50760000  0.32712000  1.0 0.0460429491
C  C385  1  0.46330000  0.02740000  0.89854000  1.0 0.0395267143
C  C386  1  0.53670000  0.97260000  0.39854000  1.0 0.0395267143
C  C387  1  0.02740000  0.46330000  0.85146000  1.0 0.0395267143
C  C388  1  0.97260000  0.53670000  0.35146000  1.0 0.0395267143
C  C389  1  0.39310000  0.02690000  0.89430000  1.0 -0.2232591812
C  C390  1  0.60690000  0.97310000  0.39430000  1.0 -0.2232591812
C  C391  1  0.02690000  0.39310000  0.85570000  1.0 -0.2232591812
C  C392  1  0.97310000  0.60690000  0.35570000  1.0 -0.2232591812
C  C393  1  0.36830000  0.04770000  0.87040000  1.0 0.149032659
C  C394  1  0.63170000  0.95230000  0.37040000  1.0 0.149032659
C  C395  1  0.04770000  0.36830000  0.87960000  1.0 0.149032659
C  C396  1  0.95230000  0.63170000  0.37960000  1.0 0.149032659
C  C397  1  0.41010000  0.07470000  0.84960000  1.0 -0.1712970996
C  C398  1  0.58990000  0.92530000  0.34960000  1.0 -0.1712970996
C  C399  1  0.07470000  0.41010000  0.90040000  1.0 -0.1712970996
C  C400  1  0.92530000  0.58990000  0.40040000  1.0 -0.1712970996
C  C401  1  0.47640000  0.07390000  0.85309000  1.0 -0.122287989
C  C402  1  0.52360000  0.92610000  0.35309000  1.0 -0.122287989
C  C403  1  0.07390000  0.47640000  0.89691000  1.0 -0.122287989
C  C404  1  0.92610000  0.52360000  0.39691000  1.0 -0.122287989
C  C405  1  0.50460000  0.05180000  0.87753000  1.0 0.0314811794
C  C406  1  0.49540000  0.94820000  0.37753000  1.0 0.0314811794
C  C407  1  0.05180000  0.50460000  0.87247000  1.0 0.0314811794
C  C408  1  0.94820000  0.49540000  0.37247000  1.0 0.0314811794
C  C409  1  0.57390000  0.05480000  0.88155000  1.0 -0.1014676633
C  C410  1  0.42610000  0.94520000  0.38155000  1.0 -0.1014676633
C  C411  1  0.05480000  0.57390000  0.86845000  1.0 -0.1014676633
C  C412  1  0.94520000  0.42610000  0.36845000  1.0 -0.1014676633
C  C413  1  0.59990000  0.03320000  0.90554000  1.0 0.2377122563
C  C414  1  0.40010000  0.96680000  0.40554000  1.0 0.2377122563
C  C415  1  0.03320000  0.59990000  0.84446000  1.0 0.2377122563
C  C416  1  0.96680000  0.40010000  0.34446000  1.0 0.2377122563
C  C417  1  0.55750000  0.00710000  0.92592000  1.0 -0.2599559865
C  C418  1  0.44250000  0.99290000  0.42592000  1.0 -0.2599559865
C  C419  1  0.00710000  0.55750000  0.82408000  1.0 -0.2599559865
C  C420  1  0.99290000  0.44250000  0.32408000  1.0 -0.2599559865
C  C421  1  0.61690000  0.08340000  0.86005000  1.0 -0.1014676633
C  C422  1  0.38310000  0.91660000  0.36005000  1.0 -0.1014676633
C  C423  1  0.08340000  0.61690000  0.88995000  1.0 -0.1014676633
C  C424  1  0.91660000  0.38310000  0.38995000  1.0 -0.1014676633
C  C425  1  0.64390000  0.04330000  0.83969000  1.0 0.0395267143
C  C426  1  0.35610000  0.95670000  0.33969000  1.0 0.0395267143
C  C427  1  0.04330000  0.64390000  0.91031000  1.0 0.0395267143
C  C428  1  0.95670000  0.35610000  0.41031000  1.0 0.0395267143
C  C429  1  0.63430000  0.97350000  0.84019000  1.0 -0.122287989
C  C430  1  0.36570000  0.02650000  0.34019000  1.0 -0.122287989
C  C431  1  0.97350000  0.63430000  0.90981000  1.0 -0.122287989
C  C432  1  0.02650000  0.36570000  0.40981000  1.0 -0.122287989
C  C433  1  0.65730000  0.93270000  0.82042000  1.0 -0.1788759878
C  C434  1  0.34270000  0.06730000  0.32042000  1.0 -0.1788759878
C  C435  1  0.93270000  0.65730000  0.92958000  1.0 -0.1788759878
C  C436  1  0.06730000  0.34270000  0.42958000  1.0 -0.1788759878
C  C437  1  0.69180000  0.96150000  0.79830000  1.0 0.149032659
C  C438  1  0.30820000  0.03850000  0.29830000  1.0 0.149032659
C  C439  1  0.96150000  0.69180000  0.95170000  1.0 0.149032659
C  C440  1  0.03850000  0.30820000  0.45170000  1.0 0.149032659
C  C441  1  0.70200000  0.02830000  0.79727000  1.0 -0.2232591812
C  C442  1  0.29800000  0.97170000  0.29727000  1.0 -0.2232591812
C  C443  1  0.02830000  0.70200000  0.95273000  1.0 -0.2232591812
C  C444  1  0.97170000  0.29800000  0.45273000  1.0 -0.2232591812
C  C445  1  0.68050000  0.07000000  0.81754000  1.0 0.0314811794
C  C446  1  0.31950000  0.93000000  0.31754000  1.0 0.0314811794
C  C447  1  0.07000000  0.68050000  0.93246000  1.0 0.0314811794
C  C448  1  0.93000000  0.31950000  0.43246000  1.0 0.0314811794
C  C449  1  0.69230000  0.14050000  0.81829000  1.0 0.0395267143
C  C450  1  0.30770000  0.85950000  0.31829000  1.0 0.0395267143
C  C451  1  0.14050000  0.69230000  0.93171000  1.0 0.0395267143
C  C452  1  0.85950000  0.30770000  0.43171000  1.0 0.0395267143
C  C453  1  0.66870000  0.17760000  0.83842000  1.0 -0.2599559865
C  C454  1  0.33130000  0.82240000  0.33842000  1.0 -0.2599559865
C  C455  1  0.17760000  0.66870000  0.91158000  1.0 -0.2599559865
C  C456  1  0.82240000  0.33130000  0.41158000  1.0 -0.2599559865
C  C457  1  0.62950000  0.14980000  0.85970000  1.0 0.270418327
C  C458  1  0.37050000  0.85020000  0.35970000  1.0 0.270418327
C  C459  1  0.14980000  0.62950000  0.89030000  1.0 0.270418327
C  C460  1  0.85020000  0.37050000  0.39030000  1.0 0.270418327
C  C461  1  0.83120000  0.19080000  0.77101000  1.0 0.0720252391
C  C462  1  0.16880000  0.80920000  0.27101000  1.0 0.0720252391
C  C463  1  0.19080000  0.83120000  0.97899000  1.0 0.0720252391
C  C464  1  0.80920000  0.16880000  0.47899000  1.0 0.0720252391
C  C465  1  0.79380000  0.15340000  0.78917000  1.0 -0.2232591812
C  C466  1  0.20620000  0.84660000  0.28917000  1.0 -0.2232591812
C  C467  1  0.15340000  0.79380000  0.96083000  1.0 -0.2232591812
C  C468  1  0.84660000  0.20620000  0.46083000  1.0 -0.2232591812
C  C469  1  0.73190000  0.17300000  0.79667000  1.0 0.1397232015
C  C470  1  0.26810000  0.82700000  0.29667000  1.0 0.1397232015
C  C471  1  0.17300000  0.73190000  0.95333000  1.0 0.1397232015
C  C472  1  0.82700000  0.26810000  0.45333000  1.0 0.1397232015
C  C473  1  0.70730000  0.23080000  0.78488000  1.0 -0.199262977
C  C474  1  0.29270000  0.76920000  0.28488000  1.0 -0.199262977
C  C475  1  0.23080000  0.70730000  0.96512000  1.0 -0.199262977
C  C476  1  0.76920000  0.29270000  0.46512000  1.0 -0.199262977
C  C477  1  0.74570000  0.26560000  0.76685000  1.0 0.082371022
C  C478  1  0.25430000  0.73440000  0.26685000  1.0 0.082371022
C  C479  1  0.26560000  0.74570000  0.98315000  1.0 0.082371022
C  C480  1  0.73440000  0.25430000  0.48315000  1.0 0.082371022
N  N1  1  0.20110000  0.31683000  0.37319000  1.0 -0.2488477253
N  N2  1  0.79890000  0.68317000  0.87319000  1.0 -0.2488477253
N  N3  1  0.68317000  0.79890000  0.87681000  1.0 -0.2488477253
N  N4  1  0.31683000  0.20110000  0.37681000  1.0 -0.2488477253
N  N5  1  0.19710000  0.08930000  0.37664000  1.0 -0.2377918282
N  N6  1  0.80290000  0.91070000  0.87664000  1.0 -0.2377918282
N  N7  1  0.91070000  0.80290000  0.87336000  1.0 -0.2377918282
N  N8  1  0.08930000  0.19710000  0.37336000  1.0 -0.2377918282
N  N9  1  0.08100000  0.37420000  0.23497000  1.0 -0.2232591812
N  N10  1  0.91900000  0.62580000  0.73497000  1.0 -0.2232591812
N  N11  1  0.62580000  0.91900000  0.01503000  1.0 -0.2232591812
N  N12  1  0.37420000  0.08100000  0.51503000  1.0 -0.2232591812
N  N13  1  0.75350000  0.80730000  0.01020000  1.0 -0.2599559865
N  N14  1  0.24650000  0.19270000  0.51020000  1.0 -0.2599559865
N  N15  1  0.19270000  0.24650000  0.23980000  1.0 -0.2599559865
N  N16  1  0.80730000  0.75350000  0.73980000  1.0 -0.2599559865
N  N17  1  0.19240000  0.42470000  0.28580000  1.0 0.6880154755
N  N18  1  0.80760000  0.57530000  0.78580000  1.0 0.6880154755
N  N19  1  0.57530000  0.80760000  0.96420000  1.0 0.6880154755
N  N20  1  0.42470000  0.19240000  0.46420000  1.0 0.6880154755
N  N21  1  0.20530000  0.23220000  0.30985000  1.0 0.6703411411
N  N22  1  0.79470000  0.76780000  0.80985000  1.0 0.6703411411
N  N23  1  0.76780000  0.79470000  0.94015000  1.0 0.6703411411
N  N24  1  0.23220000  0.20530000  0.44015000  1.0 0.6703411411
N  N25  1  0.00390000  0.25140000  0.28031000  1.0 0.7006848898
N  N26  1  0.99610000  0.74860000  0.78031000  1.0 0.7006848898
N  N27  1  0.74860000  0.99610000  0.96969000  1.0 0.7006848898
N  N28  1  0.25140000  0.00390000  0.46969000  1.0 0.7006848898
N  N29  1  0.31683000  0.79890000  0.12319000  1.0 -0.2488477253
N  N30  1  0.68317000  0.20110000  0.62319000  1.0 -0.2488477253
N  N31  1  0.79890000  0.31683000  0.62681000  1.0 -0.2488477253
N  N32  1  0.20110000  0.68317000  0.12681000  1.0 -0.2488477253
N  N33  1  0.08930000  0.80290000  0.12664000  1.0 -0.2377918282
N  N34  1  0.91070000  0.19710000  0.62664000  1.0 -0.2377918282
N  N35  1  0.80290000  0.08930000  0.62336000  1.0 -0.2377918282
N  N36  1  0.19710000  0.91070000  0.12336000  1.0 -0.2377918282
N  N37  1  0.37420000  0.91900000  0.98497000  1.0 -0.2232591812
N  N38  1  0.62580000  0.08100000  0.48497000  1.0 -0.2232591812
N  N39  1  0.91900000  0.37420000  0.76503000  1.0 -0.2232591812
N  N40  1  0.08100000  0.62580000  0.26503000  1.0 -0.2232591812
N  N41  1  0.80730000  0.24650000  0.76020000  1.0 -0.2599559865
N  N42  1  0.19270000  0.75350000  0.26020000  1.0 -0.2599559865
N  N43  1  0.24650000  0.80730000  0.98980000  1.0 -0.2599559865
N  N44  1  0.75350000  0.19270000  0.48980000  1.0 -0.2599559865
N  N45  1  0.42470000  0.80760000  0.03580000  1.0 0.6880154755
N  N46  1  0.57530000  0.19240000  0.53580000  1.0 0.6880154755
N  N47  1  0.80760000  0.42470000  0.71420000  1.0 0.6880154755
N  N48  1  0.19240000  0.57530000  0.21420000  1.0 0.6880154755
N  N49  1  0.23220000  0.79470000  0.05985000  1.0 0.6703411411
N  N50  1  0.76780000  0.20530000  0.55985000  1.0 0.6703411411
N  N51  1  0.79470000  0.23220000  0.69015000  1.0 0.6703411411
N  N52  1  0.20530000  0.76780000  0.19015000  1.0 0.6703411411
N  N53  1  0.25140000  0.99610000  0.03031000  1.0 0.7006848898
N  N54  1  0.74860000  0.00390000  0.53031000  1.0 0.7006848898
N  N55  1  0.99610000  0.25140000  0.71969000  1.0 0.7006848898
N  N56  1  0.00390000  0.74860000  0.21969000  1.0 0.7006848898
Cl  Cl1  1  0.03580000  0.51945000  0.45963000  1.0 -0.1014676633
Cl  Cl2  1  0.96420000  0.48055000  0.95963000  1.0 -0.1014676633
Cl  Cl3  1  0.48055000  0.96420000  0.79037000  1.0 -0.1014676633
Cl  Cl4  1  0.51945000  0.03580000  0.29037000  1.0 -0.1014676633
Cl  Cl5  1  0.99512000  0.87778000  0.30038000  1.0 -0.0581432818
Cl  Cl6  1  0.00488000  0.12222000  0.80038000  1.0 -0.0581432818
Cl  Cl7  1  0.12222000  0.00488000  0.94962000  1.0 -0.0581432818
Cl  Cl8  1  0.87778000  0.99512000  0.44962000  1.0 -0.0581432818
Cl  Cl9  1  0.95420000  0.28380000  0.11484000  1.0 -0.079162639
Cl  Cl10  1  0.04580000  0.71620000  0.61484000  1.0 -0.079162639
Cl  Cl11  1  0.71620000  0.04580000  0.13516000  1.0 -0.079162639
Cl  Cl12  1  0.28380000  0.95420000  0.63516000  1.0 -0.079162639
Cl  Cl13  1  0.09081000  0.72096000  0.02341000  1.0 -0.079162639
Cl  Cl14  1  0.90919000  0.27904000  0.52341000  1.0 -0.079162639
Cl  Cl15  1  0.27904000  0.90919000  0.22659000  1.0 -0.079162639
Cl  Cl16  1  0.72096000  0.09081000  0.72659000  1.0 -0.079162639
Cl  Cl17  1  0.51945000  0.96420000  0.20963000  1.0 -0.1014676633
Cl  Cl18  1  0.48055000  0.03580000  0.70963000  1.0 -0.093933605
Cl  Cl19  1  0.96420000  0.51945000  0.54037000  1.0 -0.1014676633
Cl  Cl20  1  0.03580000  0.48055000  0.04037000  1.0 -0.093933605
Cl  Cl21  1  0.87778000  0.00488000  0.05038000  1.0 -0.0581432818
Cl  Cl22  1  0.12222000  0.99512000  0.55038000  1.0 -0.0581432818
Cl  Cl23  1  0.00488000  0.87778000  0.69962000  1.0 -0.0581432818
Cl  Cl24  1  0.99512000  0.12222000  0.19962000  1.0 -0.0581432818
Cl  Cl25  1  0.28380000  0.04580000  0.86484000  1.0 -0.079162639
Cl  Cl26  1  0.71620000  0.95420000  0.36484000  1.0 -0.079162639
Cl  Cl27  1  0.04580000  0.28380000  0.88516000  1.0 -0.079162639
Cl  Cl28  1  0.95420000  0.71620000  0.38516000  1.0 -0.079162639
Cl  Cl29  1  0.72096000  0.90919000  0.77341000  1.0 -0.079162639
Cl  Cl30  1  0.27904000  0.09081000  0.27341000  1.0 -0.079162639
Cl  Cl31  1  0.90919000  0.72096000  0.97659000  1.0 -0.079162639
Cl  Cl32  1  0.09081000  0.27904000  0.47659000  1.0 -0.079162639
O  O1  1  0.25040000  0.66650000  0.33623000  1.0 -0.4023616057
O  O2  1  0.74960000  0.33350000  0.83623000  1.0 -0.4023616057
O  O3  1  0.33350000  0.74960000  0.91377000  1.0 -0.4023616057
O  O4  1  0.66650000  0.25040000  0.41377000  1.0 -0.4023616057
O  O5  1  0.25670000  0.74330000  0.40940000  1.0 -0.380069055
O  O6  1  0.74330000  0.25670000  0.90940000  1.0 -0.380069055
O  O7  1  0.25670000  0.74330000  0.84060000  1.0 -0.380069055
O  O8  1  0.74330000  0.25670000  0.34060000  1.0 -0.380069055
O  O9  1  0.96380000  0.66666667  0.15947000  1.0 -0.4367897767
O  O10  1  0.03620000  0.33333333  0.65947000  1.0 -0.4367897767
O  O11  1  0.33333333  0.03620000  0.09053000  1.0 -0.4367897767
O  O12  1  0.66666667  0.96380000  0.59053000  1.0 -0.4367897767
O  O13  1  0.81100000  0.60440000  0.12897000  1.0 -0.380069055
O  O14  1  0.18900000  0.39560000  0.62897000  1.0 -0.3889678901
O  O15  1  0.39560000  0.18900000  0.12103000  1.0 -0.3889678901
O  O16  1  0.60440000  0.81100000  0.62103000  1.0 -0.380069055
O  O17  1  0.21810000  0.47440000  0.29591000  1.0 -0.380069055
O  O18  1  0.78190000  0.52560000  0.79591000  1.0 -0.380069055
O  O19  1  0.52560000  0.78190000  0.95409000  1.0 -0.380069055
O  O20  1  0.47440000  0.21810000  0.45409000  1.0 -0.380069055
O  O21  1  0.14120000  0.40110000  0.29519000  1.0 -0.4055849988
O  O22  1  0.85880000  0.59890000  0.79519000  1.0 -0.4055849988
O  O23  1  0.59890000  0.85880000  0.95481000  1.0 -0.4055849988
O  O24  1  0.40110000  0.14120000  0.45481000  1.0 -0.4055849988
O  O25  1  0.22010000  0.39590000  0.26635000  1.0 -0.431651417
O  O26  1  0.77990000  0.60410000  0.76635000  1.0 -0.431651417
O  O27  1  0.60410000  0.77990000  0.98365000  1.0 -0.431651417
O  O28  1  0.39590000  0.22010000  0.48365000  1.0 -0.431651417
O  O29  1  0.24570000  0.27260000  0.30061000  1.0 -0.380069055
O  O30  1  0.75430000  0.72740000  0.80061000  1.0 -0.380069055
O  O31  1  0.72740000  0.75430000  0.94939000  1.0 -0.380069055
O  O32  1  0.27260000  0.24570000  0.44939000  1.0 -0.380069055
O  O33  1  0.14980000  0.23590000  0.30250000  1.0 -0.3532160636
O  O34  1  0.85020000  0.76410000  0.80250000  1.0 -0.3532160636
O  O35  1  0.76410000  0.85020000  0.94750000  1.0 -0.3532160636
O  O36  1  0.23590000  0.14980000  0.44750000  1.0 -0.3532160636
O  O37  1  0.22470000  0.19530000  0.32847000  1.0 -0.4183365483
O  O38  1  0.77530000  0.80470000  0.82847000  1.0 -0.4183365483
O  O39  1  0.80470000  0.77530000  0.92153000  1.0 -0.4183365483
O  O40  1  0.19530000  0.22470000  0.42153000  1.0 -0.4183365483
O  O41  1  0.95200000  0.22470000  0.28747000  1.0 -0.3889678901
O  O42  1  0.04800000  0.77530000  0.78747000  1.0 -0.3889678901
O  O43  1  0.77530000  0.04800000  0.96253000  1.0 -0.3889678901
O  O44  1  0.22470000  0.95200000  0.46253000  1.0 -0.3889678901
O  O45  1  0.03690000  0.23020000  0.26090000  1.0 -0.4367897767
O  O46  1  0.96310000  0.76980000  0.76090000  1.0 -0.431651417
O  O47  1  0.76980000  0.96310000  0.98910000  1.0 -0.431651417
O  O48  1  0.23020000  0.03690000  0.48910000  1.0 -0.4367897767
O  O49  1  0.02510000  0.30290000  0.29218000  1.0 -0.4807732817
O  O50  1  0.97490000  0.69710000  0.79218000  1.0 -0.4807732817
O  O51  1  0.69710000  0.97490000  0.95782000  1.0 -0.4807732817
O  O52  1  0.30290000  0.02510000  0.45782000  1.0 -0.4807732817
O  O53  1  0.66650000  0.74960000  0.08623000  1.0 -0.4023616057
O  O54  1  0.33350000  0.25040000  0.58623000  1.0 -0.4023616057
O  O55  1  0.74960000  0.66650000  0.66377000  1.0 -0.4023616057
O  O56  1  0.25040000  0.33350000  0.16377000  1.0 -0.4023616057
O  O57  1  0.74330000  0.74330000  0.15940000  1.0 -0.380069055
O  O58  1  0.25670000  0.25670000  0.65940000  1.0 -0.380069055
O  O59  1  0.74330000  0.74330000  0.59060000  1.0 -0.380069055
O  O60  1  0.25670000  0.25670000  0.09060000  1.0 -0.380069055
O  O61  1  0.66666667  0.03620000  0.90947000  1.0 -0.4367897767
O  O62  1  0.33333333  0.96380000  0.40947000  1.0 -0.4367897767
O  O63  1  0.03620000  0.66666667  0.84053000  1.0 -0.4367897767
O  O64  1  0.96380000  0.33333333  0.34053000  1.0 -0.4367897767
O  O65  1  0.60440000  0.18900000  0.87897000  1.0 -0.3889678901
O  O66  1  0.39560000  0.81100000  0.37897000  1.0 -0.3889678901
O  O67  1  0.18900000  0.60440000  0.87103000  1.0 -0.3889678901
O  O68  1  0.81100000  0.39560000  0.37103000  1.0 -0.3889678901
O  O69  1  0.47440000  0.78190000  0.04591000  1.0 -0.380069055
O  O70  1  0.52560000  0.21810000  0.54591000  1.0 -0.380069055
O  O71  1  0.78190000  0.47440000  0.70409000  1.0 -0.380069055
O  O72  1  0.21810000  0.52560000  0.20409000  1.0 -0.380069055
O  O73  1  0.40110000  0.85880000  0.04519000  1.0 -0.4055849988
O  O74  1  0.59890000  0.14120000  0.54519000  1.0 -0.4055849988
O  O75  1  0.85880000  0.40110000  0.70481000  1.0 -0.4055849988
O  O76  1  0.14120000  0.59890000  0.20481000  1.0 -0.4055849988
O  O77  1  0.39590000  0.77990000  0.01635000  1.0 -0.431651417
O  O78  1  0.60410000  0.22010000  0.51635000  1.0 -0.431651417
O  O79  1  0.77990000  0.39590000  0.73365000  1.0 -0.431651417
O  O80  1  0.22010000  0.60410000  0.23365000  1.0 -0.431651417
O  O81  1  0.27260000  0.75430000  0.05061000  1.0 -0.380069055
O  O82  1  0.72740000  0.24570000  0.55061000  1.0 -0.380069055
O  O83  1  0.75430000  0.27260000  0.69939000  1.0 -0.380069055
O  O84  1  0.24570000  0.72740000  0.19939000  1.0 -0.380069055
O  O85  1  0.23590000  0.85020000  0.05250000  1.0 -0.3532160636
O  O86  1  0.76410000  0.14980000  0.55250000  1.0 -0.3532160636
O  O87  1  0.85020000  0.23590000  0.69750000  1.0 -0.3532160636
O  O88  1  0.14980000  0.76410000  0.19750000  1.0 -0.3532160636
O  O89  1  0.19530000  0.77530000  0.07847000  1.0 -0.4183365483
O  O90  1  0.80470000  0.22470000  0.57847000  1.0 -0.4183365483
O  O91  1  0.77530000  0.19530000  0.67153000  1.0 -0.4183365483
O  O92  1  0.22470000  0.80470000  0.17153000  1.0 -0.4183365483
O  O93  1  0.22470000  0.04800000  0.03747000  1.0 -0.3889678901
O  O94  1  0.77530000  0.95200000  0.53747000  1.0 -0.3889678901
O  O95  1  0.04800000  0.22470000  0.71253000  1.0 -0.3889678901
O  O96  1  0.95200000  0.77530000  0.21253000  1.0 -0.3889678901
O  O97  1  0.23020000  0.96310000  0.01090000  1.0 -0.431651417
O  O98  1  0.76980000  0.03690000  0.51090000  1.0 -0.431651417
O  O99  1  0.96310000  0.23020000  0.73910000  1.0 -0.431651417
O  O100  1  0.03690000  0.76980000  0.23910000  1.0 -0.431651417
O  O101  1  0.30290000  0.97490000  0.04218000  1.0 -0.4807732817
O  O102  1  0.69710000  0.02510000  0.54218000  1.0 -0.4807732817
O  O103  1  0.97490000  0.30290000  0.70782000  1.0 -0.4807732817
O  O104  1  0.02510000  0.69710000  0.20782000  1.0 -0.4807732817
