# DDEC6 charges by PACMAN v1.1 (https://github.com/mtap-research/PACMAN-charge/)
data_SEYDUW_FSR_pacman
_symmetry_space_group_name_H-M   'P 1'
_cell_length_a   8.91080000
_cell_length_b   9.02230000
_cell_length_c   15.68370000
_cell_angle_alpha   90.00000000
_cell_angle_beta   90.00000000
_cell_angle_gamma   90.00000000
_symmetry_Int_Tables_number   1
_chemical_formula_structural   YPH7C5NO9
_chemical_formula_sum   'Y4 P4 H28 C20 N4 O36'
_cell_volume   1260.90534684
_cell_formula_units_Z   4
loop_
 _symmetry_equiv_pos_site_id
 _symmetry_equiv_pos_as_xyz
  1  'x, y, z'
loop_
 _atom_site_type_symbol
 _atom_site_label
 _atom_site_symmetry_multiplicity
 _atom_site_fract_x
 _atom_site_fract_y
 _atom_site_fract_z
 _atom_site_occupancy
 _atom_site_charge
Y  Y1  1  0.64073000  0.71867000  0.85391000  1.0 1.7424914722
Y  Y2  1  0.85927000  0.28133000  0.35391000  1.0 1.7424914722
Y  Y3  1  0.14073000  0.78133000  0.14609000  1.0 1.7424914722
Y  Y4  1  0.35927000  0.21867000  0.64609000  1.0 1.7424914722
P  P1  1  0.31799000  0.62249000  0.95601000  1.0 1.3102435951
P  P2  1  0.18201000  0.37751000  0.45601000  1.0 1.3102435951
P  P3  1  0.81799000  0.87751000  0.04399000  1.0 1.3102435951
P  P4  1  0.68201000  0.12249000  0.54399000  1.0 1.3102435951
H  H1  1  0.50240000  0.60590000  0.06040000  1.0 0.169791117
H  H2  1  0.99760000  0.39410000  0.56040000  1.0 0.169791117
H  H3  1  0.00240000  0.89410000  0.93960000  1.0 0.169791117
H  H4  1  0.49760000  0.10590000  0.43960000  1.0 0.169791117
H  H5  1  0.42750000  0.45000000  0.04680000  1.0 0.1576813941
H  H6  1  0.07250000  0.55000000  0.54680000  1.0 0.1576813941
H  H7  1  0.92750000  0.05000000  0.95320000  1.0 0.1576813941
H  H8  1  0.57250000  0.95000000  0.45320000  1.0 0.1576813941
H  H9  1  0.47120000  0.30930000  0.93720000  1.0 0.1515033527
H  H10  1  0.02880000  0.69070000  0.43720000  1.0 0.1515033527
H  H11  1  0.97120000  0.19070000  0.06280000  1.0 0.1515033527
H  H12  1  0.52880000  0.80930000  0.56280000  1.0 0.1515033527
H  H13  1  0.64140000  0.29010000  0.91540000  1.0 0.1515033527
H  H14  1  0.85860000  0.70990000  0.41540000  1.0 0.1515033527
H  H15  1  0.14140000  0.20990000  0.08460000  1.0 0.1515033527
H  H16  1  0.35860000  0.79010000  0.58460000  1.0 0.1515033527
H  H17  1  0.73070000  0.37350000  0.03370000  1.0 0.1515033527
H  H18  1  0.76930000  0.62650000  0.53370000  1.0 0.1515033527
H  H19  1  0.23070000  0.12650000  0.96630000  1.0 0.1515033527
H  H20  1  0.26930000  0.87350000  0.46630000  1.0 0.1515033527
H  H21  1  0.73810000  0.54430000  0.05280000  1.0 0.169791117
H  H22  1  0.76190000  0.45570000  0.55280000  1.0 0.169791117
H  H23  1  0.23810000  0.95570000  0.94720000  1.0 0.169791117
H  H24  1  0.26190000  0.04430000  0.44720000  1.0 0.169791117
H  H25  1  0.15390000  0.48080000  0.92760000  1.0 0.3860960786
H  H26  1  0.34610000  0.51920000  0.42760000  1.0 0.3860960786
H  H27  1  0.65390000  0.01920000  0.07240000  1.0 0.3860960786
H  H28  1  0.84610000  0.98080000  0.57240000  1.0 0.3860960786
C  C1  1  0.46620000  0.53680000  0.01770000  1.0 -0.4677766602
C  C2  1  0.03380000  0.46320000  0.51770000  1.0 -0.4677766602
C  C3  1  0.96620000  0.96320000  0.98230000  1.0 -0.4677766602
C  C4  1  0.53380000  0.03680000  0.48230000  1.0 -0.4677766602
C  C5  1  0.55690000  0.35750000  0.91100000  1.0 -0.3148164268
C  C6  1  0.94310000  0.64250000  0.41100000  1.0 -0.3150691505
C  C7  1  0.05690000  0.14250000  0.08900000  1.0 -0.3148164268
C  C8  1  0.44310000  0.85750000  0.58900000  1.0 -0.3150691505
C  C9  1  0.52330000  0.38130000  0.81950000  1.0 0.6504248266
C  C10  1  0.97670000  0.61870000  0.31950000  1.0 0.6504248266
C  C11  1  0.02330000  0.11870000  0.18050000  1.0 0.6504248266
C  C12  1  0.47670000  0.88130000  0.68050000  1.0 0.6504248266
C  C13  1  0.73080000  0.47110000  0.00770000  1.0 -0.2724518481
C  C14  1  0.76920000  0.52890000  0.50770000  1.0 -0.2724518481
C  C15  1  0.23080000  0.02890000  0.99230000  1.0 -0.2724518481
C  C16  1  0.26920000  0.97110000  0.49230000  1.0 -0.2724518481
C  C17  1  0.86500000  0.48560000  0.94780000  1.0 0.6395494823
C  C18  1  0.63500000  0.51440000  0.44780000  1.0 0.6395494823
C  C19  1  0.36500000  0.01440000  0.05220000  1.0 0.6395494823
C  C20  1  0.13500000  0.98560000  0.55220000  1.0 0.6395494823
N  N1  1  0.59210000  0.49300000  0.96020000  1.0 -0.0462065175
N  N2  1  0.90790000  0.50700000  0.46020000  1.0 -0.0462065175
N  N3  1  0.09210000  0.00700000  0.03980000  1.0 -0.0462065175
N  N4  1  0.40790000  0.99300000  0.53980000  1.0 -0.0462065175
O  O1  1  0.56370000  0.50510000  0.78479000  1.0 -0.5640943762
O  O2  1  0.93630000  0.49490000  0.28479000  1.0 -0.5640943762
O  O3  1  0.06370000  0.99490000  0.21521000  1.0 -0.5640943762
O  O4  1  0.43630000  0.00510000  0.71521000  1.0 -0.5640943762
O  O5  1  0.45800000  0.28160000  0.77929000  1.0 -0.4766776751
O  O6  1  0.04200000  0.71840000  0.27929000  1.0 -0.4766776751
O  O7  1  0.95800000  0.21840000  0.22071000  1.0 -0.4766776751
O  O8  1  0.54200000  0.78160000  0.72071000  1.0 -0.4766776751
O  O9  1  0.98940000  0.43350000  0.97360000  1.0 -0.5241409953
O  O10  1  0.51060000  0.56650000  0.47360000  1.0 -0.5241409953
O  O11  1  0.48940000  0.06650000  0.02640000  1.0 -0.5241409953
O  O12  1  0.01060000  0.93350000  0.52640000  1.0 -0.5241409953
O  O13  1  0.84920000  0.56210000  0.87982000  1.0 -0.5882099833
O  O14  1  0.65080000  0.43790000  0.37982000  1.0 -0.5882099833
O  O15  1  0.34920000  0.93790000  0.12018000  1.0 -0.5882099833
O  O16  1  0.15080000  0.06210000  0.62018000  1.0 -0.5882099833
O  O17  1  0.23320000  0.50100000  0.90370000  1.0 -0.5640943762
O  O18  1  0.26680000  0.49900000  0.40370000  1.0 -0.5640943762
O  O19  1  0.73320000  0.99900000  0.09630000  1.0 -0.5640943762
O  O20  1  0.76680000  0.00100000  0.59630000  1.0 -0.5640943762
O  O21  1  0.21490000  0.69900000  0.01735000  1.0 -0.7678459402
O  O22  1  0.28510000  0.30100000  0.51735000  1.0 -0.7678459402
O  O23  1  0.71490000  0.80100000  0.98265000  1.0 -0.7678459402
O  O24  1  0.78510000  0.19900000  0.48265000  1.0 -0.7678459402
O  O25  1  0.39580000  0.72430000  0.89469000  1.0 -0.7482244189
O  O26  1  0.10420000  0.27570000  0.39469000  1.0 -0.7482244189
O  O27  1  0.89580000  0.77570000  0.10531000  1.0 -0.7482244189
O  O28  1  0.60420000  0.22430000  0.60531000  1.0 -0.7482244189
O  O29  1  0.84380000  0.81040000  0.77030000  1.0 -0.2724518481
O  O30  1  0.65620000  0.18960000  0.27030000  1.0 -0.2724518481
O  O31  1  0.34380000  0.68960000  0.22970000  1.0 -0.2724518481
O  O32  1  0.15620000  0.31040000  0.72970000  1.0 -0.2724518481
O  O33  1  0.59880000  0.98400000  0.86070000  1.0 -0.072838298
O  O34  1  0.90120000  0.01600000  0.36070000  1.0 -0.072838298
O  O35  1  0.09880000  0.51600000  0.13930000  1.0 -0.072838298
O  O36  1  0.40120000  0.48400000  0.63930000  1.0 -0.0753319602
