# DDEC6 charges by PACMAN v1.1 (https://github.com/mtap-research/PACMAN-charge/)
data_SICZOV_ASR_pacman
_symmetry_space_group_name_H-M   'P 1'
_cell_length_a   23.44150000
_cell_length_b   23.44150000
_cell_length_c   23.44150000
_cell_angle_alpha   83.11960000
_cell_angle_beta   83.11960000
_cell_angle_gamma   83.11960000
_symmetry_Int_Tables_number   1
_chemical_formula_structural   In3P3H72(C27O5)5
_chemical_formula_sum   'In6 P6 H144 C270 O50'
_cell_volume   12623.46964380
_cell_formula_units_Z   2
loop_
 _symmetry_equiv_pos_site_id
 _symmetry_equiv_pos_as_xyz
  1  'x, y, z'
loop_
 _atom_site_type_symbol
 _atom_site_label
 _atom_site_symmetry_multiplicity
 _atom_site_fract_x
 _atom_site_fract_y
 _atom_site_fract_z
 _atom_site_occupancy
 _atom_site_charge
In  In1  1  0.29414000  0.35709000  0.22695000  1.0 1.2881253085
In  In2  1  0.35709000  0.22695000  0.29414000  1.0 1.2881253085
In  In3  1  0.22695000  0.29414000  0.35709000  1.0 1.2881253085
In  In4  1  0.70589000  0.77309000  0.64298000  1.0 1.2686550341
In  In5  1  0.77309000  0.64298000  0.70589000  1.0 1.2686550341
In  In6  1  0.64298000  0.70589000  0.77309000  1.0 1.2881253085
P  P1  1  0.50499000  0.35058000  0.90175000  1.0 1.2343059501
P  P2  1  0.35058000  0.90175000  0.50499000  1.0 1.23507938
P  P3  1  0.90175000  0.50499000  0.35058000  1.0 1.23507938
P  P4  1  0.49497000  0.09804000  0.64930000  1.0 1.1900173547
P  P5  1  0.09804000  0.64930000  0.49497000  1.0 1.1900173547
P  P6  1  0.64930000  0.49497000  0.09804000  1.0 1.1900173547
H  H1  1  0.33160000  0.29920000  0.05590000  1.0 0.0998579464
H  H2  1  0.29920000  0.05590000  0.33160000  1.0 0.0998579464
H  H3  1  0.05590000  0.33160000  0.29920000  1.0 0.0998579464
H  H4  1  0.44340000  0.17830000  0.12740000  1.0 0.0794036926
H  H5  1  0.17830000  0.12740000  0.44340000  1.0 0.0794036926
H  H6  1  0.12740000  0.44340000  0.17830000  1.0 0.0794036926
H  H7  1  0.37970000  0.27780000  0.96290000  1.0 0.0703227268
H  H8  1  0.27780000  0.96290000  0.37970000  1.0 0.0703227268
H  H9  1  0.96290000  0.37970000  0.27780000  1.0 0.0703227268
H  H10  1  0.47970000  0.15230000  0.03850000  1.0 0.0703227268
H  H11  1  0.15230000  0.03850000  0.47970000  1.0 0.0703227268
H  H12  1  0.03850000  0.47970000  0.15230000  1.0 0.0703227268
H  H13  1  0.48390000  0.12170000  0.95540000  1.0 0.0794036926
H  H14  1  0.12170000  0.95540000  0.48390000  1.0 0.0794036926
H  H15  1  0.95540000  0.48390000  0.12170000  1.0 0.0794036926
H  H16  1  0.52950000  0.04480000  0.88530000  1.0 0.0794036926
H  H17  1  0.04480000  0.88530000  0.52950000  1.0 0.0794036926
H  H18  1  0.88530000  0.52950000  0.04480000  1.0 0.0794036926
H  H19  1  0.56870000  0.19830000  0.74240000  1.0 0.0998579464
H  H20  1  0.19830000  0.74240000  0.56870000  1.0 0.0998579464
H  H21  1  0.74240000  0.56870000  0.19830000  1.0 0.0998579464
H  H22  1  0.59070000  0.10300000  0.72510000  1.0 0.1405390589
H  H23  1  0.10300000  0.72510000  0.59070000  1.0 0.1405390589
H  H24  1  0.72510000  0.59070000  0.10300000  1.0 0.1405390589
H  H25  1  0.43990000  0.20970000  0.76050000  1.0 0.111012246
H  H26  1  0.20970000  0.76050000  0.43990000  1.0 0.111012246
H  H27  1  0.76050000  0.43990000  0.20970000  1.0 0.111012246
H  H28  1  0.65970000  0.03680000  0.73340000  1.0 0.0794036926
H  H29  1  0.03680000  0.73340000  0.65970000  1.0 0.0794036926
H  H30  1  0.73340000  0.65970000  0.03680000  1.0 0.0794036926
H  H31  1  0.54560000  0.97280000  0.85540000  1.0 0.0703227268
H  H32  1  0.97280000  0.85540000  0.54560000  1.0 0.0703227268
H  H33  1  0.85540000  0.54560000  0.97280000  1.0 0.0608907643
H  H34  1  0.51390000  0.39780000  0.66130000  1.0 0.0998579464
H  H35  1  0.39780000  0.66130000  0.51390000  1.0 0.0998579464
H  H36  1  0.66130000  0.51390000  0.39780000  1.0 0.0998579464
H  H37  1  0.46770000  0.34890000  0.60670000  1.0 0.0703227268
H  H38  1  0.34890000  0.60670000  0.46770000  1.0 0.0794036926
H  H39  1  0.60670000  0.46770000  0.34890000  1.0 0.0794036926
H  H40  1  0.40270000  0.20360000  0.67360000  1.0 0.1476913712
H  H41  1  0.20360000  0.67360000  0.40270000  1.0 0.1476913712
H  H42  1  0.67360000  0.40270000  0.20360000  1.0 0.1476913712
H  H43  1  0.69390000  0.94170000  0.71600000  1.0 0.0794036926
H  H44  1  0.94170000  0.71600000  0.69390000  1.0 0.0794036926
H  H45  1  0.71600000  0.69390000  0.94170000  1.0 0.0794036926
H  H46  1  0.58320000  0.88070000  0.83700000  1.0 0.0897281003
H  H47  1  0.88070000  0.83700000  0.58320000  1.0 0.0897281003
H  H48  1  0.83700000  0.58320000  0.88070000  1.0 0.0897281003
H  H49  1  0.63480000  0.40170000  0.68680000  1.0 0.0703227268
H  H50  1  0.40170000  0.68680000  0.63480000  1.0 0.0703227268
H  H51  1  0.68680000  0.63480000  0.40170000  1.0 0.0703227268
H  H52  1  0.51810000  0.45730000  0.81930000  1.0 0.1405390589
H  H53  1  0.45730000  0.81930000  0.51810000  1.0 0.1405390589
H  H54  1  0.81930000  0.51810000  0.45730000  1.0 0.1405390589
H  H55  1  0.69250000  0.47870000  0.68680000  1.0 0.0897281003
H  H56  1  0.47870000  0.68680000  0.69250000  1.0 0.0897281003
H  H57  1  0.68680000  0.69250000  0.47870000  1.0 0.0897281003
H  H58  1  0.57630000  0.54350000  0.81920000  1.0 0.111012246
H  H59  1  0.54350000  0.81920000  0.57630000  1.0 0.111012246
H  H60  1  0.81920000  0.57630000  0.54350000  1.0 0.111012246
H  H61  1  0.48920000  0.23960000  0.53730000  1.0 0.0794036926
H  H62  1  0.23960000  0.53730000  0.48920000  1.0 0.0794036926
H  H63  1  0.53730000  0.48920000  0.23960000  1.0 0.0794036926
H  H64  1  0.32370000  0.27480000  0.61570000  1.0 0.0897281003
H  H65  1  0.27480000  0.61570000  0.32370000  1.0 0.0897281003
H  H66  1  0.61570000  0.32370000  0.27480000  1.0 0.0897281003
H  H67  1  0.44670000  0.23590000  0.44820000  1.0 0.0794036926
H  H68  1  0.23590000  0.44820000  0.44670000  1.0 0.0794036926
H  H69  1  0.44820000  0.44670000  0.23590000  1.0 0.0794036926
H  H70  1  0.28460000  0.27430000  0.52510000  1.0 0.0897281003
H  H71  1  0.27430000  0.52510000  0.28460000  1.0 0.0897281003
H  H72  1  0.52510000  0.28460000  0.27430000  1.0 0.0897281003
H  H73  1  0.31390000  0.31900000  0.51650000  1.0 0.0794036926
H  H74  1  0.31900000  0.51650000  0.31390000  1.0 0.0794036926
H  H75  1  0.51650000  0.31390000  0.31900000  1.0 0.0794036926
H  H76  1  0.36750000  0.31380000  0.59620000  1.0 0.0703227268
H  H77  1  0.31380000  0.59620000  0.36750000  1.0 0.0703227268
H  H78  1  0.59620000  0.36750000  0.31380000  1.0 0.0703227268
H  H79  1  0.47720000  0.18110000  0.53850000  1.0 0.1198060664
H  H80  1  0.18110000  0.53850000  0.47720000  1.0 0.1198060664
H  H81  1  0.53850000  0.47720000  0.18110000  1.0 0.1198060664
H  H82  1  0.42330000  0.18420000  0.45790000  1.0 0.0998579464
H  H83  1  0.18420000  0.45790000  0.42330000  1.0 0.0998579464
H  H84  1  0.45790000  0.42330000  0.18420000  1.0 0.0998579464
H  H85  1  0.48500000  0.33350000  0.59820000  1.0 0.0794036926
H  H86  1  0.33350000  0.59820000  0.48500000  1.0 0.0794036926
H  H87  1  0.59820000  0.48500000  0.33350000  1.0 0.0794036926
H  H88  1  0.53210000  0.39560000  0.65430000  1.0 0.0897281003
H  H89  1  0.39560000  0.65430000  0.53210000  1.0 0.0897281003
H  H90  1  0.65430000  0.53210000  0.39560000  1.0 0.0897281003
H  H91  1  0.60160000  0.32300000  0.79330000  1.0 0.1405390589
H  H92  1  0.32300000  0.79330000  0.60160000  1.0 0.1405390589
H  H93  1  0.79330000  0.60160000  0.32300000  1.0 0.1405390589
H  H94  1  0.55850000  0.24080000  0.79350000  1.0 0.1198060664
H  H95  1  0.24080000  0.79350000  0.55850000  1.0 0.1198060664
H  H96  1  0.79350000  0.55850000  0.24080000  1.0 0.111012246
H  H97  1  0.51310000  0.47230000  0.74510000  1.0 0.0897281003
H  H98  1  0.47230000  0.74510000  0.51310000  1.0 0.0897281003
H  H99  1  0.74510000  0.51310000  0.47230000  1.0 0.0897281003
H  H100  1  0.56150000  0.55190000  0.75720000  1.0 0.0794036926
H  H101  1  0.55190000  0.75720000  0.56150000  1.0 0.0794036926
H  H102  1  0.75720000  0.56150000  0.55190000  1.0 0.0794036926
H  H103  1  0.71370000  0.47290000  0.74070000  1.0 0.0998579464
H  H104  1  0.47290000  0.74070000  0.71370000  1.0 0.0998579464
H  H105  1  0.74070000  0.71370000  0.47290000  1.0 0.0998579464
H  H106  1  0.67630000  0.38500000  0.73130000  1.0 0.0897281003
H  H107  1  0.38500000  0.73130000  0.67630000  1.0 0.0897281003
H  H108  1  0.73130000  0.67630000  0.38500000  1.0 0.0897281003
H  H109  1  0.43000000  0.25600000  0.80300000  1.0 0.111012246
H  H110  1  0.25600000  0.80300000  0.43000000  1.0 0.111012246
H  H111  1  0.80300000  0.43000000  0.25600000  1.0 0.111012246
H  H112  1  0.40530000  0.27490000  0.89760000  1.0 0.1476913712
H  H113  1  0.27490000  0.89760000  0.40530000  1.0 0.1476913712
H  H114  1  0.89760000  0.40530000  0.27490000  1.0 0.1476913712
H  H115  1  0.46320000  0.11220000  0.95380000  1.0 0.0703227268
H  H116  1  0.11220000  0.95380000  0.46320000  1.0 0.0703227268
H  H117  1  0.95380000  0.46320000  0.11220000  1.0 0.0703227268
H  H118  1  0.51150000  0.04400000  0.87500000  1.0 0.0794036926
H  H119  1  0.04400000  0.87500000  0.51150000  1.0 0.0794036926
H  H120  1  0.87500000  0.51150000  0.04400000  1.0 0.0794036926
H  H121  1  0.51270000  0.96000000  0.84110000  1.0 0.0794036926
H  H122  1  0.96000000  0.84110000  0.51270000  1.0 0.0794036926
H  H123  1  0.84110000  0.51270000  0.96000000  1.0 0.0794036926
H  H124  1  0.56090000  0.86830000  0.82400000  1.0 0.0897281003
H  H125  1  0.86830000  0.82400000  0.56090000  1.0 0.0897281003
H  H126  1  0.82400000  0.56090000  0.86830000  1.0 0.0897281003
H  H127  1  0.66800000  0.94450000  0.70010000  1.0 0.0897281003
H  H128  1  0.94450000  0.70010000  0.66800000  1.0 0.0897281003
H  H129  1  0.70010000  0.66800000  0.94450000  1.0 0.0897281003
H  H130  1  0.62090000  0.03400000  0.72130000  1.0 0.0794036926
H  H131  1  0.03400000  0.72130000  0.62090000  1.0 0.0794036926
H  H132  1  0.72130000  0.62090000  0.03400000  1.0 0.0794036926
H  H133  1  0.34170000  0.26340000  0.96460000  1.0 0.0794036926
H  H134  1  0.26340000  0.96460000  0.34170000  1.0 0.0794036926
H  H135  1  0.96460000  0.34170000  0.26340000  1.0 0.0794036926
H  H136  1  0.30290000  0.28290000  0.05680000  1.0 0.0897281003
H  H137  1  0.28290000  0.05680000  0.30290000  1.0 0.0897281003
H  H138  1  0.05680000  0.30290000  0.28290000  1.0 0.0897281003
H  H139  1  0.41020000  0.15600000  0.12050000  1.0 0.0703227268
H  H140  1  0.15600000  0.12050000  0.41020000  1.0 0.0703227268
H  H141  1  0.12050000  0.41020000  0.15600000  1.0 0.0703227268
H  H142  1  0.44310000  0.14140000  0.02240000  1.0 0.0608907643
H  H143  1  0.14140000  0.02240000  0.44310000  1.0 0.0608907643
H  H144  1  0.02240000  0.44310000  0.14140000  1.0 0.0608907643
C  C1  1  0.34980000  0.25190000  0.15910000  1.0 0.457403503
C  C2  1  0.25190000  0.15910000  0.34980000  1.0 0.457403503
C  C3  1  0.15910000  0.34980000  0.25190000  1.0 0.457403503
C  C4  1  0.38400000  0.23720000  0.09820000  1.0 -0.0115617191
C  C5  1  0.23720000  0.09820000  0.38400000  1.0 -0.0115617191
C  C6  1  0.09820000  0.38400000  0.23720000  1.0 -0.0115617191
C  C7  1  0.36340000  0.27020000  0.05220000  1.0 -0.050997122
C  C8  1  0.27020000  0.05220000  0.36340000  1.0 -0.050997122
C  C9  1  0.05220000  0.36340000  0.27020000  1.0 -0.0392837293
C  C10  1  0.42850000  0.19810000  0.09370000  1.0 -0.050997122
C  C11  1  0.19810000  0.09370000  0.42850000  1.0 -0.050997122
C  C12  1  0.09370000  0.42850000  0.19810000  1.0 -0.050997122
C  C13  1  0.39330000  0.25780000  0.99720000  1.0 -0.0266177199
C  C14  1  0.25780000  0.99720000  0.39330000  1.0 -0.0266177199
C  C15  1  0.99720000  0.39330000  0.25780000  1.0 -0.0266177199
C  C16  1  0.45270000  0.18580000  0.04100000  1.0 -0.050997122
C  C17  1  0.18580000  0.04100000  0.45270000  1.0 -0.050997122
C  C18  1  0.04100000  0.45270000  0.18580000  1.0 -0.050997122
C  C19  1  0.44140000  0.21750000  0.99300000  1.0 0.0362930853
C  C20  1  0.21750000  0.99300000  0.44140000  1.0 0.0362930853
C  C21  1  0.99300000  0.44140000  0.21750000  1.0 0.0362930853
C  C22  1  0.47290000  0.20980000  0.93650000  1.0 0.0205094743
C  C23  1  0.20980000  0.93650000  0.47290000  1.0 0.0205094743
C  C24  1  0.93650000  0.47290000  0.20980000  1.0 0.0205094743
C  C25  1  0.49110000  0.15160000  0.92520000  1.0 -0.0774194289
C  C26  1  0.15160000  0.92520000  0.49110000  1.0 -0.0774194289
C  C27  1  0.92520000  0.49110000  0.15160000  1.0 -0.0774194289
C  C28  1  0.47830000  0.24940000  0.88940000  1.0 0.111012246
C  C29  1  0.24940000  0.88940000  0.47830000  1.0 0.111012246
C  C30  1  0.88940000  0.47830000  0.24940000  1.0 0.111012246
C  C31  1  0.51880000  0.13620000  0.87300000  1.0 0.032392314
C  C32  1  0.13620000  0.87300000  0.51880000  1.0 0.032392314
C  C33  1  0.87300000  0.51880000  0.13620000  1.0 0.032392314
C  C34  1  0.50320000  0.24140000  0.83770000  1.0 -0.050997122
C  C35  1  0.24140000  0.83770000  0.50320000  1.0 -0.050997122
C  C36  1  0.83770000  0.50320000  0.24140000  1.0 -0.050997122
C  C37  1  0.53040000  0.18270000  0.82600000  1.0 -0.0392837293
C  C38  1  0.18270000  0.82600000  0.53040000  1.0 -0.0392837293
C  C39  1  0.82600000  0.53040000  0.18270000  1.0 -0.0392837293
C  C40  1  0.53950000  0.07680000  0.85860000  1.0 -0.0901465678
C  C41  1  0.07680000  0.85860000  0.53950000  1.0 -0.0901465678
C  C42  1  0.85860000  0.53950000  0.07680000  1.0 -0.0901465678
C  C43  1  0.50590000  0.28710000  0.78810000  1.0 0.0015715673
C  C44  1  0.28710000  0.78810000  0.50590000  1.0 0.0015715673
C  C45  1  0.78810000  0.50590000  0.28710000  1.0 0.0015715673
C  C46  1  0.56010000  0.16840000  0.77220000  1.0 -0.1648409792
C  C47  1  0.16840000  0.77220000  0.56010000  1.0 -0.1648409792
C  C48  1  0.77220000  0.56010000  0.16840000  1.0 -0.1648409792
C  C49  1  0.57270000  0.06710000  0.80780000  1.0 0.0362930853
C  C50  1  0.06710000  0.80780000  0.57270000  1.0 0.0362930853
C  C51  1  0.80780000  0.57270000  0.06710000  1.0 0.0362930853
C  C52  1  0.48200000  0.28120000  0.73300000  1.0 0.0205094743
C  C53  1  0.28120000  0.73300000  0.48200000  1.0 0.0205094743
C  C54  1  0.73300000  0.48200000  0.28120000  1.0 0.0205094743
C  C55  1  0.53060000  0.33460000  0.79270000  1.0 0.0897281003
C  C56  1  0.33460000  0.79270000  0.53060000  1.0 0.0897281003
C  C57  1  0.79270000  0.53060000  0.33460000  1.0 0.0897281003
C  C58  1  0.57640000  0.11200000  0.76310000  1.0 -0.0613061748
C  C59  1  0.11200000  0.76310000  0.57640000  1.0 -0.0613061748
C  C60  1  0.76310000  0.57640000  0.11200000  1.0 -0.0613061748
C  C61  1  0.60070000  0.00830000  0.79690000  1.0 -0.0115617191
C  C62  1  0.00830000  0.79690000  0.60070000  1.0 -0.0115617191
C  C63  1  0.79690000  0.60070000  0.00830000  1.0 -0.0115617191
C  C64  1  0.48490000  0.32390000  0.69010000  1.0 0.0205094743
C  C65  1  0.32390000  0.69010000  0.48490000  1.0 0.0205094743
C  C66  1  0.69010000  0.48490000  0.32390000  1.0 0.0205094743
C  C67  1  0.44750000  0.23740000  0.72820000  1.0 -0.0901465678
C  C68  1  0.23740000  0.72820000  0.44750000  1.0 -0.0901465678
C  C69  1  0.72820000  0.44750000  0.23740000  1.0 -0.0901465678
C  C70  1  0.53840000  0.37670000  0.74550000  1.0 0.0362930853
C  C71  1  0.37670000  0.74550000  0.53840000  1.0 0.0362930853
C  C72  1  0.74550000  0.53840000  0.37670000  1.0 0.0362930853
C  C73  1  0.64340000  0.00440000  0.75450000  1.0 -0.0613061748
C  C74  1  0.00440000  0.75450000  0.64340000  1.0 -0.0689172096
C  C75  1  0.75450000  0.64340000  0.00440000  1.0 -0.0689172096
C  C76  1  0.57660000  0.96650000  0.82620000  1.0 -0.0392837293
C  C77  1  0.96650000  0.82620000  0.57660000  1.0 -0.0266177199
C  C78  1  0.82620000  0.57660000  0.96650000  1.0 -0.0392837293
C  C79  1  0.51150000  0.36900000  0.69340000  1.0 -0.1002190379
C  C80  1  0.36900000  0.69340000  0.51150000  1.0 -0.1002190379
C  C81  1  0.69340000  0.51150000  0.36900000  1.0 -0.1002190379
C  C82  1  0.46250000  0.31990000  0.63820000  1.0 -0.1002190379
C  C83  1  0.31990000  0.63820000  0.46250000  1.0 -0.1002190379
C  C84  1  0.63820000  0.46250000  0.31990000  1.0 -0.1002190379
C  C85  1  0.42460000  0.23420000  0.67750000  1.0 -0.0689172096
C  C86  1  0.23420000  0.67750000  0.42460000  1.0 -0.0689172096
C  C87  1  0.67750000  0.42460000  0.23420000  1.0 -0.0689172096
C  C88  1  0.56910000  0.42600000  0.74710000  1.0 0.0515567936
C  C89  1  0.42600000  0.74710000  0.56910000  1.0 0.0515567936
C  C90  1  0.74710000  0.56910000  0.42600000  1.0 0.0515567936
C  C91  1  0.66160000  0.94750000  0.74400000  1.0 -0.050997122
C  C92  1  0.94750000  0.74400000  0.66160000  1.0 -0.050997122
C  C93  1  0.74400000  0.66160000  0.94750000  1.0 -0.050997122
C  C94  1  0.59810000  0.91240000  0.81320000  1.0 -0.0689172096
C  C95  1  0.91240000  0.81320000  0.59810000  1.0 -0.0689172096
C  C96  1  0.81320000  0.59810000  0.91240000  1.0 -0.0689172096
C  C97  1  0.43420000  0.27600000  0.63330000  1.0 0.0205094743
C  C98  1  0.27600000  0.63330000  0.43420000  1.0 0.0205094743
C  C99  1  0.63330000  0.43420000  0.27600000  1.0 0.0205094743
C  C100  1  0.62150000  0.43100000  0.71160000  1.0 -0.0225030785
C  C101  1  0.43100000  0.71160000  0.62150000  1.0 -0.0225030785
C  C102  1  0.71160000  0.62150000  0.43100000  1.0 -0.0225030785
C  C103  1  0.55030000  0.46390000  0.79160000  1.0 -0.050997122
C  C104  1  0.46390000  0.79160000  0.55030000  1.0 -0.050997122
C  C105  1  0.79160000  0.55030000  0.46390000  1.0 -0.050997122
C  C106  1  0.63832000  0.90060000  0.76948000  1.0 0.0205094743
C  C107  1  0.90060000  0.76948000  0.63832000  1.0 0.0104960248
C  C108  1  0.76948000  0.63832000  0.90060000  1.0 0.0104960248
C  C109  1  0.41000000  0.26580000  0.58070000  1.0 0.0515567936
C  C110  1  0.26580000  0.58070000  0.41000000  1.0 0.0515567936
C  C111  1  0.58070000  0.41000000  0.26580000  1.0 0.0515567936
C  C112  1  0.65670000  0.47860000  0.71070000  1.0 -0.0613061748
C  C113  1  0.47860000  0.71070000  0.65670000  1.0 -0.0613061748
C  C114  1  0.71070000  0.65670000  0.47860000  1.0 -0.0613061748
C  C115  1  0.58610000  0.51650000  0.79140000  1.0 -0.0689172096
C  C116  1  0.51650000  0.79140000  0.58610000  1.0 -0.0689172096
C  C117  1  0.79140000  0.58610000  0.51650000  1.0 -0.0689172096
C  C118  1  0.65097000  0.84081000  0.74819000  1.0 0.4504227361
C  C119  1  0.84081000  0.74819000  0.65097000  1.0 0.4504227361
C  C120  1  0.74819000  0.65097000  0.84081000  1.0 0.4504227361
C  C121  1  0.44890000  0.24830000  0.53470000  1.0 -0.0392837293
C  C122  1  0.24830000  0.53470000  0.44890000  1.0 -0.0392837293
C  C123  1  0.53470000  0.44890000  0.24830000  1.0 -0.0392837293
C  C124  1  0.34850000  0.27020000  0.58110000  1.0 -0.0774194289
C  C125  1  0.27020000  0.58110000  0.34850000  1.0 -0.0774194289
C  C126  1  0.58110000  0.34850000  0.27020000  1.0 -0.0689172096
C  C127  1  0.63869000  0.52279000  0.74359000  1.0 -0.0014801526
C  C128  1  0.52279000  0.74359000  0.63869000  1.0 -0.0014801526
C  C129  1  0.74359000  0.63869000  0.52279000  1.0 -0.0014801526
C  C130  1  0.42190000  0.24480000  0.48180000  1.0 -0.0689172096
C  C131  1  0.24480000  0.48180000  0.42190000  1.0 -0.0689172096
C  C132  1  0.48180000  0.42190000  0.24480000  1.0 -0.0689172096
C  C133  1  0.32520000  0.26710000  0.52680000  1.0 -0.0689172096
C  C134  1  0.26710000  0.52680000  0.32520000  1.0 -0.0689172096
C  C135  1  0.52680000  0.32520000  0.26710000  1.0 -0.0689172096
C  C136  1  0.66535000  0.57695000  0.74725000  1.0 0.5124179842
C  C137  1  0.57695000  0.74725000  0.66535000  1.0 0.5124179842
C  C138  1  0.74725000  0.66535000  0.57695000  1.0 0.5124179842
C  C139  1  0.36146000  0.25366000  0.47716000  1.0 -0.0266177199
C  C140  1  0.25366000  0.47716000  0.36146000  1.0 -0.0266177199
C  C141  1  0.47716000  0.36146000  0.25366000  1.0 -0.0266177199
C  C142  1  0.33743000  0.25223000  0.42303000  1.0 0.5048462472
C  C143  1  0.25223000  0.42303000  0.33743000  1.0 0.5048462472
C  C144  1  0.42303000  0.33743000  0.25223000  1.0 0.5048462472
C  C145  1  0.52250000  0.10860000  0.74960000  1.0 0.1198060664
C  C146  1  0.10860000  0.74960000  0.52250000  1.0 0.1198060664
C  C147  1  0.74960000  0.52250000  0.10860000  1.0 0.1198060664
C  C148  1  0.34650000  0.29090000  0.51950000  1.0 -0.0689172096
C  C149  1  0.29090000  0.51950000  0.34650000  1.0 -0.0689172096
C  C150  1  0.51950000  0.34650000  0.29090000  1.0 -0.0689172096
C  C151  1  0.37910000  0.28800000  0.56780000  1.0 -0.0115617191
C  C152  1  0.28800000  0.56780000  0.37910000  1.0 -0.0115617191
C  C153  1  0.56780000  0.37910000  0.28800000  1.0 -0.0115617191
C  C154  1  0.42700000  0.24840000  0.57390000  1.0 0.0515567936
C  C155  1  0.24840000  0.57390000  0.42700000  1.0 0.0515567936
C  C156  1  0.57390000  0.42700000  0.24840000  1.0 0.0515567936
C  C157  1  0.44460000  0.20870000  0.53390000  1.0 -0.0392837293
C  C158  1  0.20870000  0.53390000  0.44460000  1.0 -0.050997122
C  C159  1  0.53390000  0.44460000  0.20870000  1.0 -0.0392837293
C  C160  1  0.41190000  0.21100000  0.48540000  1.0 -0.0901465678
C  C161  1  0.21100000  0.48540000  0.41190000  1.0 -0.0901465678
C  C162  1  0.48540000  0.41190000  0.21100000  1.0 -0.0901465678
C  C163  1  0.46280000  0.25410000  0.62330000  1.0 0.0362930853
C  C164  1  0.25410000  0.62330000  0.46280000  1.0 0.0362930853
C  C165  1  0.62330000  0.46280000  0.25410000  1.0 0.0362930853
C  C166  1  0.48710000  0.30300000  0.62870000  1.0 -0.1002190379
C  C167  1  0.30300000  0.62870000  0.48710000  1.0 -0.1002190379
C  C168  1  0.62870000  0.48710000  0.30300000  1.0 -0.1002190379
C  C169  1  0.51460000  0.31110000  0.67560000  1.0 0.0205094743
C  C170  1  0.31110000  0.67560000  0.51460000  1.0 0.0205094743
C  C171  1  0.67560000  0.51460000  0.31110000  1.0 0.0205094743
C  C172  1  0.53740000  0.36270000  0.68190000  1.0 -0.0774194289
C  C173  1  0.36270000  0.68190000  0.53740000  1.0 -0.0774194289
C  C174  1  0.68190000  0.53740000  0.36270000  1.0 -0.0774194289
C  C175  1  0.56310000  0.36490000  0.72180000  1.0 0.0205094743
C  C176  1  0.36490000  0.72180000  0.56310000  1.0 0.0205094743
C  C177  1  0.72180000  0.56310000  0.36490000  1.0 0.0205094743
C  C178  1  0.57700000  0.31920000  0.76500000  1.0 -0.0689172096
C  C179  1  0.31920000  0.76500000  0.57700000  1.0 -0.0689172096
C  C180  1  0.76500000  0.57700000  0.31920000  1.0 -0.0689172096
C  C181  1  0.55360000  0.27150000  0.76350000  1.0 -0.0774194289
C  C182  1  0.27150000  0.76350000  0.55360000  1.0 -0.0774194289
C  C183  1  0.76350000  0.55360000  0.27150000  1.0 -0.0774194289
C  C184  1  0.52080000  0.26480000  0.71720000  1.0 0.0205094743
C  C185  1  0.26480000  0.71720000  0.52080000  1.0 0.0205094743
C  C186  1  0.71720000  0.52080000  0.26480000  1.0 0.0205094743
C  C187  1  0.49460000  0.21150000  0.71210000  1.0 0.0015715673
C  C188  1  0.21150000  0.71210000  0.49460000  1.0 0.0015715673
C  C189  1  0.71210000  0.49460000  0.21150000  1.0 0.0015715673
C  C190  1  0.47030000  0.20640000  0.66500000  1.0 0.0897281003
C  C191  1  0.20640000  0.66500000  0.47030000  1.0 0.0897281003
C  C192  1  0.66500000  0.47030000  0.20640000  1.0 0.0897281003
C  C193  1  0.59120000  0.42000000  0.73640000  1.0 0.0515567936
C  C194  1  0.42000000  0.73640000  0.59120000  1.0 0.0515567936
C  C195  1  0.73640000  0.59120000  0.42000000  1.0 0.0515567936
C  C196  1  0.55410000  0.47000000  0.74360000  1.0 -0.050997122
C  C197  1  0.47000000  0.74360000  0.55410000  1.0 -0.050997122
C  C198  1  0.74360000  0.55410000  0.47000000  1.0 -0.050997122
C  C199  1  0.58540000  0.51770000  0.74860000  1.0 -0.1002190379
C  C200  1  0.51770000  0.74860000  0.58540000  1.0 -0.0901465678
C  C201  1  0.74860000  0.58540000  0.51770000  1.0 -0.1002190379
C  C202  1  0.67340000  0.47280000  0.74000000  1.0 -0.1002190379
C  C203  1  0.47280000  0.74000000  0.67340000  1.0 -0.1002190379
C  C204  1  0.74000000  0.67340000  0.47280000  1.0 -0.1002190379
C  C205  1  0.65120000  0.41950000  0.73510000  1.0 -0.0774194289
C  C206  1  0.41950000  0.73510000  0.65120000  1.0 -0.0774194289
C  C207  1  0.73510000  0.65120000  0.41950000  1.0 -0.0774194289
C  C208  1  0.49750000  0.16330000  0.75890000  1.0 -0.0392837293
C  C209  1  0.16330000  0.75890000  0.49750000  1.0 -0.0392837293
C  C210  1  0.75890000  0.49750000  0.16330000  1.0 -0.0392837293
C  C211  1  0.47080000  0.17460000  0.81780000  1.0 -0.0225030785
C  C212  1  0.17460000  0.81780000  0.47080000  1.0 -0.0266177199
C  C213  1  0.81780000  0.47080000  0.17460000  1.0 -0.0266177199
C  C214  1  0.44000000  0.22700000  0.83310000  1.0 -0.1296754135
C  C215  1  0.22700000  0.83310000  0.44000000  1.0 -0.1296754135
C  C216  1  0.83310000  0.44000000  0.22700000  1.0 -0.1296754135
C  C217  1  0.42410000  0.23820000  0.88910000  1.0 -0.050997122
C  C218  1  0.23820000  0.88910000  0.42410000  1.0 -0.050997122
C  C219  1  0.88910000  0.42410000  0.23820000  1.0 -0.050997122
C  C220  1  0.43600000  0.19440000  0.93360000  1.0 0.0362930853
C  C221  1  0.19440000  0.93360000  0.43600000  1.0 0.032392314
C  C222  1  0.93360000  0.43600000  0.19440000  1.0 0.0362930853
C  C223  1  0.45970000  0.14150000  0.92230000  1.0 -0.1117792654
C  C224  1  0.14150000  0.92230000  0.45970000  1.0 -0.1117792654
C  C225  1  0.92230000  0.45970000  0.14150000  1.0 -0.1117792654
C  C226  1  0.48030000  0.12640000  0.86460000  1.0 0.032392314
C  C227  1  0.12640000  0.86460000  0.48030000  1.0 0.032392314
C  C228  1  0.86460000  0.48030000  0.12640000  1.0 0.032392314
C  C229  1  0.50820000  0.07550000  0.84560000  1.0 -0.0901465678
C  C230  1  0.07550000  0.84560000  0.50820000  1.0 -0.0901465678
C  C231  1  0.84560000  0.50820000  0.07550000  1.0 -0.0901465678
C  C232  1  0.53140000  0.06330000  0.79290000  1.0 0.0205094743
C  C233  1  0.06330000  0.79290000  0.53140000  1.0 0.0205094743
C  C234  1  0.79290000  0.53140000  0.06330000  1.0 0.0205094743
C  C235  1  0.56320000  0.00610000  0.78320000  1.0 0.0362930853
C  C236  1  0.00610000  0.78320000  0.56320000  1.0 0.032392314
C  C237  1  0.78320000  0.56320000  0.00610000  1.0 0.032392314
C  C238  1  0.54500000  0.95730000  0.81270000  1.0 -0.0689172096
C  C239  1  0.95730000  0.81270000  0.54500000  1.0 -0.0689172096
C  C240  1  0.81270000  0.54500000  0.95730000  1.0 -0.0689172096
C  C241  1  0.57320000  0.90220000  0.80210000  1.0 -0.050997122
C  C242  1  0.90220000  0.80210000  0.57320000  1.0 -0.050997122
C  C243  1  0.80210000  0.57320000  0.90220000  1.0 -0.050997122
C  C244  1  0.61760000  0.89870000  0.76060000  1.0 0.0104960248
C  C245  1  0.89870000  0.76060000  0.61760000  1.0 0.0104960248
C  C246  1  0.76060000  0.61760000  0.89870000  1.0 0.0104960248
C  C247  1  0.63650000  0.94690000  0.72950000  1.0 -0.050997122
C  C248  1  0.94690000  0.72950000  0.63650000  1.0 -0.050997122
C  C249  1  0.72950000  0.63650000  0.94690000  1.0 -0.050997122
C  C250  1  0.60780000  0.00000000  0.74260000  1.0 -0.0225030785
C  C251  1  0.00000000  0.74260000  0.60780000  1.0 -0.0225030785
C  C252  1  0.74260000  0.60780000  0.00000000  1.0 -0.0225030785
C  C253  1  0.40660000  0.20530000  0.99170000  1.0 0.0205094743
C  C254  1  0.20530000  0.99170000  0.40660000  1.0 0.0205094743
C  C255  1  0.99170000  0.40660000  0.20530000  1.0 0.0205094743
C  C256  1  0.35910000  0.24490000  0.99750000  1.0 -0.0901465678
C  C257  1  0.24490000  0.99750000  0.35910000  1.0 -0.0901465678
C  C258  1  0.99750000  0.35910000  0.24490000  1.0 -0.0774194289
C  C259  1  0.33740000  0.25750000  0.05190000  1.0 -0.0392837293
C  C260  1  0.25750000  0.05190000  0.33740000  1.0 -0.0392837293
C  C261  1  0.05190000  0.33740000  0.25750000  1.0 -0.0392837293
C  C262  1  0.36440000  0.23420000  0.09950000  1.0 0.0205094743
C  C263  1  0.23420000  0.09950000  0.36440000  1.0 0.0205094743
C  C264  1  0.09950000  0.36440000  0.23420000  1.0 0.0205094743
C  C265  1  0.39920000  0.18370000  0.08970000  1.0 -0.0392837293
C  C266  1  0.18370000  0.08970000  0.39920000  1.0 -0.0392837293
C  C267  1  0.08970000  0.39920000  0.18370000  1.0 -0.0392837293
C  C268  1  0.41830000  0.17550000  0.02960000  1.0 -0.0392837293
C  C269  1  0.17550000  0.02960000  0.41830000  1.0 -0.0392837293
C  C270  1  0.02960000  0.41830000  0.17550000  1.0 -0.0392837293
O  O1  1  0.29147000  0.29147000  0.29147000  1.0 -1.0131273546
O  O2  1  0.31741000  0.29768000  0.16098000  1.0 -0.5090291578
O  O3  1  0.29768000  0.16098000  0.31741000  1.0 -0.5090291578
O  O4  1  0.16098000  0.31741000  0.29768000  1.0 -0.5090291578
O  O5  1  0.36364000  0.22752000  0.38628000  1.0 -0.4577978828
O  O6  1  0.22752000  0.38628000  0.36364000  1.0 -0.4577978828
O  O7  1  0.38628000  0.36364000  0.22752000  1.0 -0.4577978828
O  O8  1  0.28638000  0.27924000  0.42298000  1.0 -0.5392291624
O  O9  1  0.27924000  0.42298000  0.28638000  1.0 -0.5392291624
O  O10  1  0.42298000  0.28638000  0.27924000  1.0 -0.5392291624
O  O11  1  0.36495000  0.21935000  0.20164000  1.0 -0.5177387474
O  O12  1  0.21935000  0.20164000  0.36495000  1.0 -0.5177387474
O  O13  1  0.20164000  0.36495000  0.21935000  1.0 -0.5177387474
O  O14  1  0.45859000  0.30539000  0.89989000  1.0 -0.3934883752
O  O15  1  0.30539000  0.89989000  0.45859000  1.0 -0.3934883752
O  O16  1  0.89989000  0.45859000  0.30539000  1.0 -0.3934883752
O  O17  1  0.55108000  0.33928000  0.84518000  1.0 -0.422631202
O  O18  1  0.33928000  0.84518000  0.55108000  1.0 -0.422631202
O  O19  1  0.84518000  0.55108000  0.33928000  1.0 -0.422631202
O  O20  1  0.47295000  0.40525000  0.89565000  1.0 -0.6940328557
O  O21  1  0.40525000  0.89565000  0.47295000  1.0 -0.6940328557
O  O22  1  0.89565000  0.47295000  0.40525000  1.0 -0.6940328557
O  O23  1  0.53740000  0.33080000  0.94690000  1.0 -0.6588107028
O  O24  1  0.33080000  0.94690000  0.53740000  1.0 -0.6588107028
O  O25  1  0.94690000  0.53740000  0.33080000  1.0 -0.6588107028
O  O26  1  0.68286000  0.83927000  0.70212000  1.0 -0.4986225643
O  O27  1  0.83927000  0.70212000  0.68286000  1.0 -0.4986225643
O  O28  1  0.70212000  0.68286000  0.83927000  1.0 -0.4986225643
O  O29  1  0.63464000  0.79797000  0.78036000  1.0 -0.5177387474
O  O30  1  0.79797000  0.78036000  0.63464000  1.0 -0.5177387474
O  O31  1  0.78036000  0.63464000  0.79797000  1.0 -0.5177387474
O  O32  1  0.71391000  0.57675000  0.72124000  1.0 -0.4914524335
O  O33  1  0.57675000  0.72124000  0.71391000  1.0 -0.4914524335
O  O34  1  0.72124000  0.71391000  0.57675000  1.0 -0.4914524335
O  O35  1  0.63707000  0.61390000  0.77227000  1.0 -0.4662907102
O  O36  1  0.61390000  0.77227000  0.63707000  1.0 -0.4662907102
O  O37  1  0.77227000  0.63707000  0.61390000  1.0 -0.4662907102
O  O38  1  0.70812000  0.70812000  0.70812000  1.0 -1.016963748
O  O39  1  0.44886000  0.15396000  0.66046000  1.0 -0.4145292122
O  O40  1  0.15396000  0.66046000  0.44886000  1.0 -0.4145292122
O  O41  1  0.66046000  0.44886000  0.15396000  1.0 -0.4145292122
O  O42  1  0.54138000  0.10108000  0.69318000  1.0 -0.3934883752
O  O43  1  0.10108000  0.69318000  0.54138000  1.0 -0.3934883752
O  O44  1  0.69318000  0.54138000  0.10108000  1.0 -0.3934883752
O  O45  1  0.46017000  0.05177000  0.67007000  1.0 -0.6779338696
O  O46  1  0.05177000  0.67007000  0.46017000  1.0 -0.6779338696
O  O47  1  0.67007000  0.46017000  0.05177000  1.0 -0.6779338696
O  O48  1  0.52710000  0.10410000  0.59410000  1.0 -0.6779338696
O  O49  1  0.10410000  0.59410000  0.52710000  1.0 -0.6779338696
O  O50  1  0.59410000  0.52710000  0.10410000  1.0 -0.6779338696
