# DDEC6 charges by PACMAN v1.1 (https://github.com/mtap-research/PACMAN-charge/)
data_SIDXOV_ASR_pacman
_symmetry_space_group_name_H-M   'P 1'
_cell_length_a   29.99050000
_cell_length_b   29.99050000
_cell_length_c   29.99050000
_cell_angle_alpha   109.47100000
_cell_angle_beta   109.47100000
_cell_angle_gamma   109.47100000
_symmetry_Int_Tables_number   1
_chemical_formula_structural   Co2H22C34N4O5
_chemical_formula_sum   'Co24 H264 C408 N48 O60'
_cell_volume   20765.04018552
_cell_formula_units_Z   12
loop_
 _symmetry_equiv_pos_site_id
 _symmetry_equiv_pos_as_xyz
  1  'x, y, z'
loop_
 _atom_site_type_symbol
 _atom_site_label
 _atom_site_symmetry_multiplicity
 _atom_site_fract_x
 _atom_site_fract_y
 _atom_site_fract_z
 _atom_site_occupancy
 _atom_site_charge
Co  Co1  1  0.24690000  0.13661000  0.49013000  1.0 0.7754588788
Co  Co2  1  0.64648000  0.75677000  0.50987000  1.0 0.7754588788
Co  Co3  1  0.75310000  0.24323000  0.88971000  1.0 0.7754588788
Co  Co4  1  0.35352000  0.86339000  0.11029000  1.0 0.7754588788
Co  Co5  1  0.86339000  0.11029000  0.35352000  1.0 0.7754588788
Co  Co6  1  0.24323000  0.88971000  0.75310000  1.0 0.7754588788
Co  Co7  1  0.75677000  0.50987000  0.64648000  1.0 0.7754588788
Co  Co8  1  0.13661000  0.49013000  0.24690000  1.0 0.7754588788
Co  Co9  1  0.88971000  0.75310000  0.24323000  1.0 0.7754588788
Co  Co10  1  0.11029000  0.35352000  0.86339000  1.0 0.7754588788
Co  Co11  1  0.49013000  0.24690000  0.13661000  1.0 0.7754588788
Co  Co12  1  0.50987000  0.64648000  0.75677000  1.0 0.7754588788
Co  Co13  1  0.75310000  0.86339000  0.50987000  1.0 0.7754588788
Co  Co14  1  0.35352000  0.24323000  0.49013000  1.0 0.7754588788
Co  Co15  1  0.24690000  0.75677000  0.11029000  1.0 0.7754588788
Co  Co16  1  0.64648000  0.13661000  0.88971000  1.0 0.7754588788
Co  Co17  1  0.13661000  0.88971000  0.64648000  1.0 0.7754588788
Co  Co18  1  0.75677000  0.11029000  0.24690000  1.0 0.7754588788
Co  Co19  1  0.24323000  0.49013000  0.35352000  1.0 0.7754588788
Co  Co20  1  0.86339000  0.50987000  0.75310000  1.0 0.7754588788
Co  Co21  1  0.11029000  0.24690000  0.75677000  1.0 0.7754588788
Co  Co22  1  0.88971000  0.64648000  0.13661000  1.0 0.7754588788
Co  Co23  1  0.50987000  0.75310000  0.86339000  1.0 0.7754588788
Co  Co24  1  0.49013000  0.35352000  0.24323000  1.0 0.7754588788
H  H1  1  0.25910000  0.03990000  0.43640000  1.0 0.1038568608
H  H2  1  0.21120000  0.95250000  0.36370000  1.0 0.1216365028
H  H3  1  0.08110000  0.97080000  0.31870000  1.0 0.1264859036
H  H4  1  0.13260000  0.05740000  0.39080000  1.0 0.1038568608
H  H5  1  0.03790000  0.87250000  0.28100000  1.0 0.1216365028
H  H6  1  0.34260000  0.17070000  0.59730000  1.0 0.1038568608
H  H7  1  0.37330000  0.14080000  0.65310000  1.0 0.1216365028
H  H8  1  0.23670000  0.99870000  0.55400000  1.0 0.1216365028
H  H9  1  0.21520000  0.03270000  0.49850000  1.0 0.0930219523
H  H10  1  0.25080000  0.99450000  0.62810000  1.0 0.1216365028
H  H11  1  0.60350000  0.82270000  0.56360000  1.0 0.1038568608
H  H12  1  0.58880000  0.84750000  0.63630000  1.0 0.1216365028
H  H13  1  0.65210000  0.76240000  0.68130000  1.0 0.1264859036
H  H14  1  0.66666667  0.74180000  0.60920000  1.0 0.1038568608
H  H15  1  0.59150000  0.75690000  0.71900000  1.0 0.1216365028
H  H16  1  0.57340000  0.74530000  0.40270000  1.0 0.1038568608
H  H17  1  0.48770000  0.72020000  0.34690000  1.0 0.1216365028
H  H18  1  0.44470000  0.68270000  0.44600000  1.0 0.1216365028
H  H19  1  0.53420000  0.71670000  0.50150000  1.0 0.0930219523
H  H20  1  0.36640000  0.62270000  0.37190000  1.0 0.1216365028
H  H21  1  0.74090000  0.17730000  0.78080000  1.0 0.1038568608
H  H22  1  0.78880000  0.15250000  0.74130000  1.0 0.1216365028
H  H23  1  0.91890000  0.23760000  0.88970000  1.0 0.1264859036
H  H24  1  0.86740000  0.25820000  0.92480000  1.0 0.1038568608
H  H25  1  0.96210000  0.24310000  0.83460000  1.0 0.1216365028
H  H26  1  0.65740000  0.25470000  0.82810000  1.0 0.1038568608
H  H27  1  0.62670000  0.27980000  0.76750000  1.0 0.1216365028
H  H28  1  0.76330000  0.31730000  0.76200000  1.0 0.1216365028
H  H29  1  0.78480000  0.28330000  0.81750000  1.0 0.0930219523
H  H30  1  0.74920000  0.37730000  0.74370000  1.0 0.1216365028
H  H31  1  0.39650000  0.96010000  0.21920000  1.0 0.1038568608
H  H32  1  0.41120000  0.04750000  0.25870000  1.0 0.1216365028
H  H33  1  0.34790000  0.02920000  0.11030000  1.0 0.1264859036
H  H34  1  0.33340000  0.94260000  0.07520000  1.0 0.1038568608
H  H35  1  0.40850000  0.12750000  0.16540000  1.0 0.1216365028
H  H36  1  0.42660000  0.82930000  0.17190000  1.0 0.1038568608
H  H37  1  0.51230000  0.85920000  0.23250000  1.0 0.1216365028
H  H38  1  0.55530000  0.00130000  0.23800000  1.0 0.1216365028
H  H39  1  0.46580000  0.96730000  0.18250000  1.0 0.0930219523
H  H40  1  0.63360000  0.00550000  0.25630000  1.0 0.1216365028
H  H41  1  0.96010000  0.21920000  0.39650000  1.0 0.1038568608
H  H42  1  0.04750000  0.25870000  0.41120000  1.0 0.1216365028
H  H43  1  0.02920000  0.11030000  0.34790000  1.0 0.1264859036
H  H44  1  0.94260000  0.07520000  0.33340000  1.0 0.1038568608
H  H45  1  0.12750000  0.16540000  0.40850000  1.0 0.1216365028
H  H46  1  0.82930000  0.17190000  0.42660000  1.0 0.1038568608
H  H47  1  0.85920000  0.23250000  0.51230000  1.0 0.1216365028
H  H48  1  0.00130000  0.23800000  0.55530000  1.0 0.1216365028
H  H49  1  0.96730000  0.18250000  0.46580000  1.0 0.0930219523
H  H50  1  0.00550000  0.25630000  0.63360000  1.0 0.1216365028
H  H51  1  0.17730000  0.78080000  0.74090000  1.0 0.1038568608
H  H52  1  0.15250000  0.74130000  0.78880000  1.0 0.1216365028
H  H53  1  0.23760000  0.88970000  0.91890000  1.0 0.1264859036
H  H54  1  0.25820000  0.92480000  0.86740000  1.0 0.1038568608
H  H55  1  0.24310000  0.83460000  0.96210000  1.0 0.1216365028
H  H56  1  0.25470000  0.82810000  0.65740000  1.0 0.1038568608
H  H57  1  0.27980000  0.76750000  0.62670000  1.0 0.1216365028
H  H58  1  0.31730000  0.76200000  0.76330000  1.0 0.1216365028
H  H59  1  0.28330000  0.81750000  0.78480000  1.0 0.0930219523
H  H60  1  0.37730000  0.74370000  0.74920000  1.0 0.1216365028
H  H61  1  0.82270000  0.56360000  0.60350000  1.0 0.1038568608
H  H62  1  0.84750000  0.63630000  0.58880000  1.0 0.1216365028
H  H63  1  0.76240000  0.68130000  0.65210000  1.0 0.1264859036
H  H64  1  0.74180000  0.60920000  0.66666667  1.0 0.1038568608
H  H65  1  0.75690000  0.71900000  0.59150000  1.0 0.1216365028
H  H66  1  0.74530000  0.40270000  0.57340000  1.0 0.1038568608
H  H67  1  0.72020000  0.34690000  0.48770000  1.0 0.1216365028
H  H68  1  0.68270000  0.44600000  0.44470000  1.0 0.1216365028
H  H69  1  0.71670000  0.50150000  0.53420000  1.0 0.0930219523
H  H70  1  0.62270000  0.37190000  0.36640000  1.0 0.1216365028
H  H71  1  0.03990000  0.43640000  0.25910000  1.0 0.1038568608
H  H72  1  0.95250000  0.36370000  0.21120000  1.0 0.1216365028
H  H73  1  0.97080000  0.31870000  0.08110000  1.0 0.1264859036
H  H74  1  0.05740000  0.39080000  0.13260000  1.0 0.1038568608
H  H75  1  0.87250000  0.28100000  0.03790000  1.0 0.1216365028
H  H76  1  0.17070000  0.59730000  0.34260000  1.0 0.1038568608
H  H77  1  0.14080000  0.65310000  0.37330000  1.0 0.1216365028
H  H78  1  0.99870000  0.55400000  0.23670000  1.0 0.1216365028
H  H79  1  0.03270000  0.49850000  0.21520000  1.0 0.0930219523
H  H80  1  0.99450000  0.62810000  0.25080000  1.0 0.1216365028
H  H81  1  0.78080000  0.74090000  0.17730000  1.0 0.1038568608
H  H82  1  0.74130000  0.78880000  0.15250000  1.0 0.1216365028
H  H83  1  0.88970000  0.91890000  0.23760000  1.0 0.1264859036
H  H84  1  0.92480000  0.86740000  0.25820000  1.0 0.1038568608
H  H85  1  0.83460000  0.96210000  0.24310000  1.0 0.1216365028
H  H86  1  0.82810000  0.65740000  0.25470000  1.0 0.1038568608
H  H87  1  0.76750000  0.62670000  0.27980000  1.0 0.1216365028
H  H88  1  0.76200000  0.76330000  0.31730000  1.0 0.1216365028
H  H89  1  0.81750000  0.78480000  0.28330000  1.0 0.0930219523
H  H90  1  0.74370000  0.74920000  0.37730000  1.0 0.1216365028
H  H91  1  0.21920000  0.39650000  0.96010000  1.0 0.1038568608
H  H92  1  0.25870000  0.41120000  0.04750000  1.0 0.1216365028
H  H93  1  0.11030000  0.34790000  0.02920000  1.0 0.1264859036
H  H94  1  0.07520000  0.33340000  0.94260000  1.0 0.1038568608
H  H95  1  0.16540000  0.40850000  0.12750000  1.0 0.1216365028
H  H96  1  0.17190000  0.42660000  0.82930000  1.0 0.1038568608
H  H97  1  0.23250000  0.51230000  0.85920000  1.0 0.1216365028
H  H98  1  0.23800000  0.55530000  0.00130000  1.0 0.1216365028
H  H99  1  0.18250000  0.46580000  0.96730000  1.0 0.0930219523
H  H100  1  0.25630000  0.63360000  0.00550000  1.0 0.1216365028
H  H101  1  0.43640000  0.25910000  0.03990000  1.0 0.1038568608
H  H102  1  0.36370000  0.21120000  0.95250000  1.0 0.1216365028
H  H103  1  0.31870000  0.08110000  0.97080000  1.0 0.1264859036
H  H104  1  0.39080000  0.13260000  0.05740000  1.0 0.1038568608
H  H105  1  0.28100000  0.03790000  0.87250000  1.0 0.1216365028
H  H106  1  0.59730000  0.34260000  0.17070000  1.0 0.1038568608
H  H107  1  0.65310000  0.37330000  0.14080000  1.0 0.1216365028
H  H108  1  0.55400000  0.23670000  0.99870000  1.0 0.1216365028
H  H109  1  0.49850000  0.21520000  0.03270000  1.0 0.0930219523
H  H110  1  0.62810000  0.25080000  0.99450000  1.0 0.1216365028
H  H111  1  0.56360000  0.60350000  0.82270000  1.0 0.1038568608
H  H112  1  0.63630000  0.58880000  0.84750000  1.0 0.1216365028
H  H113  1  0.68130000  0.65210000  0.76240000  1.0 0.1264859036
H  H114  1  0.60920000  0.66666667  0.74180000  1.0 0.1038568608
H  H115  1  0.71900000  0.59150000  0.75690000  1.0 0.1216365028
H  H116  1  0.40270000  0.57340000  0.74530000  1.0 0.1038568608
H  H117  1  0.34690000  0.48770000  0.72020000  1.0 0.1216365028
H  H118  1  0.44600000  0.44470000  0.68270000  1.0 0.1216365028
H  H119  1  0.50150000  0.53420000  0.71670000  1.0 0.0930219523
H  H120  1  0.37190000  0.36640000  0.62270000  1.0 0.1216365028
H  H121  1  0.74090000  0.96010000  0.56360000  1.0 0.1038568608
H  H122  1  0.78880000  0.04750000  0.63630000  1.0 0.1216365028
H  H123  1  0.91890000  0.02920000  0.68130000  1.0 0.1264859036
H  H124  1  0.86740000  0.94260000  0.60920000  1.0 0.1038568608
H  H125  1  0.96210000  0.12750000  0.71900000  1.0 0.1216365028
H  H126  1  0.65740000  0.82930000  0.40270000  1.0 0.1038568608
H  H127  1  0.62670000  0.85920000  0.34690000  1.0 0.1216365028
H  H128  1  0.76330000  0.00130000  0.44600000  1.0 0.1216365028
H  H129  1  0.78480000  0.96730000  0.50150000  1.0 0.0930219523
H  H130  1  0.74920000  0.00550000  0.37190000  1.0 0.1216365028
H  H131  1  0.39650000  0.17730000  0.43640000  1.0 0.1038568608
H  H132  1  0.41120000  0.15250000  0.36370000  1.0 0.1216365028
H  H133  1  0.34790000  0.23760000  0.31870000  1.0 0.1264859036
H  H134  1  0.33340000  0.25820000  0.39080000  1.0 0.1038568608
H  H135  1  0.40850000  0.24310000  0.28100000  1.0 0.1216365028
H  H136  1  0.42660000  0.25470000  0.59730000  1.0 0.1038568608
H  H137  1  0.51230000  0.27980000  0.65310000  1.0 0.1216365028
H  H138  1  0.55530000  0.31730000  0.55400000  1.0 0.1216365028
H  H139  1  0.46580000  0.28330000  0.49850000  1.0 0.0930219523
H  H140  1  0.63360000  0.37730000  0.62810000  1.0 0.1216365028
H  H141  1  0.25910000  0.82270000  0.21920000  1.0 0.1038568608
H  H142  1  0.21120000  0.84750000  0.25870000  1.0 0.1216365028
H  H143  1  0.08110000  0.76240000  0.11030000  1.0 0.1264859036
H  H144  1  0.13260000  0.74180000  0.07520000  1.0 0.1038568608
H  H145  1  0.03790000  0.75690000  0.16540000  1.0 0.1216365028
H  H146  1  0.34260000  0.74530000  0.17190000  1.0 0.1038568608
H  H147  1  0.37330000  0.72020000  0.23250000  1.0 0.1216365028
H  H148  1  0.23670000  0.68270000  0.23800000  1.0 0.1216365028
H  H149  1  0.21520000  0.71670000  0.18250000  1.0 0.0930219523
H  H150  1  0.25080000  0.62270000  0.25630000  1.0 0.1216365028
H  H151  1  0.60350000  0.03990000  0.78080000  1.0 0.1038568608
H  H152  1  0.58880000  0.95250000  0.74130000  1.0 0.1216365028
H  H153  1  0.65210000  0.97080000  0.88970000  1.0 0.1264859036
H  H154  1  0.66666667  0.05740000  0.92480000  1.0 0.1038568608
H  H155  1  0.59150000  0.87250000  0.83460000  1.0 0.1216365028
H  H156  1  0.57340000  0.17070000  0.82810000  1.0 0.1038568608
H  H157  1  0.48770000  0.14080000  0.76750000  1.0 0.1216365028
H  H158  1  0.44470000  0.99870000  0.76200000  1.0 0.1216365028
H  H159  1  0.53420000  0.03270000  0.81750000  1.0 0.0930219523
H  H160  1  0.36640000  0.99450000  0.74370000  1.0 0.1216365028
H  H161  1  0.03990000  0.78080000  0.60350000  1.0 0.1038568608
H  H162  1  0.95250000  0.74130000  0.58880000  1.0 0.1216365028
H  H163  1  0.97080000  0.88970000  0.65210000  1.0 0.1264859036
H  H164  1  0.05740000  0.92480000  0.66666667  1.0 0.1038568608
H  H165  1  0.87250000  0.83460000  0.59150000  1.0 0.1216365028
H  H166  1  0.17070000  0.82810000  0.57340000  1.0 0.1038568608
H  H167  1  0.14080000  0.76750000  0.48770000  1.0 0.1216365028
H  H168  1  0.99870000  0.76200000  0.44470000  1.0 0.1264859036
H  H169  1  0.03270000  0.81750000  0.53420000  1.0 0.0930219523
H  H170  1  0.99450000  0.74370000  0.36640000  1.0 0.1216365028
H  H171  1  0.82270000  0.21920000  0.25910000  1.0 0.1038568608
H  H172  1  0.84750000  0.25870000  0.21120000  1.0 0.1216365028
H  H173  1  0.76240000  0.11030000  0.08110000  1.0 0.1264859036
H  H174  1  0.74180000  0.07520000  0.13260000  1.0 0.1038568608
H  H175  1  0.75690000  0.16540000  0.03790000  1.0 0.1216365028
H  H176  1  0.74530000  0.17190000  0.34260000  1.0 0.1038568608
H  H177  1  0.72020000  0.23250000  0.37330000  1.0 0.1216365028
H  H178  1  0.68270000  0.23800000  0.23670000  1.0 0.1216365028
H  H179  1  0.71670000  0.18250000  0.21520000  1.0 0.0930219523
H  H180  1  0.62270000  0.25630000  0.25080000  1.0 0.1216365028
H  H181  1  0.17730000  0.43640000  0.39650000  1.0 0.1038568608
H  H182  1  0.15250000  0.36370000  0.41120000  1.0 0.1216365028
H  H183  1  0.23760000  0.31870000  0.34790000  1.0 0.1264859036
H  H184  1  0.25820000  0.39080000  0.33340000  1.0 0.1038568608
H  H185  1  0.24310000  0.28100000  0.40850000  1.0 0.1216365028
H  H186  1  0.25470000  0.59730000  0.42660000  1.0 0.1038568608
H  H187  1  0.27980000  0.65310000  0.51230000  1.0 0.1216365028
H  H188  1  0.31730000  0.55400000  0.55530000  1.0 0.1216365028
H  H189  1  0.28330000  0.49850000  0.46580000  1.0 0.0930219523
H  H190  1  0.37730000  0.62810000  0.63360000  1.0 0.1216365028
H  H191  1  0.96010000  0.56360000  0.74090000  1.0 0.1038568608
H  H192  1  0.04750000  0.63630000  0.78880000  1.0 0.1216365028
H  H193  1  0.02920000  0.68130000  0.91890000  1.0 0.1264859036
H  H194  1  0.94260000  0.60920000  0.86740000  1.0 0.1038568608
H  H195  1  0.12750000  0.71900000  0.96210000  1.0 0.1216365028
H  H196  1  0.82930000  0.40270000  0.65740000  1.0 0.1038568608
H  H197  1  0.85920000  0.34690000  0.62670000  1.0 0.1216365028
H  H198  1  0.00130000  0.44600000  0.76330000  1.0 0.1216365028
H  H199  1  0.96730000  0.50150000  0.78480000  1.0 0.0930219523
H  H200  1  0.00550000  0.37190000  0.74920000  1.0 0.1216365028
H  H201  1  0.21920000  0.25910000  0.82270000  1.0 0.1038568608
H  H202  1  0.25870000  0.21120000  0.84750000  1.0 0.1216365028
H  H203  1  0.11030000  0.08110000  0.76240000  1.0 0.1264859036
H  H204  1  0.07520000  0.13260000  0.74180000  1.0 0.1038568608
H  H205  1  0.16540000  0.03790000  0.75690000  1.0 0.1216365028
H  H206  1  0.17190000  0.34260000  0.74530000  1.0 0.1038568608
H  H207  1  0.23250000  0.37330000  0.72020000  1.0 0.1216365028
H  H208  1  0.23800000  0.23670000  0.68270000  1.0 0.1216365028
H  H209  1  0.18250000  0.21520000  0.71670000  1.0 0.0930219523
H  H210  1  0.25630000  0.25080000  0.62270000  1.0 0.1216365028
H  H211  1  0.78080000  0.60350000  0.03990000  1.0 0.1038568608
H  H212  1  0.74130000  0.58880000  0.95250000  1.0 0.1216365028
H  H213  1  0.88970000  0.65210000  0.97080000  1.0 0.1264859036
H  H214  1  0.92480000  0.66666667  0.05740000  1.0 0.1038568608
H  H215  1  0.83460000  0.59150000  0.87250000  1.0 0.1216365028
H  H216  1  0.82810000  0.57340000  0.17070000  1.0 0.1038568608
H  H217  1  0.76750000  0.48770000  0.14080000  1.0 0.1216365028
H  H218  1  0.76200000  0.44470000  0.99870000  1.0 0.1216365028
H  H219  1  0.81750000  0.53420000  0.03270000  1.0 0.0930219523
H  H220  1  0.74370000  0.36640000  0.99450000  1.0 0.1216365028
H  H221  1  0.56360000  0.74090000  0.96010000  1.0 0.1038568608
H  H222  1  0.63630000  0.78880000  0.04750000  1.0 0.1216365028
H  H223  1  0.68130000  0.91890000  0.02920000  1.0 0.1264859036
H  H224  1  0.60920000  0.86740000  0.94260000  1.0 0.1038568608
H  H225  1  0.71900000  0.96210000  0.12750000  1.0 0.1216365028
H  H226  1  0.40270000  0.65740000  0.82930000  1.0 0.1038568608
H  H227  1  0.34690000  0.62670000  0.85920000  1.0 0.1216365028
H  H228  1  0.44600000  0.76330000  0.00130000  1.0 0.1216365028
H  H229  1  0.50150000  0.78480000  0.96730000  1.0 0.0930219523
H  H230  1  0.37190000  0.74920000  0.00550000  1.0 0.1216365028
H  H231  1  0.43640000  0.39650000  0.17730000  1.0 0.1038568608
H  H232  1  0.36370000  0.41120000  0.15250000  1.0 0.1216365028
H  H233  1  0.31870000  0.34790000  0.23760000  1.0 0.1264859036
H  H234  1  0.39080000  0.33340000  0.25820000  1.0 0.1038568608
H  H235  1  0.28100000  0.40850000  0.24310000  1.0 0.1216365028
H  H236  1  0.59730000  0.42660000  0.25470000  1.0 0.1038568608
H  H237  1  0.65310000  0.51230000  0.27980000  1.0 0.1216365028
H  H238  1  0.55400000  0.55530000  0.31730000  1.0 0.1216365028
H  H239  1  0.49850000  0.46580000  0.28330000  1.0 0.0930219523
H  H240  1  0.62810000  0.63360000  0.37730000  1.0 0.1216365028
H  H241  1  0.17430000  0.90390000  0.27040000  1.0 0.109984767
H  H242  1  0.63350000  0.90390000  0.72960000  1.0 0.109984767
H  H243  1  0.82570000  0.09610000  0.72960000  1.0 0.109984767
H  H244  1  0.36650000  0.09610000  0.27040000  1.0 0.109984767
H  H245  1  0.09610000  0.27040000  0.36650000  1.0 0.109984767
H  H246  1  0.09610000  0.72960000  0.82570000  1.0 0.109984767
H  H247  1  0.90390000  0.72960000  0.63350000  1.0 0.109984767
H  H248  1  0.90390000  0.27040000  0.17430000  1.0 0.109984767
H  H249  1  0.72960000  0.82570000  0.09610000  1.0 0.109984767
H  H250  1  0.27040000  0.36650000  0.09610000  1.0 0.109984767
H  H251  1  0.27040000  0.17430000  0.90390000  1.0 0.109984767
H  H252  1  0.72960000  0.63350000  0.90390000  1.0 0.109984767
H  H253  1  0.40880000  0.09420000  0.68540000  1.0 0.109984767
H  H254  1  0.40880000  0.72340000  0.31460000  1.0 0.109984767
H  H255  1  0.59120000  0.27660000  0.68540000  1.0 0.109984767
H  H256  1  0.59120000  0.90580000  0.31460000  1.0 0.109984767
H  H257  1  0.90580000  0.31460000  0.59120000  1.0 0.109984767
H  H258  1  0.27660000  0.68540000  0.59120000  1.0 0.109984767
H  H259  1  0.72340000  0.31460000  0.40880000  1.0 0.109984767
H  H260  1  0.09420000  0.68540000  0.40880000  1.0 0.109984767
H  H261  1  0.68540000  0.59120000  0.27660000  1.0 0.109984767
H  H262  1  0.31460000  0.59120000  0.90580000  1.0 0.109984767
H  H263  1  0.68540000  0.40880000  0.09420000  1.0 0.109984767
H  H264  1  0.31460000  0.40880000  0.72340000  1.0 0.109984767
C  C1  1  0.22251000  0.02551000  0.41206000  1.0 0.0614518344
C  C2  1  0.19433000  0.97331000  0.36826000  1.0 -0.191405111
C  C3  1  0.14059000  0.95258000  0.33139000  1.0 0.109984767
C  C4  1  0.11781000  0.98423000  0.34168000  1.0 -0.2125289276
C  C5  1  0.14873000  0.03592000  0.38579000  1.0 0.0834436085
C  C6  1  0.11051000  0.89711000  0.28324000  1.0 0.0614518344
C  C7  1  0.05617000  0.86144000  0.26397000  1.0 -0.172924599
C  C8  1  0.32022000  0.13506000  0.58784000  1.0 0.0834436085
C  C9  1  0.33865000  0.11736000  0.62233000  1.0 -0.202249595
C  C10  1  0.30959000  0.06833000  0.61420000  1.0 0.1038568608
C  C11  1  0.25980000  0.03436000  0.56438000  1.0 -0.2192177608
C  C12  1  0.24709000  0.05622000  0.53223000  1.0 0.0473667365
C  C13  1  0.32733000  0.04668000  0.64979000  1.0 0.0614518344
C  C14  1  0.28745000  0.00679000  0.65018000  1.0 -0.164823307
C  C15  1  0.61345000  0.81045000  0.58794000  1.0 0.0614518344
C  C16  1  0.60505000  0.82607000  0.63174000  1.0 -0.191405111
C  C17  1  0.62119000  0.80920000  0.66861000  1.0 0.109984767
C  C18  1  0.64255000  0.77613000  0.65832000  1.0 -0.2125289276
C  C19  1  0.65013000  0.76294000  0.61421000  1.0 0.0834436085
C  C20  1  0.61387000  0.82727000  0.71676000  1.0 0.0614518344
C  C21  1  0.59747000  0.79220000  0.73603000  1.0 -0.172924599
C  C22  1  0.54722000  0.73238000  0.41216000  1.0 0.0834436085
C  C23  1  0.49503000  0.71632000  0.37767000  1.0 -0.202249595
C  C24  1  0.45413000  0.69539000  0.38580000  1.0 0.1038568608
C  C25  1  0.46998000  0.69542000  0.43562000  1.0 -0.2192177608
C  C26  1  0.52399000  0.71486000  0.46777000  1.0 0.0473667365
C  C27  1  0.39689000  0.67754000  0.35021000  1.0 0.0614518344
C  C28  1  0.35661000  0.63727000  0.34982000  1.0 -0.164823307
C  C29  1  0.77749000  0.18955000  0.80300000  1.0 0.0614518344
C  C30  1  0.80567000  0.17393000  0.77898000  1.0 -0.191405111
C  C31  1  0.85941000  0.19080000  0.81199000  1.0 0.109984767
C  C32  1  0.88219000  0.22387000  0.86642000  1.0 -0.2125289276
C  C33  1  0.85127000  0.23706000  0.88719000  1.0 0.0834436085
C  C34  1  0.88949000  0.17273000  0.78660000  1.0 0.0614518344
C  C35  1  0.94383000  0.20780000  0.80527000  1.0 -0.172924599
C  C36  1  0.67978000  0.26762000  0.81484000  1.0 0.0834436085
C  C37  1  0.66135000  0.28368000  0.77871000  1.0 -0.202249595
C  C38  1  0.69041000  0.30461000  0.75874000  1.0 0.1038568608
C  C39  1  0.74020000  0.30458000  0.77456000  1.0 -0.2192177608
C  C40  1  0.75291000  0.28514000  0.80913000  1.0 0.0473667365
C  C41  1  0.67267000  0.32246000  0.71935000  1.0 0.0614518344
C  C42  1  0.71255000  0.36273000  0.71934000  1.0 -0.164823307
C  C43  1  0.38655000  0.97449000  0.19700000  1.0 0.0614518344
C  C44  1  0.39495000  0.02669000  0.22102000  1.0 -0.191405111
C  C45  1  0.37881000  0.04742000  0.18801000  1.0 0.109984767
C  C46  1  0.35745000  0.01577000  0.13358000  1.0 -0.2125289276
C  C47  1  0.34987000  0.96408000  0.11281000  1.0 0.0834436085
C  C48  1  0.38613000  0.10289000  0.21340000  1.0 0.0614518344
C  C49  1  0.40253000  0.13856000  0.19473000  1.0 -0.172924599
C  C50  1  0.45278000  0.86494000  0.18516000  1.0 0.0834436085
C  C51  1  0.50497000  0.88264000  0.22129000  1.0 -0.202249595
C  C52  1  0.54587000  0.93167000  0.24126000  1.0 0.1038568608
C  C53  1  0.53002000  0.96564000  0.22544000  1.0 -0.2192177608
C  C54  1  0.47601000  0.94378000  0.19087000  1.0 0.0473667365
C  C55  1  0.60311000  0.95332000  0.28065000  1.0 0.0614518344
C  C56  1  0.64339000  0.99321000  0.28066000  1.0 -0.164823307
C  C57  1  0.97449000  0.19700000  0.38655000  1.0 0.0614518344
C  C58  1  0.02669000  0.22102000  0.39495000  1.0 -0.191405111
C  C59  1  0.04742000  0.18801000  0.37881000  1.0 0.109984767
C  C60  1  0.01577000  0.13358000  0.35745000  1.0 -0.2125289276
C  C61  1  0.96408000  0.11281000  0.34987000  1.0 0.0834436085
C  C62  1  0.10289000  0.21340000  0.38613000  1.0 0.0614518344
C  C63  1  0.13856000  0.19473000  0.40253000  1.0 -0.172924599
C  C64  1  0.86494000  0.18516000  0.45278000  1.0 0.0834436085
C  C65  1  0.88264000  0.22129000  0.50497000  1.0 -0.202249595
C  C66  1  0.93167000  0.24126000  0.54587000  1.0 0.1038568608
C  C67  1  0.96564000  0.22544000  0.53002000  1.0 -0.2192177608
C  C68  1  0.94378000  0.19087000  0.47601000  1.0 0.0473667365
C  C69  1  0.95332000  0.28065000  0.60311000  1.0 0.0614518344
C  C70  1  0.99321000  0.28066000  0.64339000  1.0 -0.164823307
C  C71  1  0.18955000  0.80300000  0.77749000  1.0 0.0614518344
C  C72  1  0.17393000  0.77898000  0.80567000  1.0 -0.191405111
C  C73  1  0.19080000  0.81199000  0.85941000  1.0 0.109984767
C  C74  1  0.22387000  0.86642000  0.88219000  1.0 -0.2125289276
C  C75  1  0.23706000  0.88719000  0.85127000  1.0 0.0834436085
C  C76  1  0.17273000  0.78660000  0.88949000  1.0 0.0614518344
C  C77  1  0.20780000  0.80527000  0.94383000  1.0 -0.172924599
C  C78  1  0.26762000  0.81484000  0.67978000  1.0 0.0834436085
C  C79  1  0.28368000  0.77871000  0.66135000  1.0 -0.202249595
C  C80  1  0.30461000  0.75874000  0.69041000  1.0 0.1038568608
C  C81  1  0.30458000  0.77456000  0.74020000  1.0 -0.2192177608
C  C82  1  0.28514000  0.80913000  0.75291000  1.0 0.0473667365
C  C83  1  0.32246000  0.71935000  0.67267000  1.0 0.0614518344
C  C84  1  0.36273000  0.71934000  0.71255000  1.0 -0.164823307
C  C85  1  0.81045000  0.58794000  0.61345000  1.0 0.0614518344
C  C86  1  0.82607000  0.63174000  0.60505000  1.0 -0.191405111
C  C87  1  0.80920000  0.66861000  0.62119000  1.0 0.109984767
C  C88  1  0.77613000  0.65832000  0.64255000  1.0 -0.2125289276
C  C89  1  0.76294000  0.61421000  0.65013000  1.0 0.0834436085
C  C90  1  0.82727000  0.71676000  0.61387000  1.0 0.0614518344
C  C91  1  0.79220000  0.73603000  0.59747000  1.0 -0.172924599
C  C92  1  0.73238000  0.41216000  0.54722000  1.0 0.0834436085
C  C93  1  0.71632000  0.37767000  0.49503000  1.0 -0.202249595
C  C94  1  0.69539000  0.38580000  0.45413000  1.0 0.1038568608
C  C95  1  0.69542000  0.43562000  0.46998000  1.0 -0.2192177608
C  C96  1  0.71486000  0.46777000  0.52399000  1.0 0.0473667365
C  C97  1  0.67754000  0.35021000  0.39689000  1.0 0.0614518344
C  C98  1  0.63727000  0.34982000  0.35661000  1.0 -0.164823307
C  C99  1  0.02551000  0.41206000  0.22251000  1.0 0.0614518344
C  C100  1  0.97331000  0.36826000  0.19433000  1.0 -0.191405111
C  C101  1  0.95258000  0.33139000  0.14059000  1.0 0.109984767
C  C102  1  0.98423000  0.34168000  0.11781000  1.0 -0.2125289276
C  C103  1  0.03592000  0.38579000  0.14873000  1.0 0.0834436085
C  C104  1  0.89711000  0.28324000  0.11051000  1.0 0.0614518344
C  C105  1  0.86144000  0.26397000  0.05617000  1.0 -0.172924599
C  C106  1  0.13506000  0.58784000  0.32022000  1.0 0.0834436085
C  C107  1  0.11736000  0.62233000  0.33865000  1.0 -0.202249595
C  C108  1  0.06833000  0.61420000  0.30959000  1.0 0.1038568608
C  C109  1  0.03436000  0.56438000  0.25980000  1.0 -0.2192177608
C  C110  1  0.05622000  0.53223000  0.24709000  1.0 0.0473667365
C  C111  1  0.04668000  0.64979000  0.32733000  1.0 0.0614518344
C  C112  1  0.00679000  0.65018000  0.28745000  1.0 -0.164823307
C  C113  1  0.80300000  0.77749000  0.18955000  1.0 0.0614518344
C  C114  1  0.77898000  0.80567000  0.17393000  1.0 -0.191405111
C  C115  1  0.81199000  0.85941000  0.19080000  1.0 0.109984767
C  C116  1  0.86642000  0.88219000  0.22387000  1.0 -0.2125289276
C  C117  1  0.88719000  0.85127000  0.23706000  1.0 0.0834436085
C  C118  1  0.78660000  0.88949000  0.17273000  1.0 0.0614518344
C  C119  1  0.80527000  0.94383000  0.20780000  1.0 -0.172924599
C  C120  1  0.81484000  0.67978000  0.26762000  1.0 0.0834436085
C  C121  1  0.77871000  0.66135000  0.28368000  1.0 -0.202249595
C  C122  1  0.75874000  0.69041000  0.30461000  1.0 0.1038568608
C  C123  1  0.77456000  0.74020000  0.30458000  1.0 -0.2192177608
C  C124  1  0.80913000  0.75291000  0.28514000  1.0 0.0473667365
C  C125  1  0.71935000  0.67267000  0.32246000  1.0 0.0614518344
C  C126  1  0.71934000  0.71255000  0.36273000  1.0 -0.164823307
C  C127  1  0.19700000  0.38655000  0.97449000  1.0 0.0614518344
C  C128  1  0.22102000  0.39495000  0.02669000  1.0 -0.191405111
C  C129  1  0.18801000  0.37881000  0.04742000  1.0 0.109984767
C  C130  1  0.13358000  0.35745000  0.01577000  1.0 -0.2125289276
C  C131  1  0.11281000  0.34987000  0.96408000  1.0 0.0834436085
C  C132  1  0.21340000  0.38613000  0.10289000  1.0 0.0614518344
C  C133  1  0.19473000  0.40253000  0.13856000  1.0 -0.172924599
C  C134  1  0.18516000  0.45278000  0.86494000  1.0 0.0834436085
C  C135  1  0.22129000  0.50497000  0.88264000  1.0 -0.202249595
C  C136  1  0.24126000  0.54587000  0.93167000  1.0 0.1038568608
C  C137  1  0.22544000  0.53002000  0.96564000  1.0 -0.2192177608
C  C138  1  0.19087000  0.47601000  0.94378000  1.0 0.0473667365
C  C139  1  0.28065000  0.60311000  0.95332000  1.0 0.0614518344
C  C140  1  0.28066000  0.64339000  0.99321000  1.0 -0.164823307
C  C141  1  0.41206000  0.22251000  0.02551000  1.0 0.0614518344
C  C142  1  0.36826000  0.19433000  0.97331000  1.0 -0.191405111
C  C143  1  0.33139000  0.14059000  0.95258000  1.0 0.109984767
C  C144  1  0.34168000  0.11781000  0.98423000  1.0 -0.2125289276
C  C145  1  0.38579000  0.14873000  0.03592000  1.0 0.0834436085
C  C146  1  0.28324000  0.11051000  0.89711000  1.0 0.0614518344
C  C147  1  0.26397000  0.05617000  0.86144000  1.0 -0.172924599
C  C148  1  0.58784000  0.32022000  0.13506000  1.0 0.0834436085
C  C149  1  0.62233000  0.33865000  0.11736000  1.0 -0.202249595
C  C150  1  0.61420000  0.30959000  0.06833000  1.0 0.1038568608
C  C151  1  0.56438000  0.25980000  0.03436000  1.0 -0.2192177608
C  C152  1  0.53223000  0.24709000  0.05622000  1.0 0.0473667365
C  C153  1  0.64979000  0.32733000  0.04668000  1.0 0.0614518344
C  C154  1  0.65018000  0.28745000  0.00679000  1.0 -0.164823307
C  C155  1  0.58794000  0.61345000  0.81045000  1.0 0.0614518344
C  C156  1  0.63174000  0.60505000  0.82607000  1.0 -0.191405111
C  C157  1  0.66861000  0.62119000  0.80920000  1.0 0.109984767
C  C158  1  0.65832000  0.64255000  0.77613000  1.0 -0.2125289276
C  C159  1  0.61421000  0.65013000  0.76294000  1.0 0.0834436085
C  C160  1  0.71676000  0.61387000  0.82727000  1.0 0.0614518344
C  C161  1  0.73603000  0.59747000  0.79220000  1.0 -0.172924599
C  C162  1  0.41216000  0.54722000  0.73238000  1.0 0.0834436085
C  C163  1  0.37767000  0.49503000  0.71632000  1.0 -0.202249595
C  C164  1  0.38580000  0.45413000  0.69539000  1.0 0.1038568608
C  C165  1  0.43562000  0.46998000  0.69542000  1.0 -0.2192177608
C  C166  1  0.46777000  0.52399000  0.71486000  1.0 0.0473667365
C  C167  1  0.35021000  0.39689000  0.67754000  1.0 0.0614518344
C  C168  1  0.34982000  0.35661000  0.63727000  1.0 -0.164823307
C  C169  1  0.77749000  0.97449000  0.58794000  1.0 0.0614518344
C  C170  1  0.80567000  0.02669000  0.63174000  1.0 -0.191405111
C  C171  1  0.85941000  0.04742000  0.66861000  1.0 0.109984767
C  C172  1  0.88219000  0.01577000  0.65832000  1.0 -0.2125289276
C  C173  1  0.85127000  0.96408000  0.61421000  1.0 0.0834436085
C  C174  1  0.88949000  0.10289000  0.71676000  1.0 0.0614518344
C  C175  1  0.94383000  0.13856000  0.73603000  1.0 -0.172924599
C  C176  1  0.67978000  0.86494000  0.41216000  1.0 0.0834436085
C  C177  1  0.66135000  0.88264000  0.37767000  1.0 -0.202249595
C  C178  1  0.69041000  0.93167000  0.38580000  1.0 0.1038568608
C  C179  1  0.74020000  0.96564000  0.43562000  1.0 -0.2192177608
C  C180  1  0.75291000  0.94378000  0.46777000  1.0 0.0473667365
C  C181  1  0.67267000  0.95332000  0.35021000  1.0 0.0614518344
C  C182  1  0.71255000  0.99321000  0.34982000  1.0 -0.164823307
C  C183  1  0.38655000  0.18955000  0.41206000  1.0 0.0614518344
C  C184  1  0.39495000  0.17393000  0.36826000  1.0 -0.191405111
C  C185  1  0.37881000  0.19080000  0.33139000  1.0 0.109984767
C  C186  1  0.35745000  0.22387000  0.34168000  1.0 -0.2125289276
C  C187  1  0.34987000  0.23706000  0.38579000  1.0 0.0834436085
C  C188  1  0.38613000  0.17273000  0.28324000  1.0 0.0614518344
C  C189  1  0.40253000  0.20780000  0.26397000  1.0 -0.172924599
C  C190  1  0.45278000  0.26762000  0.58784000  1.0 0.0834436085
C  C191  1  0.50497000  0.28368000  0.62233000  1.0 -0.202249595
C  C192  1  0.54587000  0.30461000  0.61420000  1.0 0.1038568608
C  C193  1  0.53002000  0.30458000  0.56438000  1.0 -0.2192177608
C  C194  1  0.47601000  0.28514000  0.53223000  1.0 0.0473667365
C  C195  1  0.60311000  0.32246000  0.64979000  1.0 0.0614518344
C  C196  1  0.64339000  0.36273000  0.65018000  1.0 -0.164823307
C  C197  1  0.22251000  0.81045000  0.19700000  1.0 0.0614518344
C  C198  1  0.19433000  0.82607000  0.22102000  1.0 -0.191405111
C  C199  1  0.14059000  0.80920000  0.18801000  1.0 0.109984767
C  C200  1  0.11781000  0.77613000  0.13358000  1.0 -0.2125289276
C  C201  1  0.14873000  0.76294000  0.11281000  1.0 0.0834436085
C  C202  1  0.11051000  0.82727000  0.21340000  1.0 0.0614518344
C  C203  1  0.05617000  0.79220000  0.19473000  1.0 -0.172924599
C  C204  1  0.32022000  0.73238000  0.18516000  1.0 0.0834436085
C  C205  1  0.33865000  0.71632000  0.22129000  1.0 -0.202249595
C  C206  1  0.30959000  0.69539000  0.24126000  1.0 0.1038568608
C  C207  1  0.25980000  0.69542000  0.22544000  1.0 -0.2192177608
C  C208  1  0.24709000  0.71486000  0.19087000  1.0 0.0473667365
C  C209  1  0.32733000  0.67754000  0.28065000  1.0 0.0614518344
C  C210  1  0.28745000  0.63727000  0.28066000  1.0 -0.164823307
C  C211  1  0.61345000  0.02551000  0.80300000  1.0 0.0614518344
C  C212  1  0.60505000  0.97331000  0.77898000  1.0 -0.191405111
C  C213  1  0.62119000  0.95258000  0.81199000  1.0 0.109984767
C  C214  1  0.64255000  0.98423000  0.86642000  1.0 -0.2125289276
C  C215  1  0.65013000  0.03592000  0.88719000  1.0 0.0834436085
C  C216  1  0.61387000  0.89711000  0.78660000  1.0 0.0614518344
C  C217  1  0.59747000  0.86144000  0.80527000  1.0 -0.172924599
C  C218  1  0.54722000  0.13506000  0.81484000  1.0 0.0834436085
C  C219  1  0.49503000  0.11736000  0.77871000  1.0 -0.202249595
C  C220  1  0.45413000  0.06833000  0.75874000  1.0 0.1038568608
C  C221  1  0.46998000  0.03436000  0.77456000  1.0 -0.2192177608
C  C222  1  0.52399000  0.05622000  0.80913000  1.0 0.0473667365
C  C223  1  0.39689000  0.04668000  0.71935000  1.0 0.0614518344
C  C224  1  0.35661000  0.00679000  0.71934000  1.0 -0.164823307
C  C225  1  0.02551000  0.80300000  0.61345000  1.0 0.0614518344
C  C226  1  0.97331000  0.77898000  0.60505000  1.0 -0.191405111
C  C227  1  0.95258000  0.81199000  0.62119000  1.0 0.109984767
C  C228  1  0.98423000  0.86642000  0.64255000  1.0 -0.2125289276
C  C229  1  0.03592000  0.88719000  0.65013000  1.0 0.0834436085
C  C230  1  0.89711000  0.78660000  0.61387000  1.0 0.0614518344
C  C231  1  0.86144000  0.80527000  0.59747000  1.0 -0.172924599
C  C232  1  0.13506000  0.81484000  0.54722000  1.0 0.0834436085
C  C233  1  0.11736000  0.77871000  0.49503000  1.0 -0.202249595
C  C234  1  0.06833000  0.75874000  0.45413000  1.0 0.1038568608
C  C235  1  0.03436000  0.77456000  0.46998000  1.0 -0.2192177608
C  C236  1  0.05622000  0.80913000  0.52399000  1.0 0.0473667365
C  C237  1  0.04668000  0.71935000  0.39689000  1.0 0.0614518344
C  C238  1  0.00679000  0.71934000  0.35661000  1.0 -0.164823307
C  C239  1  0.81045000  0.19700000  0.22251000  1.0 0.0614518344
C  C240  1  0.82607000  0.22102000  0.19433000  1.0 -0.191405111
C  C241  1  0.80920000  0.18801000  0.14059000  1.0 0.109984767
C  C242  1  0.77613000  0.13358000  0.11781000  1.0 -0.2125289276
C  C243  1  0.76294000  0.11281000  0.14873000  1.0 0.0834436085
C  C244  1  0.82727000  0.21340000  0.11051000  1.0 0.0614518344
C  C245  1  0.79220000  0.19473000  0.05617000  1.0 -0.172924599
C  C246  1  0.73238000  0.18516000  0.32022000  1.0 0.0834436085
C  C247  1  0.71632000  0.22129000  0.33865000  1.0 -0.202249595
C  C248  1  0.69539000  0.24126000  0.30959000  1.0 0.1038568608
C  C249  1  0.69542000  0.22544000  0.25980000  1.0 -0.2192177608
C  C250  1  0.71486000  0.19087000  0.24709000  1.0 0.0473667365
C  C251  1  0.67754000  0.28065000  0.32733000  1.0 0.0614518344
C  C252  1  0.63727000  0.28066000  0.28745000  1.0 -0.164823307
C  C253  1  0.18955000  0.41206000  0.38655000  1.0 0.0614518344
C  C254  1  0.17393000  0.36826000  0.39495000  1.0 -0.191405111
C  C255  1  0.19080000  0.33139000  0.37881000  1.0 0.109984767
C  C256  1  0.22387000  0.34168000  0.35745000  1.0 -0.2125289276
C  C257  1  0.23706000  0.38579000  0.34987000  1.0 0.0834436085
C  C258  1  0.17273000  0.28324000  0.38613000  1.0 0.0614518344
C  C259  1  0.20780000  0.26397000  0.40253000  1.0 -0.172924599
C  C260  1  0.26762000  0.58784000  0.45278000  1.0 0.0834436085
C  C261  1  0.28368000  0.62233000  0.50497000  1.0 -0.202249595
C  C262  1  0.30461000  0.61420000  0.54587000  1.0 0.1038568608
C  C263  1  0.30458000  0.56438000  0.53002000  1.0 -0.2192177608
C  C264  1  0.28514000  0.53223000  0.47601000  1.0 0.0473667365
C  C265  1  0.32246000  0.64979000  0.60311000  1.0 0.0614518344
C  C266  1  0.36273000  0.65018000  0.64339000  1.0 -0.164823307
C  C267  1  0.97449000  0.58794000  0.77749000  1.0 0.0614518344
C  C268  1  0.02669000  0.63174000  0.80567000  1.0 -0.191405111
C  C269  1  0.04742000  0.66861000  0.85941000  1.0 0.109984767
C  C270  1  0.01577000  0.65832000  0.88219000  1.0 -0.2125289276
C  C271  1  0.96408000  0.61421000  0.85127000  1.0 0.0834436085
C  C272  1  0.10289000  0.71676000  0.88949000  1.0 0.0614518344
C  C273  1  0.13856000  0.73603000  0.94383000  1.0 -0.172924599
C  C274  1  0.86494000  0.41216000  0.67978000  1.0 0.0834436085
C  C275  1  0.88264000  0.37767000  0.66135000  1.0 -0.202249595
C  C276  1  0.93167000  0.38580000  0.69041000  1.0 0.1038568608
C  C277  1  0.96564000  0.43562000  0.74020000  1.0 -0.2192177608
C  C278  1  0.94378000  0.46777000  0.75291000  1.0 0.0473667365
C  C279  1  0.95332000  0.35021000  0.67267000  1.0 0.0614518344
C  C280  1  0.99321000  0.34982000  0.71255000  1.0 -0.164823307
C  C281  1  0.19700000  0.22251000  0.81045000  1.0 0.0614518344
C  C282  1  0.22102000  0.19433000  0.82607000  1.0 -0.191405111
C  C283  1  0.18801000  0.14059000  0.80920000  1.0 0.109984767
C  C284  1  0.13358000  0.11781000  0.77613000  1.0 -0.2125289276
C  C285  1  0.11281000  0.14873000  0.76294000  1.0 0.0834436085
C  C286  1  0.21340000  0.11051000  0.82727000  1.0 0.0614518344
C  C287  1  0.19473000  0.05617000  0.79220000  1.0 -0.172924599
C  C288  1  0.18516000  0.32022000  0.73238000  1.0 0.0834436085
C  C289  1  0.22129000  0.33865000  0.71632000  1.0 -0.202249595
C  C290  1  0.24126000  0.30959000  0.69539000  1.0 0.1038568608
C  C291  1  0.22544000  0.25980000  0.69542000  1.0 -0.2192177608
C  C292  1  0.19087000  0.24709000  0.71486000  1.0 0.0473667365
C  C293  1  0.28065000  0.32733000  0.67754000  1.0 0.0614518344
C  C294  1  0.28066000  0.28745000  0.63727000  1.0 -0.164823307
C  C295  1  0.80300000  0.61345000  0.02551000  1.0 0.0614518344
C  C296  1  0.77898000  0.60505000  0.97331000  1.0 -0.191405111
C  C297  1  0.81199000  0.62119000  0.95258000  1.0 0.109984767
C  C298  1  0.86642000  0.64255000  0.98423000  1.0 -0.2125289276
C  C299  1  0.88719000  0.65013000  0.03592000  1.0 0.0834436085
C  C300  1  0.78660000  0.61387000  0.89711000  1.0 0.0614518344
C  C301  1  0.80527000  0.59747000  0.86144000  1.0 -0.172924599
C  C302  1  0.81484000  0.54722000  0.13506000  1.0 0.0834436085
C  C303  1  0.77871000  0.49503000  0.11736000  1.0 -0.202249595
C  C304  1  0.75874000  0.45413000  0.06833000  1.0 0.1038568608
C  C305  1  0.77456000  0.46998000  0.03436000  1.0 -0.2192177608
C  C306  1  0.80913000  0.52399000  0.05622000  1.0 0.0473667365
C  C307  1  0.71935000  0.39689000  0.04668000  1.0 0.0614518344
C  C308  1  0.71934000  0.35661000  0.00679000  1.0 -0.164823307
C  C309  1  0.58794000  0.77749000  0.97449000  1.0 0.0614518344
C  C310  1  0.63174000  0.80567000  0.02669000  1.0 -0.191405111
C  C311  1  0.66861000  0.85941000  0.04742000  1.0 0.109984767
C  C312  1  0.65832000  0.88219000  0.01577000  1.0 -0.2125289276
C  C313  1  0.61421000  0.85127000  0.96408000  1.0 0.0834436085
C  C314  1  0.71676000  0.88949000  0.10289000  1.0 0.0614518344
C  C315  1  0.73603000  0.94383000  0.13856000  1.0 -0.172924599
C  C316  1  0.41216000  0.67978000  0.86494000  1.0 0.0834436085
C  C317  1  0.37767000  0.66135000  0.88264000  1.0 -0.202249595
C  C318  1  0.38580000  0.69041000  0.93167000  1.0 0.1038568608
C  C319  1  0.43562000  0.74020000  0.96564000  1.0 -0.2192177608
C  C320  1  0.46777000  0.75291000  0.94378000  1.0 0.0473667365
C  C321  1  0.35021000  0.67267000  0.95332000  1.0 0.0614518344
C  C322  1  0.34982000  0.71255000  0.99321000  1.0 -0.164823307
C  C323  1  0.41206000  0.38655000  0.18955000  1.0 0.0614518344
C  C324  1  0.36826000  0.39495000  0.17393000  1.0 -0.191405111
C  C325  1  0.33139000  0.37881000  0.19080000  1.0 0.109984767
C  C326  1  0.34168000  0.35745000  0.22387000  1.0 -0.2125289276
C  C327  1  0.38579000  0.34987000  0.23706000  1.0 0.0834436085
C  C328  1  0.28324000  0.38613000  0.17273000  1.0 0.0614518344
C  C329  1  0.26397000  0.40253000  0.20780000  1.0 -0.172924599
C  C330  1  0.58784000  0.45278000  0.26762000  1.0 0.0834436085
C  C331  1  0.62233000  0.50497000  0.28368000  1.0 -0.202249595
C  C332  1  0.61420000  0.54587000  0.30461000  1.0 0.1038568608
C  C333  1  0.56438000  0.53002000  0.30458000  1.0 -0.2192177608
C  C334  1  0.53223000  0.47601000  0.28514000  1.0 0.0473667365
C  C335  1  0.64979000  0.60311000  0.32246000  1.0 0.0614518344
C  C336  1  0.65018000  0.64339000  0.36273000  1.0 -0.164823307
C  C337  1  0.13796000  0.88014000  0.25782000  1.0 -0.202249595
C  C338  1  0.02929000  0.80959000  0.21970000  1.0 -0.0116532816
C  C339  1  0.97223000  0.76970000  0.20253000  1.0 0.585698179
C  C340  1  0.62232000  0.88014000  0.74218000  1.0 -0.202249595
C  C341  1  0.58989000  0.80959000  0.78030000  1.0 -0.0116532816
C  C342  1  0.56717000  0.76970000  0.79747000  1.0 0.585698179
C  C343  1  0.86204000  0.11986000  0.74218000  1.0 -0.202249595
C  C344  1  0.97071000  0.19041000  0.78030000  1.0 -0.0116532816
C  C345  1  0.02777000  0.23030000  0.79747000  1.0 0.585698179
C  C346  1  0.37768000  0.11986000  0.25782000  1.0 -0.202249595
C  C347  1  0.41011000  0.19041000  0.21970000  1.0 -0.0116532816
C  C348  1  0.43283000  0.23030000  0.20253000  1.0 0.585698179
C  C349  1  0.11986000  0.25782000  0.37768000  1.0 -0.202249595
C  C350  1  0.19041000  0.21970000  0.41011000  1.0 -0.0116532816
C  C351  1  0.23030000  0.20253000  0.43283000  1.0 0.585698179
C  C352  1  0.11986000  0.74218000  0.86204000  1.0 -0.202249595
C  C353  1  0.19041000  0.78030000  0.97071000  1.0 -0.0116532816
C  C354  1  0.23030000  0.79747000  0.02777000  1.0 0.585698179
C  C355  1  0.88014000  0.74218000  0.62232000  1.0 -0.202249595
C  C356  1  0.80959000  0.78030000  0.58989000  1.0 -0.0116532816
C  C357  1  0.76970000  0.79747000  0.56717000  1.0 0.585698179
C  C358  1  0.88014000  0.25782000  0.13796000  1.0 -0.202249595
C  C359  1  0.80959000  0.21970000  0.02929000  1.0 -0.0116532816
C  C360  1  0.76970000  0.20253000  0.97223000  1.0 0.585698179
C  C361  1  0.74218000  0.86204000  0.11986000  1.0 -0.202249595
C  C362  1  0.78030000  0.97071000  0.19041000  1.0 -0.0116532816
C  C363  1  0.79747000  0.02777000  0.23030000  1.0 0.585698179
C  C364  1  0.25782000  0.37768000  0.11986000  1.0 -0.202249595
C  C365  1  0.21970000  0.41011000  0.19041000  1.0 -0.0116532816
C  C366  1  0.20253000  0.43283000  0.23030000  1.0 0.585698179
C  C367  1  0.25782000  0.13796000  0.88014000  1.0 -0.202249595
C  C368  1  0.21970000  0.02929000  0.80959000  1.0 -0.0116532816
C  C369  1  0.20253000  0.97223000  0.76970000  1.0 0.585698179
C  C370  1  0.74218000  0.62232000  0.88014000  1.0 -0.202249595
C  C371  1  0.78030000  0.58989000  0.80959000  1.0 -0.0116532816
C  C372  1  0.79747000  0.56717000  0.76970000  1.0 0.585698179
C  C373  1  0.38191000  0.06682000  0.68491000  1.0 -0.191405111
C  C374  1  0.30180000  0.98501000  0.68321000  1.0 -0.0200788189
C  C375  1  0.25875000  0.94342000  0.68467000  1.0 0.5638521032
C  C376  1  0.38191000  0.69700000  0.31509000  1.0 -0.191405111
C  C377  1  0.30180000  0.61859000  0.31679000  1.0 -0.0200788189
C  C378  1  0.25875000  0.57408000  0.31533000  1.0 0.5638521032
C  C379  1  0.61809000  0.30300000  0.68491000  1.0 -0.191405111
C  C380  1  0.69820000  0.38141000  0.68321000  1.0 -0.0200788189
C  C381  1  0.74125000  0.42592000  0.68467000  1.0 0.5638521032
C  C382  1  0.61809000  0.93318000  0.31509000  1.0 -0.191405111
C  C383  1  0.69820000  0.01499000  0.31679000  1.0 -0.0200788189
C  C384  1  0.74125000  0.05658000  0.31533000  1.0 0.5638521032
C  C385  1  0.93318000  0.31509000  0.61809000  1.0 -0.191405111
C  C386  1  0.01499000  0.31679000  0.69820000  1.0 -0.0200788189
C  C387  1  0.05658000  0.31533000  0.74125000  1.0 0.5638521032
C  C388  1  0.30300000  0.68491000  0.61809000  1.0 -0.191405111
C  C389  1  0.38141000  0.68321000  0.69820000  1.0 -0.0200788189
C  C390  1  0.42592000  0.68467000  0.74125000  1.0 0.5638521032
C  C391  1  0.69700000  0.31509000  0.38191000  1.0 -0.191405111
C  C392  1  0.61859000  0.31679000  0.30180000  1.0 -0.0200788189
C  C393  1  0.57408000  0.31533000  0.25875000  1.0 0.5638521032
C  C394  1  0.06682000  0.68491000  0.38191000  1.0 -0.191405111
C  C395  1  0.98501000  0.68321000  0.30180000  1.0 -0.0200788189
C  C396  1  0.94342000  0.68467000  0.25875000  1.0 0.5638521032
C  C397  1  0.68491000  0.61809000  0.30300000  1.0 -0.191405111
C  C398  1  0.68321000  0.69820000  0.38141000  1.0 -0.0200788189
C  C399  1  0.68467000  0.74125000  0.42592000  1.0 0.5638521032
C  C400  1  0.31509000  0.61809000  0.93318000  1.0 -0.191405111
C  C401  1  0.31679000  0.69820000  0.01499000  1.0 -0.0200788189
C  C402  1  0.31533000  0.74125000  0.05658000  1.0 0.5638521032
C  C403  1  0.68491000  0.38191000  0.06682000  1.0 -0.191405111
C  C404  1  0.68321000  0.30180000  0.98501000  1.0 -0.0200788189
C  C405  1  0.68467000  0.25875000  0.94342000  1.0 0.5638521032
C  C406  1  0.31509000  0.38191000  0.69700000  1.0 -0.191405111
C  C407  1  0.31679000  0.30180000  0.61859000  1.0 -0.0200788189
C  C408  1  0.31533000  0.25875000  0.57408000  1.0 0.5638521032
N  N1  1  0.19963000  0.05643000  0.42106000  1.0 -0.2499705202
N  N2  1  0.27428000  0.10646000  0.54302000  1.0 -0.2499705202
N  N3  1  0.63537000  0.77857000  0.57894000  1.0 -0.2499705202
N  N4  1  0.56344000  0.73126000  0.45698000  1.0 -0.2499705202
N  N5  1  0.80037000  0.22143000  0.85680000  1.0 -0.2499705202
N  N6  1  0.72572000  0.26874000  0.83218000  1.0 -0.2499705202
N  N7  1  0.36463000  0.94357000  0.14320000  1.0 -0.2499705202
N  N8  1  0.43656000  0.89354000  0.16782000  1.0 -0.2499705202
N  N9  1  0.94357000  0.14320000  0.36463000  1.0 -0.2499705202
N  N10  1  0.89354000  0.16782000  0.43656000  1.0 -0.2499705202
N  N11  1  0.22143000  0.85680000  0.80037000  1.0 -0.2499705202
N  N12  1  0.26874000  0.83218000  0.72572000  1.0 -0.2499705202
N  N13  1  0.77857000  0.57894000  0.63537000  1.0 -0.2499705202
N  N14  1  0.73126000  0.45698000  0.56344000  1.0 -0.2499705202
N  N15  1  0.05643000  0.42106000  0.19963000  1.0 -0.2499705202
N  N16  1  0.10646000  0.54302000  0.27428000  1.0 -0.2499705202
N  N17  1  0.85680000  0.80037000  0.22143000  1.0 -0.2499705202
N  N18  1  0.83218000  0.72572000  0.26874000  1.0 -0.2499705202
N  N19  1  0.14320000  0.36463000  0.94357000  1.0 -0.2499705202
N  N20  1  0.16782000  0.43656000  0.89354000  1.0 -0.2499705202
N  N21  1  0.42106000  0.19963000  0.05643000  1.0 -0.2499705202
N  N22  1  0.54302000  0.27428000  0.10646000  1.0 -0.2499705202
N  N23  1  0.57894000  0.63537000  0.77857000  1.0 -0.2499705202
N  N24  1  0.45698000  0.56344000  0.73126000  1.0 -0.2499705202
N  N25  1  0.80037000  0.94357000  0.57894000  1.0 -0.2499705202
N  N26  1  0.72572000  0.89354000  0.45698000  1.0 -0.2499705202
N  N27  1  0.36463000  0.22143000  0.42106000  1.0 -0.2499705202
N  N28  1  0.43656000  0.26874000  0.54302000  1.0 -0.2499705202
N  N29  1  0.19963000  0.77857000  0.14320000  1.0 -0.2499705202
N  N30  1  0.27428000  0.73126000  0.16782000  1.0 -0.2499705202
N  N31  1  0.63537000  0.05643000  0.85680000  1.0 -0.2499705202
N  N32  1  0.56344000  0.10646000  0.83218000  1.0 -0.2499705202
N  N33  1  0.05643000  0.85680000  0.63537000  1.0 -0.2499705202
N  N34  1  0.10646000  0.83218000  0.56344000  1.0 -0.2499705202
N  N35  1  0.77857000  0.14320000  0.19963000  1.0 -0.2499705202
N  N36  1  0.73126000  0.16782000  0.27428000  1.0 -0.2499705202
N  N37  1  0.22143000  0.42106000  0.36463000  1.0 -0.2499705202
N  N38  1  0.26874000  0.54302000  0.43656000  1.0 -0.2499705202
N  N39  1  0.94357000  0.57894000  0.80037000  1.0 -0.2499705202
N  N40  1  0.89354000  0.45698000  0.72572000  1.0 -0.2499705202
N  N41  1  0.14320000  0.19963000  0.77857000  1.0 -0.2499705202
N  N42  1  0.16782000  0.27428000  0.73126000  1.0 -0.2499705202
N  N43  1  0.85680000  0.63537000  0.05643000  1.0 -0.2499705202
N  N44  1  0.83218000  0.56344000  0.10646000  1.0 -0.2499705202
N  N45  1  0.57894000  0.80037000  0.94357000  1.0 -0.2499705202
N  N46  1  0.45698000  0.72572000  0.89354000  1.0 -0.2499705202
N  N47  1  0.42106000  0.36463000  0.22143000  1.0 -0.2499705202
N  N48  1  0.54302000  0.43656000  0.26874000  1.0 -0.2499705202
O  O1  1  0.95126000  0.72168000  0.16376000  1.0 -0.5596220825
O  O2  1  0.21153000  0.92845000  0.65374000  1.0 -0.5056171104
O  O3  1  0.55792000  0.78750000  0.83624000  1.0 -0.5596220825
O  O4  1  0.27471000  0.55779000  0.34626000  1.0 -0.5056171104
O  O5  1  0.04874000  0.21250000  0.77042000  1.0 -0.5596220825
O  O6  1  0.78847000  0.44221000  0.71692000  1.0 -0.5056171104
O  O7  1  0.44208000  0.27832000  0.22958000  1.0 -0.5596220825
O  O8  1  0.72529000  0.07155000  0.28308000  1.0 -0.5056171104
O  O9  1  0.27832000  0.22958000  0.44208000  1.0 -0.5596220825
O  O10  1  0.07155000  0.28308000  0.72529000  1.0 -0.5056171104
O  O11  1  0.21250000  0.77042000  0.04874000  1.0 -0.5596220825
O  O12  1  0.44221000  0.71692000  0.78847000  1.0 -0.5056171104
O  O13  1  0.78750000  0.83624000  0.55792000  1.0 -0.5596220825
O  O14  1  0.55779000  0.34626000  0.27471000  1.0 -0.5056171104
O  O15  1  0.72168000  0.16376000  0.95126000  1.0 -0.5596220825
O  O16  1  0.92845000  0.65374000  0.21153000  1.0 -0.5056171104
O  O17  1  0.77042000  0.04874000  0.21250000  1.0 -0.5596220825
O  O18  1  0.71692000  0.78847000  0.44221000  1.0 -0.5056171104
O  O19  1  0.22958000  0.44208000  0.27832000  1.0 -0.5596220825
O  O20  1  0.28308000  0.72529000  0.07155000  1.0 -0.5056171104
O  O21  1  0.16376000  0.95126000  0.72168000  1.0 -0.5596220825
O  O22  1  0.65374000  0.21153000  0.92845000  1.0 -0.5056171104
O  O23  1  0.83624000  0.55792000  0.78750000  1.0 -0.5596220825
O  O24  1  0.34626000  0.27471000  0.55779000  1.0 -0.5056171104
O  O25  1  0.04874000  0.27832000  0.83624000  1.0 -0.5596220825
O  O26  1  0.78847000  0.07155000  0.34626000  1.0 -0.5056171104
O  O27  1  0.44208000  0.21250000  0.16376000  1.0 -0.5596220825
O  O28  1  0.72529000  0.44221000  0.65374000  1.0 -0.5056171104
O  O29  1  0.95126000  0.78750000  0.22958000  1.0 -0.5596220825
O  O30  1  0.21153000  0.55779000  0.28308000  1.0 -0.5056171104
O  O31  1  0.55792000  0.72168000  0.77042000  1.0 -0.5596220825
O  O32  1  0.27471000  0.92845000  0.71692000  1.0 -0.5056171104
O  O33  1  0.72168000  0.77042000  0.55792000  1.0 -0.5596220825
O  O34  1  0.92845000  0.71692000  0.27471000  1.0 -0.5056171104
O  O35  1  0.78750000  0.22958000  0.95126000  1.0 -0.5596220825
O  O36  1  0.55779000  0.28308000  0.21153000  1.0 -0.5056171104
O  O37  1  0.21250000  0.16376000  0.44208000  1.0 -0.5596220825
O  O38  1  0.44221000  0.65374000  0.72529000  1.0 -0.5056171104
O  O39  1  0.27832000  0.83624000  0.04874000  1.0 -0.5596220825
O  O40  1  0.07155000  0.34626000  0.78847000  1.0 -0.5056171104
O  O41  1  0.22958000  0.95126000  0.78750000  1.0 -0.5596220825
O  O42  1  0.28308000  0.21153000  0.55779000  1.0 -0.5056171104
O  O43  1  0.77042000  0.55792000  0.72168000  1.0 -0.5596220825
O  O44  1  0.71692000  0.27471000  0.92845000  1.0 -0.5056171104
O  O45  1  0.83624000  0.04874000  0.27832000  1.0 -0.5596220825
O  O46  1  0.34626000  0.78847000  0.07155000  1.0 -0.5056171104
O  O47  1  0.16376000  0.44208000  0.21250000  1.0 -0.5596220825
O  O48  1  0.65374000  0.72529000  0.44221000  1.0 -0.5056171104
O  O49  1  0.32528000  0.16332000  0.48860000  1.0 -0.5422198906
O  O50  1  0.67472000  0.83668000  0.51140000  1.0 -0.5422198906
O  O51  1  0.67472000  0.16332000  0.83804000  1.0 -0.5422198906
O  O52  1  0.32528000  0.83668000  0.16196000  1.0 -0.5422198906
O  O53  1  0.83668000  0.16196000  0.32528000  1.0 -0.5422198906
O  O54  1  0.16332000  0.83804000  0.67472000  1.0 -0.5422198906
O  O55  1  0.83668000  0.51140000  0.67472000  1.0 -0.5422198906
O  O56  1  0.16332000  0.48860000  0.32528000  1.0 -0.5422198906
O  O57  1  0.83804000  0.67472000  0.16332000  1.0 -0.5422198906
O  O58  1  0.16196000  0.32528000  0.83668000  1.0 -0.5422198906
O  O59  1  0.48860000  0.32528000  0.16332000  1.0 -0.5422198906
O  O60  1  0.51140000  0.67472000  0.83668000  1.0 -0.5422198906
