# DDEC6 charges by PACMAN v1.1 (https://github.com/mtap-research/PACMAN-charge/)
data_SIGTOU_ASR_pacman
_symmetry_space_group_name_H-M   'P 1'
_cell_length_a   18.48300000
_cell_length_b   14.85600000
_cell_length_c   33.19000000
_cell_angle_alpha   90.00000000
_cell_angle_beta   97.73900000
_cell_angle_gamma   90.00000000
_symmetry_Int_Tables_number   1
_chemical_formula_structural   Cu8P2H12W18C12N18O53
_chemical_formula_sum   'Cu32 P8 H48 W72 C48 N72 O212'
_cell_volume   9030.41745908
_cell_formula_units_Z   4
loop_
 _symmetry_equiv_pos_site_id
 _symmetry_equiv_pos_as_xyz
  1  'x, y, z'
loop_
 _atom_site_type_symbol
 _atom_site_label
 _atom_site_symmetry_multiplicity
 _atom_site_fract_x
 _atom_site_fract_y
 _atom_site_fract_z
 _atom_site_occupancy
 _atom_site_charge
Cu  Cu1  1  0.54504000  0.29040000  0.37251000  1.0 0.689609501
Cu  Cu2  1  0.70345000  0.21266000  0.34176000  1.0 0.6761022988
Cu  Cu3  1  0.01845000  0.05383000  0.38786000  1.0 0.8123245272
Cu  Cu4  1  0.75578000  0.19044000  0.52042000  1.0 0.1409621676
Cu  Cu5  1  0.02701000  0.26339000  0.34973000  1.0 0.748177785
Cu  Cu6  1  0.72895000  0.96778000  0.20616000  1.0 0.3511820916
Cu  Cu7  1  0.18183000  0.14025000  0.37683000  1.0 0.5585921589
Cu  Cu8  1  0.54609000  0.24410000  0.27383000  1.0 0.7901164773
Cu  Cu9  1  0.45496000  0.79040000  0.12749000  1.0 0.689609501
Cu  Cu10  1  0.29655000  0.71266000  0.15824000  1.0 0.6737865093
Cu  Cu11  1  0.98155000  0.55383000  0.11214000  1.0 0.8123245272
Cu  Cu12  1  0.24422000  0.69044000  0.97958000  1.0 0.1409621676
Cu  Cu13  1  0.97299000  0.76339000  0.15027000  1.0 0.748177785
Cu  Cu14  1  0.27105000  0.46778000  0.29384000  1.0 0.3511820916
Cu  Cu15  1  0.81817000  0.64025000  0.12317000  1.0 0.5585921589
Cu  Cu16  1  0.45391000  0.74410000  0.22617000  1.0 0.7901164773
Cu  Cu17  1  0.45496000  0.70960000  0.62749000  1.0 0.689609501
Cu  Cu18  1  0.29655000  0.78734000  0.65824000  1.0 0.6737865093
Cu  Cu19  1  0.98155000  0.94617000  0.61214000  1.0 0.8123245272
Cu  Cu20  1  0.24422000  0.80956000  0.47958000  1.0 0.1409621676
Cu  Cu21  1  0.97299000  0.73661000  0.65027000  1.0 0.748177785
Cu  Cu22  1  0.27105000  0.03222000  0.79384000  1.0 0.3511820916
Cu  Cu23  1  0.81817000  0.85975000  0.62317000  1.0 0.5585921589
Cu  Cu24  1  0.45391000  0.75590000  0.72617000  1.0 0.7901164773
Cu  Cu25  1  0.54504000  0.20960000  0.87251000  1.0 0.689609501
Cu  Cu26  1  0.70345000  0.28734000  0.84176000  1.0 0.6761022988
Cu  Cu27  1  0.01845000  0.44617000  0.88786000  1.0 0.8123245272
Cu  Cu28  1  0.75578000  0.30956000  0.02042000  1.0 0.1519777725
Cu  Cu29  1  0.02701000  0.23661000  0.84973000  1.0 0.748177785
Cu  Cu30  1  0.72895000  0.53222000  0.70616000  1.0 0.3511820916
Cu  Cu31  1  0.18183000  0.35975000  0.87683000  1.0 0.5585921589
Cu  Cu32  1  0.54609000  0.25590000  0.77383000  1.0 0.7901164773
P  P1  1  0.83570000  0.66220000  0.36668000  1.0 1.2966026746
P  P2  1  0.33470000  0.26320000  0.57902000  1.0 1.2784073237
P  P3  1  0.16430000  0.16220000  0.13332000  1.0 1.2966026746
P  P4  1  0.66530000  0.76320000  0.92098000  1.0 1.2784073237
P  P5  1  0.16430000  0.33780000  0.63332000  1.0 1.2944458607
P  P6  1  0.66530000  0.73680000  0.42098000  1.0 1.2784073237
P  P7  1  0.83570000  0.83780000  0.86668000  1.0 1.2966026746
P  P8  1  0.33470000  0.23680000  0.07902000  1.0 1.2784073237
H  H1  1  0.83210000  0.06050000  0.37760000  1.0 0.1002255982
H  H2  1  0.39180000  0.35710000  0.24250000  1.0 0.0913342419
H  H3  1  0.11640000  0.42970000  0.31470000  1.0 0.1103187077
H  H4  1  0.28150000  0.27340000  0.33490000  1.0 0.0833815443
H  H5  1  0.27600000  0.98660000  0.43120000  1.0 0.1002255982
H  H6  1  0.09040000  0.86440000  0.42950000  1.0 0.1002255982
H  H7  1  0.58930000  0.09300000  0.21280000  1.0 0.1103187077
H  H8  1  0.39050000  0.38730000  0.35960000  1.0 0.1002255982
H  H9  1  0.61490000  0.29050000  0.46830000  1.0 0.1002255982
H  H10  1  0.78660000  0.19150000  0.43200000  1.0 0.1002255982
H  H11  1  0.77620000  0.08370000  0.28370000  1.0 0.1002255982
H  H12  1  0.85470000  0.29500000  0.32890000  1.0 0.1103187077
H  H13  1  0.16790000  0.56050000  0.12240000  1.0 0.1002255982
H  H14  1  0.60820000  0.85710000  0.25750000  1.0 0.0913342419
H  H15  1  0.88360000  0.92970000  0.18530000  1.0 0.1103187077
H  H16  1  0.71850000  0.77340000  0.16510000  1.0 0.0833815443
H  H17  1  0.72400000  0.48660000  0.06880000  1.0 0.1002255982
H  H18  1  0.90960000  0.36440000  0.07050000  1.0 0.1002255982
H  H19  1  0.41070000  0.59300000  0.28720000  1.0 0.1103187077
H  H20  1  0.60950000  0.88730000  0.14040000  1.0 0.1002255982
H  H21  1  0.38510000  0.79050000  0.03170000  1.0 0.1002255982
H  H22  1  0.21340000  0.69150000  0.06800000  1.0 0.1002255982
H  H23  1  0.22380000  0.58370000  0.21630000  1.0 0.1002255982
H  H24  1  0.14530000  0.79500000  0.17110000  1.0 0.1103187077
H  H25  1  0.16790000  0.93950000  0.62240000  1.0 0.1002255982
H  H26  1  0.60820000  0.64290000  0.75750000  1.0 0.0913342419
H  H27  1  0.88360000  0.57030000  0.68530000  1.0 0.1103187077
H  H28  1  0.71850000  0.72660000  0.66510000  1.0 0.0833815443
H  H29  1  0.72400000  0.01340000  0.56880000  1.0 0.1002255982
H  H30  1  0.90960000  0.13560000  0.57050000  1.0 0.1002255982
H  H31  1  0.41070000  0.90700000  0.78720000  1.0 0.1103187077
H  H32  1  0.60950000  0.61270000  0.64040000  1.0 0.1002255982
H  H33  1  0.38510000  0.70950000  0.53170000  1.0 0.1002255982
H  H34  1  0.21340000  0.80850000  0.56800000  1.0 0.1002255982
H  H35  1  0.22380000  0.91630000  0.71630000  1.0 0.1002255982
H  H36  1  0.14530000  0.70500000  0.67110000  1.0 0.1103187077
H  H37  1  0.83210000  0.43950000  0.87760000  1.0 0.1002255982
H  H38  1  0.39180000  0.14290000  0.74250000  1.0 0.0913342419
H  H39  1  0.11640000  0.07030000  0.81470000  1.0 0.1103187077
H  H40  1  0.28150000  0.22660000  0.83490000  1.0 0.0833815443
H  H41  1  0.27600000  0.51340000  0.93120000  1.0 0.1002255982
H  H42  1  0.09040000  0.63560000  0.92950000  1.0 0.1002255982
H  H43  1  0.58930000  0.40700000  0.71280000  1.0 0.1103187077
H  H44  1  0.39050000  0.11270000  0.85960000  1.0 0.1002255982
H  H45  1  0.61490000  0.20950000  0.96830000  1.0 0.1002255982
H  H46  1  0.78660000  0.30850000  0.93200000  1.0 0.1002255982
H  H47  1  0.77620000  0.41630000  0.78370000  1.0 0.1002255982
H  H48  1  0.85470000  0.20500000  0.82890000  1.0 0.1002255982
W  W1  1  0.74193000  0.46679000  0.33538000  1.0 2.4092064503
W  W2  1  0.75226000  0.94031000  0.44796000  1.0 2.3437203052
W  W3  1  0.21838000  0.25757000  0.48647000  1.0 2.4423785093
W  W4  1  0.58254000  0.53496000  0.38793000  1.0 2.4017992963
W  W5  1  0.91074000  0.86781000  0.39590000  1.0 2.4298640373
W  W6  1  0.64801000  0.92818000  0.35777000  1.0 2.379163492
W  W7  1  0.94317000  0.48621000  0.33893000  1.0 2.4195746862
W  W8  1  0.85745000  0.47912000  0.43420000  1.0 2.4092064503
W  W9  1  0.71916000  0.64410000  0.27371000  1.0 2.4017992963
W  W10  1  0.30218000  0.45111000  0.51460000  1.0 2.4195746862
W  W11  1  0.39843000  0.14267000  0.50020000  1.0 2.4017992963
W  W12  1  0.94260000  0.67188000  0.46229000  1.0 2.4423785093
W  W13  1  0.43978000  0.21271000  0.17337000  1.0 2.4298640373
W  W14  1  0.80755000  0.85625000  0.30519000  1.0 2.379163492
W  W15  1  0.50377000  0.15668000  0.59038000  1.0 2.4423785093
W  W16  1  0.02576000  0.68221000  0.36721000  1.0 2.4423785093
W  W17  1  0.91941000  0.66702000  0.27689000  1.0 2.4195746862
W  W18  1  0.47999000  0.33612000  0.52970000  1.0 2.3596205595
W  W19  1  0.25807000  0.96679000  0.16462000  1.0 2.4092064503
W  W20  1  0.24774000  0.44031000  0.05204000  1.0 2.3437203052
W  W21  1  0.78162000  0.75757000  0.01353000  1.0 2.4423785093
W  W22  1  0.41746000  0.03496000  0.11207000  1.0 2.4092064503
W  W23  1  0.08926000  0.36781000  0.10410000  1.0 2.4298640373
W  W24  1  0.35199000  0.42818000  0.14223000  1.0 2.379163492
W  W25  1  0.05683000  0.98621000  0.16107000  1.0 2.4195746862
W  W26  1  0.14255000  0.97912000  0.06580000  1.0 2.4092064503
W  W27  1  0.28084000  0.14410000  0.22629000  1.0 2.4092064503
W  W28  1  0.69782000  0.95111000  0.98540000  1.0 2.4195746862
W  W29  1  0.60157000  0.64267000  0.99980000  1.0 2.4017992963
W  W30  1  0.05740000  0.17188000  0.03771000  1.0 2.4423785093
W  W31  1  0.56022000  0.71271000  0.32663000  1.0 2.4298640373
W  W32  1  0.19245000  0.35625000  0.19481000  1.0 2.379163492
W  W33  1  0.49623000  0.65668000  0.90962000  1.0 2.4423785093
W  W34  1  0.97424000  0.18221000  0.13279000  1.0 2.4423785093
W  W35  1  0.08059000  0.16702000  0.22311000  1.0 2.4195746862
W  W36  1  0.52001000  0.83612000  0.97030000  1.0 2.3596205595
W  W37  1  0.25807000  0.53321000  0.66462000  1.0 2.4092064503
W  W38  1  0.24774000  0.05969000  0.55204000  1.0 2.3437203052
W  W39  1  0.78162000  0.74243000  0.51353000  1.0 2.4423785093
W  W40  1  0.41746000  0.46504000  0.61207000  1.0 2.4017992963
W  W41  1  0.08926000  0.13219000  0.60410000  1.0 2.4298640373
W  W42  1  0.35199000  0.07182000  0.64223000  1.0 2.379163492
W  W43  1  0.05683000  0.51379000  0.66107000  1.0 2.4195746862
W  W44  1  0.14255000  0.52088000  0.56580000  1.0 2.4092064503
W  W45  1  0.28084000  0.35590000  0.72629000  1.0 2.4017992963
W  W46  1  0.69782000  0.54889000  0.48540000  1.0 2.4195746862
W  W47  1  0.60157000  0.85733000  0.49980000  1.0 2.4017992963
W  W48  1  0.05740000  0.32812000  0.53771000  1.0 2.4423785093
W  W49  1  0.56022000  0.78729000  0.82663000  1.0 2.4298640373
W  W50  1  0.19245000  0.14375000  0.69481000  1.0 2.379163492
W  W51  1  0.49623000  0.84332000  0.40962000  1.0 2.4423785093
W  W52  1  0.97424000  0.31779000  0.63279000  1.0 2.4423785093
W  W53  1  0.08059000  0.33298000  0.72311000  1.0 2.4195746862
W  W54  1  0.52001000  0.66388000  0.47030000  1.0 2.3596205595
W  W55  1  0.74193000  0.03321000  0.83538000  1.0 2.4092064503
W  W56  1  0.75226000  0.55969000  0.94796000  1.0 2.3437203052
W  W57  1  0.21838000  0.24243000  0.98647000  1.0 2.4423785093
W  W58  1  0.58254000  0.96504000  0.88793000  1.0 2.4017992963
W  W59  1  0.91074000  0.63219000  0.89590000  1.0 2.4298640373
W  W60  1  0.64801000  0.57182000  0.85777000  1.0 2.379163492
W  W61  1  0.94317000  0.01379000  0.83893000  1.0 2.4195746862
W  W62  1  0.85745000  0.02088000  0.93420000  1.0 2.4092064503
W  W63  1  0.71916000  0.85590000  0.77371000  1.0 2.4017992963
W  W64  1  0.30218000  0.04889000  0.01460000  1.0 2.4195746862
W  W65  1  0.39843000  0.35733000  0.00020000  1.0 2.3949794653
W  W66  1  0.94260000  0.82812000  0.96229000  1.0 2.4423785093
W  W67  1  0.43978000  0.28729000  0.67337000  1.0 2.4298640373
W  W68  1  0.80755000  0.64375000  0.80519000  1.0 2.379163492
W  W69  1  0.50377000  0.34332000  0.09038000  1.0 2.4423785093
W  W70  1  0.02576000  0.81779000  0.86721000  1.0 2.4423785093
W  W71  1  0.91941000  0.83298000  0.77689000  1.0 2.4195746862
W  W72  1  0.47999000  0.16388000  0.02970000  1.0 2.3596205595
C  C1  1  0.85270000  0.11210000  0.36810000  1.0 0.1409621676
C  C2  1  0.40430000  0.35380000  0.27060000  1.0 0.1295021768
C  C3  1  0.14620000  0.38090000  0.32300000  1.0 0.1519777725
C  C4  1  0.23470000  0.29660000  0.33430000  1.0 0.1193144624
C  C5  1  0.22630000  0.97370000  0.42630000  1.0 0.1002255982
C  C6  1  0.12560000  0.90680000  0.42510000  1.0 0.1193144624
C  C7  1  0.62750000  0.10490000  0.23340000  1.0 0.1295021768
C  C8  1  0.40420000  0.37000000  0.33470000  1.0 0.1193144624
C  C9  1  0.64840000  0.27140000  0.45160000  1.0 0.1295021768
C  C10  1  0.74120000  0.21840000  0.43190000  1.0 0.1103187077
C  C11  1  0.72930000  0.10000000  0.27230000  1.0 0.1193144624
C  C12  1  0.86510000  0.23990000  0.34170000  1.0 0.1519777725
C  C13  1  0.14730000  0.61210000  0.13190000  1.0 0.1409621676
C  C14  1  0.59570000  0.85380000  0.22940000  1.0 0.1295021768
C  C15  1  0.85380000  0.88090000  0.17700000  1.0 0.1519777725
C  C16  1  0.76530000  0.79660000  0.16570000  1.0 0.1193144624
C  C17  1  0.77370000  0.47370000  0.07370000  1.0 0.1002255982
C  C18  1  0.87440000  0.40680000  0.07490000  1.0 0.1193144624
C  C19  1  0.37250000  0.60490000  0.26660000  1.0 0.1295021768
C  C20  1  0.59580000  0.87000000  0.16530000  1.0 0.1193144624
C  C21  1  0.35160000  0.77140000  0.04840000  1.0 0.1295021768
C  C22  1  0.25880000  0.71840000  0.06810000  1.0 0.1103187077
C  C23  1  0.27070000  0.60000000  0.22770000  1.0 0.1193144624
C  C24  1  0.13490000  0.73990000  0.15830000  1.0 0.1519777725
C  C25  1  0.14730000  0.88790000  0.63190000  1.0 0.1409621676
C  C26  1  0.59570000  0.64620000  0.72940000  1.0 0.1295021768
C  C27  1  0.85380000  0.61910000  0.67700000  1.0 0.1519777725
C  C28  1  0.76530000  0.70340000  0.66570000  1.0 0.1193144624
C  C29  1  0.77370000  0.02630000  0.57370000  1.0 0.1002255982
C  C30  1  0.87440000  0.09320000  0.57490000  1.0 0.1193144624
C  C31  1  0.37250000  0.89510000  0.76660000  1.0 0.1295021768
C  C32  1  0.59580000  0.63000000  0.66530000  1.0 0.1193144624
C  C33  1  0.35160000  0.72860000  0.54840000  1.0 0.1295021768
C  C34  1  0.25880000  0.78160000  0.56810000  1.0 0.1103187077
C  C35  1  0.27070000  0.90000000  0.72770000  1.0 0.1193144624
C  C36  1  0.13490000  0.76010000  0.65830000  1.0 0.1519777725
C  C37  1  0.85270000  0.38790000  0.86810000  1.0 0.1409621676
C  C38  1  0.40430000  0.14620000  0.77060000  1.0 0.1295021768
C  C39  1  0.14620000  0.11910000  0.82300000  1.0 0.1519777725
C  C40  1  0.23470000  0.20340000  0.83430000  1.0 0.1193144624
C  C41  1  0.22630000  0.52630000  0.92630000  1.0 0.1002255982
C  C42  1  0.12560000  0.59320000  0.92510000  1.0 0.1193144624
C  C43  1  0.62750000  0.39510000  0.73340000  1.0 0.1295021768
C  C44  1  0.40420000  0.13000000  0.83470000  1.0 0.1193144624
C  C45  1  0.64840000  0.22860000  0.95160000  1.0 0.1295021768
C  C46  1  0.74120000  0.28160000  0.93190000  1.0 0.1103187077
C  C47  1  0.72930000  0.40000000  0.77230000  1.0 0.1193144624
C  C48  1  0.86510000  0.26010000  0.84170000  1.0 0.1519777725
N  N1  1  0.63630000  0.27180000  0.41210000  1.0 -0.2113528778
N  N2  1  0.18320000  0.25250000  0.34790000  1.0 -0.2180441779
N  N3  1  0.12180000  0.30720000  0.33990000  1.0 -0.2180441779
N  N4  1  0.93010000  0.20870000  0.35190000  1.0 -0.2180441779
N  N5  1  0.11090000  0.98460000  0.40440000  1.0 -0.2113528778
N  N6  1  0.71490000  0.24020000  0.46530000  1.0 -0.3016340924
N  N7  1  0.69250000  0.06210000  0.23770000  1.0 -0.3217136678
N  N8  1  0.36580000  0.39160000  0.29830000  1.0 -0.3472297308
N  N9  1  0.46330000  0.31080000  0.28980000  1.0 -0.2314117667
N  N10  1  0.62530000  0.16720000  0.26280000  1.0 -0.1955531803
N  N11  1  0.69010000  0.16200000  0.28730000  1.0 -0.1900007096
N  N12  1  0.81360000  0.18200000  0.35210000  1.0 -0.3951200959
N  N13  1  0.17700000  0.02850000  0.40630000  1.0 -0.2180441779
N  N14  1  0.19690000  0.89840000  0.43840000  1.0 -0.3110487354
N  N15  1  0.69750000  0.23770000  0.39810000  1.0 -0.1955531803
N  N16  1  0.92430000  0.12380000  0.36910000  1.0 -0.2377244052
N  N17  1  0.21600000  0.37860000  0.31920000  1.0 -0.3356417161
N  N18  1  0.46370000  0.32270000  0.33080000  1.0 -0.2180441779
N  N19  1  0.36370000  0.77180000  0.08790000  1.0 -0.2113528778
N  N20  1  0.81680000  0.75250000  0.15210000  1.0 -0.2180441779
N  N21  1  0.87820000  0.80720000  0.16010000  1.0 -0.2180441779
N  N22  1  0.06990000  0.70870000  0.14810000  1.0 -0.2180441779
N  N23  1  0.88910000  0.48460000  0.09560000  1.0 -0.2113528778
N  N24  1  0.28510000  0.74020000  0.03470000  1.0 -0.3016340924
N  N25  1  0.30750000  0.56210000  0.26230000  1.0 -0.3217136678
N  N26  1  0.63420000  0.89160000  0.20170000  1.0 -0.3472297308
N  N27  1  0.53670000  0.81080000  0.21020000  1.0 -0.2314117667
N  N28  1  0.37470000  0.66720000  0.23720000  1.0 -0.1955531803
N  N29  1  0.30990000  0.66200000  0.21270000  1.0 -0.1900007096
N  N30  1  0.18640000  0.68200000  0.14790000  1.0 -0.3951200959
N  N31  1  0.82300000  0.52850000  0.09370000  1.0 -0.2180441779
N  N32  1  0.80310000  0.39840000  0.06160000  1.0 -0.3110487354
N  N33  1  0.30250000  0.73770000  0.10190000  1.0 -0.1955531803
N  N34  1  0.07570000  0.62380000  0.13090000  1.0 -0.2377244052
N  N35  1  0.78400000  0.87860000  0.18080000  1.0 -0.3356417161
N  N36  1  0.53630000  0.82270000  0.16920000  1.0 -0.2180441779
N  N37  1  0.36370000  0.72820000  0.58790000  1.0 -0.2113528778
N  N38  1  0.81680000  0.74750000  0.65210000  1.0 -0.2180441779
N  N39  1  0.87820000  0.69280000  0.66010000  1.0 -0.2180441779
N  N40  1  0.06990000  0.79130000  0.64810000  1.0 -0.2180441779
N  N41  1  0.88910000  0.01540000  0.59560000  1.0 -0.2113528778
N  N42  1  0.28510000  0.75980000  0.53470000  1.0 -0.3016340924
N  N43  1  0.30750000  0.93790000  0.76230000  1.0 -0.3217136678
N  N44  1  0.63420000  0.60840000  0.70170000  1.0 -0.3472297308
N  N45  1  0.53670000  0.68920000  0.71020000  1.0 -0.2314117667
N  N46  1  0.37470000  0.83280000  0.73720000  1.0 -0.1955531803
N  N47  1  0.30990000  0.83800000  0.71270000  1.0 -0.1900007096
N  N48  1  0.18640000  0.81800000  0.64790000  1.0 -0.3951200959
N  N49  1  0.82300000  0.97150000  0.59370000  1.0 -0.2180441779
N  N50  1  0.80310000  0.10160000  0.56160000  1.0 -0.3110487354
N  N51  1  0.30250000  0.76230000  0.60190000  1.0 -0.1955531803
N  N52  1  0.07570000  0.87620000  0.63090000  1.0 -0.2377244052
N  N53  1  0.78400000  0.62140000  0.68080000  1.0 -0.3356417161
N  N54  1  0.53630000  0.67730000  0.66920000  1.0 -0.2180441779
N  N55  1  0.63630000  0.22820000  0.91210000  1.0 -0.2113528778
N  N56  1  0.18320000  0.24750000  0.84790000  1.0 -0.2180441779
N  N57  1  0.12180000  0.19280000  0.83990000  1.0 -0.2180441779
N  N58  1  0.93010000  0.29130000  0.85190000  1.0 -0.2180441779
N  N59  1  0.11090000  0.51540000  0.90440000  1.0 -0.2113528778
N  N60  1  0.71490000  0.25980000  0.96530000  1.0 -0.3016340924
N  N61  1  0.69250000  0.43790000  0.73770000  1.0 -0.3217136678
N  N62  1  0.36580000  0.10840000  0.79830000  1.0 -0.3472297308
N  N63  1  0.46330000  0.18920000  0.78980000  1.0 -0.2314117667
N  N64  1  0.62530000  0.33280000  0.76280000  1.0 -0.1955531803
N  N65  1  0.69010000  0.33800000  0.78730000  1.0 -0.1900007096
N  N66  1  0.81360000  0.31800000  0.85210000  1.0 -0.3951200959
N  N67  1  0.17700000  0.47150000  0.90630000  1.0 -0.2180441779
N  N68  1  0.19690000  0.60160000  0.93840000  1.0 -0.3110487354
N  N69  1  0.69750000  0.26230000  0.89810000  1.0 -0.1955531803
N  N70  1  0.92430000  0.37620000  0.86910000  1.0 -0.2377244052
N  N71  1  0.21600000  0.12140000  0.81920000  1.0 -0.3356417161
N  N72  1  0.46370000  0.17730000  0.83080000  1.0 -0.2180441779
O  O1  1  0.98170000  0.38320000  0.33010000  1.0 -0.8188184318
O  O2  1  0.76910000  0.61890000  0.34190000  1.0 -0.9087417987
O  O3  1  0.83070000  0.76480000  0.36510000  1.0 -0.8947371509
O  O4  1  0.84910000  0.62880000  0.41050000  1.0 -0.9087417987
O  O5  1  0.74030000  0.76700000  0.28690000  1.0 -0.9222941992
O  O6  1  0.71330000  0.51700000  0.28370000  1.0 -0.9222941992
O  O7  1  0.78240000  0.45930000  0.39110000  1.0 -0.9222941992
O  O8  1  0.93230000  0.54410000  0.46780000  1.0 -0.9600412862
O  O9  1  0.92260000  0.78960000  0.43940000  1.0 -0.9222941992
O  O10  1  0.87980000  0.91450000  0.34260000  1.0 -0.9087417987
O  O11  1  0.80160000  0.92960000  0.26560000  1.0 -0.7165491399
O  O12  1  0.00090000  0.65460000  0.41940000  1.0 -1.0076174852
O  O13  1  0.92390000  0.47360000  0.39350000  1.0 -0.9600412862
O  O14  1  0.98180000  0.79480000  0.37360000  1.0 -0.9710280415
O  O15  1  0.90450000  0.63400000  0.34570000  1.0 -1.0259572235
O  O16  1  0.88010000  0.78080000  0.28850000  1.0 -0.9488077518
O  O17  1  0.81750000  0.63090000  0.26520000  1.0 -1.0004521576
O  O18  1  0.84150000  0.46280000  0.32460000  1.0 -0.9488077518
O  O19  1  0.02890000  0.55430000  0.35700000  1.0 -0.9600412862
O  O20  1  0.94220000  0.54200000  0.28710000  1.0 -0.9488077518
O  O21  1  0.00850000  0.69610000  0.30980000  1.0 -0.9790595321
O  O22  1  0.13820000  0.30790000  0.50710000  1.0 -0.9488077518
O  O23  1  0.82800000  0.91930000  0.41400000  1.0 -0.9419996855
O  O24  1  0.79050000  0.51700000  0.46740000  1.0 -0.9488077518
O  O25  1  0.73550000  0.90880000  0.33420000  1.0 -0.9319807631
O  O26  1  0.65210000  0.49960000  0.35200000  1.0 -0.9087417987
O  O27  1  0.63250000  0.66160000  0.29970000  1.0 -0.9419996855
O  O28  1  0.40310000  0.23480000  0.55820000  1.0 -1.0456412253
O  O29  1  0.28180000  0.31320000  0.54690000  1.0 -0.9087417987
O  O30  1  0.30030000  0.17830000  0.59390000  1.0 -0.9087417987
O  O31  1  0.36190000  0.32360000  0.61500000  1.0 -0.901812565
O  O32  1  0.69940000  0.99710000  0.40030000  1.0 -0.9319807631
O  O33  1  0.20580000  0.15190000  0.51730000  1.0 -0.9222941992
O  O34  1  0.25100000  0.37620000  0.47450000  1.0 -0.9319807631
O  O35  1  0.65520000  0.51530000  0.43210000  1.0 -0.9319807631
O  O36  1  0.53110000  0.59710000  0.34180000  1.0 -0.901812565
O  O37  1  0.38910000  0.32250000  0.16970000  1.0 -0.9087417987
O  O38  1  0.31270000  0.21100000  0.48030000  1.0 -0.9790595321
O  O39  1  0.49520000  0.26390000  0.13360000  1.0 -0.9790595321
O  O40  1  0.56640000  0.91640000  0.38760000  1.0 -1.0004521576
O  O41  1  0.47680000  0.09910000  0.53820000  1.0 -0.9790595321
O  O42  1  0.45790000  0.24190000  0.48990000  1.0 -0.9710280415
O  O43  1  0.53710000  0.43420000  0.38590000  1.0 -0.7743854043
O  O44  1  0.17520000  0.22540000  0.43940000  1.0 -0.7510165688
O  O45  1  0.50150000  0.23150000  0.21650000  1.0 -0.80622251
O  O46  1  0.66770000  0.92980000  0.47250000  1.0 -0.9710280415
O  O47  1  0.39000000  0.39620000  0.50830000  1.0 -0.9790595321
O  O48  1  0.52730000  0.59450000  0.42250000  1.0 -0.9419996855
O  O49  1  0.96780000  0.95850000  0.41230000  1.0 -0.8188184318
O  O50  1  0.72390000  0.35670000  0.32360000  1.0 -0.7428149697
O  O51  1  0.59580000  0.24010000  0.33190000  1.0 -0.8394672987
O  O52  1  0.07250000  0.13940000  0.35930000  1.0 -0.8775226739
O  O53  1  0.54200000  0.25090000  0.56090000  1.0 -0.9877533433
O  O54  1  0.01830000  0.88320000  0.16990000  1.0 -0.8188184318
O  O55  1  0.23090000  0.11890000  0.15810000  1.0 -0.9087417987
O  O56  1  0.16930000  0.26480000  0.13490000  1.0 -0.8947371509
O  O57  1  0.15090000  0.12880000  0.08950000  1.0 -0.9087417987
O  O58  1  0.25970000  0.26700000  0.21310000  1.0 -0.9222941992
O  O59  1  0.28670000  0.01700000  0.21630000  1.0 -0.9222941992
O  O60  1  0.21760000  0.95930000  0.10890000  1.0 -0.9222941992
O  O61  1  0.06770000  0.04410000  0.03220000  1.0 -0.9600412862
O  O62  1  0.07740000  0.28960000  0.06060000  1.0 -0.9222941992
O  O63  1  0.12020000  0.41450000  0.15740000  1.0 -0.9087417987
O  O64  1  0.19840000  0.42960000  0.23440000  1.0 -0.7165491399
O  O65  1  0.99910000  0.15460000  0.08060000  1.0 -1.0076174852
O  O66  1  0.07610000  0.97360000  0.10650000  1.0 -0.9600412862
O  O67  1  0.01820000  0.29480000  0.12640000  1.0 -0.9710280415
O  O68  1  0.09550000  0.13400000  0.15430000  1.0 -1.0259572235
O  O69  1  0.11990000  0.28080000  0.21150000  1.0 -0.9488077518
O  O70  1  0.18250000  0.13090000  0.23480000  1.0 -1.0004521576
O  O71  1  0.15850000  0.96280000  0.17540000  1.0 -0.9488077518
O  O72  1  0.97110000  0.05430000  0.14300000  1.0 -0.9600412862
O  O73  1  0.05780000  0.04200000  0.21290000  1.0 -0.9488077518
O  O74  1  0.99150000  0.19610000  0.19020000  1.0 -0.9790595321
O  O75  1  0.86180000  0.80790000  0.99290000  1.0 -0.9488077518
O  O76  1  0.17200000  0.41930000  0.08600000  1.0 -0.9419996855
O  O77  1  0.20950000  0.01700000  0.03260000  1.0 -0.9488077518
O  O78  1  0.26450000  0.40880000  0.16580000  1.0 -0.9319807631
O  O79  1  0.34790000  0.99960000  0.14800000  1.0 -0.9087417987
O  O80  1  0.36750000  0.16160000  0.20030000  1.0 -0.9419996855
O  O81  1  0.59690000  0.73480000  0.94180000  1.0 -1.0456412253
O  O82  1  0.71820000  0.81320000  0.95310000  1.0 -0.9087417987
O  O83  1  0.69970000  0.67830000  0.90610000  1.0 -0.9087417987
O  O84  1  0.63810000  0.82360000  0.88500000  1.0 -0.901812565
O  O85  1  0.30060000  0.49710000  0.09970000  1.0 -0.9319807631
O  O86  1  0.79420000  0.65190000  0.98270000  1.0 -0.9222941992
O  O87  1  0.74900000  0.87620000  0.02550000  1.0 -0.9319807631
O  O88  1  0.34480000  0.01530000  0.06790000  1.0 -0.9319807631
O  O89  1  0.46890000  0.09710000  0.15820000  1.0 -0.901812565
O  O90  1  0.61090000  0.82250000  0.33030000  1.0 -0.9087417987
O  O91  1  0.68730000  0.71100000  0.01970000  1.0 -0.9790595321
O  O92  1  0.50480000  0.76390000  0.36640000  1.0 -0.9790595321
O  O93  1  0.43360000  0.41640000  0.11240000  1.0 -1.0004521576
O  O94  1  0.52320000  0.59910000  0.96180000  1.0 -0.9710280415
O  O95  1  0.54210000  0.74190000  0.01010000  1.0 -0.9710280415
O  O96  1  0.46290000  0.93420000  0.11410000  1.0 -0.7743854043
O  O97  1  0.82480000  0.72540000  0.06060000  1.0 -0.7510165688
O  O98  1  0.49850000  0.73150000  0.28350000  1.0 -0.80622251
O  O99  1  0.33230000  0.42980000  0.02750000  1.0 -0.9710280415
O  O100  1  0.61000000  0.89620000  0.99170000  1.0 -0.9790595321
O  O101  1  0.47270000  0.09450000  0.07750000  1.0 -0.9419996855
O  O102  1  0.03220000  0.45850000  0.08770000  1.0 -0.8188184318
O  O103  1  0.27610000  0.85670000  0.17640000  1.0 -0.7428149697
O  O104  1  0.40420000  0.74010000  0.16810000  1.0 -0.8394672987
O  O105  1  0.92750000  0.63940000  0.14070000  1.0 -0.8775226739
O  O106  1  0.45800000  0.75090000  0.93910000  1.0 -0.9877533433
O  O107  1  0.01830000  0.61680000  0.66990000  1.0 -0.8188184318
O  O108  1  0.23090000  0.38110000  0.65810000  1.0 -0.9087417987
O  O109  1  0.16930000  0.23520000  0.63490000  1.0 -0.8947371509
O  O110  1  0.15090000  0.37120000  0.58950000  1.0 -0.9087417987
O  O111  1  0.25970000  0.23300000  0.71310000  1.0 -0.9222941992
O  O112  1  0.28670000  0.48300000  0.71630000  1.0 -0.9222941992
O  O113  1  0.21760000  0.54070000  0.60890000  1.0 -0.9222941992
O  O114  1  0.06770000  0.45590000  0.53220000  1.0 -0.9600412862
O  O115  1  0.07740000  0.21040000  0.56060000  1.0 -0.9222941992
O  O116  1  0.12020000  0.08550000  0.65740000  1.0 -0.9087417987
O  O117  1  0.19840000  0.07040000  0.73440000  1.0 -0.7165491399
O  O118  1  0.99910000  0.34540000  0.58060000  1.0 -1.0076174852
O  O119  1  0.07610000  0.52640000  0.60650000  1.0 -0.9600412862
O  O120  1  0.01820000  0.20520000  0.62640000  1.0 -0.9710280415
O  O121  1  0.09550000  0.36600000  0.65430000  1.0 -1.0259572235
O  O122  1  0.11990000  0.21920000  0.71150000  1.0 -0.9488077518
O  O123  1  0.18250000  0.36910000  0.73480000  1.0 -1.0004521576
O  O124  1  0.15850000  0.53720000  0.67540000  1.0 -0.9488077518
O  O125  1  0.97110000  0.44570000  0.64300000  1.0 -0.9600412862
O  O126  1  0.05780000  0.45800000  0.71290000  1.0 -0.9488077518
O  O127  1  0.99150000  0.30390000  0.69020000  1.0 -0.9790595321
O  O128  1  0.86180000  0.69210000  0.49290000  1.0 -0.9488077518
O  O129  1  0.17200000  0.08070000  0.58600000  1.0 -0.9419996855
O  O130  1  0.20950000  0.48300000  0.53260000  1.0 -0.9488077518
O  O131  1  0.26450000  0.09120000  0.66580000  1.0 -0.9319807631
O  O132  1  0.34790000  0.50040000  0.64800000  1.0 -0.9087417987
O  O133  1  0.36750000  0.33840000  0.70030000  1.0 -0.9419996855
O  O134  1  0.59690000  0.76520000  0.44180000  1.0 -1.0456412253
O  O135  1  0.71820000  0.68680000  0.45310000  1.0 -0.9087417987
O  O136  1  0.69970000  0.82170000  0.40610000  1.0 -0.9087417987
O  O137  1  0.63810000  0.67640000  0.38500000  1.0 -0.901812565
O  O138  1  0.30060000  0.00290000  0.59970000  1.0 -0.9319807631
O  O139  1  0.79420000  0.84810000  0.48270000  1.0 -0.9222941992
O  O140  1  0.74900000  0.62380000  0.52550000  1.0 -0.9319807631
O  O141  1  0.34480000  0.48470000  0.56790000  1.0 -0.9319807631
O  O142  1  0.46890000  0.40290000  0.65820000  1.0 -0.901812565
O  O143  1  0.61090000  0.67750000  0.83030000  1.0 -0.9087417987
O  O144  1  0.68730000  0.78900000  0.51970000  1.0 -0.9790595321
O  O145  1  0.50480000  0.73610000  0.86640000  1.0 -0.9790595321
O  O146  1  0.43360000  0.08360000  0.61240000  1.0 -1.0004521576
O  O147  1  0.52320000  0.90090000  0.46180000  1.0 -0.9790595321
O  O148  1  0.54210000  0.75810000  0.51010000  1.0 -0.9710280415
O  O149  1  0.46290000  0.56580000  0.61410000  1.0 -0.7743854043
O  O150  1  0.82480000  0.77460000  0.56060000  1.0 -0.7510165688
O  O151  1  0.49850000  0.76850000  0.78350000  1.0 -0.80622251
O  O152  1  0.33230000  0.07020000  0.52750000  1.0 -0.9710280415
O  O153  1  0.61000000  0.60380000  0.49170000  1.0 -0.9790595321
O  O154  1  0.47270000  0.40550000  0.57750000  1.0 -0.9419996855
O  O155  1  0.03220000  0.04150000  0.58770000  1.0 -0.8188184318
O  O156  1  0.27610000  0.64330000  0.67640000  1.0 -0.7428149697
O  O157  1  0.40420000  0.75990000  0.66810000  1.0 -0.8394672987
O  O158  1  0.92750000  0.86060000  0.64070000  1.0 -0.8775226739
O  O159  1  0.45800000  0.74910000  0.43910000  1.0 -0.9877533433
O  O160  1  0.98170000  0.11680000  0.83010000  1.0 -0.8188184318
O  O161  1  0.76910000  0.88110000  0.84190000  1.0 -0.9087417987
O  O162  1  0.83070000  0.73520000  0.86510000  1.0 -0.8947371509
O  O163  1  0.84910000  0.87120000  0.91050000  1.0 -0.9087417987
O  O164  1  0.74030000  0.73300000  0.78690000  1.0 -0.9222941992
O  O165  1  0.71330000  0.98300000  0.78370000  1.0 -0.9222941992
O  O166  1  0.78240000  0.04070000  0.89110000  1.0 -0.9222941992
O  O167  1  0.93230000  0.95590000  0.96780000  1.0 -0.9600412862
O  O168  1  0.92260000  0.71040000  0.93940000  1.0 -0.9222941992
O  O169  1  0.87980000  0.58550000  0.84260000  1.0 -0.9087417987
O  O170  1  0.80160000  0.57040000  0.76560000  1.0 -0.7165491399
O  O171  1  0.00090000  0.84540000  0.91940000  1.0 -1.0076174852
O  O172  1  0.92390000  0.02640000  0.89350000  1.0 -0.9600412862
O  O173  1  0.98180000  0.70520000  0.87360000  1.0 -0.9710280415
O  O174  1  0.90450000  0.86600000  0.84570000  1.0 -1.0259572235
O  O175  1  0.88010000  0.71920000  0.78850000  1.0 -0.9488077518
O  O176  1  0.81750000  0.86910000  0.76520000  1.0 -1.0004521576
O  O177  1  0.84150000  0.03720000  0.82460000  1.0 -0.9488077518
O  O178  1  0.02890000  0.94570000  0.85700000  1.0 -0.9600412862
O  O179  1  0.94220000  0.95800000  0.78710000  1.0 -0.9488077518
O  O180  1  0.00850000  0.80390000  0.80980000  1.0 -0.9790595321
O  O181  1  0.13820000  0.19210000  0.00710000  1.0 -0.9488077518
O  O182  1  0.82800000  0.58070000  0.91400000  1.0 -0.9419996855
O  O183  1  0.79050000  0.98300000  0.96740000  1.0 -0.9488077518
O  O184  1  0.73550000  0.59120000  0.83420000  1.0 -0.9319807631
O  O185  1  0.65210000  0.00040000  0.85200000  1.0 -0.9087417987
O  O186  1  0.63250000  0.83840000  0.79970000  1.0 -0.9419996855
O  O187  1  0.40310000  0.26520000  0.05820000  1.0 -1.0456412253
O  O188  1  0.28180000  0.18680000  0.04690000  1.0 -0.9087417987
O  O189  1  0.30030000  0.32170000  0.09390000  1.0 -0.9087417987
O  O190  1  0.36190000  0.17640000  0.11500000  1.0 -0.901812565
O  O191  1  0.69940000  0.50290000  0.90030000  1.0 -0.9319807631
O  O192  1  0.20580000  0.34810000  0.01730000  1.0 -0.9222941992
O  O193  1  0.25100000  0.12380000  0.97450000  1.0 -0.9319807631
O  O194  1  0.65520000  0.98470000  0.93210000  1.0 -0.9319807631
O  O195  1  0.53110000  0.90290000  0.84180000  1.0 -0.901812565
O  O196  1  0.38910000  0.17750000  0.66970000  1.0 -0.9087417987
O  O197  1  0.31270000  0.28900000  0.98030000  1.0 -0.9790595321
O  O198  1  0.49520000  0.23610000  0.63360000  1.0 -0.9790595321
O  O199  1  0.56640000  0.58360000  0.88760000  1.0 -1.0004521576
O  O200  1  0.47680000  0.40090000  0.03820000  1.0 -0.9790595321
O  O201  1  0.45790000  0.25810000  0.98990000  1.0 -0.9710280415
O  O202  1  0.53710000  0.06580000  0.88590000  1.0 -0.7743854043
O  O203  1  0.17520000  0.27460000  0.93940000  1.0 -0.7510165688
O  O204  1  0.50150000  0.26850000  0.71650000  1.0 -0.80622251
O  O205  1  0.66770000  0.57020000  0.97250000  1.0 -0.9710280415
O  O206  1  0.39000000  0.10380000  0.00830000  1.0 -0.9790595321
O  O207  1  0.52730000  0.90550000  0.92250000  1.0 -0.9419996855
O  O208  1  0.96780000  0.54150000  0.91230000  1.0 -0.8188184318
O  O209  1  0.72390000  0.14330000  0.82360000  1.0 -0.7428149697
O  O210  1  0.59580000  0.25990000  0.83190000  1.0 -0.8394672987
O  O211  1  0.07250000  0.36060000  0.85930000  1.0 -0.8775226739
O  O212  1  0.54200000  0.24910000  0.06090000  1.0 -0.9877533433
