# DDEC6 charges by PACMAN v1.1 (https://github.com/mtap-research/PACMAN-charge/)
data_SIHLAZ_FSR_pacman
_symmetry_space_group_name_H-M   'P 1'
_cell_length_a   15.09150000
_cell_length_b   15.20910000
_cell_length_c   22.51770000
_cell_angle_alpha   82.21300000
_cell_angle_beta   73.86700000
_cell_angle_gamma   77.55900000
_symmetry_Int_Tables_number   1
_chemical_formula_structural   ZnH20C29NO4
_chemical_formula_sum   'Zn6 H120 C174 N6 O24'
_cell_volume   4832.54178699
_cell_formula_units_Z   6
loop_
 _symmetry_equiv_pos_site_id
 _symmetry_equiv_pos_as_xyz
  1  'x, y, z'
loop_
 _atom_site_type_symbol
 _atom_site_label
 _atom_site_symmetry_multiplicity
 _atom_site_fract_x
 _atom_site_fract_y
 _atom_site_fract_z
 _atom_site_occupancy
 _atom_site_charge
Zn  Zn1  1  0.21578000  0.81775000  0.83640000  1.0 0.8053637357
Zn  Zn2  1  0.26613000  0.83373000  0.69868000  1.0 0.84591513
Zn  Zn3  1  0.47433000  0.49268000  0.56870000  1.0 0.8359514685
Zn  Zn4  1  0.52567000  0.50732000  0.43130000  1.0 0.8359514685
Zn  Zn5  1  0.78422000  0.18225000  0.16360000  1.0 0.804822764
Zn  Zn6  1  0.73387000  0.16627000  0.30132000  1.0 0.84591513
H  H1  1  0.57380000  0.83480000  0.66420000  1.0 0.119514985
H  H2  1  0.49040000  0.78250000  0.85030000  1.0 0.1105771223
H  H3  1  0.25060000  0.56180000  0.68090000  1.0 0.119514985
H  H4  1  0.23080000  0.52300000  0.86460000  1.0 0.1105771223
H  H5  1  0.71750000  0.84910000  0.67270000  1.0 0.1105771223
H  H6  1  0.63820000  0.79060000  0.85700000  1.0 0.1105771223
H  H7  1  0.24390000  0.41390000  0.67970000  1.0 0.1105771223
H  H8  1  0.22900000  0.37190000  0.86320000  1.0 0.1105771223
H  H9  1  0.26280000  0.70670000  0.61050000  1.0 0.1105771223
H  H10  1  0.27540000  0.96610000  0.58760000  1.0 0.1105771223
H  H11  1  0.25240000  0.70790000  0.51090000  1.0 0.119514985
H  H12  1  0.27390000  0.97260000  0.48460000  1.0 0.119514985
H  H13  1  0.74780000  0.86200000  0.86050000  1.0 0.1105771223
H  H14  1  0.85840000  0.80500000  0.68120000  1.0 0.1105771223
H  H15  1  0.18790000  0.24890000  0.86070000  1.0 0.1105771223
H  H16  1  0.29560000  0.26920000  0.67460000  1.0 0.119514985
H  H17  1  0.89960000  0.86110000  0.86820000  1.0 0.1105771223
H  H18  1  0.00540000  0.81800000  0.68840000  1.0 0.119514985
H  H19  1  0.19060000  0.09740000  0.85520000  1.0 0.1105771223
H  H20  1  0.29470000  0.12310000  0.66890000  1.0 0.119514985
H  H21  1  0.33080000  0.70370000  0.40930000  1.0 0.119514985
H  H22  1  0.22490000  0.97350000  0.40050000  1.0 0.1105771223
H  H23  1  0.32570000  0.70080000  0.30920000  1.0 0.1003776425
H  H24  1  0.22650000  0.96930000  0.29820000  1.0 0.1003776425
H  H25  1  0.35310000  0.71070000  0.21510000  1.0 0.0896615783
H  H26  1  0.17130000  0.95020000  0.22390000  1.0 0.1105771223
H  H27  1  0.34200000  0.70040000  0.11470000  1.0 0.082226615
H  H28  1  0.16020000  0.94000000  0.12360000  1.0 0.1003776425
H  H29  1  0.27870000  0.68430000  0.03840000  1.0 0.0896615783
H  H30  1  0.19820000  0.95470000  0.02820000  1.0 0.1003776425
H  H31  1  0.25940000  0.68360000  0.94050000  1.0 0.1105771223
H  H32  1  0.17780000  0.94600000  0.93280000  1.0 0.119514985
H  H33  1  0.32910000  0.90420000  0.00310000  1.0 0.1003776425
H  H34  1  0.31270000  0.90280000  0.90290000  1.0 0.119514985
H  H35  1  0.13080000  0.73000000  0.96810000  1.0 0.1105771223
H  H36  1  0.14720000  0.73140000  0.06820000  1.0 0.1003776425
H  H37  1  0.22370000  0.71060000  0.24310000  1.0 0.1003776425
H  H38  1  0.22410000  0.69260000  0.14180000  1.0 0.0896615783
H  H39  1  0.28330000  0.94150000  0.09580000  1.0 0.0896615783
H  H40  1  0.29860000  0.95410000  0.19500000  1.0 0.1003776425
H  H41  1  0.25060000  0.54270000  0.41500000  1.0 0.119514985
H  H42  1  0.10200000  0.52800000  0.40930000  1.0 0.1105771223
H  H43  1  0.01670000  0.50050000  0.59700000  1.0 0.1105771223
H  H44  1  0.16530000  0.51510000  0.60270000  1.0 0.1105771223
H  H45  1  0.47430000  0.04300000  0.59570000  1.0 0.1105771223
H  H46  1  0.51740000  0.08620000  0.40910000  1.0 0.1105771223
H  H47  1  0.49270000  0.62620000  0.75320000  1.0 0.119514985
H  H48  1  0.48130000  0.62280000  0.65300000  1.0 0.1105771223
H  H49  1  0.47060000  0.19610000  0.60190000  1.0 0.1105771223
H  H50  1  0.55060000  0.36550000  0.95990000  1.0 0.082226615
H  H51  1  0.51360000  0.23940000  0.41530000  1.0 0.119514985
H  H52  1  0.43030000  0.63020000  0.85350000  1.0 0.1105771223
H  H53  1  0.47140000  0.36270000  0.78340000  1.0 0.119514985
H  H54  1  0.43650000  0.63240000  0.95600000  1.0 0.082226615
H  H55  1  0.46850000  0.36510000  0.68110000  1.0 0.1105771223
H  H56  1  0.54440000  0.36330000  0.85740000  1.0 0.0896615783
H  H57  1  0.42490000  0.39060000  0.88150000  1.0 0.1003776425
H  H58  1  0.43780000  0.38560000  0.98140000  1.0 0.0896615783
H  H59  1  0.55790000  0.60200000  0.82790000  1.0 0.1003776425
H  H60  1  0.56880000  0.59970000  0.93130000  1.0 0.1003776425
H  H61  1  0.74940000  0.45730000  0.58500000  1.0 0.119514985
H  H62  1  0.89800000  0.47200000  0.59070000  1.0 0.1105771223
H  H63  1  0.98330000  0.49950000  0.40300000  1.0 0.1105771223
H  H64  1  0.83470000  0.48490000  0.39730000  1.0 0.1105771223
H  H65  1  0.52570000  0.95700000  0.40430000  1.0 0.1105771223
H  H66  1  0.48260000  0.91380000  0.59090000  1.0 0.1105771223
H  H67  1  0.50730000  0.37380000  0.24680000  1.0 0.119514985
H  H68  1  0.51870000  0.37720000  0.34700000  1.0 0.1105771223
H  H69  1  0.52940000  0.80390000  0.39810000  1.0 0.1105771223
H  H70  1  0.44940000  0.63450000  0.04010000  1.0 0.082226615
H  H71  1  0.48640000  0.76060000  0.58470000  1.0 0.119514985
H  H72  1  0.56970000  0.36980000  0.14650000  1.0 0.1105771223
H  H73  1  0.52860000  0.63730000  0.21660000  1.0 0.119514985
H  H74  1  0.56350000  0.36760000  0.04400000  1.0 0.082226615
H  H75  1  0.53150000  0.63490000  0.31890000  1.0 0.1105771223
H  H76  1  0.45560000  0.63670000  0.14260000  1.0 0.0896615783
H  H77  1  0.57510000  0.60940000  0.11850000  1.0 0.1003776425
H  H78  1  0.56220000  0.61440000  0.01860000  1.0 0.0896615783
H  H79  1  0.44210000  0.39800000  0.17210000  1.0 0.1003776425
H  H80  1  0.43120000  0.40030000  0.06870000  1.0 0.1003776425
H  H81  1  0.42620000  0.16520000  0.33580000  1.0 0.119514985
H  H82  1  0.50960000  0.21750000  0.14970000  1.0 0.1105771223
H  H83  1  0.74940000  0.43820000  0.31910000  1.0 0.119514985
H  H84  1  0.76920000  0.47700000  0.13540000  1.0 0.1105771223
H  H85  1  0.28250000  0.15090000  0.32730000  1.0 0.1105771223
H  H86  1  0.36180000  0.20940000  0.14300000  1.0 0.1105771223
H  H87  1  0.75610000  0.58610000  0.32030000  1.0 0.1105771223
H  H88  1  0.77100000  0.62810000  0.13680000  1.0 0.1105771223
H  H89  1  0.73720000  0.29330000  0.38950000  1.0 0.1105771223
H  H90  1  0.72460000  0.03390000  0.41240000  1.0 0.1105771223
H  H91  1  0.74760000  0.29210000  0.48910000  1.0 0.119514985
H  H92  1  0.72610000  0.02740000  0.51540000  1.0 0.119514985
H  H93  1  0.25220000  0.13800000  0.13950000  1.0 0.1105771223
H  H94  1  0.14160000  0.19500000  0.31880000  1.0 0.1105771223
H  H95  1  0.81210000  0.75110000  0.13930000  1.0 0.1105771223
H  H96  1  0.70440000  0.73080000  0.32540000  1.0 0.119514985
H  H97  1  0.10040000  0.13890000  0.13180000  1.0 0.1105771223
H  H98  1  0.99460000  0.18200000  0.31160000  1.0 0.119514985
H  H99  1  0.80940000  0.90260000  0.14480000  1.0 0.1105771223
H  H100  1  0.70530000  0.87690000  0.33110000  1.0 0.119514985
H  H101  1  0.66920000  0.29630000  0.59070000  1.0 0.119514985
H  H102  1  0.77510000  0.02650000  0.59950000  1.0 0.1105771223
H  H103  1  0.67430000  0.29920000  0.69080000  1.0 0.1003776425
H  H104  1  0.77350000  0.03070000  0.70180000  1.0 0.1003776425
H  H105  1  0.64690000  0.28930000  0.78490000  1.0 0.0896615783
H  H106  1  0.82870000  0.04980000  0.77610000  1.0 0.1105771223
H  H107  1  0.65800000  0.29960000  0.88530000  1.0 0.082226615
H  H108  1  0.83980000  0.06000000  0.87640000  1.0 0.1003776425
H  H109  1  0.72130000  0.31570000  0.96160000  1.0 0.0896615783
H  H110  1  0.80180000  0.04530000  0.97180000  1.0 0.1003776425
H  H111  1  0.74060000  0.31640000  0.05950000  1.0 0.1105771223
H  H112  1  0.82220000  0.05400000  0.06720000  1.0 0.119514985
H  H113  1  0.67090000  0.09580000  0.99690000  1.0 0.1003776425
H  H114  1  0.68730000  0.09720000  0.09710000  1.0 0.119514985
H  H115  1  0.86920000  0.27000000  0.03190000  1.0 0.1105771223
H  H116  1  0.85280000  0.26860000  0.93180000  1.0 0.1003776425
H  H117  1  0.77630000  0.28940000  0.75690000  1.0 0.1003776425
H  H118  1  0.77590000  0.30740000  0.85820000  1.0 0.0896615783
H  H119  1  0.71670000  0.05850000  0.90420000  1.0 0.0896615783
H  H120  1  0.70140000  0.04590000  0.80500000  1.0 0.1003776425
C  C1  1  0.41800000  0.80780000  0.75350000  1.0 0.5640294762
C  C2  1  0.24280000  0.65600000  0.77440000  1.0 0.5780689182
C  C3  1  0.51550000  0.80970000  0.75670000  1.0 -0.0334429456
C  C4  1  0.24110000  0.55850000  0.77260000  1.0 -0.0334429456
C  C5  1  0.58590000  0.82770000  0.70390000  1.0 -0.0992332605
C  C6  1  0.53670000  0.79580000  0.81390000  1.0 -0.1267211115
C  C7  1  0.24570000  0.52360000  0.71830000  1.0 -0.0893331435
C  C8  1  0.23460000  0.50010000  0.82660000  1.0 -0.1191576788
C  C9  1  0.67120000  0.83500000  0.70900000  1.0 -0.1591855698
C  C10  1  0.62410000  0.80130000  0.81770000  1.0 -0.1591855698
C  C11  1  0.24330000  0.43510000  0.71760000  1.0 -0.1410272557
C  C12  1  0.23380000  0.41000000  0.82580000  1.0 -0.1692424976
C  C13  1  0.26270000  0.76170000  0.58480000  1.0 0.1003776425
C  C14  1  0.27130000  0.91320000  0.57120000  1.0 0.0896615783
C  C15  1  0.69270000  0.82250000  0.76520000  1.0 0.0705941992
C  C16  1  0.23990000  0.37370000  0.76980000  1.0 0.0705941992
C  C17  1  0.26020000  0.76120000  0.52500000  1.0 -0.1901274783
C  C18  1  0.27180000  0.91710000  0.50950000  1.0 -0.2002969844
C  C19  1  0.78770000  0.83200000  0.76940000  1.0 0.0622203002
C  C20  1  0.24040000  0.27670000  0.76740000  1.0 0.0705941992
C  C21  1  0.26920000  0.83970000  0.48340000  1.0 0.1105771223
C  C22  1  0.80000000  0.85080000  0.82560000  1.0 -0.1806573955
C  C23  1  0.86540000  0.81880000  0.71940000  1.0 -0.1591855698
C  C24  1  0.20940000  0.22360000  0.82170000  1.0 -0.1591855698
C  C25  1  0.27250000  0.23420000  0.71180000  1.0 -0.1410272557
C  C26  1  0.27240000  0.83970000  0.41760000  1.0 0.0622203002
C  C27  1  0.89120000  0.85280000  0.82920000  1.0 -0.1089277346
C  C28  1  0.95360000  0.82560000  0.72400000  1.0 -0.0992332605
C  C29  1  0.21070000  0.13320000  0.81780000  1.0 -0.0992332605
C  C30  1  0.27250000  0.14790000  0.70810000  1.0 -0.0893331435
C  C31  1  0.30660000  0.75740000  0.38750000  1.0 -0.1191576788
C  C32  1  0.24450000  0.91740000  0.38230000  1.0 -0.1410272557
C  C33  1  0.96810000  0.84340000  0.77980000  1.0 -0.0694820422
C  C34  1  0.23940000  0.09180000  0.76270000  1.0 -0.0609916723
C  C35  1  0.30420000  0.75650000  0.32800000  1.0 -0.1534155993
C  C36  1  0.24480000  0.91470000  0.32130000  1.0 -0.1692424976
C  C37  1  0.06170000  0.84590000  0.78360000  1.0 0.5780689182
C  C38  1  0.23770000  0.99620000  0.76160000  1.0 0.5780689182
C  C39  1  0.27150000  0.83370000  0.29250000  1.0 0.0259575579
C  C40  1  0.26330000  0.83140000  0.22890000  1.0 0.0214026105
C  C41  1  0.31400000  0.75720000  0.19650000  1.0 -0.0789132448
C  C42  1  0.20600000  0.89950000  0.20170000  1.0 -0.052113905
C  C43  1  0.30740000  0.75110000  0.13690000  1.0 -0.0694820422
C  C44  1  0.19940000  0.89340000  0.14210000  1.0 -0.0694820422
C  C45  1  0.25010000  0.81930000  0.10970000  1.0 -0.0431689417
C  C46  1  0.23970000  0.81800000  0.04510000  1.0 -0.0101492594
C  C47  1  0.25810000  0.73980000  0.01700000  1.0 -0.0992332605
C  C48  1  0.21060000  0.89790000  0.01150000  1.0 -0.0893331435
C  C49  1  0.24730000  0.73940000  0.95840000  1.0 -0.0101492594
C  C50  1  0.20070000  0.89160000  0.95450000  1.0 -0.0101492594
C  C51  1  0.28890000  0.86890000  0.99600000  1.0 -0.0893331435
C  C52  1  0.27910000  0.86800000  0.93650000  1.0 -0.0191613738
C  C53  1  0.17100000  0.76540000  0.97520000  1.0 0.0073898068
C  C54  1  0.18080000  0.76620000  0.03470000  1.0 -0.0694820422
C  C55  1  0.23910000  0.75740000  0.21170000  1.0 -0.052113905
C  C56  1  0.23600000  0.74670000  0.15240000  1.0 -0.0694820422
C  C57  1  0.27300000  0.89280000  0.12660000  1.0 -0.052113905
C  C58  1  0.28100000  0.90210000  0.18560000  1.0 -0.0789132448
C  C59  1  0.32050000  0.52930000  0.51220000  1.0 0.5713593276
C  C60  1  0.22190000  0.53030000  0.50940000  1.0 -0.0431689417
C  C61  1  0.20310000  0.53410000  0.45194000  1.0 -0.1089277346
C  C62  1  0.11480000  0.52540000  0.44859000  1.0 -0.1591855698
C  C63  1  0.04540000  0.51290000  0.50270000  1.0 0.082226615
C  C64  1  0.06420000  0.50900000  0.56009000  1.0 -0.1591855698
C  C65  1  0.15240000  0.51770000  0.56344000  1.0 -0.1089277346
C  C66  1  0.48230000  0.08280000  0.55906000  1.0 -0.1692424976
C  C67  1  0.49180000  0.23210000  0.50920000  1.0 -0.0334429456
C  C68  1  0.48010000  0.17380000  0.56277000  1.0 -0.1089277346
C  C69  1  0.49620000  0.05020000  0.50180000  1.0 0.0705941992
C  C70  1  0.50790000  0.10850000  0.44822000  1.0 -0.1534155993
C  C71  1  0.50560000  0.19950000  0.45193000  1.0 -0.0992332605
C  C72  1  0.48140000  0.56880000  0.67970000  1.0 0.1105771223
C  C73  1  0.48740000  0.57140000  0.73980000  1.0 -0.2002969844
C  C74  1  0.48580000  0.49540000  0.77990000  1.0 0.0705941992
C  C75  1  0.49280000  0.33070000  0.51170000  1.0 0.5780689182
C  C76  1  0.48680000  0.49660000  0.84580000  1.0 0.0214026105
C  C77  1  0.47280000  0.41890000  0.69630000  1.0 0.0896615783
C  C78  1  0.47590000  0.41670000  0.75700000  1.0 -0.2312903566
C  C79  1  0.52620000  0.41930000  0.93830000  1.0 -0.0789132448
C  C80  1  0.45470000  0.57650000  0.87510000  1.0 -0.0609916723
C  C81  1  0.45840000  0.57780000  0.93600000  1.0 -0.0789132448
C  C82  1  0.52250000  0.41800000  0.87740000  1.0 -0.0694820422
C  C83  1  0.49420000  0.49920000  0.96760000  1.0 -0.0101492594
C  C84  1  0.45330000  0.43450000  0.89170000  1.0 -0.052113905
C  C85  1  0.45840000  0.43230000  0.95150000  1.0 -0.0609916723
C  C86  1  0.53200000  0.55970000  0.85930000  1.0 -0.0609916723
C  C87  1  0.53600000  0.55900000  0.92120000  1.0 -0.0609916723
C  C88  1  0.67950000  0.47070000  0.48780000  1.0 0.5713593276
C  C89  1  0.77810000  0.46970000  0.49060000  1.0 -0.0431689417
C  C90  1  0.79690000  0.46590000  0.54806000  1.0 -0.1089277346
C  C91  1  0.88520000  0.47460000  0.55141000  1.0 -0.1591855698
C  C92  1  0.95460000  0.48710000  0.49730000  1.0 0.082226615
C  C93  1  0.93580000  0.49100000  0.43991000  1.0 -0.1591855698
C  C94  1  0.84760000  0.48230000  0.43656000  1.0 -0.1089277346
C  C95  1  0.51770000  0.91720000  0.44094000  1.0 -0.1692424976
C  C96  1  0.50820000  0.76790000  0.49080000  1.0 -0.0334429456
C  C97  1  0.51990000  0.82620000  0.43723000  1.0 -0.1089277346
C  C98  1  0.50380000  0.94980000  0.49820000  1.0 0.0705941992
C  C99  1  0.49210000  0.89150000  0.55178000  1.0 -0.1534155993
C  C100  1  0.49440000  0.80050000  0.54807000  1.0 -0.0992332605
C  C101  1  0.51860000  0.43120000  0.32030000  1.0 0.1105771223
C  C102  1  0.51260000  0.42860000  0.26020000  1.0 -0.2002969844
C  C103  1  0.51420000  0.50460000  0.22010000  1.0 0.0705941992
C  C104  1  0.50720000  0.66930000  0.48830000  1.0 0.5780689182
C  C105  1  0.51320000  0.50340000  0.15420000  1.0 0.0214026105
C  C106  1  0.52720000  0.58110000  0.30370000  1.0 0.0896615783
C  C107  1  0.52410000  0.58330000  0.24300000  1.0 -0.2312903566
C  C108  1  0.47380000  0.58070000  0.06170000  1.0 -0.0789132448
C  C109  1  0.54530000  0.42350000  0.12490000  1.0 -0.0609916723
C  C110  1  0.54160000  0.42220000  0.06400000  1.0 -0.0789132448
C  C111  1  0.47750000  0.58200000  0.12260000  1.0 -0.0694820422
C  C112  1  0.50580000  0.50080000  0.03240000  1.0 -0.0101492594
C  C113  1  0.54670000  0.56550000  0.10830000  1.0 -0.052113905
C  C114  1  0.54160000  0.56770000  0.04850000  1.0 -0.0609916723
C  C115  1  0.46800000  0.44030000  0.14070000  1.0 -0.0609916723
C  C116  1  0.46400000  0.44100000  0.07880000  1.0 -0.0609916723
C  C117  1  0.58200000  0.19220000  0.24650000  1.0 0.5640294762
C  C118  1  0.75720000  0.34400000  0.22560000  1.0 0.5780689182
C  C119  1  0.48450000  0.19030000  0.24330000  1.0 -0.0334429456
C  C120  1  0.75890000  0.44150000  0.22740000  1.0 -0.0334429456
C  C121  1  0.41410000  0.17230000  0.29610000  1.0 -0.0992332605
C  C122  1  0.46330000  0.20420000  0.18610000  1.0 -0.1267211115
C  C123  1  0.75430000  0.47640000  0.28170000  1.0 -0.0893331435
C  C124  1  0.76540000  0.49990000  0.17340000  1.0 -0.1191576788
C  C125  1  0.32880000  0.16500000  0.29100000  1.0 -0.1591855698
C  C126  1  0.37590000  0.19870000  0.18230000  1.0 -0.1591855698
C  C127  1  0.75670000  0.56490000  0.28240000  1.0 -0.1410272557
C  C128  1  0.76620000  0.59000000  0.17420000  1.0 -0.1692424976
C  C129  1  0.73730000  0.23830000  0.41520000  1.0 0.1003776425
C  C130  1  0.72870000  0.08680000  0.42880000  1.0 0.0896615783
C  C131  1  0.30730000  0.17750000  0.23480000  1.0 0.0705941992
C  C132  1  0.76010000  0.62630000  0.23020000  1.0 0.0705941992
C  C133  1  0.73980000  0.23880000  0.47500000  1.0 -0.1901274783
C  C134  1  0.72820000  0.08290000  0.49050000  1.0 -0.2002969844
C  C135  1  0.21230000  0.16800000  0.23060000  1.0 0.0622203002
C  C136  1  0.75960000  0.72330000  0.23260000  1.0 0.0705941992
C  C137  1  0.73080000  0.16030000  0.51660000  1.0 0.1105771223
C  C138  1  0.20000000  0.14920000  0.17440000  1.0 -0.1806573955
C  C139  1  0.13460000  0.18120000  0.28060000  1.0 -0.1591855698
C  C140  1  0.79060000  0.77640000  0.17830000  1.0 -0.1591855698
C  C141  1  0.72750000  0.76580000  0.28820000  1.0 -0.1410272557
C  C142  1  0.72760000  0.16030000  0.58240000  1.0 0.0622203002
C  C143  1  0.10880000  0.14720000  0.17080000  1.0 -0.1089277346
C  C144  1  0.04640000  0.17440000  0.27600000  1.0 -0.0992332605
C  C145  1  0.78930000  0.86680000  0.18220000  1.0 -0.0992332605
C  C146  1  0.72750000  0.85210000  0.29190000  1.0 -0.0893331435
C  C147  1  0.69340000  0.24260000  0.61250000  1.0 -0.1191576788
C  C148  1  0.75550000  0.08260000  0.61770000  1.0 -0.1410272557
C  C149  1  0.03190000  0.15660000  0.22020000  1.0 -0.0694820422
C  C150  1  0.76060000  0.90820000  0.23730000  1.0 -0.0609916723
C  C151  1  0.69580000  0.24350000  0.67200000  1.0 -0.1534155993
C  C152  1  0.75520000  0.08530000  0.67870000  1.0 -0.1692424976
C  C153  1  0.93830000  0.15410000  0.21640000  1.0 0.5780689182
C  C154  1  0.76230000  0.00380000  0.23840000  1.0 0.5780689182
C  C155  1  0.72850000  0.16630000  0.70750000  1.0 0.0259575579
C  C156  1  0.73670000  0.16860000  0.77110000  1.0 0.0214026105
C  C157  1  0.68600000  0.24280000  0.80350000  1.0 -0.0789132448
C  C158  1  0.79400000  0.10050000  0.79830000  1.0 -0.0609916723
C  C159  1  0.69260000  0.24890000  0.86310000  1.0 -0.0694820422
C  C160  1  0.80060000  0.10660000  0.85790000  1.0 -0.0694820422
C  C161  1  0.74990000  0.18070000  0.89030000  1.0 -0.0431689417
C  C162  1  0.76030000  0.18200000  0.95490000  1.0 -0.0101492594
C  C163  1  0.74190000  0.26020000  0.98300000  1.0 -0.0992332605
C  C164  1  0.78940000  0.10210000  0.98850000  1.0 -0.0893331435
C  C165  1  0.75270000  0.26060000  0.04160000  1.0 -0.0101492594
C  C166  1  0.79930000  0.10840000  0.04550000  1.0 -0.0101492594
C  C167  1  0.71110000  0.13110000  0.00400000  1.0 -0.0893331435
C  C168  1  0.72090000  0.13200000  0.06350000  1.0 -0.0191613738
C  C169  1  0.82900000  0.23460000  0.02480000  1.0 0.0073898068
C  C170  1  0.81920000  0.23380000  0.96530000  1.0 -0.0694820422
C  C171  1  0.76090000  0.24260000  0.78830000  1.0 -0.0431689417
C  C172  1  0.76400000  0.25330000  0.84760000  1.0 -0.0694820422
C  C173  1  0.72700000  0.10720000  0.87340000  1.0 -0.052113905
C  C174  1  0.71900000  0.09790000  0.81440000  1.0 -0.0789132448
N  N1  1  0.22020000  0.81630000  0.92606000  1.0 -0.0992332605
N  N2  1  0.26500000  0.83670000  0.60900000  1.0 -0.2312903566
N  N3  1  0.52430000  0.50640000  0.34190000  1.0 -0.2199296741
N  N4  1  0.47570000  0.49360000  0.65810000  1.0 -0.2199296741
N  N5  1  0.77980000  0.18370000  0.07394000  1.0 -0.0992332605
N  N6  1  0.73500000  0.16330000  0.39100000  1.0 -0.2312903566
O  O1  1  0.35780000  0.80110000  0.80400000  1.0 -0.569301167
O  O2  1  0.22410000  0.68690000  0.82640000  1.0 -0.5492042093
O  O3  1  0.07820000  0.83700000  0.83660000  1.0 -0.5408773212
O  O4  1  0.21110000  0.95100000  0.81250000  1.0 -0.5629686279
O  O5  1  0.40390000  0.81180000  0.70030000  1.0 -0.5327217369
O  O6  1  0.26160000  0.70150000  0.72320000  1.0 -0.5492042093
O  O7  1  0.26170000  0.96440000  0.70870000  1.0 -0.5408773212
O  O8  1  0.12270000  0.85770000  0.73200000  1.0 -0.5629686279
O  O9  1  0.33740000  0.51990000  0.56500000  1.0 -0.5408773212
O  O10  1  0.38150000  0.53810000  0.46130000  1.0 -0.5629686279
O  O11  1  0.52510000  0.63950000  0.43630000  1.0 -0.5408773212
O  O12  1  0.51310000  0.37670000  0.46070000  1.0 -0.5629686279
O  O13  1  0.66260000  0.48010000  0.43500000  1.0 -0.5408773212
O  O14  1  0.61850000  0.46190000  0.53870000  1.0 -0.5629686279
O  O15  1  0.47490000  0.36050000  0.56370000  1.0 -0.5408773212
O  O16  1  0.48690000  0.62330000  0.53930000  1.0 -0.5629686279
O  O17  1  0.64220000  0.19890000  0.19600000  1.0 -0.569301167
O  O18  1  0.77590000  0.31310000  0.17360000  1.0 -0.5492042093
O  O19  1  0.92180000  0.16300000  0.16340000  1.0 -0.5408773212
O  O20  1  0.78890000  0.04900000  0.18750000  1.0 -0.5629686279
O  O21  1  0.59610000  0.18820000  0.29970000  1.0 -0.5327217369
O  O22  1  0.73840000  0.29850000  0.27680000  1.0 -0.5492042093
O  O23  1  0.73830000  0.03560000  0.29130000  1.0 -0.5408773212
O  O24  1  0.87730000  0.14230000  0.26800000  1.0 -0.5629686279
