# DDEC6 charges by PACMAN v1.1 (https://github.com/mtap-research/PACMAN-charge/)
data_SIHLUQ_FSR_pacman
_symmetry_space_group_name_H-M   'P 1'
_cell_length_a   9.33465000
_cell_length_b   9.33465000
_cell_length_c   9.33465000
_cell_angle_alpha   93.06390000
_cell_angle_beta   93.06390000
_cell_angle_gamma   93.06390000
_symmetry_Int_Tables_number   1
_chemical_formula_structural   AlPO4
_chemical_formula_sum   'Al6 P6 O24'
_cell_volume   809.76334473
_cell_formula_units_Z   6
loop_
 _symmetry_equiv_pos_site_id
 _symmetry_equiv_pos_as_xyz
  1  'x, y, z'
loop_
 _atom_site_type_symbol
 _atom_site_label
 _atom_site_symmetry_multiplicity
 _atom_site_fract_x
 _atom_site_fract_y
 _atom_site_fract_z
 _atom_site_occupancy
 _atom_site_charge
Al  Al1  1  0.63430000  0.16680000  0.40740000  1.0 1.7099396653
Al  Al2  1  0.16680000  0.40740000  0.63430000  1.0 1.7165731854
Al  Al3  1  0.40740000  0.63430000  0.16680000  1.0 1.7165731854
Al  Al4  1  0.36570000  0.83320000  0.59260000  1.0 1.7165731854
Al  Al5  1  0.83320000  0.59260000  0.36570000  1.0 1.7165731854
Al  Al6  1  0.59260000  0.36570000  0.83320000  1.0 1.7099396653
P  P1  1  0.63260000  0.39130000  0.16510000  1.0 1.4661576516
P  P2  1  0.39130000  0.16510000  0.63260000  1.0 1.4661576516
P  P3  1  0.16510000  0.63260000  0.39130000  1.0 1.4661576516
P  P4  1  0.36740000  0.60870000  0.83490000  1.0 1.4661576516
P  P5  1  0.60870000  0.83490000  0.36740000  1.0 1.4645430512
P  P6  1  0.83490000  0.36740000  0.60870000  1.0 1.4645430512
O  O1  1  0.61720000  0.25960000  0.25400000  1.0 -0.7609966927
O  O2  1  0.25960000  0.25400000  0.61720000  1.0 -0.7609966927
O  O3  1  0.25400000  0.61720000  0.25960000  1.0 -0.7609966927
O  O4  1  0.38280000  0.74040000  0.74600000  1.0 -0.7653733426
O  O5  1  0.74040000  0.74600000  0.38280000  1.0 -0.7653733426
O  O6  1  0.74600000  0.38280000  0.74040000  1.0 -0.7609966927
O  O7  1  0.47890000  0.17790000  0.49920000  1.0 -0.8282645974
O  O8  1  0.17790000  0.49920000  0.47890000  1.0 -0.8282645974
O  O9  1  0.49920000  0.47890000  0.17790000  1.0 -0.8282645974
O  O10  1  0.52110000  0.82210000  0.50080000  1.0 -0.8282645974
O  O11  1  0.82210000  0.50080000  0.52110000  1.0 -0.8282645974
O  O12  1  0.50080000  0.52110000  0.82210000  1.0 -0.8282645974
O  O13  1  0.66170000  0.99170000  0.35230000  1.0 -0.7609966927
O  O14  1  0.99170000  0.35230000  0.66170000  1.0 -0.7609966927
O  O15  1  0.35230000  0.66170000  0.99170000  1.0 -0.7609966927
O  O16  1  0.33830000  0.00830000  0.64770000  1.0 -0.7609966927
O  O17  1  0.00830000  0.64770000  0.33830000  1.0 -0.7609966927
O  O18  1  0.64770000  0.33830000  0.00830000  1.0 -0.7609966927
O  O19  1  0.78410000  0.23120000  0.51660000  1.0 -0.8282645974
O  O20  1  0.23120000  0.51660000  0.78410000  1.0 -0.8282645974
O  O21  1  0.51660000  0.78410000  0.23120000  1.0 -0.8282645974
O  O22  1  0.21590000  0.76880000  0.48340000  1.0 -0.8282645974
O  O23  1  0.76880000  0.48340000  0.21590000  1.0 -0.8282645974
O  O24  1  0.48340000  0.21590000  0.76880000  1.0 -0.8282645974
