# DDEC6 charges by PACMAN v1.1 (https://github.com/mtap-research/PACMAN-charge/)
data_SINLAE_ASR_pacman
_symmetry_space_group_name_H-M   'P 1'
_cell_length_a   11.03200000
_cell_length_b   11.03200000
_cell_length_c   22.83800000
_cell_angle_alpha   90.00000000
_cell_angle_beta   90.00000000
_cell_angle_gamma   120.00000000
_symmetry_Int_Tables_number   1
_chemical_formula_structural   Co3P4H24C30(NO)6
_chemical_formula_sum   'Co6 P8 H48 C60 N12 O12'
_cell_volume   2407.11703661
_cell_formula_units_Z   2
loop_
 _symmetry_equiv_pos_site_id
 _symmetry_equiv_pos_as_xyz
  1  'x, y, z'
loop_
 _atom_site_type_symbol
 _atom_site_label
 _atom_site_symmetry_multiplicity
 _atom_site_fract_x
 _atom_site_fract_y
 _atom_site_fract_z
 _atom_site_occupancy
 _atom_site_charge
Co  Co1  1  0.50000000  0.50000000  0.50000000  1.0 0.5976702265
Co  Co2  1  0.00000000  0.50000000  0.50000000  1.0 0.5976702265
Co  Co3  1  0.50000000  0.00000000  0.50000000  1.0 0.5976702265
Co  Co4  1  0.50000000  0.50000000  0.00000000  1.0 0.5976702265
Co  Co5  1  0.00000000  0.50000000  0.00000000  1.0 0.5976702265
Co  Co6  1  0.50000000  0.00000000  0.00000000  1.0 0.5939286642
P  P1  1  0.33333333  0.66666667  0.47793000  1.0 0.4135745272
P  P2  1  0.66666667  0.33333333  0.47793000  1.0 0.4135745272
P  P3  1  0.33333333  0.66666667  0.02207000  1.0 0.4135745272
P  P4  1  0.66666667  0.33333333  0.02207000  1.0 0.4135745272
P  P5  1  0.66666667  0.33333333  0.52207000  1.0 0.4135745272
P  P6  1  0.33333333  0.66666667  0.52207000  1.0 0.4135745272
P  P7  1  0.66666667  0.33333333  0.97793000  1.0 0.4135745272
P  P8  1  0.33333333  0.66666667  0.97793000  1.0 0.4135745272
H  H1  1  0.69670000  0.63410000  0.60470000  1.0 0.0932202514
H  H2  1  0.06260000  0.69670000  0.60470000  1.0 0.0932202514
H  H3  1  0.36590000  0.06260000  0.60470000  1.0 0.0932202514
H  H4  1  0.30330000  0.36590000  0.60470000  1.0 0.0932202514
H  H5  1  0.93740000  0.30330000  0.60470000  1.0 0.0932202514
H  H6  1  0.63410000  0.93740000  0.60470000  1.0 0.0932202514
H  H7  1  0.36590000  0.30330000  0.89530000  1.0 0.0932202514
H  H8  1  0.06260000  0.36590000  0.89530000  1.0 0.0932202514
H  H9  1  0.69670000  0.06260000  0.89530000  1.0 0.0932202514
H  H10  1  0.63410000  0.69670000  0.89530000  1.0 0.0932202514
H  H11  1  0.93740000  0.63410000  0.89530000  1.0 0.0932202514
H  H12  1  0.30330000  0.93740000  0.89530000  1.0 0.0932202514
H  H13  1  0.30330000  0.36590000  0.39530000  1.0 0.0932202514
H  H14  1  0.93740000  0.30330000  0.39530000  1.0 0.0932202514
H  H15  1  0.63410000  0.93740000  0.39530000  1.0 0.0932202514
H  H16  1  0.69670000  0.63410000  0.39530000  1.0 0.0932202514
H  H17  1  0.06260000  0.69670000  0.39530000  1.0 0.0932202514
H  H18  1  0.36590000  0.06260000  0.39530000  1.0 0.0932202514
H  H19  1  0.63410000  0.69670000  0.10470000  1.0 0.0932202514
H  H20  1  0.93740000  0.63410000  0.10470000  1.0 0.0932202514
H  H21  1  0.30330000  0.93740000  0.10470000  1.0 0.0932202514
H  H22  1  0.36590000  0.30330000  0.10470000  1.0 0.0932202514
H  H23  1  0.06260000  0.36590000  0.10470000  1.0 0.0932202514
H  H24  1  0.69670000  0.06260000  0.10470000  1.0 0.0932202514
H  H25  1  0.70360000  0.63870000  0.70520000  1.0 0.1187882863
H  H26  1  0.06490000  0.70360000  0.70520000  1.0 0.1187882863
H  H27  1  0.36130000  0.06490000  0.70520000  1.0 0.1187882863
H  H28  1  0.29640000  0.36130000  0.70520000  1.0 0.1187882863
H  H29  1  0.93510000  0.29640000  0.70520000  1.0 0.1187882863
H  H30  1  0.63870000  0.93510000  0.70520000  1.0 0.1187882863
H  H31  1  0.36130000  0.29640000  0.79480000  1.0 0.1187882863
H  H32  1  0.06490000  0.36130000  0.79480000  1.0 0.1187882863
H  H33  1  0.70360000  0.06490000  0.79480000  1.0 0.1187882863
H  H34  1  0.63870000  0.70360000  0.79480000  1.0 0.1187882863
H  H35  1  0.93510000  0.63870000  0.79480000  1.0 0.1187882863
H  H36  1  0.29640000  0.93510000  0.79480000  1.0 0.1187882863
H  H37  1  0.29640000  0.36130000  0.29480000  1.0 0.1187882863
H  H38  1  0.93510000  0.29640000  0.29480000  1.0 0.1187882863
H  H39  1  0.63870000  0.93510000  0.29480000  1.0 0.1187882863
H  H40  1  0.70360000  0.63870000  0.29480000  1.0 0.1187882863
H  H41  1  0.06490000  0.70360000  0.29480000  1.0 0.1187882863
H  H42  1  0.36130000  0.06490000  0.29480000  1.0 0.1187882863
H  H43  1  0.63870000  0.70360000  0.20520000  1.0 0.1187882863
H  H44  1  0.93510000  0.63870000  0.20520000  1.0 0.1187882863
H  H45  1  0.29640000  0.93510000  0.20520000  1.0 0.1187882863
H  H46  1  0.36130000  0.29640000  0.20520000  1.0 0.1187882863
H  H47  1  0.06490000  0.36130000  0.20520000  1.0 0.1187882863
H  H48  1  0.70360000  0.06490000  0.20520000  1.0 0.1187882863
C  C1  1  0.61430000  0.57790000  0.62510000  1.0 0.0676256532
C  C2  1  0.03640000  0.61430000  0.62510000  1.0 0.0676256532
C  C3  1  0.42210000  0.03640000  0.62510000  1.0 0.0676256532
C  C4  1  0.38570000  0.42210000  0.62510000  1.0 0.0676256532
C  C5  1  0.96360000  0.38570000  0.62510000  1.0 0.0676256532
C  C6  1  0.57790000  0.96360000  0.62510000  1.0 0.0676256532
C  C7  1  0.42210000  0.38570000  0.87490000  1.0 0.0676256532
C  C8  1  0.03640000  0.42210000  0.87490000  1.0 0.0676256532
C  C9  1  0.61430000  0.03640000  0.87490000  1.0 0.0676256532
C  C10  1  0.57790000  0.61430000  0.87490000  1.0 0.0676256532
C  C11  1  0.96360000  0.57790000  0.87490000  1.0 0.0676256532
C  C12  1  0.38570000  0.96360000  0.87490000  1.0 0.0676256532
C  C13  1  0.38570000  0.42210000  0.37490000  1.0 0.0676256532
C  C14  1  0.96360000  0.38570000  0.37490000  1.0 0.0676256532
C  C15  1  0.57790000  0.96360000  0.37490000  1.0 0.0676256532
C  C16  1  0.61430000  0.57790000  0.37490000  1.0 0.0676256532
C  C17  1  0.03640000  0.61430000  0.37490000  1.0 0.0676256532
C  C18  1  0.42210000  0.03640000  0.37490000  1.0 0.0676256532
C  C19  1  0.57790000  0.61430000  0.12510000  1.0 0.0676256532
C  C20  1  0.96360000  0.57790000  0.12510000  1.0 0.0676256532
C  C21  1  0.38570000  0.96360000  0.12510000  1.0 0.0676256532
C  C22  1  0.42210000  0.38570000  0.12510000  1.0 0.0676256532
C  C23  1  0.03640000  0.42210000  0.12510000  1.0 0.0676256532
C  C24  1  0.61430000  0.03640000  0.12510000  1.0 0.0676256532
C  C25  1  0.61960000  0.58150000  0.68600000  1.0 -0.2108770878
C  C26  1  0.03810000  0.61960000  0.68600000  1.0 -0.2108770878
C  C27  1  0.41850000  0.03810000  0.68600000  1.0 -0.2108770878
C  C28  1  0.38040000  0.41850000  0.68600000  1.0 -0.2108770878
C  C29  1  0.96190000  0.38040000  0.68600000  1.0 -0.2108770878
C  C30  1  0.58150000  0.96190000  0.68600000  1.0 -0.2108770878
C  C31  1  0.41850000  0.38040000  0.81400000  1.0 -0.2108770878
C  C32  1  0.03810000  0.41850000  0.81400000  1.0 -0.2108770878
C  C33  1  0.61960000  0.03810000  0.81400000  1.0 -0.2108770878
C  C34  1  0.58150000  0.61960000  0.81400000  1.0 -0.2108770878
C  C35  1  0.96190000  0.58150000  0.81400000  1.0 -0.2108770878
C  C36  1  0.38040000  0.96190000  0.81400000  1.0 -0.2108770878
C  C37  1  0.38040000  0.41850000  0.31400000  1.0 -0.2108770878
C  C38  1  0.96190000  0.38040000  0.31400000  1.0 -0.2108770878
C  C39  1  0.58150000  0.96190000  0.31400000  1.0 -0.2108770878
C  C40  1  0.61960000  0.58150000  0.31400000  1.0 -0.2108770878
C  C41  1  0.03810000  0.61960000  0.31400000  1.0 -0.2108770878
C  C42  1  0.41850000  0.03810000  0.31400000  1.0 -0.2108770878
C  C43  1  0.58150000  0.61960000  0.18600000  1.0 -0.2108770878
C  C44  1  0.96190000  0.58150000  0.18600000  1.0 -0.2108770878
C  C45  1  0.38040000  0.96190000  0.18600000  1.0 -0.2108770878
C  C46  1  0.41850000  0.38040000  0.18600000  1.0 -0.2108770878
C  C47  1  0.03810000  0.41850000  0.18600000  1.0 -0.2108770878
C  C48  1  0.61960000  0.03810000  0.18600000  1.0 -0.2108770878
C  C49  1  0.50000000  0.50000000  0.71740000  1.0 0.0932202514
C  C50  1  0.00000000  0.50000000  0.71740000  1.0 0.0932202514
C  C51  1  0.50000000  0.00000000  0.71740000  1.0 0.0932202514
C  C52  1  0.50000000  0.50000000  0.78260000  1.0 0.0932202514
C  C53  1  0.00000000  0.50000000  0.78260000  1.0 0.0932202514
C  C54  1  0.50000000  0.00000000  0.78260000  1.0 0.0932202514
C  C55  1  0.50000000  0.50000000  0.28260000  1.0 0.0932202514
C  C56  1  0.00000000  0.50000000  0.28260000  1.0 0.0932202514
C  C57  1  0.50000000  0.00000000  0.28260000  1.0 0.0932202514
C  C58  1  0.50000000  0.50000000  0.21740000  1.0 0.0932202514
C  C59  1  0.00000000  0.50000000  0.21740000  1.0 0.0932202514
C  C60  1  0.50000000  0.00000000  0.21740000  1.0 0.0932202514
N  N1  1  0.50000000  0.50000000  0.59480000  1.0 -0.2664382465
N  N2  1  0.00000000  0.50000000  0.59480000  1.0 -0.2664382465
N  N3  1  0.50000000  0.00000000  0.59480000  1.0 -0.2664382465
N  N4  1  0.50000000  0.50000000  0.90520000  1.0 -0.2664382465
N  N5  1  0.00000000  0.50000000  0.90520000  1.0 -0.2664382465
N  N6  1  0.50000000  0.00000000  0.90520000  1.0 -0.2664382465
N  N7  1  0.50000000  0.50000000  0.40520000  1.0 -0.2664382465
N  N8  1  0.00000000  0.50000000  0.40520000  1.0 -0.2664382465
N  N9  1  0.50000000  0.00000000  0.40520000  1.0 -0.2664382465
N  N10  1  0.50000000  0.50000000  0.09480000  1.0 -0.2664382465
N  N11  1  0.00000000  0.50000000  0.09480000  1.0 -0.2664382465
N  N12  1  0.50000000  0.00000000  0.09480000  1.0 -0.2664382465
O  O1  1  0.33740000  0.53680000  0.50000000  1.0 -0.5385358788
O  O2  1  0.80060000  0.33740000  0.50000000  1.0 -0.5385358788
O  O3  1  0.46320000  0.80060000  0.50000000  1.0 -0.5385358788
O  O4  1  0.66260000  0.46320000  0.50000000  1.0 -0.5385358788
O  O5  1  0.19940000  0.66260000  0.50000000  1.0 -0.5385358788
O  O6  1  0.53680000  0.19940000  0.50000000  1.0 -0.5385358788
O  O7  1  0.46320000  0.66260000  0.00000000  1.0 -0.5385358788
O  O8  1  0.80060000  0.46320000  0.00000000  1.0 -0.5385358788
O  O9  1  0.33740000  0.80060000  0.00000000  1.0 -0.5385358788
O  O10  1  0.53680000  0.33740000  0.00000000  1.0 -0.5385358788
O  O11  1  0.19940000  0.53680000  0.00000000  1.0 -0.5385358788
O  O12  1  0.66260000  0.19940000  0.00000000  1.0 -0.5385358788
