# DDEC6 charges by PACMAN v1.1 (https://github.com/mtap-research/PACMAN-charge/)
data_SIQCOM_FSR_pacman
_symmetry_space_group_name_H-M   'P 1'
_cell_length_a   13.07900000
_cell_length_b   13.85300000
_cell_length_c   14.26300000
_cell_angle_alpha   90.00000000
_cell_angle_beta   107.98300000
_cell_angle_gamma   90.00000000
_symmetry_Int_Tables_number   1
_chemical_formula_structural   CsCd2H26C35NO17
_chemical_formula_sum   'Cs2 Cd4 H52 C70 N2 O34'
_cell_volume   2457.97481701
_cell_formula_units_Z   2
loop_
 _symmetry_equiv_pos_site_id
 _symmetry_equiv_pos_as_xyz
  1  'x, y, z'
loop_
 _atom_site_type_symbol
 _atom_site_label
 _atom_site_symmetry_multiplicity
 _atom_site_fract_x
 _atom_site_fract_y
 _atom_site_fract_z
 _atom_site_occupancy
 _atom_site_charge
Cs  Cs1  1  0.74484000  0.10151000  0.73894000  1.0 0.8822233734
Cs  Cs2  1  0.25516000  0.60151000  0.26106000  1.0 0.8822233734
Cd  Cd1  1  0.50237000  0.92825000  0.75670000  1.0 0.9750706014
Cd  Cd2  1  0.49763000  0.42825000  0.24330000  1.0 0.9750706014
Cd  Cd3  1  0.01166000  0.27085000  0.73706000  1.0 0.9724739549
Cd  Cd4  1  0.98834000  0.77085000  0.26294000  1.0 0.9724739549
H  H1  1  0.47220000  0.64210000  0.95120000  1.0 0.1398702089
H  H2  1  0.52780000  0.14210000  0.04880000  1.0 0.1398702089
H  H3  1  0.19500000  0.52630000  0.96020000  1.0 0.1285812266
H  H4  1  0.80500000  0.02630000  0.03980000  1.0 0.1285812266
H  H5  1  0.10400000  0.62200000  0.82600000  1.0 0.1205650652
H  H6  1  0.89600000  0.12200000  0.17400000  1.0 0.1205650652
H  H7  1  0.19560000  0.73250000  0.76110000  1.0 0.1285812266
H  H8  1  0.80440000  0.23250000  0.23890000  1.0 0.1205650652
H  H9  1  0.47610000  0.20410000  0.49900000  1.0 0.1205650652
H  H10  1  0.52390000  0.70410000  0.50100000  1.0 0.1205650652
H  H11  1  0.23030000  0.15960000  0.60730000  1.0 0.1468400693
H  H12  1  0.76970000  0.65960000  0.39270000  1.0 0.1468400693
H  H13  1  0.13150000  0.27270000  0.49950000  1.0 0.1285812266
H  H14  1  0.86850000  0.77270000  0.50050000  1.0 0.1285812266
H  H15  1  0.20770000  0.35650000  0.39750000  1.0 0.1285812266
H  H16  1  0.79230000  0.85650000  0.60250000  1.0 0.1285812266
H  H17  1  0.04070000  0.56060000  0.54410000  1.0 0.1398702089
H  H18  1  0.95930000  0.06060000  0.45590000  1.0 0.1398702089
H  H19  1  0.31690000  0.67050000  0.52600000  1.0 0.1205650652
H  H20  1  0.68310000  0.17050000  0.47400000  1.0 0.1205650652
H  H21  1  0.41320000  0.56460000  0.65040000  1.0 0.1285812266
H  H22  1  0.58680000  0.06460000  0.34960000  1.0 0.1285812266
H  H23  1  0.32390000  0.45550000  0.71870000  1.0 0.1285812266
H  H24  1  0.67610000  0.95550000  0.28130000  1.0 0.1285812266
H  H25  1  0.99790000  0.00220000  0.96310000  1.0 0.1285812266
H  H26  1  0.00210000  0.50220000  0.03690000  1.0 0.1285812266
H  H27  1  0.25790000  0.00120000  0.87350000  1.0 0.1398702089
H  H28  1  0.74210000  0.50120000  0.12650000  1.0 0.1398702089
H  H29  1  0.33190000  0.87560000  0.98200000  1.0 0.1285812266
H  H30  1  0.66810000  0.37560000  0.01800000  1.0 0.1285812266
H  H31  1  0.23460000  0.81450000  0.07910000  1.0 0.1205650652
H  H32  1  0.76540000  0.31450000  0.92090000  1.0 0.1205650652
H  H33  1  0.55250000  0.38180000  0.62510000  1.0 0.1133456511
H  H34  1  0.44750000  0.88180000  0.37490000  1.0 0.1133456511
H  H35  1  0.61860000  0.44950000  0.71000000  1.0 0.1205650652
H  H36  1  0.38140000  0.94950000  0.29000000  1.0 0.1205650652
H  H37  1  0.61720000  0.49950000  0.55180000  1.0 0.0692825672
H  H38  1  0.38280000  0.99950000  0.44820000  1.0 0.0692825672
H  H39  1  0.80180000  0.53760000  0.59330000  1.0 0.1398702089
H  H40  1  0.19820000  0.03760000  0.40670000  1.0 0.1468400693
H  H41  1  0.76120000  0.55710000  0.68410000  1.0 0.1398702089
H  H42  1  0.23880000  0.05710000  0.31590000  1.0 0.1398702089
H  H43  1  0.82770000  0.46370000  0.68070000  1.0 0.1468400693
H  H44  1  0.17230000  0.96370000  0.31930000  1.0 0.1468400693
H  H45  1  0.63040000  0.34820000  0.49340000  1.0 0.2724753079
H  H46  1  0.36960000  0.84820000  0.50660000  1.0 0.2724753079
H  H47  1  0.71480000  0.40850000  0.47820000  1.0 0.2724753079
H  H48  1  0.28520000  0.90850000  0.52180000  1.0 0.275297111
H  H49  1  0.74030000  0.33810000  0.55770000  1.0 0.2724753079
H  H50  1  0.25970000  0.83810000  0.44230000  1.0 0.2724753079
H  H51  1  0.74580000  0.34480000  0.71460000  1.0 0.3142931518
H  H52  1  0.25420000  0.84480000  0.28540000  1.0 0.3142931518
C  C1  1  0.39750000  0.63890000  0.92800000  1.0 -0.0928560178
C  C2  1  0.60250000  0.13890000  0.07200000  1.0 -0.0928560178
C  C3  1  0.34490000  0.57530000  0.97240000  1.0 -0.0221720638
C  C4  1  0.65510000  0.07530000  0.02760000  1.0 -0.0221720638
C  C5  1  0.23300000  0.56900000  0.93320000  1.0 -0.0701855687
C  C6  1  0.76700000  0.06900000  0.06680000  1.0 -0.0701855687
C  C7  1  0.17820000  0.62740000  0.85270000  1.0 -0.079356199
C  C8  1  0.82180000  0.12740000  0.14730000  1.0 -0.079356199
C  C9  1  0.23300000  0.69270000  0.81270000  1.0 -0.1012503045
C  C10  1  0.76700000  0.19270000  0.18730000  1.0 -0.1012503045
C  C11  1  0.34220000  0.69840000  0.84940000  1.0 -0.0221720638
C  C12  1  0.65780000  0.19840000  0.15060000  1.0 -0.0221720638
C  C13  1  0.40620000  0.52240000  0.06280000  1.0 0.5511519295
C  C14  1  0.59380000  0.02240000  0.93720000  1.0 0.5511519295
C  C15  1  0.40380000  0.77350000  0.81310000  1.0 0.5511519295
C  C16  1  0.59620000  0.27350000  0.18690000  1.0 0.5511519295
C  C17  1  0.40650000  0.21790000  0.49890000  1.0 -0.1012503045
C  C18  1  0.59350000  0.71790000  0.50110000  1.0 -0.1012503045
C  C19  1  0.36200000  0.16730000  0.56250000  1.0 -0.0502044595
C  C20  1  0.63800000  0.66730000  0.43750000  1.0 -0.0502044595
C  C21  1  0.25960000  0.19060000  0.56370000  1.0 -0.079356199
C  C22  1  0.74040000  0.69060000  0.43630000  1.0 -0.079356199
C  C23  1  0.20160000  0.25900000  0.50080000  1.0 -0.0701855687
C  C24  1  0.79840000  0.75900000  0.49920000  1.0 -0.0701855687
C  C25  1  0.24740000  0.30850000  0.43830000  1.0 -0.1012503045
C  C26  1  0.75260000  0.80850000  0.56170000  1.0 -0.1012503045
C  C27  1  0.34660000  0.28910000  0.43530000  1.0 -0.0221720638
C  C28  1  0.65340000  0.78910000  0.56470000  1.0 -0.0221720638
C  C29  1  0.42510000  0.09090000  0.62610000  1.0 0.5511519295
C  C30  1  0.57490000  0.59090000  0.37390000  1.0 0.5511519295
C  C31  1  0.39610000  0.33970000  0.36450000  1.0 0.5585180578
C  C32  1  0.60390000  0.83970000  0.63550000  1.0 0.5585180578
C  C33  1  0.11540000  0.56010000  0.56420000  1.0 -0.1078774406
C  C34  1  0.88460000  0.06010000  0.43580000  1.0 -0.1078774406
C  C35  1  0.17080000  0.62190000  0.52090000  1.0 -0.0391894336
C  C36  1  0.82920000  0.12190000  0.47910000  1.0 -0.0391894336
C  C37  1  0.28070000  0.62630000  0.55320000  1.0 -0.1078774406
C  C38  1  0.71930000  0.12630000  0.44680000  1.0 -0.1078774406
C  C39  1  0.33850000  0.56260000  0.62870000  1.0 -0.079356199
C  C40  1  0.66150000  0.06260000  0.37130000  1.0 -0.079356199
C  C41  1  0.28570000  0.49810000  0.67010000  1.0 -0.1012503045
C  C42  1  0.71430000  0.99810000  0.32990000  1.0 -0.1012503045
C  C43  1  0.17200000  0.49740000  0.63780000  1.0 0.0114012371
C  C44  1  0.82800000  0.99740000  0.36220000  1.0 0.0114012371
C  C45  1  0.11280000  0.42010000  0.67660000  1.0 0.528394824
C  C46  1  0.88720000  0.92010000  0.32340000  1.0 0.528394824
C  C47  1  0.10970000  0.68280000  0.43680000  1.0 0.5511519295
C  C48  1  0.89030000  0.18280000  0.56320000  1.0 0.5511519295
C  C49  1  0.06480000  0.97650000  0.96700000  1.0 -0.1012503045
C  C50  1  0.93520000  0.47650000  0.03300000  1.0 -0.1012503045
C  C51  1  0.11910000  0.01400000  0.90790000  1.0 -0.0303887575
C  C52  1  0.88090000  0.51400000  0.09210000  1.0 -0.0303887575
C  C53  1  0.22020000  0.97590000  0.91340000  1.0 -0.0502044595
C  C54  1  0.77980000  0.47590000  0.08660000  1.0 -0.0502044595
C  C55  1  0.26480000  0.90090000  0.97790000  1.0 -0.079356199
C  C56  1  0.73520000  0.40090000  0.02210000  1.0 -0.079356199
C  C57  1  0.20550000  0.86500000  0.03620000  1.0 -0.0928560178
C  C58  1  0.79450000  0.36500000  0.96380000  1.0 -0.0928560178
C  C59  1  0.10550000  0.90020000  0.03410000  1.0 -0.013452297
C  C60  1  0.89450000  0.40020000  0.96590000  1.0 -0.013452297
C  C61  1  0.04320000  0.86480000  0.09930000  1.0 0.5422192273
C  C62  1  0.95680000  0.36480000  0.90070000  1.0 0.5422192273
C  C63  1  0.07540000  0.09980000  0.84540000  1.0 0.5660345611
C  C64  1  0.92460000  0.59980000  0.15460000  1.0 0.5660345611
C  C65  1  0.62460000  0.40320000  0.66090000  1.0 -0.0701855687
C  C66  1  0.37540000  0.90320000  0.33910000  1.0 -0.0701855687
C  C67  1  0.67040000  0.45350000  0.59060000  1.0 0.1468400693
C  C68  1  0.32960000  0.95350000  0.40940000  1.0 0.1468400693
C  C69  1  0.77510000  0.50810000  0.64200000  1.0 -0.4600211697
C  C70  1  0.22490000  0.00810000  0.35800000  1.0 -0.4600211697
N  N1  1  0.69100000  0.37970000  0.52320000  1.0 -0.4497371259
N  N2  1  0.30900000  0.87970000  0.47680000  1.0 -0.4497371259
O  O1  1  0.50470000  0.51350000  0.08370000  1.0 -0.4600211697
O  O2  1  0.49530000  0.01350000  0.91630000  1.0 -0.4600211697
O  O3  1  0.35370000  0.49000000  0.11750000  1.0 -0.5508290472
O  O4  1  0.64630000  0.99000000  0.88250000  1.0 -0.5508290472
O  O5  1  0.35150000  0.83960000  0.75750000  1.0 -0.5074610653
O  O6  1  0.64850000  0.33960000  0.24250000  1.0 -0.5074610653
O  O7  1  0.50720000  0.77390000  0.84210000  1.0 -0.4992911572
O  O8  1  0.49280000  0.27390000  0.15790000  1.0 -0.4992911572
O  O9  1  0.51700000  0.06680000  0.62300000  1.0 -0.6257350984
O  O10  1  0.48300000  0.56680000  0.37700000  1.0 -0.6257350984
O  O11  1  0.38550000  0.04730000  0.68610000  1.0 -0.4992911572
O  O12  1  0.61450000  0.54730000  0.31390000  1.0 -0.4992911572
O  O13  1  0.33300000  0.38190000  0.29190000  1.0 -0.5302720907
O  O14  1  0.66700000  0.88190000  0.70810000  1.0 -0.5302720907
O  O15  1  0.49420000  0.33570000  0.38100000  1.0 -0.5302720907
O  O16  1  0.50580000  0.83570000  0.61900000  1.0 -0.5302720907
O  O17  1  0.16800000  0.36210000  0.74280000  1.0 -0.4710722807
O  O18  1  0.83200000  0.86210000  0.25720000  1.0 -0.4710722807
O  O19  1  0.01570000  0.41490000  0.64410000  1.0 -0.4992911572
O  O20  1  0.98430000  0.91490000  0.35590000  1.0 -0.4992911572
O  O21  1  0.00570000  0.68360000  0.40970000  1.0 -0.4992911572
O  O22  1  0.99430000  0.18360000  0.59030000  1.0 -0.4992911572
O  O23  1  0.15790000  0.72780000  0.38700000  1.0 -0.586842114
O  O24  1  0.84210000  0.22780000  0.61300000  1.0 -0.586842114
O  O25  1  0.10150000  0.82970000  0.18290000  1.0 -0.573745543
O  O26  1  0.89850000  0.32970000  0.81710000  1.0 -0.573745543
O  O27  1  0.94730000  0.86720000  0.07150000  1.0 -0.4298328104
O  O28  1  0.05270000  0.36720000  0.92850000  1.0 -0.4298328104
O  O29  1  0.97690000  0.11650000  0.82100000  1.0 -0.586842114
O  O30  1  0.02310000  0.61650000  0.17900000  1.0 -0.586842114
O  O31  1  0.13900000  0.15420000  0.81880000  1.0 -0.4410105515
O  O32  1  0.86100000  0.65420000  0.18120000  1.0 -0.4410105515
O  O33  1  0.68360000  0.32330000  0.70980000  1.0 -0.4410105515
O  O34  1  0.31640000  0.82330000  0.29020000  1.0 -0.4410105515
