# DDEC6 charges by PACMAN v1.1 (https://github.com/mtap-research/PACMAN-charge/)
data_SIQCAA_ASR_pacman
_symmetry_space_group_name_H-M   'P 1'
_cell_length_a   20.23700000
_cell_length_b   23.82700000
_cell_length_c   35.87700000
_cell_angle_alpha   83.75500000
_cell_angle_beta   73.63000000
_cell_angle_gamma   79.08000000
_symmetry_Int_Tables_number   1
_chemical_formula_structural   Fe2CoH54C87N3O13
_chemical_formula_sum   'Fe8 Co4 H216 C348 N12 O52'
_cell_volume   16269.39260531
_cell_formula_units_Z   4
loop_
 _symmetry_equiv_pos_site_id
 _symmetry_equiv_pos_as_xyz
  1  'x, y, z'
loop_
 _atom_site_type_symbol
 _atom_site_label
 _atom_site_symmetry_multiplicity
 _atom_site_fract_x
 _atom_site_fract_y
 _atom_site_fract_z
 _atom_site_occupancy
 _atom_site_charge
Fe  Fe1  1  0.09768000  0.15674000  0.35381000  1.0 1.1864356606
Fe  Fe2  1  0.17616000  0.09052000  0.41980000  1.0 1.2575049012
Fe  Fe3  1  0.82595000  0.64813000  0.86209000  1.0 1.2225318758
Fe  Fe4  1  0.91125000  0.57944000  0.92254000  1.0 1.2091130225
Fe  Fe5  1  0.90232000  0.84326000  0.64619000  1.0 1.1864356606
Fe  Fe6  1  0.82384000  0.90948000  0.58020000  1.0 1.2575049012
Fe  Fe7  1  0.17405000  0.35187000  0.13791000  1.0 1.2225318758
Fe  Fe8  1  0.08875000  0.42056000  0.07746000  1.0 1.2043425052
Co  Co1  1  0.25541000  0.17692000  0.34970000  1.0 1.1285031347
Co  Co2  1  0.74942000  0.55942000  0.93244000  1.0 1.1285031347
Co  Co3  1  0.74459000  0.82308000  0.65030000  1.0 1.1285031347
Co  Co4  1  0.25058000  0.44058000  0.06756000  1.0 1.1285031347
H  H1  1  0.24442000  0.11418000  0.03817000  1.0 0.1302038397
H  H2  1  0.22442000  0.14595000  0.09926000  1.0 0.1207228999
H  H3  1  0.52824000  0.93273000  0.96385000  1.0 0.1104395206
H  H4  1  0.35418000  0.01151000  0.12962000  1.0 0.1207228999
H  H5  1  0.31457000  0.01166000  0.94193000  1.0 0.1302038397
H  H6  1  0.92254000  0.79963000  0.85608000  1.0 0.1302038397
H  H7  1  0.67403000  0.79348000  0.89692000  1.0 0.1207228999
H  H8  1  0.10971000  0.94484000  0.96863000  1.0 0.1207228999
H  H9  1  0.44247000  0.01139000  0.98640000  1.0 0.1302038397
H  H10  1  0.17171000  0.03183000  0.04572000  1.0 0.1207228999
H  H11  1  0.95715000  0.88191000  0.86580000  1.0 0.1207228999
H  H12  1  0.95058000  0.09358000  0.95480000  1.0 0.1207228999
H  H13  1  0.08363000  0.05127000  0.01360000  1.0 0.1207228999
H  H14  1  0.56492000  0.68585000  0.97443000  1.0 0.1302038397
H  H15  1  0.06466000  0.86674000  0.95850000  1.0 0.1104395206
H  H16  1  0.22435000  0.02739000  0.90995000  1.0 0.1302038397
H  H17  1  0.13663000  0.15952000  0.22944000  1.0 0.1302038397
H  H18  1  0.36162000  0.96972000  0.07044000  1.0 0.1302038397
H  H19  1  0.27117000  0.33519000  0.63771000  1.0 0.1207228999
H  H20  1  0.33582000  0.11217000  0.23188000  1.0 0.1207228999
H  H21  1  0.16823000  0.13526000  0.16530000  1.0 0.1104395206
H  H22  1  0.36968000  0.08518000  0.16834000  1.0 0.1207228999
H  H23  1  0.00666000  0.04317000  0.89660000  1.0 0.1207228999
H  H24  1  0.29645000  0.90497000  0.01208000  1.0 0.1302038397
H  H25  1  0.58507000  0.86954000  0.92003000  1.0 0.1023364247
H  H26  1  0.34134000  0.94518000  0.39596000  1.0 0.1302038397
H  H27  1  0.92028000  0.50576000  0.38006000  1.0 0.1104395206
H  H28  1  0.86827000  0.60064000  0.37137000  1.0 0.1207228999
H  H29  1  0.83068000  0.77459000  0.34015000  1.0 0.1302038397
H  H30  1  0.89874000  0.18601000  0.95891000  1.0 0.1207228999
H  H31  1  0.24020000  0.28938000  0.59182000  1.0 0.1023364247
H  H32  1  0.96838000  0.96260000  0.88592000  1.0 0.1207228999
H  H33  1  0.73924000  0.79764000  0.30941000  1.0 0.1302038397
H  H34  1  0.38430000  0.82841000  0.98803000  1.0 0.1207228999
H  H35  1  0.00798000  0.32487000  0.35198000  1.0 0.1207228999
H  H36  1  0.96046000  0.42294000  0.34809000  1.0 0.1104395206
H  H37  1  0.14001000  0.14441000  0.92415000  1.0 0.1207228999
H  H38  1  0.48145000  0.76450000  0.99665000  1.0 0.1104395206
H  H39  1  0.81251000  0.37313000  0.93491000  1.0 0.1302038397
H  H40  1  0.67048000  0.38925000  0.55627000  1.0 0.1302038397
H  H41  1  0.02082000  0.17968000  0.51169000  1.0 0.1302038397
H  H42  1  0.19458000  0.36375000  0.34545000  1.0 0.1207228999
H  H43  1  0.67365000  0.47132000  0.85344000  1.0 0.1302038397
H  H44  1  0.03290000  0.31475000  0.95300000  1.0 0.1104395206
H  H45  1  0.47218000  0.31214000  0.61093000  1.0 0.1302038397
H  H46  1  0.62604000  0.68690000  0.23545000  1.0 0.1302038397
H  H47  1  0.34435000  0.32064000  0.46947000  1.0 0.1104395206
H  H48  1  0.84148000  0.25993000  0.59943000  1.0 0.1104395206
H  H49  1  0.62374000  0.74581000  0.33394000  1.0 0.1207228999
H  H50  1  0.79974000  0.64455000  0.26032000  1.0 0.1207228999
H  H51  1  0.77581000  0.58158000  0.77391000  1.0 0.1302038397
H  H52  1  0.64231000  0.65672000  0.17426000  1.0 0.1207228999
H  H53  1  0.22734000  0.16437000  0.51189000  1.0 0.1207228999
H  H54  1  0.53092000  0.81612000  0.35783000  1.0 0.1104395206
H  H55  1  0.25743000  0.21674000  0.55540000  1.0 0.1104395206
H  H56  1  0.15207000  0.46065000  0.34210000  1.0 0.1104395206
H  H57  1  0.74851000  0.43750000  0.63189000  1.0 0.1302038397
H  H58  1  0.08478000  0.23897000  0.92715000  1.0 0.1104395206
H  H59  1  0.24980000  0.46092000  0.62024000  1.0 0.1302038397
H  H60  1  0.89627000  0.62812000  0.28346000  1.0 0.1302038397
H  H61  1  0.59167000  0.43280000  0.75625000  1.0 0.1104395206
H  H62  1  0.31361000  0.27259000  0.42313000  1.0 0.1302038397
H  H63  1  0.64810000  0.82138000  0.22617000  1.0 0.1302038397
H  H64  1  0.36124000  0.40565000  0.69771000  1.0 0.1207228999
H  H65  1  0.40333000  0.33386000  0.50789000  1.0 0.1207228999
H  H66  1  0.26888000  0.45049000  0.74839000  1.0 0.1104395206
H  H67  1  0.43030000  0.38250000  0.55255000  1.0 0.1302038397
H  H68  1  0.93611000  0.23896000  0.55523000  1.0 0.1023364247
H  H69  1  0.08704000  0.84241000  0.39559000  1.0 0.1023364247
H  H70  1  0.12281000  0.92515000  0.40724000  1.0 0.1207228999
H  H71  1  0.03537000  0.01483000  0.32550000  1.0 0.1302038397
H  H72  1  0.99960000  0.93209000  0.31385000  1.0 0.1104395206
H  H73  1  0.94159000  0.73736000  0.96009000  1.0 0.1207228999
H  H74  1  0.77147000  0.47069000  0.68486000  1.0 0.1104395206
H  H75  1  0.58329000  0.31046000  0.61404000  1.0 0.1302038397
H  H76  1  0.98910000  0.81747000  0.96538000  1.0 0.1207228999
H  H77  1  0.81180000  0.73917000  0.20170000  1.0 0.1302038397
H  H78  1  0.16063000  0.50493000  0.66759000  1.0 0.1104395206
H  H79  1  0.83127000  0.71076000  0.14101000  1.0 0.1207228999
H  H80  1  0.86430000  0.27329000  0.93265000  1.0 0.1104395206
H  H81  1  0.42397000  0.47628000  0.64037000  1.0 0.1302038397
H  H82  1  0.75953000  0.33630000  0.51149000  1.0 0.1207228999
H  H83  1  0.88462000  0.60672000  0.03712000  1.0 0.1207228999
H  H84  1  0.74712000  0.31176000  0.64366000  1.0 0.1302038397
H  H85  1  0.75281000  0.54057000  0.72451000  1.0 0.1023364247
H  H86  1  0.67464000  0.62992000  0.04722000  1.0 0.1302038397
H  H87  1  0.42544000  0.05169000  0.30792000  1.0 0.1302038397
H  H88  1  0.51529000  0.97633000  0.28073000  1.0 0.1104395206
H  H89  1  0.81670000  0.26000000  0.47993000  1.0 0.1207228999
H  H90  1  0.65118000  0.42945000  0.80258000  1.0 0.1104395206
H  H91  1  0.57059000  0.39976000  0.70100000  1.0 0.1207228999
H  H92  1  0.42813000  0.87068000  0.37092000  1.0 0.1104395206
H  H93  1  0.53990000  0.47445000  0.64344000  1.0 0.1302038397
H  H94  1  0.65297000  0.66608000  0.10904000  1.0 0.1104395206
H  H95  1  0.56079000  0.89975000  0.25131000  1.0 0.1104395206
H  H96  1  0.86236000  0.64310000  0.09986000  1.0 0.1104395206
H  H97  1  0.98715000  0.41303000  0.94880000  1.0 0.1207228999
H  H98  1  0.10930000  0.54272000  0.30966000  1.0 0.1023364247
H  H99  1  0.05446000  0.64106000  0.30224000  1.0 0.1302038397
H  H100  1  0.90815000  0.21250000  0.43567000  1.0 0.1302038397
H  H101  1  0.19709000  0.51450000  0.78264000  1.0 0.1104395206
H  H102  1  0.06903000  0.51895000  0.71313000  1.0 0.1023364247
H  H103  1  0.97468000  0.56148000  0.76160000  1.0 0.1207228999
H  H104  1  0.10274000  0.55703000  0.83111000  1.0 0.1302038397
H  H105  1  0.01188000  0.78932000  0.40154000  1.0 0.1104395206
H  H106  1  0.96389000  0.71098000  0.39344000  1.0 0.1302038397
H  H107  1  0.96654000  0.77079000  0.28295000  1.0 0.1302038397
H  H108  1  0.01454000  0.84912000  0.29106000  1.0 0.1207228999
H  H109  1  0.75558000  0.88582000  0.96183000  1.0 0.1302038397
H  H110  1  0.77558000  0.85405000  0.90074000  1.0 0.1207228999
H  H111  1  0.47176000  0.06727000  0.03615000  1.0 0.1104395206
H  H112  1  0.64582000  0.98849000  0.87038000  1.0 0.1207228999
H  H113  1  0.68543000  0.98834000  0.05807000  1.0 0.1302038397
H  H114  1  0.07746000  0.20037000  0.14392000  1.0 0.1302038397
H  H115  1  0.32597000  0.20652000  0.10308000  1.0 0.1207228999
H  H116  1  0.89029000  0.05516000  0.03137000  1.0 0.1207228999
H  H117  1  0.55753000  0.98861000  0.01360000  1.0 0.1302038397
H  H118  1  0.82829000  0.96817000  0.95428000  1.0 0.1207228999
H  H119  1  0.04285000  0.11809000  0.13420000  1.0 0.1207228999
H  H120  1  0.04942000  0.90642000  0.04520000  1.0 0.1207228999
H  H121  1  0.91637000  0.94873000  0.98640000  1.0 0.1207228999
H  H122  1  0.43508000  0.31415000  0.02557000  1.0 0.1302038397
H  H123  1  0.93534000  0.13326000  0.04150000  1.0 0.1104395206
H  H124  1  0.77565000  0.97261000  0.09005000  1.0 0.1302038397
H  H125  1  0.86337000  0.84048000  0.77056000  1.0 0.1302038397
H  H126  1  0.63838000  0.03028000  0.92956000  1.0 0.1302038397
H  H127  1  0.72883000  0.66481000  0.36229000  1.0 0.1207228999
H  H128  1  0.66418000  0.88783000  0.76812000  1.0 0.1207228999
H  H129  1  0.83177000  0.86474000  0.83470000  1.0 0.1104395206
H  H130  1  0.63032000  0.91482000  0.83166000  1.0 0.1207228999
H  H131  1  0.99334000  0.95683000  0.10340000  1.0 0.1207228999
H  H132  1  0.70355000  0.09503000  0.98792000  1.0 0.1302038397
H  H133  1  0.41493000  0.13046000  0.07997000  1.0 0.1023364247
H  H134  1  0.65866000  0.05482000  0.60404000  1.0 0.1302038397
H  H135  1  0.07972000  0.49424000  0.61994000  1.0 0.1104395206
H  H136  1  0.13173000  0.39936000  0.62863000  1.0 0.1207228999
H  H137  1  0.16932000  0.22541000  0.65985000  1.0 0.1302038397
H  H138  1  0.10126000  0.81399000  0.04109000  1.0 0.1207228999
H  H139  1  0.75980000  0.71062000  0.40818000  1.0 0.1023364247
H  H140  1  0.03162000  0.03740000  0.11408000  1.0 0.1207228999
H  H141  1  0.26076000  0.20236000  0.69059000  1.0 0.1302038397
H  H142  1  0.61570000  0.17159000  0.01197000  1.0 0.1207228999
H  H143  1  0.99202000  0.67513000  0.64802000  1.0 0.1207228999
H  H144  1  0.03954000  0.57706000  0.65191000  1.0 0.1104395206
H  H145  1  0.85999000  0.85559000  0.07585000  1.0 0.1207228999
H  H146  1  0.51855000  0.23550000  0.00335000  1.0 0.1104395206
H  H147  1  0.18749000  0.62687000  0.06509000  1.0 0.1302038397
H  H148  1  0.32952000  0.61075000  0.44373000  1.0 0.1302038397
H  H149  1  0.97918000  0.82032000  0.48831000  1.0 0.1302038397
H  H150  1  0.80542000  0.63625000  0.65455000  1.0 0.1207228999
H  H151  1  0.32635000  0.52868000  0.14656000  1.0 0.1302038397
H  H152  1  0.96710000  0.68525000  0.04700000  1.0 0.1104395206
H  H153  1  0.52782000  0.68786000  0.38907000  1.0 0.1302038397
H  H154  1  0.37396000  0.31310000  0.76455000  1.0 0.1302038397
H  H155  1  0.65565000  0.67936000  0.53053000  1.0 0.1104395206
H  H156  1  0.15852000  0.74007000  0.40057000  1.0 0.1104395206
H  H157  1  0.37626000  0.25419000  0.66606000  1.0 0.1207228999
H  H158  1  0.20026000  0.35545000  0.73968000  1.0 0.1207228999
H  H159  1  0.22419000  0.41842000  0.22609000  1.0 0.1302038397
H  H160  1  0.35769000  0.34328000  0.82574000  1.0 0.1207228999
H  H161  1  0.77266000  0.83563000  0.48811000  1.0 0.1207228999
H  H162  1  0.46908000  0.18388000  0.64217000  1.0 0.1104395206
H  H163  1  0.74257000  0.78326000  0.44460000  1.0 0.1104395206
H  H164  1  0.84793000  0.53935000  0.65790000  1.0 0.1104395206
H  H165  1  0.25149000  0.56250000  0.36811000  1.0 0.1302038397
H  H166  1  0.91522000  0.76103000  0.07285000  1.0 0.1104395206
H  H167  1  0.75020000  0.53908000  0.37976000  1.0 0.1302038397
H  H168  1  0.10373000  0.37188000  0.71654000  1.0 0.1302038397
H  H169  1  0.40833000  0.56720000  0.24375000  1.0 0.1104395206
H  H170  1  0.68639000  0.72741000  0.57687000  1.0 0.1302038397
H  H171  1  0.35190000  0.17862000  0.77383000  1.0 0.1302038397
H  H172  1  0.63876000  0.59435000  0.30229000  1.0 0.1207228999
H  H173  1  0.59667000  0.66614000  0.49211000  1.0 0.1207228999
H  H174  1  0.73112000  0.54951000  0.25161000  1.0 0.1104395206
H  H175  1  0.56970000  0.61750000  0.44745000  1.0 0.1302038397
H  H176  1  0.06389000  0.76104000  0.44477000  1.0 0.1023364247
H  H177  1  0.91296000  0.15759000  0.60441000  1.0 0.1023364247
H  H178  1  0.87719000  0.07485000  0.59276000  1.0 0.1207228999
H  H179  1  0.96463000  0.98517000  0.67450000  1.0 0.1302038397
H  H180  1  0.00040000  0.06791000  0.68615000  1.0 0.1104395206
H  H181  1  0.05841000  0.26264000  0.03991000  1.0 0.1207228999
H  H182  1  0.22853000  0.52931000  0.31514000  1.0 0.1104395206
H  H183  1  0.41671000  0.68954000  0.38596000  1.0 0.1302038397
H  H184  1  0.01090000  0.18253000  0.03462000  1.0 0.1207228999
H  H185  1  0.18820000  0.26083000  0.79830000  1.0 0.1302038397
H  H186  1  0.83937000  0.49507000  0.33241000  1.0 0.1104395206
H  H187  1  0.16873000  0.28924000  0.85899000  1.0 0.1207228999
H  H188  1  0.13570000  0.72671000  0.06735000  1.0 0.1104395206
H  H189  1  0.57603000  0.52372000  0.35963000  1.0 0.1302038397
H  H190  1  0.24047000  0.66370000  0.48851000  1.0 0.1207228999
H  H191  1  0.11538000  0.39328000  0.96288000  1.0 0.1207228999
H  H192  1  0.25288000  0.68824000  0.35634000  1.0 0.1302038397
H  H193  1  0.24719000  0.45943000  0.27549000  1.0 0.1023364247
H  H194  1  0.32536000  0.37008000  0.95278000  1.0 0.1302038397
H  H195  1  0.57456000  0.94831000  0.69208000  1.0 0.1302038397
H  H196  1  0.48471000  0.02367000  0.71927000  1.0 0.1104395206
H  H197  1  0.18330000  0.74000000  0.52007000  1.0 0.1207228999
H  H198  1  0.34882000  0.57055000  0.19742000  1.0 0.1104395206
H  H199  1  0.42941000  0.60024000  0.29900000  1.0 0.1207228999
H  H200  1  0.57187000  0.12932000  0.62908000  1.0 0.1104395206
H  H201  1  0.46010000  0.52555000  0.35656000  1.0 0.1302038397
H  H202  1  0.34703000  0.33392000  0.89096000  1.0 0.1104395206
H  H203  1  0.43921000  0.10025000  0.74869000  1.0 0.1104395206
H  H204  1  0.13764000  0.35690000  0.90014000  1.0 0.1104395206
H  H205  1  0.01285000  0.58697000  0.05120000  1.0 0.1207228999
H  H206  1  0.89070000  0.45728000  0.69034000  1.0 0.1023364247
H  H207  1  0.94554000  0.35894000  0.69776000  1.0 0.1302038397
H  H208  1  0.09185000  0.78750000  0.56433000  1.0 0.1302038397
H  H209  1  0.80291000  0.48550000  0.21736000  1.0 0.1104395206
H  H210  1  0.93097000  0.48105000  0.28687000  1.0 0.1023364247
H  H211  1  0.02532000  0.43852000  0.23840000  1.0 0.1207228999
H  H212  1  0.89726000  0.44297000  0.16889000  1.0 0.1302038397
H  H213  1  0.98812000  0.21068000  0.59846000  1.0 0.1104395206
H  H214  1  0.03611000  0.28902000  0.60656000  1.0 0.1302038397
H  H215  1  0.03346000  0.22921000  0.71705000  1.0 0.1302038397
H  H216  1  0.98546000  0.15088000  0.70894000  1.0 0.1207228999
C  C1  1  0.46790000  0.87340000  0.97400000  1.0 0.0698685928
C  C2  1  0.63020000  0.73130000  0.93130000  1.0 -0.0418959453
C  C3  1  0.36090000  0.96580000  0.00160000  1.0 0.1694759437
C  C4  1  0.68650000  0.68270000  0.91790000  1.0 0.6069788544
C  C5  1  0.28500000  0.08370000  0.12126000  1.0 0.0503271814
C  C6  1  0.03080000  0.15910000  0.43950000  1.0 0.6069788544
C  C7  1  0.01200000  0.90720000  0.91990000  1.0 0.0604684235
C  C8  1  0.26380000  0.09100000  0.05700000  1.0 -0.1799747814
C  C9  1  0.25470000  0.11050000  0.09330000  1.0 -0.129134635
C  C10  1  0.27030000  0.10380000  0.16019000  1.0 0.0781078599
C  C11  1  0.48120000  0.92690000  0.97380000  1.0 -0.1395267646
C  C12  1  0.25320000  0.18130000  0.43320000  1.0 0.6069788544
C  C13  1  0.21220000  0.15260000  0.27960000  1.0 0.6013468881
C  C14  1  0.30200000  0.03650000  0.04850000  1.0 0.1799505933
C  C15  1  0.93080000  0.76050000  0.90480000  1.0 -0.0215727727
C  C16  1  0.32880000  0.03100000  0.11210000  1.0 -0.1488107613
C  C17  1  0.32050000  0.05570000  0.36650000  1.0 0.6069788544
C  C18  1  0.98340000  0.85560000  0.91540000  1.0 0.085635355
C  C19  1  0.26720000  0.01960000  0.95670000  1.0 -0.1689564374
C  C20  1  0.93540000  0.80210000  0.87930000  1.0 -0.0812301967
C  C21  1  0.74690000  0.55620000  0.85030000  1.0 0.6155478566
C  C22  1  0.73180000  0.53210000  0.81670000  1.0 -0.0215727727
C  C23  1  0.52180000  0.82310000  0.96030000  1.0 0.0698685928
C  C24  1  0.63410000  0.78590000  0.91700000  1.0 -0.0812301967
C  C25  1  0.06250000  0.00290000  0.93420000  1.0 0.1799505933
C  C26  1  0.07980000  0.94940000  0.95190000  1.0 -0.1888306729
C  C27  1  0.04990000  0.10830000  0.94120000  1.0 0.1694759437
C  C28  1  0.13410000  0.27550000  0.34820000  1.0 0.589336416
C  C29  1  0.78130000  0.61270000  0.03770000  1.0 -0.0418959453
C  C30  1  0.25190000  0.02180000  0.99640000  1.0 0.1425282685
C  C31  1  0.43020000  0.97460000  0.98710000  1.0 -0.1888306729
C  C32  1  0.90920000  0.70410000  0.90030000  1.0 0.6069788544
C  C33  1  0.37630000  0.00440000  0.35320000  1.0 -0.0215727727
C  C34  1  0.98630000  0.22450000  0.94220000  1.0 0.0604684235
C  C35  1  0.70100000  0.35360000  0.60490000  1.0 0.1605885951
C  C36  1  0.18310000  0.03200000  0.01810000  1.0 -0.1689564374
C  C37  1  0.20200000  0.48390000  0.71300000  1.0 0.0698685928
C  C38  1  0.86300000  0.25360000  0.52390000  1.0 0.0698685928
C  C39  1  0.10500000  0.03320000  0.37270000  1.0 0.6013468881
C  C40  1  0.95850000  0.85060000  0.88450000  1.0 -0.1799747814
C  C41  1  0.14620000  0.04070000  0.96000000  1.0 0.1490588067
C  C42  1  0.97860000  0.12280000  0.94990000  1.0 -0.1689564374
C  C43  1  0.13100000  0.04250000  0.99900000  1.0 -0.1591913
C  C44  1  0.76250000  0.72610000  0.28030000  1.0 0.1694759437
C  C45  1  0.57030000  0.72290000  0.96260000  1.0 -0.0812301967
C  C46  1  0.26990000  0.21290000  0.46220000  1.0 -0.0418959453
C  C47  1  0.05380000  0.90260000  0.94530000  1.0 -0.1488107613
C  C48  1  0.23200000  0.13670000  0.23870000  1.0 -0.0456605458
C  C49  1  0.21390000  0.02900000  0.93740000  1.0 -0.1689564374
C  C50  1  0.68650000  0.45560000  0.72540000  1.0 0.0698685928
C  C51  1  0.18380000  0.14380000  0.21760000  1.0 -0.0812301967
C  C52  1  0.33480000  0.00670000  0.07580000  1.0 -0.1992289962
C  C53  1  0.96600000  0.58390000  0.83370000  1.0 0.6013468881
C  C54  1  0.29660000  0.33700000  0.61110000  1.0 -0.1888306729
C  C55  1  0.97510000  0.19070000  0.46950000  1.0 -0.0418959453
C  C56  1  0.30080000  0.11550000  0.21840000  1.0 -0.0881141329
C  C57  1  0.10760000  0.33570000  0.34770000  1.0 -0.0643739791
C  C58  1  0.79980000  0.58910000  0.99870000  1.0 0.6069788544
C  C59  1  0.20290000  0.12850000  0.17920000  1.0 -0.1488107613
C  C60  1  0.32200000  0.09910000  0.18040000  1.0 -0.1591913
C  C61  1  0.01980000  0.00740000  0.90930000  1.0 -0.1799747814
C  C62  1  0.34360000  0.91070000  0.00220000  1.0 -0.1888306729
C  C63  1  0.64600000  0.78050000  0.27730000  1.0 0.1605885951
C  C64  1  0.32030000  0.30440000  0.54520000  1.0 0.0698685928
C  C65  1  0.58060000  0.83190000  0.93100000  1.0 -0.1689564374
C  C66  1  0.37620000  0.95120000  0.37250000  1.0 -0.0881141329
C  C67  1  0.94740000  0.53280000  0.36490000  1.0 -0.1591913
C  C68  1  0.91720000  0.59030000  0.36080000  1.0 -0.1888306729
C  C69  1  0.35040000  0.36850000  0.59830000  1.0 0.1694759437
C  C70  1  0.82600000  0.74870000  0.32310000  1.0 -0.1799747814
C  C71  1  0.94830000  0.17760000  0.95130000  1.0 -0.129134635
C  C72  1  0.47800000  0.91350000  0.32300000  1.0 0.0698685928
C  C73  1  0.28020000  0.30770000  0.58370000  1.0 -0.1488107613
C  C74  1  0.31250000  0.42610000  0.65620000  1.0 0.1605885951
C  C75  1  0.99700000  0.95870000  0.90330000  1.0 -0.1395267646
C  C76  1  0.87280000  0.46410000  0.93350000  1.0 0.6069788544
C  C77  1  0.77070000  0.76250000  0.30460000  1.0 -0.1799747814
C  C78  1  0.39590000  0.86520000  0.98820000  1.0 -0.129134635
C  C79  1  0.30090000  0.27440000  0.51690000  1.0 0.0698685928
C  C80  1  0.03690000  0.35290000  0.34970000  1.0 -0.0812301967
C  C81  1  0.80840000  0.28840000  0.55170000  1.0 0.0604684235
C  C82  1  0.00800000  0.41130000  0.34830000  1.0 -0.1689564374
C  C83  1  0.09050000  0.15310000  0.93150000  1.0 -0.1799747814
C  C84  1  0.52010000  0.77060000  0.97530000  1.0 -0.1488107613
C  C85  1  0.70040000  0.48370000  0.75760000  1.0 0.0698685928
C  C86  1  0.89710000  0.40140000  0.93820000  1.0 -0.0269257889
C  C87  1  0.05160000  0.45390000  0.34710000  1.0 0.0781078599
C  C88  1  0.95480000  0.28480000  0.94260000  1.0 0.0604684235
C  C89  1  0.85930000  0.36160000  0.93640000  1.0 -0.0812301967
C  C90  1  0.70460000  0.36190000  0.56490000  1.0 -0.1799747814
C  C91  1  0.53640000  0.86780000  0.30670000  1.0 0.0604684235
C  C92  1  0.97990000  0.19800000  0.50450000  1.0 -0.0881141329
C  C93  1  0.65880000  0.41110000  0.66350000  1.0 0.1605885951
C  C94  1  0.14690000  0.37580000  0.34590000  1.0 -0.0715745294
C  C95  1  0.69020000  0.48470000  0.82710000  1.0 -0.0881141329
C  C96  1  0.98870000  0.32610000  0.94770000  1.0 -0.1591913
C  C97  1  0.48570000  0.34490000  0.61770000  1.0 -0.1591913
C  C98  1  0.66710000  0.69200000  0.21550000  1.0 -0.1689564374
C  C99  1  0.31940000  0.28960000  0.47820000  1.0 -0.1591913
C  C100  1  0.80580000  0.28440000  0.59030000  1.0 -0.1395267646
C  C101  1  0.57350000  0.39380000  0.62870000  1.0 0.1605885951
C  C102  1  0.61020000  0.77700000  0.31730000  1.0 -0.1799747814
C  C103  1  0.80800000  0.67240000  0.27480000  1.0 -0.1689564374
C  C104  1  0.75080000  0.55030000  0.78040000  1.0 -0.0812301967
C  C105  1  0.67690000  0.67390000  0.17980000  1.0 -0.129134635
C  C106  1  0.25100000  0.19600000  0.50250000  1.0 -0.0881141329
C  C107  1  0.55640000  0.81880000  0.33120000  1.0 -0.129134635
C  C108  1  0.26880000  0.22840000  0.52850000  1.0 -0.1591913
C  C109  1  0.87150000  0.69990000  0.31670000  1.0 0.1490588067
C  C110  1  0.12130000  0.43410000  0.34470000  1.0 -0.1689564374
C  C111  1  0.71730000  0.43500000  0.65710000  1.0 -0.1799747814
C  C112  1  0.05710000  0.20950000  0.93290000  1.0 -0.1395267646
C  C113  1  0.25310000  0.45800000  0.64630000  1.0 -0.1799747814
C  C114  1  0.86250000  0.66160000  0.29010000  1.0 -0.1591913
C  C115  1  0.62450000  0.43380000  0.73140000  1.0 -0.1488107613
C  C116  1  0.30240000  0.25980000  0.44980000  1.0 -0.0812301967
C  C117  1  0.62630000  0.82210000  0.25330000  1.0 -0.1799747814
C  C118  1  0.31920000  0.42510000  0.69220000  1.0 -0.1888306729
C  C119  1  0.71850000  0.71900000  0.22320000  1.0 0.1490588067
C  C120  1  0.37540000  0.33400000  0.53410000  1.0 -0.129134635
C  C121  1  0.26440000  0.45260000  0.72260000  1.0 -0.1591913
C  C122  1  0.39040000  0.36410000  0.56070000  1.0 -0.1888306729
C  C123  1  0.92780000  0.23130000  0.53170000  1.0 -0.1591913
C  C124  1  0.04000000  0.87950000  0.35360000  1.0 0.0781078599
C  C125  1  0.07660000  0.87740000  0.38140000  1.0 -0.1591913
C  C126  1  0.09780000  0.92660000  0.38828000  1.0 -0.0881141329
C  C127  1  0.08250000  0.97780000  0.36750000  1.0 -0.0215727727
C  C128  1  0.04590000  0.97980000  0.33973000  1.0 -0.0881141329
C  C129  1  0.02460000  0.93070000  0.33281000  1.0 -0.1591913
C  C130  1  0.94820000  0.76590000  0.93940000  1.0 -0.0984239011
C  C131  1  0.43850000  0.39570000  0.62650000  1.0 0.1425282685
C  C132  1  0.72960000  0.45560000  0.68900000  1.0 -0.1395267646
C  C133  1  0.55040000  0.34470000  0.61930000  1.0 -0.1591913
C  C134  1  0.97560000  0.81440000  0.94250000  1.0 -0.1591913
C  C135  1  0.77680000  0.72310000  0.19570000  1.0 -0.1488107613
C  C136  1  0.20090000  0.48450000  0.67460000  1.0 -0.129134635
C  C137  1  0.78890000  0.70580000  0.15990000  1.0 -0.129134635
C  C138  1  0.88930000  0.30110000  0.93660000  1.0 -0.1591913
C  C139  1  0.45730000  0.44230000  0.63520000  1.0 -0.1591913
C  C140  1  0.95340000  0.63100000  0.34300000  1.0 0.1694759437
C  C141  1  0.75690000  0.33050000  0.53850000  1.0 -0.129134635
C  C142  1  0.83800000  0.61790000  0.05220000  1.0 -0.0984239011
C  C143  1  0.74980000  0.31670000  0.61670000  1.0 -0.1689564374
C  C144  1  0.74020000  0.68060000  0.15010000  1.0 0.0698685928
C  C145  1  0.73630000  0.52610000  0.75060000  1.0 -0.1488107613
C  C146  1  0.71210000  0.63170000  0.05790000  1.0 -0.0812301967
C  C147  1  0.01890000  0.51570000  0.34630000  1.0 0.0698685928
C  C148  1  0.42640000  0.01420000  0.32010000  1.0 -0.0881141329
C  C149  1  0.47970000  0.96960000  0.30370000  1.0 -0.1591913
C  C150  1  0.85870000  0.24500000  0.48700000  1.0 -0.1395267646
C  C151  1  0.67620000  0.46060000  0.79720000  1.0 -0.1591913
C  C152  1  0.61330000  0.41300000  0.69800000  1.0 -0.1799747814
C  C153  1  0.42740000  0.90720000  0.35730000  1.0 -0.1591913
C  C154  1  0.52680000  0.44140000  0.63670000  1.0 -0.1689564374
C  C155  1  0.69960000  0.65330000  0.09460000  1.0 -0.1591913
C  C156  1  0.75580000  0.65640000  0.11030000  1.0 0.0781078599
C  C157  1  0.57210000  0.86830000  0.26830000  1.0 -0.129134635
C  C158  1  0.82490000  0.63990000  0.08950000  1.0 -0.1689564374
C  C159  1  0.96160000  0.38520000  0.94540000  1.0 -0.0881141329
C  C160  1  0.06160000  0.55520000  0.32250000  1.0 -0.1689564374
C  C161  1  0.02960000  0.61380000  0.31890000  1.0 -0.1799747814
C  C162  1  0.91290000  0.21580000  0.46090000  1.0 -0.0984239011
C  C163  1  0.15190000  0.52400000  0.77837000  1.0 -0.1591913
C  C164  1  0.14190000  0.51270000  0.74333000  1.0 0.0698685928
C  C165  1  0.07590000  0.52670000  0.73708000  1.0 -0.1689564374
C  C166  1  0.01980000  0.55190000  0.76587000  1.0 -0.0881141329
C  C167  1  0.02980000  0.56330000  0.80092000  1.0 -0.0215727727
C  C168  1  0.09590000  0.54930000  0.80716000  1.0 -0.0881141329
C  C169  1  0.00270000  0.78560000  0.37750000  1.0 -0.1395267646
C  C170  1  0.97420000  0.73900000  0.37270000  1.0 -0.1799747814
C  C171  1  0.96070000  0.73350000  0.33740000  1.0 0.1694759437
C  C172  1  0.97570000  0.77460000  0.30700000  1.0 -0.1888306729
C  C173  1  0.00430000  0.82110000  0.31180000  1.0 -0.129134635
C  C174  1  0.01770000  0.82660000  0.34710000  1.0 0.0604684235
C  C175  1  0.53210000  0.12660000  0.02600000  1.0 0.0698685928
C  C176  1  0.36980000  0.26870000  0.06870000  1.0 -0.0418959453
C  C177  1  0.63910000  0.03420000  0.99840000  1.0 0.1694759437
C  C178  1  0.31350000  0.31730000  0.08210000  1.0 0.6069788544
C  C179  1  0.71500000  0.91630000  0.87874000  1.0 0.0503271814
C  C180  1  0.96920000  0.84090000  0.56050000  1.0 0.6069788544
C  C181  1  0.98800000  0.09280000  0.08010000  1.0 0.0604684235
C  C182  1  0.73620000  0.90900000  0.94300000  1.0 -0.1799747814
C  C183  1  0.74530000  0.88950000  0.90670000  1.0 -0.129134635
C  C184  1  0.72970000  0.89620000  0.83981000  1.0 0.0781078599
C  C185  1  0.51880000  0.07310000  0.02620000  1.0 -0.1395267646
C  C186  1  0.74680000  0.81870000  0.56680000  1.0 0.6069788544
C  C187  1  0.78780000  0.84740000  0.72040000  1.0 0.6013468881
C  C188  1  0.69800000  0.96350000  0.95150000  1.0 0.1799505933
C  C189  1  0.06920000  0.23950000  0.09520000  1.0 -0.0215727727
C  C190  1  0.67120000  0.96900000  0.88790000  1.0 -0.1488107613
C  C191  1  0.67950000  0.94430000  0.63350000  1.0 0.6069788544
C  C192  1  0.01660000  0.14440000  0.08460000  1.0 0.085635355
C  C193  1  0.73280000  0.98040000  0.04330000  1.0 -0.1689564374
C  C194  1  0.06460000  0.19790000  0.12070000  1.0 -0.0812301967
C  C195  1  0.25310000  0.44380000  0.14970000  1.0 0.6155478566
C  C196  1  0.26820000  0.46790000  0.18330000  1.0 -0.0215727727
C  C197  1  0.47820000  0.17690000  0.03970000  1.0 0.0698685928
C  C198  1  0.36590000  0.21410000  0.08300000  1.0 -0.0812301967
C  C199  1  0.93750000  0.99710000  0.06580000  1.0 0.1799505933
C  C200  1  0.92020000  0.05060000  0.04810000  1.0 -0.1888306729
C  C201  1  0.95010000  0.89170000  0.05880000  1.0 0.1694759437
C  C202  1  0.86590000  0.72450000  0.65180000  1.0 0.589336416
C  C203  1  0.21870000  0.38730000  0.96230000  1.0 -0.0418959453
C  C204  1  0.74810000  0.97820000  0.00360000  1.0 0.1425282685
C  C205  1  0.56980000  0.02540000  0.01290000  1.0 -0.1888306729
C  C206  1  0.09080000  0.29590000  0.09970000  1.0 0.6069788544
C  C207  1  0.62370000  0.99560000  0.64680000  1.0 -0.0215727727
C  C208  1  0.01370000  0.77550000  0.05780000  1.0 0.0604684235
C  C209  1  0.29900000  0.64640000  0.39510000  1.0 0.1605885951
C  C210  1  0.81690000  0.96800000  0.98190000  1.0 -0.1689564374
C  C211  1  0.79800000  0.51610000  0.28700000  1.0 0.0698685928
C  C212  1  0.13700000  0.74640000  0.47610000  1.0 0.0698685928
C  C213  1  0.89500000  0.96680000  0.62730000  1.0 0.6013468881
C  C214  1  0.04150000  0.14940000  0.11550000  1.0 -0.1799747814
C  C215  1  0.85380000  0.95930000  0.04000000  1.0 0.1425282685
C  C216  1  0.02140000  0.87720000  0.05010000  1.0 -0.1689564374
C  C217  1  0.86900000  0.95750000  0.00100000  1.0 -0.1591913
C  C218  1  0.23750000  0.27390000  0.71970000  1.0 0.1694759437
C  C219  1  0.42970000  0.27710000  0.03740000  1.0 -0.0812301967
C  C220  1  0.73010000  0.78710000  0.53780000  1.0 -0.0418959453
C  C221  1  0.94620000  0.09740000  0.05470000  1.0 -0.1488107613
C  C222  1  0.76800000  0.86330000  0.76130000  1.0 -0.0456605458
C  C223  1  0.78610000  0.97100000  0.06260000  1.0 -0.1689564374
C  C224  1  0.31350000  0.54440000  0.27460000  1.0 0.0698685928
C  C225  1  0.81620000  0.85620000  0.78240000  1.0 -0.0812301967
C  C226  1  0.66520000  0.99330000  0.92420000  1.0 -0.1992289962
C  C227  1  0.03400000  0.41610000  0.16630000  1.0 0.6013468881
C  C228  1  0.70340000  0.66300000  0.38890000  1.0 -0.1888306729
C  C229  1  0.02490000  0.80930000  0.53050000  1.0 -0.0418959453
C  C230  1  0.69920000  0.88450000  0.78160000  1.0 -0.0881141329
C  C231  1  0.89240000  0.66430000  0.65230000  1.0 -0.0643739791
C  C232  1  0.20020000  0.41090000  0.00130000  1.0 0.6069788544
C  C233  1  0.79710000  0.87150000  0.82080000  1.0 -0.1488107613
C  C234  1  0.67800000  0.90090000  0.81960000  1.0 -0.1591913
C  C235  1  0.98020000  0.99260000  0.09070000  1.0 -0.1799747814
C  C236  1  0.65640000  0.08930000  0.99780000  1.0 -0.1888306729
C  C237  1  0.35400000  0.21950000  0.72270000  1.0 0.1605885951
C  C238  1  0.67970000  0.69560000  0.45480000  1.0 0.0698685928
C  C239  1  0.41940000  0.16810000  0.06900000  1.0 -0.1689564374
C  C240  1  0.62380000  0.04880000  0.62750000  1.0 -0.0881141329
C  C241  1  0.05260000  0.46720000  0.63510000  1.0 -0.1591913
C  C242  1  0.08280000  0.40970000  0.63920000  1.0 -0.1888306729
C  C243  1  0.64960000  0.63150000  0.40170000  1.0 0.1694759437
C  C244  1  0.17400000  0.25130000  0.67690000  1.0 -0.1799747814
C  C245  1  0.05170000  0.82240000  0.04870000  1.0 -0.129134635
C  C246  1  0.52200000  0.08650000  0.67700000  1.0 0.0698685928
C  C247  1  0.71980000  0.69230000  0.41630000  1.0 -0.1488107613
C  C248  1  0.68750000  0.57390000  0.34380000  1.0 0.1605885951
C  C249  1  0.00300000  0.04130000  0.09670000  1.0 -0.1395267646
C  C250  1  0.12720000  0.53590000  0.06650000  1.0 0.6013468881
C  C251  1  0.22930000  0.23750000  0.69540000  1.0 -0.1799747814
C  C252  1  0.60410000  0.13480000  0.01180000  1.0 -0.129134635
C  C253  1  0.69910000  0.72560000  0.48310000  1.0 0.0698685928
C  C254  1  0.96310000  0.64710000  0.65030000  1.0 -0.0812301967
C  C255  1  0.19160000  0.71160000  0.44830000  1.0 0.0503271814
C  C256  1  0.99200000  0.58870000  0.65170000  1.0 -0.1689564374
C  C257  1  0.90950000  0.84690000  0.06850000  1.0 -0.1799747814
C  C258  1  0.47990000  0.22940000  0.02470000  1.0 -0.1488107613
C  C259  1  0.29960000  0.51630000  0.24240000  1.0 0.0698685928
C  C260  1  0.10290000  0.59860000  0.06180000  1.0 -0.0269257889
C  C261  1  0.94840000  0.54610000  0.65290000  1.0 0.0781078599
C  C262  1  0.04520000  0.71520000  0.05740000  1.0 0.0604684235
C  C263  1  0.14070000  0.63840000  0.06360000  1.0 -0.0812301967
C  C264  1  0.29540000  0.63810000  0.43510000  1.0 -0.1799747814
C  C265  1  0.46360000  0.13220000  0.69330000  1.0 0.0604684235
C  C266  1  0.02010000  0.80200000  0.49550000  1.0 -0.0881141329
C  C267  1  0.34120000  0.58890000  0.33650000  1.0 0.1605885951
C  C268  1  0.85310000  0.62420000  0.65410000  1.0 -0.0715745294
C  C269  1  0.30980000  0.51530000  0.17290000  1.0 -0.0881141329
C  C270  1  0.01130000  0.67390000  0.05230000  1.0 -0.1591913
C  C271  1  0.51430000  0.65510000  0.38230000  1.0 -0.1488107613
C  C272  1  0.33290000  0.30800000  0.78450000  1.0 -0.1689564374
C  C273  1  0.68060000  0.71040000  0.52180000  1.0 -0.1591913
C  C274  1  0.19420000  0.71560000  0.40970000  1.0 -0.1395267646
C  C275  1  0.42650000  0.60620000  0.37130000  1.0 0.1605885951
C  C276  1  0.38980000  0.22300000  0.68270000  1.0 -0.1799747814
C  C277  1  0.19200000  0.32760000  0.72520000  1.0 -0.1689564374
C  C278  1  0.24920000  0.44970000  0.21960000  1.0 -0.0812301967
C  C279  1  0.32310000  0.32610000  0.82020000  1.0 -0.129134635
C  C280  1  0.74900000  0.80400000  0.49750000  1.0 -0.0881141329
C  C281  1  0.44360000  0.18120000  0.66880000  1.0 -0.129134635
C  C282  1  0.73120000  0.77160000  0.47150000  1.0 -0.1689564374
C  C283  1  0.12850000  0.30010000  0.68330000  1.0 0.1490588067
C  C284  1  0.87870000  0.56590000  0.65530000  1.0 -0.1689564374
C  C285  1  0.28270000  0.56500000  0.34290000  1.0 -0.1888306729
C  C286  1  0.94290000  0.79050000  0.06710000  1.0 -0.1395267646
C  C287  1  0.74690000  0.54200000  0.35370000  1.0 -0.1799747814
C  C288  1  0.13750000  0.33840000  0.70990000  1.0 -0.1591913
C  C289  1  0.37550000  0.56620000  0.26860000  1.0 -0.1488107613
C  C290  1  0.69760000  0.74020000  0.55020000  1.0 -0.0812301967
C  C291  1  0.37370000  0.17790000  0.74670000  1.0 -0.1799747814
C  C292  1  0.68080000  0.57490000  0.30780000  1.0 -0.1888306729
C  C293  1  0.28150000  0.28100000  0.77680000  1.0 0.1490588067
C  C294  1  0.62460000  0.66600000  0.46590000  1.0 -0.129134635
C  C295  1  0.73560000  0.54740000  0.27740000  1.0 -0.1591913
C  C296  1  0.60960000  0.63590000  0.43930000  1.0 -0.1888306729
C  C297  1  0.07220000  0.76870000  0.46830000  1.0 -0.1591913
C  C298  1  0.96000000  0.12050000  0.64640000  1.0 0.0781078599
C  C299  1  0.92340000  0.12260000  0.61860000  1.0 -0.1591913
C  C300  1  0.90220000  0.07340000  0.61172000  1.0 -0.0881141329
C  C301  1  0.91750000  0.02220000  0.63250000  1.0 -0.0215727727
C  C302  1  0.95410000  0.02020000  0.66027000  1.0 -0.0881141329
C  C303  1  0.97540000  0.06930000  0.66719000  1.0 -0.1591913
C  C304  1  0.05180000  0.23410000  0.06060000  1.0 -0.0984239011
C  C305  1  0.56150000  0.60430000  0.37350000  1.0 0.1425282685
C  C306  1  0.27040000  0.54440000  0.31100000  1.0 -0.1395267646
C  C307  1  0.44960000  0.65530000  0.38070000  1.0 -0.1591913
C  C308  1  0.02440000  0.18560000  0.05750000  1.0 -0.1591913
C  C309  1  0.22320000  0.27690000  0.80430000  1.0 -0.1488107613
C  C310  1  0.79910000  0.51550000  0.32540000  1.0 -0.129134635
C  C311  1  0.21110000  0.29420000  0.84010000  1.0 -0.129134635
C  C312  1  0.11070000  0.69890000  0.06340000  1.0 -0.1591913
C  C313  1  0.54270000  0.55770000  0.36480000  1.0 -0.1591913
C  C314  1  0.04660000  0.36900000  0.65700000  1.0 0.1694759437
C  C315  1  0.24310000  0.66950000  0.46150000  1.0 -0.129134635
C  C316  1  0.16200000  0.38210000  0.94780000  1.0 -0.0984239011
C  C317  1  0.25020000  0.68330000  0.38330000  1.0 -0.1689564374
C  C318  1  0.25980000  0.31940000  0.84990000  1.0 0.0698685928
C  C319  1  0.26370000  0.47390000  0.24940000  1.0 -0.1488107613
C  C320  1  0.28790000  0.36830000  0.94210000  1.0 -0.0812301967
C  C321  1  0.98110000  0.48430000  0.65370000  1.0 0.0698685928
C  C322  1  0.57360000  0.98580000  0.67990000  1.0 -0.0881141329
C  C323  1  0.52030000  0.03040000  0.69630000  1.0 -0.1591913
C  C324  1  0.14130000  0.75500000  0.51300000  1.0 -0.1395267646
C  C325  1  0.32380000  0.53940000  0.20280000  1.0 -0.1591913
C  C326  1  0.38670000  0.58700000  0.30200000  1.0 -0.1799747814
C  C327  1  0.57260000  0.09280000  0.64270000  1.0 -0.1591913
C  C328  1  0.47320000  0.55860000  0.36330000  1.0 -0.1689564374
C  C329  1  0.30040000  0.34670000  0.90540000  1.0 -0.1591913
C  C330  1  0.24420000  0.34360000  0.88970000  1.0 0.0698685928
C  C331  1  0.42790000  0.13170000  0.73170000  1.0 -0.129134635
C  C332  1  0.17510000  0.36010000  0.91050000  1.0 -0.1689564374
C  C333  1  0.03840000  0.61480000  0.05460000  1.0 -0.0881141329
C  C334  1  0.93840000  0.44480000  0.67750000  1.0 -0.1689564374
C  C335  1  0.97040000  0.38620000  0.68110000  1.0 -0.1799747814
C  C336  1  0.08710000  0.78420000  0.53910000  1.0 -0.0984239011
C  C337  1  0.84810000  0.47600000  0.22163000  1.0 -0.1591913
C  C338  1  0.85810000  0.48730000  0.25667000  1.0 0.0698685928
C  C339  1  0.92410000  0.47330000  0.26292000  1.0 -0.1689564374
C  C340  1  0.98020000  0.44810000  0.23413000  1.0 -0.0881141329
C  C341  1  0.97020000  0.43670000  0.19908000  1.0 -0.0215727727
C  C342  1  0.90410000  0.45070000  0.19284000  1.0 -0.0881141329
C  C343  1  0.99730000  0.21440000  0.62250000  1.0 -0.1395267646
C  C344  1  0.02580000  0.26100000  0.62730000  1.0 -0.1799747814
C  C345  1  0.03930000  0.26650000  0.66260000  1.0 0.1694759437
C  C346  1  0.02430000  0.22540000  0.69300000  1.0 -0.1888306729
C  C347  1  0.99570000  0.17890000  0.68820000  1.0 -0.129134635
C  C348  1  0.98230000  0.17340000  0.65290000  1.0 0.0604684235
N  N1  1  0.30860000  0.01100000  0.01439000  1.0 -0.1395267646
N  N2  1  0.08950000  0.05110000  0.94030000  1.0 -0.1888306729
N  N3  1  0.70770000  0.73640000  0.26252000  1.0 -0.1799747814
N  N4  1  0.36670000  0.39750000  0.62580000  1.0 -0.1799747814
N  N5  1  0.64340000  0.38830000  0.63140000  1.0 -0.1888306729
N  N6  1  0.92720000  0.68850000  0.33460000  1.0 -0.1591913
N  N7  1  0.69140000  0.98900000  0.98561000  1.0 -0.1395267646
N  N8  1  0.91050000  0.94890000  0.05970000  1.0 -0.1888306729
N  N9  1  0.29230000  0.26360000  0.73748000  1.0 -0.1799747814
N  N10  1  0.63330000  0.60250000  0.37420000  1.0 -0.1799747814
N  N11  1  0.35660000  0.61170000  0.36860000  1.0 -0.1888306729
N  N12  1  0.07280000  0.31150000  0.66540000  1.0 -0.1591913
O  O1  1  0.82910000  0.59565000  0.90463000  1.0 -0.9107684882
O  O2  1  0.17611000  0.14234000  0.37404000  1.0 -0.9260187836
O  O3  1  0.09480000  0.07560000  0.35009000  1.0 -0.5261607389
O  O4  1  0.19950000  0.25793000  0.34449000  1.0 -0.548970023
O  O5  1  0.73280000  0.53350000  0.88408000  1.0 -0.5261607389
O  O6  1  0.02650000  0.15940000  0.40617000  1.0 -0.4984052719
O  O7  1  0.68020000  0.63410000  0.93018000  1.0 -0.4984052719
O  O8  1  0.14810000  0.15890000  0.29674000  1.0 -0.5385080865
O  O9  1  0.26160000  0.15852000  0.29456000  1.0 -0.5687583974
O  O10  1  0.26860000  0.20060000  0.39923000  1.0 -0.5199248822
O  O11  1  0.73780000  0.69640000  0.89151000  1.0 -0.548970023
O  O12  1  0.26910000  0.04330000  0.39534000  1.0 -0.5687583974
O  O13  1  0.87950000  0.70394000  0.87429000  1.0 -0.5385080865
O  O14  1  0.32400000  0.10390000  0.35063000  1.0 -0.5131718905
O  O15  1  0.08170000  0.13250000  0.45100000  1.0 -0.5261607389
O  O16  1  0.80540000  0.48030000  0.93843000  1.0 -0.5687583974
O  O17  1  0.22140000  0.13830000  0.44664000  1.0 -0.5762072595
O  O18  1  0.08880000  0.24170000  0.35406000  1.0 -0.548970023
O  O19  1  0.86290000  0.58190000  0.97854000  1.0 -0.548970023
O  O20  1  0.91300000  0.60900000  0.82528000  1.0 -0.5199248822
O  O21  1  0.74910000  0.58190000  0.98559000  1.0 -0.5687583974
O  O22  1  0.12800000  0.03185000  0.40379000  1.0 -0.5923443229
O  O23  1  0.77290000  0.60250000  0.83907000  1.0 -0.5687583974
O  O24  1  0.91930000  0.66230000  0.92314000  1.0 -0.5261607389
O  O25  1  0.91750000  0.49830000  0.92536000  1.0 -0.5385080865
O  O26  1  0.97730000  0.57700000  0.86794000  1.0 -0.5687583974
O  O27  1  0.17090000  0.40435000  0.09537000  1.0 -0.9107684882
O  O28  1  0.82389000  0.85766000  0.62596000  1.0 -0.9260187836
O  O29  1  0.90520000  0.92440000  0.64991000  1.0 -0.5261607389
O  O30  1  0.80050000  0.74207000  0.65551000  1.0 -0.548970023
O  O31  1  0.26720000  0.46650000  0.11592000  1.0 -0.5199248822
O  O32  1  0.97350000  0.84060000  0.59383000  1.0 -0.4984052719
O  O33  1  0.31980000  0.36590000  0.06982000  1.0 -0.4984052719
O  O34  1  0.85190000  0.84110000  0.70326000  1.0 -0.5385080865
O  O35  1  0.73840000  0.84148000  0.70544000  1.0 -0.5687583974
O  O36  1  0.73140000  0.79940000  0.60077000  1.0 -0.5199248822
O  O37  1  0.26220000  0.30360000  0.10849000  1.0 -0.548970023
O  O38  1  0.73090000  0.95670000  0.60466000  1.0 -0.5687583974
O  O39  1  0.12050000  0.29606000  0.12571000  1.0 -0.5385080865
O  O40  1  0.67600000  0.89610000  0.64937000  1.0 -0.5131718905
O  O41  1  0.91830000  0.86750000  0.54900000  1.0 -0.5261607389
O  O42  1  0.19460000  0.51970000  0.06157000  1.0 -0.5687583974
O  O43  1  0.77860000  0.86170000  0.55336000  1.0 -0.5762072595
O  O44  1  0.91120000  0.75830000  0.64594000  1.0 -0.548970023
O  O45  1  0.13710000  0.41810000  0.02146000  1.0 -0.548970023
O  O46  1  0.08700000  0.39100000  0.17472000  1.0 -0.5199248822
O  O47  1  0.25090000  0.41810000  0.01441000  1.0 -0.5687583974
O  O48  1  0.87200000  0.96815000  0.59621000  1.0 -0.5923443229
O  O49  1  0.22710000  0.39750000  0.16093000  1.0 -0.5687583974
O  O50  1  0.08070000  0.33770000  0.07686000  1.0 -0.5261607389
O  O51  1  0.08250000  0.50170000  0.07464000  1.0 -0.5385080865
O  O52  1  0.02270000  0.42300000  0.13206000  1.0 -0.5687583974
