# DDEC6 charges by PACMAN v1.1 (https://github.com/mtap-research/PACMAN-charge/)
data_SITCUW_ASR_pacman
_symmetry_space_group_name_H-M   'P 1'
_cell_length_a   18.85000000
_cell_length_b   26.03200000
_cell_length_c   27.93400000
_cell_angle_alpha   90.00000000
_cell_angle_beta   90.00000000
_cell_angle_gamma   90.00000000
_symmetry_Int_Tables_number   1
_chemical_formula_structural   ZnH3(C2O)4
_chemical_formula_sum   'Zn32 H96 C256 O128'
_cell_volume   13707.30318880
_cell_formula_units_Z   32
loop_
 _symmetry_equiv_pos_site_id
 _symmetry_equiv_pos_as_xyz
  1  'x, y, z'
loop_
 _atom_site_type_symbol
 _atom_site_label
 _atom_site_symmetry_multiplicity
 _atom_site_fract_x
 _atom_site_fract_y
 _atom_site_fract_z
 _atom_site_occupancy
 _atom_site_charge
Zn  Zn1  1  0.25171000  0.76725000  0.25593000  1.0 0.9293058306
Zn  Zn2  1  0.11701000  0.84583000  0.29377000  1.0 1.0059787721
Zn  Zn3  1  0.22741000  0.02331000  0.51703000  1.0 0.9232227072
Zn  Zn4  1  0.36156000  0.97303000  0.57728000  1.0 0.9901895985
Zn  Zn5  1  0.24829000  0.73275000  0.75593000  1.0 0.9293058306
Zn  Zn6  1  0.38299000  0.65417000  0.79377000  1.0 1.0059787721
Zn  Zn7  1  0.27259000  0.47669000  0.01703000  1.0 0.9232227072
Zn  Zn8  1  0.13844000  0.52697000  0.07728000  1.0 0.9901895985
Zn  Zn9  1  0.25171000  0.23275000  0.24407000  1.0 0.9293058306
Zn  Zn10  1  0.11701000  0.15417000  0.20623000  1.0 1.0059787721
Zn  Zn11  1  0.22741000  0.97669000  0.98297000  1.0 0.9232227072
Zn  Zn12  1  0.36156000  0.02697000  0.92272000  1.0 0.9901895985
Zn  Zn13  1  0.24829000  0.26725000  0.74407000  1.0 0.9293058306
Zn  Zn14  1  0.38299000  0.34583000  0.70623000  1.0 1.0059787721
Zn  Zn15  1  0.27259000  0.52331000  0.48297000  1.0 0.9232227072
Zn  Zn16  1  0.13844000  0.47303000  0.42272000  1.0 0.9901895985
Zn  Zn17  1  0.74829000  0.23275000  0.74407000  1.0 0.9293058306
Zn  Zn18  1  0.88299000  0.15417000  0.70623000  1.0 1.0059787721
Zn  Zn19  1  0.77259000  0.97669000  0.48297000  1.0 0.9232227072
Zn  Zn20  1  0.63844000  0.02697000  0.42272000  1.0 0.9901895985
Zn  Zn21  1  0.75171000  0.26725000  0.24407000  1.0 0.9293058306
Zn  Zn22  1  0.61701000  0.34583000  0.20623000  1.0 1.0059787721
Zn  Zn23  1  0.72741000  0.52331000  0.98297000  1.0 0.9232227072
Zn  Zn24  1  0.86156000  0.47303000  0.92272000  1.0 0.9901895985
Zn  Zn25  1  0.74829000  0.76725000  0.75593000  1.0 0.9293058306
Zn  Zn26  1  0.88299000  0.84583000  0.79377000  1.0 1.0059787721
Zn  Zn27  1  0.77259000  0.02331000  0.01703000  1.0 0.9232227072
Zn  Zn28  1  0.63844000  0.97303000  0.07728000  1.0 0.9901895985
Zn  Zn29  1  0.75171000  0.73275000  0.25593000  1.0 0.9293058306
Zn  Zn30  1  0.61701000  0.65417000  0.29377000  1.0 1.0059787721
Zn  Zn31  1  0.72741000  0.47669000  0.51703000  1.0 0.9232227072
Zn  Zn32  1  0.86156000  0.52697000  0.57728000  1.0 0.9901895985
H  H1  1  0.71890000  0.83480000  0.37400000  1.0 0.1380223088
H  H2  1  0.02740000  0.08870000  0.43290000  1.0 0.1189105277
H  H3  1  0.25520000  0.90990000  0.39890000  1.0 0.1319030178
H  H4  1  0.41590000  0.83400000  0.33270000  1.0 0.1189105277
H  H5  1  0.92910000  0.06490000  0.40530000  1.0 0.1189105277
H  H6  1  0.55920000  0.92120000  0.42700000  1.0 0.1021700546
H  H7  1  0.45220000  0.90990000  0.45570000  1.0 0.1089874139
H  H8  1  0.51520000  0.79210000  0.35160000  1.0 0.1189105277
H  H9  1  0.75140000  0.11610000  0.34170000  1.0 0.1319030178
H  H10  1  0.04890000  0.17160000  0.31210000  1.0 0.1089874139
H  H11  1  0.93740000  0.18730000  0.31590000  1.0 0.1189105277
H  H12  1  0.22260000  0.13320000  0.38790000  1.0 0.1319030178
H  H13  1  0.78110000  0.66520000  0.87400000  1.0 0.1380223088
H  H14  1  0.47260000  0.41130000  0.93290000  1.0 0.1189105277
H  H15  1  0.24480000  0.59010000  0.89890000  1.0 0.1319030178
H  H16  1  0.08410000  0.66600000  0.83270000  1.0 0.1189105277
H  H17  1  0.57090000  0.43510000  0.90530000  1.0 0.1189105277
H  H18  1  0.94080000  0.57880000  0.92700000  1.0 0.1021700546
H  H19  1  0.04780000  0.59010000  0.95570000  1.0 0.1089874139
H  H20  1  0.98480000  0.70790000  0.85160000  1.0 0.1189105277
H  H21  1  0.74860000  0.38390000  0.84170000  1.0 0.1319030178
H  H22  1  0.45110000  0.32840000  0.81210000  1.0 0.1089874139
H  H23  1  0.56260000  0.31270000  0.81590000  1.0 0.1189105277
H  H24  1  0.27740000  0.36680000  0.88790000  1.0 0.1319030178
H  H25  1  0.71890000  0.16520000  0.12600000  1.0 0.1380223088
H  H26  1  0.02740000  0.91130000  0.06710000  1.0 0.1189105277
H  H27  1  0.25520000  0.09010000  0.10110000  1.0 0.1319030178
H  H28  1  0.41590000  0.16600000  0.16730000  1.0 0.1189105277
H  H29  1  0.92910000  0.93510000  0.09470000  1.0 0.1189105277
H  H30  1  0.55920000  0.07880000  0.07300000  1.0 0.1021700546
H  H31  1  0.45220000  0.09010000  0.04430000  1.0 0.1089874139
H  H32  1  0.51520000  0.20790000  0.14840000  1.0 0.1189105277
H  H33  1  0.75140000  0.88390000  0.15830000  1.0 0.1319030178
H  H34  1  0.04890000  0.82840000  0.18790000  1.0 0.1021700546
H  H35  1  0.93740000  0.81270000  0.18410000  1.0 0.1189105277
H  H36  1  0.22260000  0.86680000  0.11210000  1.0 0.1319030178
H  H37  1  0.78110000  0.33480000  0.62600000  1.0 0.1380223088
H  H38  1  0.47260000  0.58870000  0.56710000  1.0 0.1189105277
H  H39  1  0.24480000  0.40990000  0.60110000  1.0 0.1319030178
H  H40  1  0.08410000  0.33400000  0.66730000  1.0 0.1189105277
H  H41  1  0.57090000  0.56490000  0.59470000  1.0 0.1189105277
H  H42  1  0.94080000  0.42120000  0.57300000  1.0 0.1021700546
H  H43  1  0.04780000  0.40990000  0.54430000  1.0 0.1089874139
H  H44  1  0.98480000  0.29210000  0.64840000  1.0 0.1189105277
H  H45  1  0.74860000  0.61610000  0.65830000  1.0 0.1319030178
H  H46  1  0.45110000  0.67160000  0.68790000  1.0 0.1089874139
H  H47  1  0.56260000  0.68730000  0.68410000  1.0 0.1189105277
H  H48  1  0.27740000  0.63320000  0.61210000  1.0 0.1319030178
H  H49  1  0.28110000  0.16520000  0.62600000  1.0 0.1380223088
H  H50  1  0.97260000  0.91130000  0.56710000  1.0 0.1189105277
H  H51  1  0.74480000  0.09010000  0.60110000  1.0 0.1319030178
H  H52  1  0.58410000  0.16600000  0.66730000  1.0 0.1189105277
H  H53  1  0.07090000  0.93510000  0.59470000  1.0 0.1189105277
H  H54  1  0.44080000  0.07880000  0.57300000  1.0 0.1021700546
H  H55  1  0.54780000  0.09010000  0.54430000  1.0 0.1089874139
H  H56  1  0.48480000  0.20790000  0.64840000  1.0 0.1189105277
H  H57  1  0.24860000  0.88390000  0.65830000  1.0 0.1319030178
H  H58  1  0.95110000  0.82840000  0.68790000  1.0 0.1021700546
H  H59  1  0.06260000  0.81270000  0.68410000  1.0 0.1189105277
H  H60  1  0.77740000  0.86680000  0.61210000  1.0 0.1319030178
H  H61  1  0.21890000  0.33480000  0.12600000  1.0 0.1380223088
H  H62  1  0.52740000  0.58870000  0.06710000  1.0 0.1189105277
H  H63  1  0.75520000  0.40990000  0.10110000  1.0 0.1319030178
H  H64  1  0.91590000  0.33400000  0.16730000  1.0 0.1189105277
H  H65  1  0.42910000  0.56490000  0.09470000  1.0 0.1189105277
H  H66  1  0.05920000  0.42120000  0.07300000  1.0 0.1021700546
H  H67  1  0.95220000  0.40990000  0.04430000  1.0 0.1089874139
H  H68  1  0.01520000  0.29210000  0.14840000  1.0 0.1189105277
H  H69  1  0.25140000  0.61610000  0.15830000  1.0 0.1319030178
H  H70  1  0.54890000  0.67160000  0.18790000  1.0 0.1089874139
H  H71  1  0.43740000  0.68730000  0.18410000  1.0 0.1089874139
H  H72  1  0.72260000  0.63320000  0.11210000  1.0 0.1319030178
H  H73  1  0.28110000  0.83480000  0.87400000  1.0 0.1380223088
H  H74  1  0.97260000  0.08870000  0.93290000  1.0 0.1189105277
H  H75  1  0.74480000  0.90990000  0.89890000  1.0 0.1319030178
H  H76  1  0.58410000  0.83400000  0.83270000  1.0 0.1189105277
H  H77  1  0.07090000  0.06490000  0.90530000  1.0 0.1189105277
H  H78  1  0.44080000  0.92120000  0.92700000  1.0 0.1021700546
H  H79  1  0.54780000  0.90990000  0.95570000  1.0 0.1089874139
H  H80  1  0.48480000  0.79210000  0.85160000  1.0 0.1189105277
H  H81  1  0.24860000  0.11610000  0.84170000  1.0 0.1319030178
H  H82  1  0.95110000  0.17160000  0.81210000  1.0 0.1089874139
H  H83  1  0.06260000  0.18730000  0.81590000  1.0 0.1189105277
H  H84  1  0.77740000  0.13320000  0.88790000  1.0 0.1319030178
H  H85  1  0.21890000  0.66520000  0.37400000  1.0 0.1380223088
H  H86  1  0.52740000  0.41130000  0.43290000  1.0 0.1189105277
H  H87  1  0.75520000  0.59010000  0.39890000  1.0 0.1319030178
H  H88  1  0.91590000  0.66600000  0.33270000  1.0 0.1189105277
H  H89  1  0.42910000  0.43510000  0.40530000  1.0 0.1189105277
H  H90  1  0.05920000  0.57880000  0.42700000  1.0 0.1021700546
H  H91  1  0.95220000  0.59010000  0.45570000  1.0 0.1089874139
H  H92  1  0.01520000  0.70790000  0.35160000  1.0 0.1189105277
H  H93  1  0.25140000  0.38390000  0.34170000  1.0 0.1319030178
H  H94  1  0.54890000  0.32840000  0.31210000  1.0 0.1089874139
H  H95  1  0.43740000  0.31270000  0.31590000  1.0 0.1189105277
H  H96  1  0.72260000  0.36680000  0.38790000  1.0 0.1319030178
C  C1  1  0.66960000  0.84030000  0.37880000  1.0 -0.0913968779
C  C2  1  0.05630000  0.10600000  0.41010000  1.0 -0.1398972101
C  C3  1  0.30370000  0.90000000  0.39750000  1.0 -0.0913968779
C  C4  1  0.39980000  0.85510000  0.35820000  1.0 -0.1398972101
C  C5  1  0.62040000  0.80640000  0.35890000  1.0 -0.0185429518
C  C6  1  0.94650000  0.12750000  0.36350000  1.0 0.0686514526
C  C7  1  0.90620000  0.08930000  0.38520000  1.0 -0.1398972101
C  C8  1  0.57470000  0.89160000  0.41000000  1.0 -0.1557707213
C  C9  1  0.83420000  0.08590000  0.37830000  1.0 -0.0185429518
C  C10  1  0.35050000  0.91530000  0.43260000  1.0 -0.0185429518
C  C11  1  0.42100000  0.90010000  0.43060000  1.0 -0.1398972101
C  C12  1  0.54850000  0.81550000  0.36480000  1.0 -0.1398972101
C  C13  1  0.80090000  0.11940000  0.34750000  1.0 -0.0998972397
C  C14  1  0.02400000  0.13020000  0.37160000  1.0 0.0686514526
C  C15  1  0.06920000  0.15470000  0.33900000  1.0 -0.1508999191
C  C16  1  0.44730000  0.87070000  0.39250000  1.0 0.0570036821
C  C17  1  0.91130000  0.16140000  0.33220000  1.0 -0.1398972101
C  C18  1  0.52410000  0.85870000  0.38980000  1.0 0.0686514526
C  C19  1  0.32880000  0.86940000  0.35990000  1.0 -0.0099243805
C  C20  1  0.27840000  0.84940000  0.32180000  1.0 0.5991881654
C  C21  1  0.64660000  0.88220000  0.40570000  1.0 -0.0185429518
C  C22  1  0.16480000  0.07630000  0.45640000  1.0 0.5481194049
C  C23  1  0.80070000  0.19500000  0.29150000  1.0 0.5481194049
C  C24  1  0.64710000  0.76110000  0.32960000  1.0 0.5991881654
C  C25  1  0.70020000  0.91630000  0.42860000  1.0 0.5715464592
C  C26  1  0.18800000  0.18060000  0.30860000  1.0 0.5715464592
C  C27  1  0.14210000  0.15550000  0.34430000  1.0 -0.0286204735
C  C28  1  0.83870000  0.15730000  0.32520000  1.0 0.0017197411
C  C29  1  0.17270000  0.13190000  0.38340000  1.0 -0.0913968779
C  C30  1  0.79100000  0.04520000  0.40320000  1.0 0.6079457492
C  C31  1  0.12940000  0.10600000  0.41660000  1.0 -0.0099243805
C  C32  1  0.32430000  0.94630000  0.47530000  1.0 0.6079457492
C  C33  1  0.83040000  0.65970000  0.87880000  1.0 -0.0913968779
C  C34  1  0.44370000  0.39400000  0.91010000  1.0 -0.1398972101
C  C35  1  0.19630000  0.60000000  0.89750000  1.0 -0.0913968779
C  C36  1  0.10020000  0.64490000  0.85820000  1.0 -0.1398972101
C  C37  1  0.87960000  0.69360000  0.85890000  1.0 -0.0185429518
C  C38  1  0.55350000  0.37250000  0.86350000  1.0 0.0686514526
C  C39  1  0.59380000  0.41070000  0.88520000  1.0 -0.1398972101
C  C40  1  0.92530000  0.60840000  0.91000000  1.0 -0.1557707213
C  C41  1  0.66580000  0.41410000  0.87830000  1.0 -0.0185429518
C  C42  1  0.14950000  0.58470000  0.93260000  1.0 -0.0185429518
C  C43  1  0.07900000  0.59990000  0.93060000  1.0 -0.1398972101
C  C44  1  0.95150000  0.68450000  0.86480000  1.0 -0.1398972101
C  C45  1  0.69910000  0.38060000  0.84750000  1.0 -0.0998972397
C  C46  1  0.47600000  0.36980000  0.87160000  1.0 0.0686514526
C  C47  1  0.43080000  0.34530000  0.83900000  1.0 -0.1508999191
C  C48  1  0.05270000  0.62930000  0.89250000  1.0 0.0570036821
C  C49  1  0.58870000  0.33860000  0.83220000  1.0 -0.1398972101
C  C50  1  0.97590000  0.64130000  0.88980000  1.0 0.0686514526
C  C51  1  0.17120000  0.63060000  0.85990000  1.0 -0.0099243805
C  C52  1  0.22160000  0.65060000  0.82180000  1.0 0.5991881654
C  C53  1  0.85340000  0.61780000  0.90570000  1.0 -0.0185429518
C  C54  1  0.33520000  0.42370000  0.95640000  1.0 0.5481194049
C  C55  1  0.69930000  0.30500000  0.79150000  1.0 0.5481194049
C  C56  1  0.85290000  0.73890000  0.82960000  1.0 0.5991881654
C  C57  1  0.79980000  0.58370000  0.92860000  1.0 0.5715464592
C  C58  1  0.31200000  0.31940000  0.80860000  1.0 0.5715464592
C  C59  1  0.35790000  0.34450000  0.84430000  1.0 -0.0286204735
C  C60  1  0.66130000  0.34270000  0.82520000  1.0 0.0017197411
C  C61  1  0.32730000  0.36810000  0.88340000  1.0 -0.0913968779
C  C62  1  0.70900000  0.45480000  0.90320000  1.0 0.6079457492
C  C63  1  0.37060000  0.39400000  0.91660000  1.0 -0.0099243805
C  C64  1  0.17570000  0.55370000  0.97530000  1.0 0.6079457492
C  C65  1  0.66960000  0.15970000  0.12120000  1.0 -0.0913968779
C  C66  1  0.05630000  0.89400000  0.08990000  1.0 -0.1398972101
C  C67  1  0.30370000  0.10000000  0.10250000  1.0 -0.0913968779
C  C68  1  0.39980000  0.14490000  0.14180000  1.0 -0.1398972101
C  C69  1  0.62040000  0.19360000  0.14110000  1.0 -0.0185429518
C  C70  1  0.94650000  0.87250000  0.13650000  1.0 0.0686514526
C  C71  1  0.90620000  0.91070000  0.11480000  1.0 -0.1398972101
C  C72  1  0.57470000  0.10840000  0.09000000  1.0 -0.1557707213
C  C73  1  0.83420000  0.91410000  0.12170000  1.0 -0.0185429518
C  C74  1  0.35050000  0.08470000  0.06740000  1.0 -0.0185429518
C  C75  1  0.42100000  0.09990000  0.06940000  1.0 -0.1398972101
C  C76  1  0.54850000  0.18450000  0.13520000  1.0 -0.1398972101
C  C77  1  0.80090000  0.88060000  0.15250000  1.0 -0.0998972397
C  C78  1  0.02400000  0.86980000  0.12840000  1.0 0.0686514526
C  C79  1  0.06920000  0.84530000  0.16100000  1.0 -0.1508999191
C  C80  1  0.44730000  0.12930000  0.10750000  1.0 0.0570036821
C  C81  1  0.91130000  0.83860000  0.16780000  1.0 -0.1398972101
C  C82  1  0.52410000  0.14130000  0.11020000  1.0 0.0686514526
C  C83  1  0.32880000  0.13060000  0.14010000  1.0 -0.0099243805
C  C84  1  0.27840000  0.15060000  0.17820000  1.0 0.5991881654
C  C85  1  0.64660000  0.11780000  0.09430000  1.0 -0.0185429518
C  C86  1  0.16480000  0.92370000  0.04360000  1.0 0.5481194049
C  C87  1  0.80070000  0.80500000  0.20850000  1.0 0.5481194049
C  C88  1  0.64710000  0.23890000  0.17040000  1.0 0.5991881654
C  C89  1  0.70020000  0.08370000  0.07140000  1.0 0.5715464592
C  C90  1  0.18800000  0.81940000  0.19140000  1.0 0.5715464592
C  C91  1  0.14210000  0.84450000  0.15570000  1.0 -0.0286204735
C  C92  1  0.83870000  0.84270000  0.17480000  1.0 0.0017197411
C  C93  1  0.17270000  0.86810000  0.11660000  1.0 -0.0913968779
C  C94  1  0.79100000  0.95480000  0.09680000  1.0 0.6079457492
C  C95  1  0.12940000  0.89400000  0.08340000  1.0 -0.0099243805
C  C96  1  0.32430000  0.05370000  0.02470000  1.0 0.6079457492
C  C97  1  0.83040000  0.34030000  0.62120000  1.0 -0.0913968779
C  C98  1  0.44370000  0.60600000  0.58990000  1.0 -0.1398972101
C  C99  1  0.19630000  0.40000000  0.60250000  1.0 -0.0913968779
C  C100  1  0.10020000  0.35510000  0.64180000  1.0 -0.1398972101
C  C101  1  0.87960000  0.30640000  0.64110000  1.0 -0.0185429518
C  C102  1  0.55350000  0.62750000  0.63650000  1.0 0.0686514526
C  C103  1  0.59380000  0.58930000  0.61480000  1.0 -0.1398972101
C  C104  1  0.92530000  0.39160000  0.59000000  1.0 -0.1557707213
C  C105  1  0.66580000  0.58590000  0.62170000  1.0 -0.0185429518
C  C106  1  0.14950000  0.41530000  0.56740000  1.0 -0.0185429518
C  C107  1  0.07900000  0.40010000  0.56940000  1.0 -0.1398972101
C  C108  1  0.95150000  0.31550000  0.63520000  1.0 -0.1398972101
C  C109  1  0.69910000  0.61940000  0.65250000  1.0 -0.0998972397
C  C110  1  0.47600000  0.63020000  0.62840000  1.0 0.0686514526
C  C111  1  0.43080000  0.65470000  0.66100000  1.0 -0.1508999191
C  C112  1  0.05270000  0.37070000  0.60750000  1.0 0.0570036821
C  C113  1  0.58870000  0.66140000  0.66780000  1.0 -0.1398972101
C  C114  1  0.97590000  0.35870000  0.61020000  1.0 0.0686514526
C  C115  1  0.17120000  0.36940000  0.64010000  1.0 -0.0099243805
C  C116  1  0.22160000  0.34940000  0.67820000  1.0 0.5991881654
C  C117  1  0.85340000  0.38220000  0.59430000  1.0 -0.0185429518
C  C118  1  0.33520000  0.57630000  0.54360000  1.0 0.5481194049
C  C119  1  0.69930000  0.69500000  0.70850000  1.0 0.5481194049
C  C120  1  0.85290000  0.26110000  0.67040000  1.0 0.5991881654
C  C121  1  0.79980000  0.41630000  0.57140000  1.0 0.5715464592
C  C122  1  0.31200000  0.68060000  0.69140000  1.0 0.5715464592
C  C123  1  0.35790000  0.65550000  0.65570000  1.0 -0.0286204735
C  C124  1  0.66130000  0.65730000  0.67480000  1.0 0.0017197411
C  C125  1  0.32730000  0.63190000  0.61660000  1.0 -0.0913968779
C  C126  1  0.70900000  0.54520000  0.59680000  1.0 0.6079457492
C  C127  1  0.37060000  0.60600000  0.58340000  1.0 -0.0099243805
C  C128  1  0.17570000  0.44630000  0.52470000  1.0 0.6079457492
C  C129  1  0.33040000  0.15970000  0.62120000  1.0 -0.0913968779
C  C130  1  0.94370000  0.89400000  0.58990000  1.0 -0.1398972101
C  C131  1  0.69630000  0.10000000  0.60250000  1.0 -0.0913968779
C  C132  1  0.60020000  0.14490000  0.64180000  1.0 -0.1398972101
C  C133  1  0.37960000  0.19360000  0.64110000  1.0 -0.0185429518
C  C134  1  0.05350000  0.87250000  0.63650000  1.0 0.0686514526
C  C135  1  0.09380000  0.91070000  0.61480000  1.0 -0.1398972101
C  C136  1  0.42530000  0.10840000  0.59000000  1.0 -0.1557707213
C  C137  1  0.16580000  0.91410000  0.62170000  1.0 -0.0185429518
C  C138  1  0.64950000  0.08470000  0.56740000  1.0 -0.0185429518
C  C139  1  0.57900000  0.09990000  0.56940000  1.0 -0.1398972101
C  C140  1  0.45150000  0.18450000  0.63520000  1.0 -0.1398972101
C  C141  1  0.19910000  0.88060000  0.65250000  1.0 -0.0998972397
C  C142  1  0.97600000  0.86980000  0.62840000  1.0 0.0686514526
C  C143  1  0.93080000  0.84530000  0.66100000  1.0 -0.1508999191
C  C144  1  0.55270000  0.12930000  0.60750000  1.0 0.0570036821
C  C145  1  0.08870000  0.83860000  0.66780000  1.0 -0.1398972101
C  C146  1  0.47590000  0.14130000  0.61020000  1.0 0.0686514526
C  C147  1  0.67120000  0.13060000  0.64010000  1.0 -0.0099243805
C  C148  1  0.72160000  0.15060000  0.67820000  1.0 0.5991881654
C  C149  1  0.35340000  0.11780000  0.59430000  1.0 -0.0185429518
C  C150  1  0.83520000  0.92370000  0.54360000  1.0 0.5481194049
C  C151  1  0.19930000  0.80500000  0.70850000  1.0 0.5481194049
C  C152  1  0.35290000  0.23890000  0.67040000  1.0 0.5991881654
C  C153  1  0.29980000  0.08370000  0.57140000  1.0 0.5715464592
C  C154  1  0.81200000  0.81940000  0.69140000  1.0 0.5715464592
C  C155  1  0.85790000  0.84450000  0.65570000  1.0 -0.0286204735
C  C156  1  0.16130000  0.84270000  0.67480000  1.0 0.0017197411
C  C157  1  0.82730000  0.86810000  0.61660000  1.0 -0.0913968779
C  C158  1  0.20900000  0.95480000  0.59680000  1.0 0.6079457492
C  C159  1  0.87060000  0.89400000  0.58340000  1.0 -0.0099243805
C  C160  1  0.67570000  0.05370000  0.52470000  1.0 0.6079457492
C  C161  1  0.16960000  0.34030000  0.12120000  1.0 -0.0913968779
C  C162  1  0.55630000  0.60600000  0.08990000  1.0 -0.1398972101
C  C163  1  0.80370000  0.40000000  0.10250000  1.0 -0.0913968779
C  C164  1  0.89980000  0.35510000  0.14180000  1.0 -0.1398972101
C  C165  1  0.12040000  0.30640000  0.14110000  1.0 -0.0185429518
C  C166  1  0.44650000  0.62750000  0.13650000  1.0 0.0686514526
C  C167  1  0.40620000  0.58930000  0.11480000  1.0 -0.1347809195
C  C168  1  0.07470000  0.39160000  0.09000000  1.0 -0.1557707213
C  C169  1  0.33420000  0.58590000  0.12170000  1.0 -0.0185429518
C  C170  1  0.85050000  0.41530000  0.06740000  1.0 -0.0185429518
C  C171  1  0.92100000  0.40010000  0.06940000  1.0 -0.1398972101
C  C172  1  0.04850000  0.31550000  0.13520000  1.0 -0.1398972101
C  C173  1  0.30090000  0.61940000  0.15250000  1.0 -0.0998972397
C  C174  1  0.52400000  0.63020000  0.12840000  1.0 0.0686514526
C  C175  1  0.56920000  0.65470000  0.16100000  1.0 -0.1508999191
C  C176  1  0.94730000  0.37070000  0.10750000  1.0 0.0570036821
C  C177  1  0.41130000  0.66140000  0.16780000  1.0 -0.1398972101
C  C178  1  0.02410000  0.35870000  0.11020000  1.0 0.0686514526
C  C179  1  0.82880000  0.36940000  0.14010000  1.0 -0.0099243805
C  C180  1  0.77840000  0.34940000  0.17820000  1.0 0.5991881654
C  C181  1  0.14660000  0.38220000  0.09430000  1.0 -0.0185429518
C  C182  1  0.66480000  0.57630000  0.04360000  1.0 0.5481194049
C  C183  1  0.30070000  0.69500000  0.20850000  1.0 0.5481194049
C  C184  1  0.14710000  0.26110000  0.17040000  1.0 0.5991881654
C  C185  1  0.20020000  0.41630000  0.07140000  1.0 0.5715464592
C  C186  1  0.68800000  0.68060000  0.19140000  1.0 0.5715464592
C  C187  1  0.64210000  0.65550000  0.15570000  1.0 -0.0286204735
C  C188  1  0.33870000  0.65730000  0.17480000  1.0 -0.0010728327
C  C189  1  0.67270000  0.63190000  0.11660000  1.0 -0.0913968779
C  C190  1  0.29100000  0.54520000  0.09680000  1.0 0.6079457492
C  C191  1  0.62940000  0.60600000  0.08340000  1.0 -0.0099243805
C  C192  1  0.82430000  0.44630000  0.02470000  1.0 0.6079457492
C  C193  1  0.33040000  0.84030000  0.87880000  1.0 -0.0913968779
C  C194  1  0.94370000  0.10600000  0.91010000  1.0 -0.1398972101
C  C195  1  0.69630000  0.90000000  0.89750000  1.0 -0.0913968779
C  C196  1  0.60020000  0.85510000  0.85820000  1.0 -0.1398972101
C  C197  1  0.37960000  0.80640000  0.85890000  1.0 -0.0185429518
C  C198  1  0.05350000  0.12750000  0.86350000  1.0 0.0686514526
C  C199  1  0.09380000  0.08930000  0.88520000  1.0 -0.1398972101
C  C200  1  0.42530000  0.89160000  0.91000000  1.0 -0.1557707213
C  C201  1  0.16580000  0.08590000  0.87830000  1.0 -0.0185429518
C  C202  1  0.64950000  0.91530000  0.93260000  1.0 -0.0185429518
C  C203  1  0.57900000  0.90010000  0.93060000  1.0 -0.1398972101
C  C204  1  0.45150000  0.81550000  0.86480000  1.0 -0.1398972101
C  C205  1  0.19910000  0.11940000  0.84750000  1.0 -0.0998972397
C  C206  1  0.97600000  0.13020000  0.87160000  1.0 0.0686514526
C  C207  1  0.93080000  0.15470000  0.83900000  1.0 -0.1508999191
C  C208  1  0.55270000  0.87070000  0.89250000  1.0 0.0570036821
C  C209  1  0.08870000  0.16140000  0.83220000  1.0 -0.1398972101
C  C210  1  0.47590000  0.85870000  0.88980000  1.0 0.0686514526
C  C211  1  0.67120000  0.86940000  0.85990000  1.0 -0.0099243805
C  C212  1  0.72160000  0.84940000  0.82180000  1.0 0.5991881654
C  C213  1  0.35340000  0.88220000  0.90570000  1.0 -0.0185429518
C  C214  1  0.83520000  0.07630000  0.95640000  1.0 0.5481194049
C  C215  1  0.19930000  0.19500000  0.79150000  1.0 0.5481194049
C  C216  1  0.35290000  0.76110000  0.82960000  1.0 0.5991881654
C  C217  1  0.29980000  0.91630000  0.92860000  1.0 0.5715464592
C  C218  1  0.81200000  0.18060000  0.80860000  1.0 0.5715464592
C  C219  1  0.85790000  0.15550000  0.84430000  1.0 -0.0286204735
C  C220  1  0.16130000  0.15730000  0.82520000  1.0 0.0017197411
C  C221  1  0.82730000  0.13190000  0.88340000  1.0 -0.0913968779
C  C222  1  0.20900000  0.04520000  0.90320000  1.0 0.6079457492
C  C223  1  0.87060000  0.10600000  0.91660000  1.0 -0.0099243805
C  C224  1  0.67570000  0.94630000  0.97530000  1.0 0.6079457492
C  C225  1  0.16960000  0.65970000  0.37880000  1.0 -0.0913968779
C  C226  1  0.55630000  0.39400000  0.41010000  1.0 -0.1398972101
C  C227  1  0.80370000  0.60000000  0.39750000  1.0 -0.0913968779
C  C228  1  0.89980000  0.64490000  0.35820000  1.0 -0.1398972101
C  C229  1  0.12040000  0.69360000  0.35890000  1.0 -0.0185429518
C  C230  1  0.44650000  0.37250000  0.36350000  1.0 0.0686514526
C  C231  1  0.40620000  0.41070000  0.38520000  1.0 -0.1398972101
C  C232  1  0.07470000  0.60840000  0.41000000  1.0 -0.1557707213
C  C233  1  0.33420000  0.41410000  0.37830000  1.0 -0.0185429518
C  C234  1  0.85050000  0.58470000  0.43260000  1.0 -0.0185429518
C  C235  1  0.92100000  0.59990000  0.43060000  1.0 -0.1398972101
C  C236  1  0.04850000  0.68450000  0.36480000  1.0 -0.1398972101
C  C237  1  0.30090000  0.38060000  0.34750000  1.0 -0.0998972397
C  C238  1  0.52400000  0.36980000  0.37160000  1.0 0.0686514526
C  C239  1  0.56920000  0.34530000  0.33900000  1.0 -0.1508999191
C  C240  1  0.94730000  0.62930000  0.39250000  1.0 0.0570036821
C  C241  1  0.41130000  0.33860000  0.33220000  1.0 -0.1398972101
C  C242  1  0.02410000  0.64130000  0.38980000  1.0 0.0686514526
C  C243  1  0.82880000  0.63060000  0.35990000  1.0 -0.0099243805
C  C244  1  0.77840000  0.65060000  0.32180000  1.0 0.5991881654
C  C245  1  0.14660000  0.61780000  0.40570000  1.0 -0.0185429518
C  C246  1  0.66480000  0.42370000  0.45640000  1.0 0.5481194049
C  C247  1  0.30070000  0.30500000  0.29150000  1.0 0.5481194049
C  C248  1  0.14710000  0.73890000  0.32960000  1.0 0.5991881654
C  C249  1  0.20020000  0.58370000  0.42860000  1.0 0.5715464592
C  C250  1  0.68800000  0.31940000  0.30860000  1.0 0.5715464592
C  C251  1  0.64210000  0.34450000  0.34430000  1.0 -0.0286204735
C  C252  1  0.33870000  0.34270000  0.32520000  1.0 0.0017197411
C  C253  1  0.67270000  0.36810000  0.38340000  1.0 -0.0913968779
C  C254  1  0.29100000  0.45480000  0.40320000  1.0 0.6079457492
C  C255  1  0.62940000  0.39400000  0.41660000  1.0 -0.0099243805
C  C256  1  0.82430000  0.55370000  0.47530000  1.0 0.6079457492
O  O1  1  0.60550000  0.72461000  0.32433000  1.0 -0.5570695571
O  O2  1  0.76350000  0.90590000  0.42792000  1.0 -0.4592702498
O  O3  1  0.30540000  0.82042000  0.29071000  1.0 -0.5295951937
O  O4  1  0.26540000  0.96672000  0.47291000  1.0 -0.5039425403
O  O5  1  0.82210000  0.02128000  0.43651000  1.0 -0.5187717102
O  O6  1  0.70850000  0.76540000  0.31413000  1.0 -0.5295951937
O  O7  1  0.25180000  0.18795000  0.31701000  1.0 -0.4592702498
O  O8  1  0.12740000  0.04850000  0.48214000  1.0 -0.5117238202
O  O9  1  0.21480000  0.86326000  0.32451000  1.0 -0.5793159105
O  O10  1  0.16090000  0.19539000  0.26832000  1.0 -0.6144980103
O  O11  1  0.67610000  0.95595000  0.45112000  1.0 -0.6010631456
O  O12  1  0.83800000  0.22580000  0.26726000  1.0 -0.5295951937
O  O13  1  0.73520000  0.19520000  0.29156000  1.0 -0.5117238202
O  O14  1  0.36770000  0.94890000  0.50980000  1.0 -0.5793159105
O  O15  1  0.23090000  0.07970000  0.46189000  1.0 -0.5187717102
O  O16  1  0.72890000  0.03950000  0.39110000  1.0 -0.5570695571
O  O17  1  0.89450000  0.77539000  0.82433000  1.0 -0.5570695571
O  O18  1  0.73650000  0.59410000  0.92792000  1.0 -0.4592702498
O  O19  1  0.19460000  0.67958000  0.79071000  1.0 -0.5295951937
O  O20  1  0.23460000  0.53328000  0.97291000  1.0 -0.5039425403
O  O21  1  0.67790000  0.47872000  0.93651000  1.0 -0.5295951937
O  O22  1  0.79150000  0.73460000  0.81413000  1.0 -0.5295951937
O  O23  1  0.24820000  0.31205000  0.81701000  1.0 -0.4538085148
O  O24  1  0.37260000  0.45150000  0.98214000  1.0 -0.5117238202
O  O25  1  0.28520000  0.63674000  0.82451000  1.0 -0.5793159105
O  O26  1  0.33910000  0.30461000  0.76832000  1.0 -0.616946286
O  O27  1  0.82390000  0.54405000  0.95112000  1.0 -0.6010631456
O  O28  1  0.66200000  0.27420000  0.76726000  1.0 -0.5295951937
O  O29  1  0.76480000  0.30480000  0.79156000  1.0 -0.5187717102
O  O30  1  0.13230000  0.55110000  0.00980000  1.0 -0.5793159105
O  O31  1  0.26910000  0.42030000  0.96189000  1.0 -0.5187717102
O  O32  1  0.77110000  0.46050000  0.89110000  1.0 -0.5570695571
O  O33  1  0.60550000  0.27539000  0.17567000  1.0 -0.5570695571
O  O34  1  0.76350000  0.09410000  0.07208000  1.0 -0.4592702498
O  O35  1  0.30540000  0.17958000  0.20929000  1.0 -0.5295951937
O  O36  1  0.26540000  0.03328000  0.02709000  1.0 -0.5117238202
O  O37  1  0.82210000  0.97872000  0.06349000  1.0 -0.5295951937
O  O38  1  0.70850000  0.23460000  0.18587000  1.0 -0.5295951937
O  O39  1  0.25180000  0.81205000  0.18299000  1.0 -0.4592702498
O  O40  1  0.12740000  0.95150000  0.01786000  1.0 -0.5117238202
O  O41  1  0.21480000  0.13674000  0.17549000  1.0 -0.5793159105
O  O42  1  0.16090000  0.80461000  0.23168000  1.0 -0.6144980103
O  O43  1  0.67610000  0.04405000  0.04888000  1.0 -0.6010631456
O  O44  1  0.83800000  0.77420000  0.23274000  1.0 -0.5295951937
O  O45  1  0.73520000  0.80480000  0.20844000  1.0 -0.5187717102
O  O46  1  0.36770000  0.05110000  0.99020000  1.0 -0.5793159105
O  O47  1  0.23090000  0.92030000  0.03811000  1.0 -0.5187717102
O  O48  1  0.72890000  0.96050000  0.10890000  1.0 -0.5570695571
O  O49  1  0.89450000  0.22461000  0.67567000  1.0 -0.5570695571
O  O50  1  0.73650000  0.40590000  0.57208000  1.0 -0.4592702498
O  O51  1  0.19460000  0.32042000  0.70929000  1.0 -0.5295951937
O  O52  1  0.23460000  0.46672000  0.52709000  1.0 -0.5039425403
O  O53  1  0.67790000  0.52128000  0.56349000  1.0 -0.5187717102
O  O54  1  0.79150000  0.26540000  0.68587000  1.0 -0.5295951937
O  O55  1  0.24820000  0.68795000  0.68299000  1.0 -0.4538085148
O  O56  1  0.37260000  0.54850000  0.51786000  1.0 -0.5117238202
O  O57  1  0.28520000  0.36326000  0.67549000  1.0 -0.5793159105
O  O58  1  0.33910000  0.69539000  0.73168000  1.0 -0.616946286
O  O59  1  0.82390000  0.45595000  0.54888000  1.0 -0.6010631456
O  O60  1  0.66200000  0.72580000  0.73274000  1.0 -0.5295951937
O  O61  1  0.76480000  0.69520000  0.70844000  1.0 -0.5117238202
O  O62  1  0.13230000  0.44890000  0.49020000  1.0 -0.5793159105
O  O63  1  0.26910000  0.57970000  0.53811000  1.0 -0.5187717102
O  O64  1  0.77110000  0.53950000  0.60890000  1.0 -0.5570695571
O  O65  1  0.39450000  0.27539000  0.67567000  1.0 -0.5570695571
O  O66  1  0.23650000  0.09410000  0.57208000  1.0 -0.4592702498
O  O67  1  0.69460000  0.17958000  0.70929000  1.0 -0.5295951937
O  O68  1  0.73460000  0.03328000  0.52709000  1.0 -0.5117238202
O  O69  1  0.17790000  0.97872000  0.56349000  1.0 -0.5295951937
O  O70  1  0.29150000  0.23460000  0.68587000  1.0 -0.5295951937
O  O71  1  0.74820000  0.81205000  0.68299000  1.0 -0.4592702498
O  O72  1  0.87260000  0.95150000  0.51786000  1.0 -0.5117238202
O  O73  1  0.78520000  0.13674000  0.67549000  1.0 -0.5793159105
O  O74  1  0.83910000  0.80461000  0.73168000  1.0 -0.6144980103
O  O75  1  0.32390000  0.04405000  0.54888000  1.0 -0.6010631456
O  O76  1  0.16200000  0.77420000  0.73274000  1.0 -0.5295951937
O  O77  1  0.26480000  0.80480000  0.70844000  1.0 -0.5187717102
O  O78  1  0.63230000  0.05110000  0.49020000  1.0 -0.5793159105
O  O79  1  0.76910000  0.92030000  0.53811000  1.0 -0.5187717102
O  O80  1  0.27110000  0.96050000  0.60890000  1.0 -0.5570695571
O  O81  1  0.10550000  0.22461000  0.17567000  1.0 -0.5570695571
O  O82  1  0.26350000  0.40590000  0.07208000  1.0 -0.4592702498
O  O83  1  0.80540000  0.32042000  0.20929000  1.0 -0.5295951937
O  O84  1  0.76540000  0.46672000  0.02709000  1.0 -0.5039425403
O  O85  1  0.32210000  0.52128000  0.06349000  1.0 -0.5187717102
O  O86  1  0.20850000  0.26540000  0.18587000  1.0 -0.5295951937
O  O87  1  0.75180000  0.68795000  0.18299000  1.0 -0.4538085148
O  O88  1  0.62740000  0.54850000  0.01786000  1.0 -0.5117238202
O  O89  1  0.71480000  0.36326000  0.17549000  1.0 -0.5793159105
O  O90  1  0.66090000  0.69539000  0.23168000  1.0 -0.616946286
O  O91  1  0.17610000  0.45595000  0.04888000  1.0 -0.6010631456
O  O92  1  0.33800000  0.72580000  0.23274000  1.0 -0.5295951937
O  O93  1  0.23520000  0.69520000  0.20844000  1.0 -0.5117238202
O  O94  1  0.86770000  0.44890000  0.99020000  1.0 -0.5793159105
O  O95  1  0.73090000  0.57970000  0.03811000  1.0 -0.5187717102
O  O96  1  0.22890000  0.53950000  0.10890000  1.0 -0.5570695571
O  O97  1  0.39450000  0.72461000  0.82433000  1.0 -0.5570695571
O  O98  1  0.23650000  0.90590000  0.92792000  1.0 -0.4592702498
O  O99  1  0.69460000  0.82042000  0.79071000  1.0 -0.5295951937
O  O100  1  0.73460000  0.96672000  0.97291000  1.0 -0.5039425403
O  O101  1  0.17790000  0.02128000  0.93651000  1.0 -0.5187717102
O  O102  1  0.29150000  0.76540000  0.81413000  1.0 -0.5295951937
O  O103  1  0.74820000  0.18795000  0.81701000  1.0 -0.4592702498
O  O104  1  0.87260000  0.04850000  0.98214000  1.0 -0.5117238202
O  O105  1  0.78520000  0.86326000  0.82451000  1.0 -0.5793159105
O  O106  1  0.83910000  0.19539000  0.76832000  1.0 -0.6144980103
O  O107  1  0.32390000  0.95595000  0.95112000  1.0 -0.6010631456
O  O108  1  0.16200000  0.22580000  0.76726000  1.0 -0.5295951937
O  O109  1  0.26480000  0.19520000  0.79156000  1.0 -0.5117238202
O  O110  1  0.63230000  0.94890000  0.00980000  1.0 -0.5793159105
O  O111  1  0.76910000  0.07970000  0.96189000  1.0 -0.5187717102
O  O112  1  0.27110000  0.03950000  0.89110000  1.0 -0.5570695571
O  O113  1  0.10550000  0.77539000  0.32433000  1.0 -0.5570695571
O  O114  1  0.26350000  0.59410000  0.42792000  1.0 -0.4592702498
O  O115  1  0.80540000  0.67958000  0.29071000  1.0 -0.5295951937
O  O116  1  0.76540000  0.53328000  0.47291000  1.0 -0.5039425403
O  O117  1  0.32210000  0.47872000  0.43651000  1.0 -0.5295951937
O  O118  1  0.20850000  0.73460000  0.31413000  1.0 -0.5295951937
O  O119  1  0.75180000  0.31205000  0.31701000  1.0 -0.4538085148
O  O120  1  0.62740000  0.45150000  0.48214000  1.0 -0.5117238202
O  O121  1  0.71480000  0.63674000  0.32451000  1.0 -0.5793159105
O  O122  1  0.66090000  0.30461000  0.26832000  1.0 -0.616946286
O  O123  1  0.17610000  0.54405000  0.45112000  1.0 -0.6010631456
O  O124  1  0.33800000  0.27420000  0.26726000  1.0 -0.5295951937
O  O125  1  0.23520000  0.30480000  0.29156000  1.0 -0.5187717102
O  O126  1  0.86770000  0.55110000  0.50980000  1.0 -0.5793159105
O  O127  1  0.73090000  0.42030000  0.46189000  1.0 -0.5187717102
O  O128  1  0.22890000  0.46050000  0.39110000  1.0 -0.5570695571
