# DDEC6 charges by PACMAN v1.1 (https://github.com/mtap-research/PACMAN-charge/)
data_SITDAD_ASR_pacman
_symmetry_space_group_name_H-M   'P 1'
_cell_length_a   19.54720000
_cell_length_b   27.08070000
_cell_length_c   27.94590000
_cell_angle_alpha   90.00000000
_cell_angle_beta   90.00000000
_cell_angle_gamma   90.00000000
_symmetry_Int_Tables_number   1
_chemical_formula_structural   CdH3(C2O)4
_chemical_formula_sum   'Cd32 H96 C256 O128'
_cell_volume   14793.21411755
_cell_formula_units_Z   32
loop_
 _symmetry_equiv_pos_site_id
 _symmetry_equiv_pos_as_xyz
  1  'x, y, z'
loop_
 _atom_site_type_symbol
 _atom_site_label
 _atom_site_symmetry_multiplicity
 _atom_site_fract_x
 _atom_site_fract_y
 _atom_site_fract_z
 _atom_site_occupancy
 _atom_site_charge
Cd  Cd1  1  0.38489000  0.15335000  0.79760000  1.0 1.1042368706
Cd  Cd2  1  0.74920000  0.73770000  0.74206000  1.0 1.0237071808
Cd  Cd3  1  0.22597000  0.47455000  0.97961000  1.0 1.0102311666
Cd  Cd4  1  0.36701000  0.52536000  0.91263000  1.0 1.1071277853
Cd  Cd5  1  0.11511000  0.34665000  0.29760000  1.0 1.1042368706
Cd  Cd6  1  0.75080000  0.76230000  0.24206000  1.0 1.0237071808
Cd  Cd7  1  0.27403000  0.02545000  0.47961000  1.0 1.0102311666
Cd  Cd8  1  0.13299000  0.97464000  0.41263000  1.0 1.1071277853
Cd  Cd9  1  0.38489000  0.84665000  0.70240000  1.0 1.1042368706
Cd  Cd10  1  0.74920000  0.26230000  0.75794000  1.0 1.0237071808
Cd  Cd11  1  0.22597000  0.52545000  0.52039000  1.0 1.0102311666
Cd  Cd12  1  0.36701000  0.47464000  0.58737000  1.0 1.1071277853
Cd  Cd13  1  0.11511000  0.65335000  0.20240000  1.0 1.1042368706
Cd  Cd14  1  0.75080000  0.23770000  0.25794000  1.0 1.0237071808
Cd  Cd15  1  0.27403000  0.97455000  0.02039000  1.0 1.0102311666
Cd  Cd16  1  0.13299000  0.02536000  0.08737000  1.0 1.1071277853
Cd  Cd17  1  0.61511000  0.84665000  0.20240000  1.0 1.1042368706
Cd  Cd18  1  0.25080000  0.26230000  0.25794000  1.0 1.0237071808
Cd  Cd19  1  0.77403000  0.52545000  0.02039000  1.0 1.0102311666
Cd  Cd20  1  0.63299000  0.47464000  0.08737000  1.0 1.1071277853
Cd  Cd21  1  0.88489000  0.65335000  0.70240000  1.0 1.1042368706
Cd  Cd22  1  0.24920000  0.23770000  0.75794000  1.0 1.0237071808
Cd  Cd23  1  0.72597000  0.97455000  0.52039000  1.0 1.0102311666
Cd  Cd24  1  0.86701000  0.02536000  0.58737000  1.0 1.1071277853
Cd  Cd25  1  0.61511000  0.15335000  0.29760000  1.0 1.1042368706
Cd  Cd26  1  0.25080000  0.73770000  0.24206000  1.0 1.0237071808
Cd  Cd27  1  0.77403000  0.47455000  0.47961000  1.0 1.0102311666
Cd  Cd28  1  0.63299000  0.52536000  0.41263000  1.0 1.1071277853
Cd  Cd29  1  0.88489000  0.34665000  0.79760000  1.0 1.1042368706
Cd  Cd30  1  0.24920000  0.76230000  0.74206000  1.0 1.0237071808
Cd  Cd31  1  0.72597000  0.02545000  0.97961000  1.0 1.0102311666
Cd  Cd32  1  0.86701000  0.97464000  0.91263000  1.0 1.1071277853
H  H1  1  0.29390000  0.33320000  0.87790000  1.0 0.1362084295
H  H2  1  0.49080000  0.29280000  0.85680000  1.0 0.1189594784
H  H3  1  0.74010000  0.40830000  0.90270000  1.0 0.1302864904
H  H4  1  0.54930000  0.40860000  0.95900000  1.0 0.1114022243
H  H5  1  0.06420000  0.56470000  0.90230000  1.0 0.1189594784
H  H6  1  0.05810000  0.68350000  0.81520000  1.0 0.1114022243
H  H7  1  0.95260000  0.66930000  0.80900000  1.0 0.098870833
H  H8  1  0.78360000  0.63490000  0.88660000  1.0 0.1302864904
H  H9  1  0.96990000  0.58710000  0.92970000  1.0 0.1189594784
H  H10  1  0.44690000  0.42030000  0.92660000  1.0 0.098870833
H  H11  1  0.58730000  0.33540000  0.83570000  1.0 0.1189594784
H  H12  1  0.23810000  0.61390000  0.83990000  1.0 0.1302864904
H  H13  1  0.20610000  0.16680000  0.37790000  1.0 0.1362084295
H  H14  1  0.00920000  0.20720000  0.35680000  1.0 0.1189594784
H  H15  1  0.75990000  0.09170000  0.40270000  1.0 0.1302864904
H  H16  1  0.95070000  0.09140000  0.45900000  1.0 0.1114022243
H  H17  1  0.43580000  0.93530000  0.40230000  1.0 0.1189594784
H  H18  1  0.44190000  0.81650000  0.31520000  1.0 0.1114022243
H  H19  1  0.54740000  0.83070000  0.30900000  1.0 0.098870833
H  H20  1  0.71640000  0.86510000  0.38660000  1.0 0.1302864904
H  H21  1  0.53010000  0.91290000  0.42970000  1.0 0.1189594784
H  H22  1  0.05310000  0.07970000  0.42660000  1.0 0.098870833
H  H23  1  0.91270000  0.16460000  0.33570000  1.0 0.1189594784
H  H24  1  0.26190000  0.88610000  0.33990000  1.0 0.1189594784
H  H25  1  0.29390000  0.66680000  0.62210000  1.0 0.1362084295
H  H26  1  0.49080000  0.70720000  0.64320000  1.0 0.1189594784
H  H27  1  0.74010000  0.59170000  0.59730000  1.0 0.1302864904
H  H28  1  0.54930000  0.59140000  0.54100000  1.0 0.1114022243
H  H29  1  0.06420000  0.43530000  0.59770000  1.0 0.1189594784
H  H30  1  0.05810000  0.31650000  0.68480000  1.0 0.1114022243
H  H31  1  0.95260000  0.33070000  0.69100000  1.0 0.098870833
H  H32  1  0.78360000  0.36510000  0.61340000  1.0 0.1302864904
H  H33  1  0.96990000  0.41290000  0.57030000  1.0 0.1189594784
H  H34  1  0.44690000  0.57970000  0.57340000  1.0 0.098870833
H  H35  1  0.58730000  0.66460000  0.66430000  1.0 0.1189594784
H  H36  1  0.23810000  0.38610000  0.66010000  1.0 0.1302864904
H  H37  1  0.20610000  0.83320000  0.12210000  1.0 0.1362084295
H  H38  1  0.00920000  0.79280000  0.14320000  1.0 0.1189594784
H  H39  1  0.75990000  0.90830000  0.09730000  1.0 0.1302864904
H  H40  1  0.95070000  0.90860000  0.04100000  1.0 0.1114022243
H  H41  1  0.43580000  0.06470000  0.09770000  1.0 0.1189594784
H  H42  1  0.44190000  0.18350000  0.18480000  1.0 0.1114022243
H  H43  1  0.54740000  0.16930000  0.19100000  1.0 0.098870833
H  H44  1  0.71640000  0.13490000  0.11340000  1.0 0.1302864904
H  H45  1  0.53010000  0.08710000  0.07030000  1.0 0.1189594784
H  H46  1  0.05310000  0.92030000  0.07340000  1.0 0.098870833
H  H47  1  0.91270000  0.83540000  0.16430000  1.0 0.1189594784
H  H48  1  0.26190000  0.11390000  0.16010000  1.0 0.1302864904
H  H49  1  0.70610000  0.66680000  0.12210000  1.0 0.1362084295
H  H50  1  0.50920000  0.70720000  0.14320000  1.0 0.1189594784
H  H51  1  0.25990000  0.59170000  0.09730000  1.0 0.1302864904
H  H52  1  0.45070000  0.59140000  0.04100000  1.0 0.1114022243
H  H53  1  0.93580000  0.43530000  0.09770000  1.0 0.1189594784
H  H54  1  0.94190000  0.31650000  0.18480000  1.0 0.1114022243
H  H55  1  0.04740000  0.33070000  0.19100000  1.0 0.098870833
H  H56  1  0.21640000  0.36510000  0.11340000  1.0 0.1302864904
H  H57  1  0.03010000  0.41290000  0.07030000  1.0 0.1189594784
H  H58  1  0.55310000  0.57970000  0.07340000  1.0 0.098870833
H  H59  1  0.41270000  0.66460000  0.16430000  1.0 0.1189594784
H  H60  1  0.76190000  0.38610000  0.16010000  1.0 0.1302864904
H  H61  1  0.79390000  0.83320000  0.62210000  1.0 0.1362084295
H  H62  1  0.99080000  0.79280000  0.64320000  1.0 0.1189594784
H  H63  1  0.24010000  0.90830000  0.59730000  1.0 0.1302864904
H  H64  1  0.04930000  0.90860000  0.54100000  1.0 0.1114022243
H  H65  1  0.56420000  0.06470000  0.59770000  1.0 0.1189594784
H  H66  1  0.55810000  0.18350000  0.68480000  1.0 0.1114022243
H  H67  1  0.45260000  0.16930000  0.69100000  1.0 0.098870833
H  H68  1  0.28360000  0.13490000  0.61340000  1.0 0.1302864904
H  H69  1  0.46990000  0.08710000  0.57030000  1.0 0.1189594784
H  H70  1  0.94690000  0.92030000  0.57340000  1.0 0.098870833
H  H71  1  0.08730000  0.83540000  0.66430000  1.0 0.1189594784
H  H72  1  0.73810000  0.11390000  0.66010000  1.0 0.1302864904
H  H73  1  0.70610000  0.33320000  0.37790000  1.0 0.1362084295
H  H74  1  0.50920000  0.29280000  0.35680000  1.0 0.1189594784
H  H75  1  0.25990000  0.40830000  0.40270000  1.0 0.1302864904
H  H76  1  0.45070000  0.40860000  0.45900000  1.0 0.1114022243
H  H77  1  0.93580000  0.56470000  0.40230000  1.0 0.1189594784
H  H78  1  0.94190000  0.68350000  0.31520000  1.0 0.1114022243
H  H79  1  0.04740000  0.66930000  0.30900000  1.0 0.098870833
H  H80  1  0.21640000  0.63490000  0.38660000  1.0 0.1302864904
H  H81  1  0.03010000  0.58710000  0.42970000  1.0 0.1189594784
H  H82  1  0.55310000  0.42030000  0.42660000  1.0 0.098870833
H  H83  1  0.41270000  0.33540000  0.33570000  1.0 0.1189594784
H  H84  1  0.76190000  0.61390000  0.33990000  1.0 0.1302864904
H  H85  1  0.79390000  0.16680000  0.87790000  1.0 0.1362084295
H  H86  1  0.99080000  0.20720000  0.85680000  1.0 0.1189594784
H  H87  1  0.24010000  0.09170000  0.90270000  1.0 0.1302864904
H  H88  1  0.04930000  0.09140000  0.95900000  1.0 0.1114022243
H  H89  1  0.56420000  0.93530000  0.90230000  1.0 0.1189594784
H  H90  1  0.55810000  0.81650000  0.81520000  1.0 0.1114022243
H  H91  1  0.45260000  0.83070000  0.80900000  1.0 0.098870833
H  H92  1  0.28360000  0.86510000  0.88660000  1.0 0.1302864904
H  H93  1  0.46990000  0.91290000  0.92970000  1.0 0.1189594784
H  H94  1  0.94690000  0.07970000  0.92660000  1.0 0.098870833
H  H95  1  0.08730000  0.16460000  0.83570000  1.0 0.1189594784
H  H96  1  0.73810000  0.88610000  0.83990000  1.0 0.1302864904
C  C1  1  0.34140000  0.33940000  0.88170000  1.0 -0.0914239602
C  C2  1  0.45840000  0.31600000  0.86860000  1.0 -0.1326731597
C  C3  1  0.69350000  0.39830000  0.90140000  1.0 -0.0914239602
C  C4  1  0.57990000  0.39920000  0.93430000  1.0 -0.1411866122
C  C5  1  0.08670000  0.58770000  0.88210000  1.0 -0.1411866122
C  C6  1  0.08300000  0.65770000  0.83020000  1.0 -0.1411866122
C  C7  1  0.93260000  0.65380000  0.83610000  1.0 -0.1653793906
C  C8  1  0.83170000  0.63320000  0.88200000  1.0 -0.0914239602
C  C9  1  0.94270000  0.60490000  0.90740000  1.0 -0.1411866122
C  C10  1  0.36410000  0.26180000  0.83620000  1.0 0.5991063691
C  C11  1  0.38880000  0.30650000  0.86260000  1.0 -0.0307398267
C  C12  1  0.36310000  0.38140000  0.90600000  1.0 -0.019935477
C  C13  1  0.43240000  0.39120000  0.91050000  1.0 -0.162298121
C  C14  1  0.48170000  0.35860000  0.89130000  1.0 0.0705524786
C  C15  1  0.55580000  0.37120000  0.89550000  1.0 0.059398524
C  C16  1  0.60240000  0.35560000  0.86140000  1.0 -0.1411866122
C  C17  1  0.67130000  0.36900000  0.86410000  1.0 -0.0307398267
C  C18  1  0.64870000  0.41320000  0.93680000  1.0 -0.0363091212
C  C19  1  0.67170000  0.44360000  0.97860000  1.0 0.5991063691
C  C20  1  0.72040000  0.34980000  0.82680000  1.0 0.5991063691
C  C21  1  0.31080000  0.41530000  0.92730000  1.0 0.574593551
C  C22  1  0.19710000  0.54510000  0.90160000  1.0 0.5991063691
C  C23  1  0.15700000  0.58390000  0.87500000  1.0 -0.019935477
C  C24  1  0.04870000  0.62480000  0.86010000  1.0 0.059398524
C  C25  1  0.15290000  0.65360000  0.82200000  1.0 -0.0140696943
C  C26  1  0.19010000  0.61660000  0.84490000  1.0 -0.0914239602
C  C27  1  0.18810000  0.68990000  0.78970000  1.0 0.5430707033
C  C28  1  0.97390000  0.62840000  0.86840000  1.0 0.0705524786
C  C29  1  0.86210000  0.65660000  0.84340000  1.0 -0.019935477
C  C30  1  0.81960000  0.68380000  0.80750000  1.0 0.5779943015
C  C31  1  0.87210000  0.60740000  0.91370000  1.0 -0.0140696943
C  C32  1  0.83860000  0.57830000  0.95350000  1.0 0.5430707033
C  C33  1  0.15860000  0.16060000  0.38170000  1.0 -0.0914239602
C  C34  1  0.04160000  0.18400000  0.36860000  1.0 -0.1326731597
C  C35  1  0.80650000  0.10170000  0.40140000  1.0 -0.0914239602
C  C36  1  0.92010000  0.10080000  0.43430000  1.0 -0.1411866122
C  C37  1  0.41330000  0.91230000  0.38210000  1.0 -0.1411866122
C  C38  1  0.41700000  0.84230000  0.33020000  1.0 -0.1411866122
C  C39  1  0.56740000  0.84620000  0.33610000  1.0 -0.162298121
C  C40  1  0.66830000  0.86680000  0.38200000  1.0 -0.0914239602
C  C41  1  0.55730000  0.89510000  0.40740000  1.0 -0.1411866122
C  C42  1  0.13590000  0.23820000  0.33620000  1.0 0.5991063691
C  C43  1  0.11120000  0.19350000  0.36260000  1.0 -0.0307398267
C  C44  1  0.13690000  0.11860000  0.40600000  1.0 -0.019935477
C  C45  1  0.06760000  0.10880000  0.41050000  1.0 -0.162298121
C  C46  1  0.01830000  0.14140000  0.39130000  1.0 0.0705524786
C  C47  1  0.94420000  0.12880000  0.39550000  1.0 0.059398524
C  C48  1  0.89760000  0.14440000  0.36140000  1.0 -0.1411866122
C  C49  1  0.82870000  0.13100000  0.36410000  1.0 -0.0307398267
C  C50  1  0.85130000  0.08680000  0.43680000  1.0 -0.0363091212
C  C51  1  0.82830000  0.05640000  0.47860000  1.0 0.5991063691
C  C52  1  0.77960000  0.15020000  0.32680000  1.0 0.5991063691
C  C53  1  0.18920000  0.08470000  0.42730000  1.0 0.574593551
C  C54  1  0.30290000  0.95490000  0.40160000  1.0 0.5991063691
C  C55  1  0.34300000  0.91610000  0.37500000  1.0 -0.019935477
C  C56  1  0.45130000  0.87520000  0.36010000  1.0 0.059398524
C  C57  1  0.34710000  0.84640000  0.32200000  1.0 -0.019935477
C  C58  1  0.30990000  0.88340000  0.34490000  1.0 -0.0914239602
C  C59  1  0.31190000  0.81010000  0.28970000  1.0 0.5430707033
C  C60  1  0.52610000  0.87160000  0.36840000  1.0 0.0705524786
C  C61  1  0.63790000  0.84340000  0.34340000  1.0 -0.019935477
C  C62  1  0.68040000  0.81620000  0.30750000  1.0 0.5779943015
C  C63  1  0.62790000  0.89260000  0.41370000  1.0 -0.0140696943
C  C64  1  0.66140000  0.92170000  0.45350000  1.0 0.5430707033
C  C65  1  0.34140000  0.66060000  0.61830000  1.0 -0.0914239602
C  C66  1  0.45840000  0.68400000  0.63140000  1.0 -0.1326731597
C  C67  1  0.69350000  0.60170000  0.59860000  1.0 -0.0914239602
C  C68  1  0.57990000  0.60080000  0.56570000  1.0 -0.1411866122
C  C69  1  0.08670000  0.41230000  0.61790000  1.0 -0.1411866122
C  C70  1  0.08300000  0.34230000  0.66980000  1.0 -0.1411866122
C  C71  1  0.93260000  0.34620000  0.66390000  1.0 -0.162298121
C  C72  1  0.83170000  0.36680000  0.61800000  1.0 -0.0914239602
C  C73  1  0.94270000  0.39510000  0.59260000  1.0 -0.1411866122
C  C74  1  0.36410000  0.73820000  0.66380000  1.0 0.5991063691
C  C75  1  0.38880000  0.69350000  0.63740000  1.0 -0.0307398267
C  C76  1  0.36310000  0.61860000  0.59400000  1.0 -0.019935477
C  C77  1  0.43240000  0.60880000  0.58950000  1.0 -0.162298121
C  C78  1  0.48170000  0.64140000  0.60870000  1.0 0.0705524786
C  C79  1  0.55580000  0.62880000  0.60450000  1.0 0.059398524
C  C80  1  0.60240000  0.64440000  0.63860000  1.0 -0.1411866122
C  C81  1  0.67130000  0.63100000  0.63590000  1.0 -0.0307398267
C  C82  1  0.64870000  0.58680000  0.56320000  1.0 -0.0363091212
C  C83  1  0.67170000  0.55640000  0.52140000  1.0 0.5991063691
C  C84  1  0.72040000  0.65020000  0.67320000  1.0 0.5991063691
C  C85  1  0.31080000  0.58470000  0.57270000  1.0 0.574593551
C  C86  1  0.19710000  0.45490000  0.59840000  1.0 0.5991063691
C  C87  1  0.15700000  0.41610000  0.62500000  1.0 -0.019935477
C  C88  1  0.04870000  0.37520000  0.63990000  1.0 0.059398524
C  C89  1  0.15290000  0.34640000  0.67800000  1.0 -0.0140696943
C  C90  1  0.19010000  0.38340000  0.65510000  1.0 -0.0914239602
C  C91  1  0.18810000  0.31010000  0.71030000  1.0 0.5430707033
C  C92  1  0.97390000  0.37160000  0.63160000  1.0 0.0705524786
C  C93  1  0.86210000  0.34340000  0.65660000  1.0 -0.019935477
C  C94  1  0.81960000  0.31620000  0.69250000  1.0 0.5779943015
C  C95  1  0.87210000  0.39260000  0.58630000  1.0 -0.0140696943
C  C96  1  0.83860000  0.42170000  0.54650000  1.0 0.5430707033
C  C97  1  0.15860000  0.83940000  0.11830000  1.0 -0.0914239602
C  C98  1  0.04160000  0.81600000  0.13140000  1.0 -0.1326731597
C  C99  1  0.80650000  0.89830000  0.09860000  1.0 -0.0914239602
C  C100  1  0.92010000  0.89920000  0.06570000  1.0 -0.1411866122
C  C101  1  0.41330000  0.08770000  0.11790000  1.0 -0.1411866122
C  C102  1  0.41700000  0.15770000  0.16980000  1.0 -0.1411866122
C  C103  1  0.56740000  0.15380000  0.16390000  1.0 -0.162298121
C  C104  1  0.66830000  0.13320000  0.11800000  1.0 -0.0914239602
C  C105  1  0.55730000  0.10490000  0.09260000  1.0 -0.1411866122
C  C106  1  0.13590000  0.76180000  0.16380000  1.0 0.5991063691
C  C107  1  0.11120000  0.80650000  0.13740000  1.0 -0.0307398267
C  C108  1  0.13690000  0.88140000  0.09400000  1.0 -0.019935477
C  C109  1  0.06760000  0.89120000  0.08950000  1.0 -0.162298121
C  C110  1  0.01830000  0.85860000  0.10870000  1.0 0.0705524786
C  C111  1  0.94420000  0.87120000  0.10450000  1.0 0.0545794885
C  C112  1  0.89760000  0.85560000  0.13860000  1.0 -0.1411866122
C  C113  1  0.82870000  0.86900000  0.13590000  1.0 -0.0307398267
C  C114  1  0.85130000  0.91320000  0.06320000  1.0 -0.0363091212
C  C115  1  0.82830000  0.94360000  0.02140000  1.0 0.5991063691
C  C116  1  0.77960000  0.84980000  0.17320000  1.0 0.5991063691
C  C117  1  0.18920000  0.91530000  0.07270000  1.0 0.574593551
C  C118  1  0.30290000  0.04510000  0.09840000  1.0 0.5991063691
C  C119  1  0.34300000  0.08390000  0.12500000  1.0 -0.019935477
C  C120  1  0.45130000  0.12480000  0.13990000  1.0 0.059398524
C  C121  1  0.34710000  0.15360000  0.17800000  1.0 -0.0140696943
C  C122  1  0.30990000  0.11660000  0.15510000  1.0 -0.0914239602
C  C123  1  0.31190000  0.18990000  0.21030000  1.0 0.5430707033
C  C124  1  0.52610000  0.12840000  0.13160000  1.0 0.0705524786
C  C125  1  0.63790000  0.15660000  0.15660000  1.0 -0.019935477
C  C126  1  0.68040000  0.18380000  0.19250000  1.0 0.5779943015
C  C127  1  0.62790000  0.10740000  0.08630000  1.0 -0.0140696943
C  C128  1  0.66140000  0.07830000  0.04650000  1.0 0.5430707033
C  C129  1  0.65860000  0.66060000  0.11830000  1.0 -0.0914239602
C  C130  1  0.54160000  0.68400000  0.13140000  1.0 -0.1326731597
C  C131  1  0.30650000  0.60170000  0.09860000  1.0 -0.0914239602
C  C132  1  0.42010000  0.60080000  0.06570000  1.0 -0.1411866122
C  C133  1  0.91330000  0.41230000  0.11790000  1.0 -0.1411866122
C  C134  1  0.91700000  0.34230000  0.16980000  1.0 -0.1411866122
C  C135  1  0.06740000  0.34620000  0.16390000  1.0 -0.162298121
C  C136  1  0.16830000  0.36680000  0.11800000  1.0 -0.0914239602
C  C137  1  0.05730000  0.39510000  0.09260000  1.0 -0.1411866122
C  C138  1  0.63590000  0.73820000  0.16380000  1.0 0.5991063691
C  C139  1  0.61120000  0.69350000  0.13740000  1.0 -0.0307398267
C  C140  1  0.63690000  0.61860000  0.09400000  1.0 -0.019935477
C  C141  1  0.56760000  0.60880000  0.08950000  1.0 -0.162298121
C  C142  1  0.51830000  0.64140000  0.10870000  1.0 0.0705524786
C  C143  1  0.44420000  0.62880000  0.10450000  1.0 0.059398524
C  C144  1  0.39760000  0.64440000  0.13860000  1.0 -0.1411866122
C  C145  1  0.32870000  0.63100000  0.13590000  1.0 -0.0307398267
C  C146  1  0.35130000  0.58680000  0.06320000  1.0 -0.0363091212
C  C147  1  0.32830000  0.55640000  0.02140000  1.0 0.5991063691
C  C148  1  0.27960000  0.65020000  0.17320000  1.0 0.5991063691
C  C149  1  0.68920000  0.58470000  0.07270000  1.0 0.574593551
C  C150  1  0.80290000  0.45490000  0.09840000  1.0 0.5991063691
C  C151  1  0.84300000  0.41610000  0.12500000  1.0 -0.019935477
C  C152  1  0.95130000  0.37520000  0.13990000  1.0 0.059398524
C  C153  1  0.84710000  0.34640000  0.17800000  1.0 -0.0140696943
C  C154  1  0.80990000  0.38340000  0.15510000  1.0 -0.0954495524
C  C155  1  0.81190000  0.31010000  0.21030000  1.0 0.5430707033
C  C156  1  0.02610000  0.37160000  0.13160000  1.0 0.0705524786
C  C157  1  0.13790000  0.34340000  0.15660000  1.0 -0.019935477
C  C158  1  0.18040000  0.31620000  0.19250000  1.0 0.5779943015
C  C159  1  0.12790000  0.39260000  0.08630000  1.0 -0.0140696943
C  C160  1  0.16140000  0.42170000  0.04650000  1.0 0.5430707033
C  C161  1  0.84140000  0.83940000  0.61830000  1.0 -0.0914239602
C  C162  1  0.95840000  0.81600000  0.63140000  1.0 -0.1326731597
C  C163  1  0.19350000  0.89830000  0.59860000  1.0 -0.0914239602
C  C164  1  0.07990000  0.89920000  0.56570000  1.0 -0.1411866122
C  C165  1  0.58670000  0.08770000  0.61790000  1.0 -0.1411866122
C  C166  1  0.58300000  0.15770000  0.66980000  1.0 -0.1411866122
C  C167  1  0.43260000  0.15380000  0.66390000  1.0 -0.162298121
C  C168  1  0.33170000  0.13320000  0.61800000  1.0 -0.0914239602
C  C169  1  0.44270000  0.10490000  0.59260000  1.0 -0.1411866122
C  C170  1  0.86410000  0.76180000  0.66380000  1.0 0.5991063691
C  C171  1  0.88880000  0.80650000  0.63740000  1.0 -0.0307398267
C  C172  1  0.86310000  0.88140000  0.59400000  1.0 -0.019935477
C  C173  1  0.93240000  0.89120000  0.58950000  1.0 -0.162298121
C  C174  1  0.98170000  0.85860000  0.60870000  1.0 0.0705524786
C  C175  1  0.05580000  0.87120000  0.60450000  1.0 0.059398524
C  C176  1  0.10240000  0.85560000  0.63860000  1.0 -0.1411866122
C  C177  1  0.17130000  0.86900000  0.63590000  1.0 -0.0307398267
C  C178  1  0.14870000  0.91320000  0.56320000  1.0 -0.0363091212
C  C179  1  0.17170000  0.94360000  0.52140000  1.0 0.5991063691
C  C180  1  0.22040000  0.84980000  0.67320000  1.0 0.5991063691
C  C181  1  0.81080000  0.91530000  0.57270000  1.0 0.574593551
C  C182  1  0.69710000  0.04510000  0.59840000  1.0 0.5991063691
C  C183  1  0.65700000  0.08390000  0.62500000  1.0 -0.019935477
C  C184  1  0.54870000  0.12480000  0.63990000  1.0 0.059398524
C  C185  1  0.65290000  0.15360000  0.67800000  1.0 -0.0140696943
C  C186  1  0.69010000  0.11660000  0.65510000  1.0 -0.0914239602
C  C187  1  0.68810000  0.18990000  0.71030000  1.0 0.5430707033
C  C188  1  0.47390000  0.12840000  0.63160000  1.0 0.0705524786
C  C189  1  0.36210000  0.15660000  0.65660000  1.0 -0.019935477
C  C190  1  0.31960000  0.18380000  0.69250000  1.0 0.5779943015
C  C191  1  0.37210000  0.10740000  0.58630000  1.0 -0.0140696943
C  C192  1  0.33860000  0.07830000  0.54650000  1.0 0.5430707033
C  C193  1  0.65860000  0.33940000  0.38170000  1.0 -0.0914239602
C  C194  1  0.54160000  0.31600000  0.36860000  1.0 -0.1326731597
C  C195  1  0.30650000  0.39830000  0.40140000  1.0 -0.0914239602
C  C196  1  0.42010000  0.39920000  0.43430000  1.0 -0.1411866122
C  C197  1  0.91330000  0.58770000  0.38210000  1.0 -0.1411866122
C  C198  1  0.91700000  0.65770000  0.33020000  1.0 -0.1411866122
C  C199  1  0.06740000  0.65380000  0.33610000  1.0 -0.162298121
C  C200  1  0.16830000  0.63320000  0.38200000  1.0 -0.0914239602
C  C201  1  0.05730000  0.60490000  0.40740000  1.0 -0.1411866122
C  C202  1  0.63590000  0.26180000  0.33620000  1.0 0.5991063691
C  C203  1  0.61120000  0.30650000  0.36260000  1.0 -0.0307398267
C  C204  1  0.63690000  0.38140000  0.40600000  1.0 -0.019935477
C  C205  1  0.56760000  0.39120000  0.41050000  1.0 -0.162298121
C  C206  1  0.51830000  0.35860000  0.39130000  1.0 0.0705524786
C  C207  1  0.44420000  0.37120000  0.39550000  1.0 0.059398524
C  C208  1  0.39760000  0.35560000  0.36140000  1.0 -0.1411866122
C  C209  1  0.32870000  0.36900000  0.36410000  1.0 -0.0307398267
C  C210  1  0.35130000  0.41320000  0.43680000  1.0 -0.0363091212
C  C211  1  0.32830000  0.44360000  0.47860000  1.0 0.5991063691
C  C212  1  0.27960000  0.34980000  0.32680000  1.0 0.5991063691
C  C213  1  0.68920000  0.41530000  0.42730000  1.0 0.574593551
C  C214  1  0.80290000  0.54510000  0.40160000  1.0 0.5991063691
C  C215  1  0.84300000  0.58390000  0.37500000  1.0 -0.019935477
C  C216  1  0.95130000  0.62480000  0.36010000  1.0 0.059398524
C  C217  1  0.84710000  0.65360000  0.32200000  1.0 -0.0140696943
C  C218  1  0.80990000  0.61660000  0.34490000  1.0 -0.0914239602
C  C219  1  0.81190000  0.68990000  0.28970000  1.0 0.5430707033
C  C220  1  0.02610000  0.62840000  0.36840000  1.0 0.0705524786
C  C221  1  0.13790000  0.65660000  0.34340000  1.0 -0.019935477
C  C222  1  0.18040000  0.68380000  0.30750000  1.0 0.5779943015
C  C223  1  0.12790000  0.60740000  0.41370000  1.0 -0.0140696943
C  C224  1  0.16140000  0.57830000  0.45350000  1.0 0.5430707033
C  C225  1  0.84140000  0.16060000  0.88170000  1.0 -0.0914239602
C  C226  1  0.95840000  0.18400000  0.86860000  1.0 -0.1326731597
C  C227  1  0.19350000  0.10170000  0.90140000  1.0 -0.0914239602
C  C228  1  0.07990000  0.10080000  0.93430000  1.0 -0.1411866122
C  C229  1  0.58670000  0.91230000  0.88210000  1.0 -0.1411866122
C  C230  1  0.58300000  0.84230000  0.83020000  1.0 -0.1411866122
C  C231  1  0.43260000  0.84620000  0.83610000  1.0 -0.1653793906
C  C232  1  0.33170000  0.86680000  0.88200000  1.0 -0.0914239602
C  C233  1  0.44270000  0.89510000  0.90740000  1.0 -0.1411866122
C  C234  1  0.86410000  0.23820000  0.83620000  1.0 0.5991063691
C  C235  1  0.88880000  0.19350000  0.86260000  1.0 -0.0307398267
C  C236  1  0.86310000  0.11860000  0.90600000  1.0 -0.019935477
C  C237  1  0.93240000  0.10880000  0.91050000  1.0 -0.162298121
C  C238  1  0.98170000  0.14140000  0.89130000  1.0 0.0705524786
C  C239  1  0.05580000  0.12880000  0.89550000  1.0 0.059398524
C  C240  1  0.10240000  0.14440000  0.86140000  1.0 -0.1411866122
C  C241  1  0.17130000  0.13100000  0.86410000  1.0 -0.0307398267
C  C242  1  0.14870000  0.08680000  0.93680000  1.0 -0.0363091212
C  C243  1  0.17170000  0.05640000  0.97860000  1.0 0.5991063691
C  C244  1  0.22040000  0.15020000  0.82680000  1.0 0.5991063691
C  C245  1  0.81080000  0.08470000  0.92730000  1.0 0.574593551
C  C246  1  0.69710000  0.95490000  0.90160000  1.0 0.5991063691
C  C247  1  0.65700000  0.91610000  0.87500000  1.0 -0.019935477
C  C248  1  0.54870000  0.87520000  0.86010000  1.0 0.059398524
C  C249  1  0.65290000  0.84640000  0.82200000  1.0 -0.0140696943
C  C250  1  0.69010000  0.88340000  0.84490000  1.0 -0.0954495524
C  C251  1  0.68810000  0.81010000  0.78970000  1.0 0.5430707033
C  C252  1  0.47390000  0.87160000  0.86840000  1.0 0.0705524786
C  C253  1  0.36210000  0.84340000  0.84340000  1.0 -0.019935477
C  C254  1  0.31960000  0.81620000  0.80750000  1.0 0.5779943015
C  C255  1  0.37210000  0.89260000  0.91370000  1.0 -0.0140696943
C  C256  1  0.33860000  0.92170000  0.95350000  1.0 0.5430707033
O  O1  1  0.40530000  0.22700000  0.83070000  1.0 -0.5702423458
O  O2  1  0.30260000  0.26290000  0.82320000  1.0 -0.5597360436
O  O3  1  0.24910000  0.40480000  0.92590000  1.0 -0.4915055935
O  O4  1  0.16420000  0.51890000  0.93040000  1.0 -0.5199646135
O  O5  1  0.15280000  0.72250000  0.76860000  1.0 -0.551172853
O  O6  1  0.75800000  0.69330000  0.81680000  1.0 -0.4967620377
O  O7  1  0.84660000  0.69750000  0.76858000  1.0 -0.6093429257
O  O8  1  0.87460000  0.55170000  0.98010000  1.0 -0.5379728977
O  O9  1  0.25830000  0.54240000  0.89280000  1.0 -0.5815645609
O  O10  1  0.63010000  0.44690000  0.01290000  1.0 -0.5968132247
O  O11  1  0.72950000  0.46370000  0.97630000  1.0 -0.5379728977
O  O12  1  0.33280000  0.45360000  0.94922000  1.0 -0.6093429257
O  O13  1  0.78100000  0.36380000  0.82930000  1.0 -0.5863472526
O  O14  1  0.69580000  0.32120000  0.79620000  1.0 -0.5379728977
O  O15  1  0.25180000  0.68710000  0.78460000  1.0 -0.5379728977
O  O16  1  0.77470000  0.58140000  0.95780000  1.0 -0.5199646135
O  O17  1  0.09470000  0.27300000  0.33070000  1.0 -0.5702423458
O  O18  1  0.19740000  0.23710000  0.32320000  1.0 -0.5597360436
O  O19  1  0.25090000  0.09520000  0.42590000  1.0 -0.4915055935
O  O20  1  0.33580000  0.98110000  0.43040000  1.0 -0.5199646135
O  O21  1  0.34720000  0.77750000  0.26860000  1.0 -0.551172853
O  O22  1  0.74200000  0.80670000  0.31680000  1.0 -0.4967620377
O  O23  1  0.65340000  0.80250000  0.26858000  1.0 -0.6093429257
O  O24  1  0.62540000  0.94830000  0.48010000  1.0 -0.5379728977
O  O25  1  0.24170000  0.95760000  0.39280000  1.0 -0.5815645609
O  O26  1  0.86990000  0.05310000  0.51290000  1.0 -0.5968132247
O  O27  1  0.77050000  0.03630000  0.47630000  1.0 -0.5379728977
O  O28  1  0.16720000  0.04640000  0.44922000  1.0 -0.6093429257
O  O29  1  0.71900000  0.13620000  0.32930000  1.0 -0.5863472526
O  O30  1  0.80420000  0.17880000  0.29620000  1.0 -0.5379728977
O  O31  1  0.24820000  0.81290000  0.28460000  1.0 -0.5379728977
O  O32  1  0.72530000  0.91860000  0.45780000  1.0 -0.5199646135
O  O33  1  0.40530000  0.77300000  0.66930000  1.0 -0.5702423458
O  O34  1  0.30260000  0.73710000  0.67680000  1.0 -0.5597360436
O  O35  1  0.24910000  0.59520000  0.57410000  1.0 -0.4915055935
O  O36  1  0.16420000  0.48110000  0.56960000  1.0 -0.5199646135
O  O37  1  0.15280000  0.27750000  0.73140000  1.0 -0.551172853
O  O38  1  0.75800000  0.30670000  0.68320000  1.0 -0.4967620377
O  O39  1  0.84660000  0.30250000  0.73142000  1.0 -0.6093429257
O  O40  1  0.87460000  0.44830000  0.51990000  1.0 -0.5379728977
O  O41  1  0.25830000  0.45760000  0.60720000  1.0 -0.5815645609
O  O42  1  0.63010000  0.55310000  0.48710000  1.0 -0.5968132247
O  O43  1  0.72950000  0.53630000  0.52370000  1.0 -0.5379728977
O  O44  1  0.33280000  0.54640000  0.55078000  1.0 -0.6093429257
O  O45  1  0.78100000  0.63620000  0.67070000  1.0 -0.5863472526
O  O46  1  0.69580000  0.67880000  0.70380000  1.0 -0.5379728977
O  O47  1  0.25180000  0.31290000  0.71540000  1.0 -0.5379728977
O  O48  1  0.77470000  0.41860000  0.54220000  1.0 -0.5199646135
O  O49  1  0.09470000  0.72700000  0.16930000  1.0 -0.5702423458
O  O50  1  0.19740000  0.76290000  0.17680000  1.0 -0.5597360436
O  O51  1  0.25090000  0.90480000  0.07410000  1.0 -0.4915055935
O  O52  1  0.33580000  0.01890000  0.06960000  1.0 -0.5199646135
O  O53  1  0.34720000  0.22250000  0.23140000  1.0 -0.551172853
O  O54  1  0.74200000  0.19330000  0.18320000  1.0 -0.4967620377
O  O55  1  0.65340000  0.19750000  0.23142000  1.0 -0.6093429257
O  O56  1  0.62540000  0.05170000  0.01990000  1.0 -0.5379728977
O  O57  1  0.24170000  0.04240000  0.10720000  1.0 -0.5815645609
O  O58  1  0.86990000  0.94690000  0.98710000  1.0 -0.5968132247
O  O59  1  0.77050000  0.96370000  0.02370000  1.0 -0.5379728977
O  O60  1  0.16720000  0.95360000  0.05078000  1.0 -0.6093429257
O  O61  1  0.71900000  0.86380000  0.17070000  1.0 -0.5863472526
O  O62  1  0.80420000  0.82120000  0.20380000  1.0 -0.5379728977
O  O63  1  0.24820000  0.18710000  0.21540000  1.0 -0.5379728977
O  O64  1  0.72530000  0.08140000  0.04220000  1.0 -0.5199646135
O  O65  1  0.59470000  0.77300000  0.16930000  1.0 -0.5702423458
O  O66  1  0.69740000  0.73710000  0.17680000  1.0 -0.5597360436
O  O67  1  0.75090000  0.59520000  0.07410000  1.0 -0.4915055935
O  O68  1  0.83580000  0.48110000  0.06960000  1.0 -0.5199646135
O  O69  1  0.84720000  0.27750000  0.23140000  1.0 -0.551172853
O  O70  1  0.24200000  0.30670000  0.18320000  1.0 -0.4967620377
O  O71  1  0.15340000  0.30250000  0.23142000  1.0 -0.6093429257
O  O72  1  0.12540000  0.44830000  0.01990000  1.0 -0.5379728977
O  O73  1  0.74170000  0.45760000  0.10720000  1.0 -0.5815645609
O  O74  1  0.36990000  0.55310000  0.98710000  1.0 -0.5968132247
O  O75  1  0.27050000  0.53630000  0.02370000  1.0 -0.5379728977
O  O76  1  0.66720000  0.54640000  0.05078000  1.0 -0.6093429257
O  O77  1  0.21900000  0.63620000  0.17070000  1.0 -0.5863472526
O  O78  1  0.30420000  0.67880000  0.20380000  1.0 -0.5379728977
O  O79  1  0.74820000  0.31290000  0.21540000  1.0 -0.5379728977
O  O80  1  0.22530000  0.41860000  0.04220000  1.0 -0.5199646135
O  O81  1  0.90530000  0.72700000  0.66930000  1.0 -0.5702423458
O  O82  1  0.80260000  0.76290000  0.67680000  1.0 -0.5597360436
O  O83  1  0.74910000  0.90480000  0.57410000  1.0 -0.4915055935
O  O84  1  0.66420000  0.01890000  0.56960000  1.0 -0.5199646135
O  O85  1  0.65280000  0.22250000  0.73140000  1.0 -0.551172853
O  O86  1  0.25800000  0.19330000  0.68320000  1.0 -0.4967620377
O  O87  1  0.34660000  0.19750000  0.73142000  1.0 -0.6093429257
O  O88  1  0.37460000  0.05170000  0.51990000  1.0 -0.5379728977
O  O89  1  0.75830000  0.04240000  0.60720000  1.0 -0.5815645609
O  O90  1  0.13010000  0.94690000  0.48710000  1.0 -0.5968132247
O  O91  1  0.22950000  0.96370000  0.52370000  1.0 -0.5379728977
O  O92  1  0.83280000  0.95360000  0.55078000  1.0 -0.6093429257
O  O93  1  0.28100000  0.86380000  0.67070000  1.0 -0.5863472526
O  O94  1  0.19580000  0.82120000  0.70380000  1.0 -0.5379728977
O  O95  1  0.75180000  0.18710000  0.71540000  1.0 -0.5379728977
O  O96  1  0.27470000  0.08140000  0.54220000  1.0 -0.5199646135
O  O97  1  0.59470000  0.22700000  0.33070000  1.0 -0.5702423458
O  O98  1  0.69740000  0.26290000  0.32320000  1.0 -0.5597360436
O  O99  1  0.75090000  0.40480000  0.42590000  1.0 -0.4915055935
O  O100  1  0.83580000  0.51890000  0.43040000  1.0 -0.5199646135
O  O101  1  0.84720000  0.72250000  0.26860000  1.0 -0.551172853
O  O102  1  0.24200000  0.69330000  0.31680000  1.0 -0.4967620377
O  O103  1  0.15340000  0.69750000  0.26858000  1.0 -0.6093429257
O  O104  1  0.12540000  0.55170000  0.48010000  1.0 -0.5379728977
O  O105  1  0.74170000  0.54240000  0.39280000  1.0 -0.5815645609
O  O106  1  0.36990000  0.44690000  0.51290000  1.0 -0.5968132247
O  O107  1  0.27050000  0.46370000  0.47630000  1.0 -0.5379728977
O  O108  1  0.66720000  0.45360000  0.44922000  1.0 -0.6093429257
O  O109  1  0.21900000  0.36380000  0.32930000  1.0 -0.5863472526
O  O110  1  0.30420000  0.32120000  0.29620000  1.0 -0.5379728977
O  O111  1  0.74820000  0.68710000  0.28460000  1.0 -0.5379728977
O  O112  1  0.22530000  0.58140000  0.45780000  1.0 -0.5199646135
O  O113  1  0.90530000  0.27300000  0.83070000  1.0 -0.5702423458
O  O114  1  0.80260000  0.23710000  0.82320000  1.0 -0.5597360436
O  O115  1  0.74910000  0.09520000  0.92590000  1.0 -0.4915055935
O  O116  1  0.66420000  0.98110000  0.93040000  1.0 -0.5199646135
O  O117  1  0.65280000  0.77750000  0.76860000  1.0 -0.551172853
O  O118  1  0.25800000  0.80670000  0.81680000  1.0 -0.4967620377
O  O119  1  0.34660000  0.80250000  0.76858000  1.0 -0.6093429257
O  O120  1  0.37460000  0.94830000  0.98010000  1.0 -0.5379728977
O  O121  1  0.75830000  0.95760000  0.89280000  1.0 -0.5815645609
O  O122  1  0.13010000  0.05310000  0.01290000  1.0 -0.5968132247
O  O123  1  0.22950000  0.03630000  0.97630000  1.0 -0.5379728977
O  O124  1  0.83280000  0.04640000  0.94922000  1.0 -0.6093429257
O  O125  1  0.28100000  0.13620000  0.82930000  1.0 -0.5863472526
O  O126  1  0.19580000  0.17880000  0.79620000  1.0 -0.5379728977
O  O127  1  0.75180000  0.81290000  0.78460000  1.0 -0.5379728977
O  O128  1  0.27470000  0.91860000  0.95780000  1.0 -0.5199646135
