# DDEC6 charges by PACMAN v1.1 (https://github.com/mtap-research/PACMAN-charge/)
data_SITFUY_ASR_pacman
_symmetry_space_group_name_H-M   'P 1'
_cell_length_a   20.20800000
_cell_length_b   20.20800000
_cell_length_c   20.20800000
_cell_angle_alpha   90.00000000
_cell_angle_beta   90.00000000
_cell_angle_gamma   90.00000000
_symmetry_Int_Tables_number   1
_chemical_formula_structural   Cu4H24C48N32Cl3O16
_chemical_formula_sum   'Cu12 H72 C144 N96 Cl9 O48'
_cell_volume   8252.20483891
_cell_formula_units_Z   3
loop_
 _symmetry_equiv_pos_site_id
 _symmetry_equiv_pos_as_xyz
  1  'x, y, z'
loop_
 _atom_site_type_symbol
 _atom_site_label
 _atom_site_symmetry_multiplicity
 _atom_site_fract_x
 _atom_site_fract_y
 _atom_site_fract_z
 _atom_site_occupancy
 _atom_site_charge
Cu  Cu1  1  0.41156000  0.41156000  0.00000000  1.0 0.2232630387
Cu  Cu2  1  0.58844000  0.58844000  0.00000000  1.0 0.2232630387
Cu  Cu3  1  0.58844000  0.41156000  0.00000000  1.0 0.2232630387
Cu  Cu4  1  0.41156000  0.58844000  0.00000000  1.0 0.2232630387
Cu  Cu5  1  0.00000000  0.41156000  0.41156000  1.0 0.2232630387
Cu  Cu6  1  0.00000000  0.58844000  0.58844000  1.0 0.2232630387
Cu  Cu7  1  0.00000000  0.58844000  0.41156000  1.0 0.2232630387
Cu  Cu8  1  0.00000000  0.41156000  0.58844000  1.0 0.2232630387
Cu  Cu9  1  0.41156000  0.00000000  0.41156000  1.0 0.2232630387
Cu  Cu10  1  0.58844000  0.00000000  0.58844000  1.0 0.2232630387
Cu  Cu11  1  0.41156000  0.00000000  0.58844000  1.0 0.2232630387
Cu  Cu12  1  0.58844000  0.00000000  0.41156000  1.0 0.2232630387
H  H1  1  0.39570000  0.21980000  0.21980000  1.0 0.1145946269
H  H2  1  0.60430000  0.78020000  0.21980000  1.0 0.1145946269
H  H3  1  0.60430000  0.21980000  0.78020000  1.0 0.1145946269
H  H4  1  0.39570000  0.78020000  0.78020000  1.0 0.1145946269
H  H5  1  0.21980000  0.39570000  0.21980000  1.0 0.1145946269
H  H6  1  0.21980000  0.60430000  0.78020000  1.0 0.1145946269
H  H7  1  0.78020000  0.60430000  0.21980000  1.0 0.1145946269
H  H8  1  0.78020000  0.39570000  0.78020000  1.0 0.1145946269
H  H9  1  0.21980000  0.21980000  0.39570000  1.0 0.1145946269
H  H10  1  0.78020000  0.21980000  0.60430000  1.0 0.1145946269
H  H11  1  0.21980000  0.78020000  0.60430000  1.0 0.1145946269
H  H12  1  0.78020000  0.78020000  0.39570000  1.0 0.1145946269
H  H13  1  0.21980000  0.39570000  0.78020000  1.0 0.1145946269
H  H14  1  0.78020000  0.60430000  0.78020000  1.0 0.1145946269
H  H15  1  0.21980000  0.60430000  0.21980000  1.0 0.1145946269
H  H16  1  0.78020000  0.39570000  0.21980000  1.0 0.1145946269
H  H17  1  0.39570000  0.21980000  0.78020000  1.0 0.1145946269
H  H18  1  0.60430000  0.21980000  0.21980000  1.0 0.1145946269
H  H19  1  0.60430000  0.78020000  0.78020000  1.0 0.1145946269
H  H20  1  0.39570000  0.78020000  0.21980000  1.0 0.1145946269
H  H21  1  0.21980000  0.21980000  0.60430000  1.0 0.1145946269
H  H22  1  0.21980000  0.78020000  0.39570000  1.0 0.1145946269
H  H23  1  0.78020000  0.21980000  0.39570000  1.0 0.1145946269
H  H24  1  0.78020000  0.78020000  0.60430000  1.0 0.1145946269
H  H25  1  0.40130000  0.15370000  0.27780000  1.0 0.0802016405
H  H26  1  0.59870000  0.84630000  0.27780000  1.0 0.0802016405
H  H27  1  0.59870000  0.15370000  0.72220000  1.0 0.0802016405
H  H28  1  0.40130000  0.84630000  0.72220000  1.0 0.0802016405
H  H29  1  0.27780000  0.40130000  0.15370000  1.0 0.0802016405
H  H30  1  0.27780000  0.59870000  0.84630000  1.0 0.0802016405
H  H31  1  0.72220000  0.59870000  0.15370000  1.0 0.0802016405
H  H32  1  0.72220000  0.40130000  0.84630000  1.0 0.0802016405
H  H33  1  0.15370000  0.27780000  0.40130000  1.0 0.0802016405
H  H34  1  0.84630000  0.27780000  0.59870000  1.0 0.0802016405
H  H35  1  0.15370000  0.72220000  0.59870000  1.0 0.0802016405
H  H36  1  0.84630000  0.72220000  0.40130000  1.0 0.0802016405
H  H37  1  0.15370000  0.40130000  0.72220000  1.0 0.0802016405
H  H38  1  0.84630000  0.59870000  0.72220000  1.0 0.0802016405
H  H39  1  0.15370000  0.59870000  0.27780000  1.0 0.0802016405
H  H40  1  0.84630000  0.40130000  0.27780000  1.0 0.0802016405
H  H41  1  0.40130000  0.27780000  0.84630000  1.0 0.0802016405
H  H42  1  0.59870000  0.27780000  0.15370000  1.0 0.0802016405
H  H43  1  0.59870000  0.72220000  0.84630000  1.0 0.0802016405
H  H44  1  0.40130000  0.72220000  0.15370000  1.0 0.0802016405
H  H45  1  0.27780000  0.15370000  0.59870000  1.0 0.0802016405
H  H46  1  0.27780000  0.84630000  0.40130000  1.0 0.0802016405
H  H47  1  0.72220000  0.15370000  0.40130000  1.0 0.0802016405
H  H48  1  0.72220000  0.84630000  0.59870000  1.0 0.0802016405
H  H49  1  0.59870000  0.84630000  0.72220000  1.0 0.0802016405
H  H50  1  0.40130000  0.15370000  0.72220000  1.0 0.0802016405
H  H51  1  0.40130000  0.84630000  0.27780000  1.0 0.0802016405
H  H52  1  0.59870000  0.15370000  0.27780000  1.0 0.0802016405
H  H53  1  0.72220000  0.59870000  0.84630000  1.0 0.0802016405
H  H54  1  0.72220000  0.40130000  0.15370000  1.0 0.0802016405
H  H55  1  0.27780000  0.40130000  0.84630000  1.0 0.0802016405
H  H56  1  0.27780000  0.59870000  0.15370000  1.0 0.0802016405
H  H57  1  0.84630000  0.72220000  0.59870000  1.0 0.0802016405
H  H58  1  0.15370000  0.72220000  0.40130000  1.0 0.0802016405
H  H59  1  0.84630000  0.27780000  0.40130000  1.0 0.0802016405
H  H60  1  0.15370000  0.27780000  0.59870000  1.0 0.0802016405
H  H61  1  0.84630000  0.59870000  0.27780000  1.0 0.0802016405
H  H62  1  0.15370000  0.40130000  0.27780000  1.0 0.0802016405
H  H63  1  0.84630000  0.40130000  0.72220000  1.0 0.0802016405
H  H64  1  0.15370000  0.59870000  0.72220000  1.0 0.0802016405
H  H65  1  0.59870000  0.72220000  0.15370000  1.0 0.0802016405
H  H66  1  0.40130000  0.72220000  0.84630000  1.0 0.0802016405
H  H67  1  0.40130000  0.27780000  0.15370000  1.0 0.0802016405
H  H68  1  0.59870000  0.27780000  0.84630000  1.0 0.0802016405
H  H69  1  0.72220000  0.84630000  0.40130000  1.0 0.0802016405
H  H70  1  0.72220000  0.15370000  0.59870000  1.0 0.0802016405
H  H71  1  0.27780000  0.84630000  0.59870000  1.0 0.0802016405
H  H72  1  0.27780000  0.15370000  0.40130000  1.0 0.0802016405
C  C1  1  0.50000000  0.24660000  0.19380000  1.0 0.0333040261
C  C2  1  0.50000000  0.75340000  0.19380000  1.0 0.0333040261
C  C3  1  0.50000000  0.24660000  0.80620000  1.0 0.0333040261
C  C4  1  0.50000000  0.75340000  0.80620000  1.0 0.0333040261
C  C5  1  0.19380000  0.50000000  0.24660000  1.0 0.0333040261
C  C6  1  0.19380000  0.50000000  0.75340000  1.0 0.0333040261
C  C7  1  0.80620000  0.50000000  0.24660000  1.0 0.0333040261
C  C8  1  0.80620000  0.50000000  0.75340000  1.0 0.0333040261
C  C9  1  0.24660000  0.19380000  0.50000000  1.0 0.0333040261
C  C10  1  0.75340000  0.19380000  0.50000000  1.0 0.0333040261
C  C11  1  0.24660000  0.80620000  0.50000000  1.0 0.0333040261
C  C12  1  0.75340000  0.80620000  0.50000000  1.0 0.0333040261
C  C13  1  0.24660000  0.50000000  0.80620000  1.0 0.0333040261
C  C14  1  0.75340000  0.50000000  0.80620000  1.0 0.0333040261
C  C15  1  0.24660000  0.50000000  0.19380000  1.0 0.0333040261
C  C16  1  0.75340000  0.50000000  0.19380000  1.0 0.0333040261
C  C17  1  0.50000000  0.19380000  0.75340000  1.0 0.0333040261
C  C18  1  0.50000000  0.19380000  0.24660000  1.0 0.0333040261
C  C19  1  0.50000000  0.80620000  0.75340000  1.0 0.0333040261
C  C20  1  0.50000000  0.80620000  0.24660000  1.0 0.0333040261
C  C21  1  0.19380000  0.24660000  0.50000000  1.0 0.0333040261
C  C22  1  0.19380000  0.75340000  0.50000000  1.0 0.0333040261
C  C23  1  0.80620000  0.24660000  0.50000000  1.0 0.0333040261
C  C24  1  0.80620000  0.75340000  0.50000000  1.0 0.0333040261
C  C25  1  0.50000000  0.29320000  0.14410000  1.0 0.0011870244
C  C26  1  0.50000000  0.70680000  0.14410000  1.0 0.0011870244
C  C27  1  0.50000000  0.29320000  0.85590000  1.0 0.0011870244
C  C28  1  0.50000000  0.70680000  0.85590000  1.0 0.0011870244
C  C29  1  0.14410000  0.50000000  0.29320000  1.0 0.0011870244
C  C30  1  0.14410000  0.50000000  0.70680000  1.0 0.0011870244
C  C31  1  0.85590000  0.50000000  0.29320000  1.0 0.0011870244
C  C32  1  0.85590000  0.50000000  0.70680000  1.0 0.0011870244
C  C33  1  0.29320000  0.14410000  0.50000000  1.0 0.0011870244
C  C34  1  0.70680000  0.14410000  0.50000000  1.0 0.0011870244
C  C35  1  0.29320000  0.85590000  0.50000000  1.0 0.0011870244
C  C36  1  0.70680000  0.85590000  0.50000000  1.0 0.0011870244
C  C37  1  0.29320000  0.50000000  0.85590000  1.0 0.0011870244
C  C38  1  0.70680000  0.50000000  0.85590000  1.0 0.0011870244
C  C39  1  0.29320000  0.50000000  0.14410000  1.0 0.0011870244
C  C40  1  0.70680000  0.50000000  0.14410000  1.0 0.0011870244
C  C41  1  0.50000000  0.14410000  0.70680000  1.0 0.0011870244
C  C42  1  0.50000000  0.14410000  0.29320000  1.0 0.0011870244
C  C43  1  0.50000000  0.85590000  0.70680000  1.0 0.0011870244
C  C44  1  0.50000000  0.85590000  0.29320000  1.0 0.0011870244
C  C45  1  0.14410000  0.29320000  0.50000000  1.0 0.0011870244
C  C46  1  0.14410000  0.70680000  0.50000000  1.0 0.0011870244
C  C47  1  0.85590000  0.29320000  0.50000000  1.0 0.0011870244
C  C48  1  0.85590000  0.70680000  0.50000000  1.0 0.0011870244
C  C49  1  0.44170000  0.22000000  0.22000000  1.0 -0.0883842046
C  C50  1  0.55830000  0.78000000  0.22000000  1.0 -0.0883842046
C  C51  1  0.55830000  0.22000000  0.78000000  1.0 -0.0883842046
C  C52  1  0.44170000  0.78000000  0.78000000  1.0 -0.0883842046
C  C53  1  0.22000000  0.44170000  0.22000000  1.0 -0.0883842046
C  C54  1  0.22000000  0.55830000  0.78000000  1.0 -0.0951891207
C  C55  1  0.78000000  0.55830000  0.22000000  1.0 -0.0883842046
C  C56  1  0.78000000  0.44170000  0.78000000  1.0 -0.0883842046
C  C57  1  0.22000000  0.22000000  0.44170000  1.0 -0.0883842046
C  C58  1  0.78000000  0.22000000  0.55830000  1.0 -0.0883842046
C  C59  1  0.22000000  0.78000000  0.55830000  1.0 -0.0951891207
C  C60  1  0.78000000  0.78000000  0.44170000  1.0 -0.0883842046
C  C61  1  0.22000000  0.44170000  0.78000000  1.0 -0.0951891207
C  C62  1  0.78000000  0.55830000  0.78000000  1.0 -0.0883842046
C  C63  1  0.22000000  0.55830000  0.22000000  1.0 -0.0951891207
C  C64  1  0.78000000  0.44170000  0.22000000  1.0 -0.0883842046
C  C65  1  0.44170000  0.22000000  0.78000000  1.0 -0.0883842046
C  C66  1  0.55830000  0.22000000  0.22000000  1.0 -0.0883842046
C  C67  1  0.55830000  0.78000000  0.78000000  1.0 -0.0883842046
C  C68  1  0.44170000  0.78000000  0.22000000  1.0 -0.0883842046
C  C69  1  0.22000000  0.22000000  0.55830000  1.0 -0.0883842046
C  C70  1  0.22000000  0.78000000  0.44170000  1.0 -0.0951891207
C  C71  1  0.78000000  0.22000000  0.44170000  1.0 -0.0883842046
C  C72  1  0.78000000  0.78000000  0.55830000  1.0 -0.0883842046
C  C73  1  0.44180000  0.17100000  0.26470000  1.0 -0.0883842046
C  C74  1  0.55820000  0.82900000  0.26470000  1.0 -0.0883842046
C  C75  1  0.55820000  0.17100000  0.73530000  1.0 -0.0883842046
C  C76  1  0.44180000  0.82900000  0.73530000  1.0 -0.0883842046
C  C77  1  0.26470000  0.44180000  0.17100000  1.0 -0.0883842046
C  C78  1  0.26470000  0.55820000  0.82900000  1.0 -0.0883842046
C  C79  1  0.73530000  0.55820000  0.17100000  1.0 -0.0883842046
C  C80  1  0.73530000  0.44180000  0.82900000  1.0 -0.0883842046
C  C81  1  0.17100000  0.26470000  0.44180000  1.0 -0.0883842046
C  C82  1  0.82900000  0.26470000  0.55820000  1.0 -0.0883842046
C  C83  1  0.17100000  0.73530000  0.55820000  1.0 -0.0883842046
C  C84  1  0.82900000  0.73530000  0.44180000  1.0 -0.0883842046
C  C85  1  0.17100000  0.44180000  0.73530000  1.0 -0.0883842046
C  C86  1  0.82900000  0.55820000  0.73530000  1.0 -0.0883842046
C  C87  1  0.17100000  0.55820000  0.26470000  1.0 -0.0883842046
C  C88  1  0.82900000  0.44180000  0.26470000  1.0 -0.0883842046
C  C89  1  0.44180000  0.26470000  0.82900000  1.0 -0.0883842046
C  C90  1  0.55820000  0.26470000  0.17100000  1.0 -0.0883842046
C  C91  1  0.55820000  0.73530000  0.82900000  1.0 -0.0883842046
C  C92  1  0.44180000  0.73530000  0.17100000  1.0 -0.0883842046
C  C93  1  0.26470000  0.17100000  0.55820000  1.0 -0.0883842046
C  C94  1  0.26470000  0.82900000  0.44180000  1.0 -0.0883842046
C  C95  1  0.73530000  0.17100000  0.44180000  1.0 -0.0883842046
C  C96  1  0.73530000  0.82900000  0.55820000  1.0 -0.0883842046
C  C97  1  0.55820000  0.82900000  0.73530000  1.0 -0.0883842046
C  C98  1  0.44180000  0.17100000  0.73530000  1.0 -0.0883842046
C  C99  1  0.44180000  0.82900000  0.26470000  1.0 -0.0883842046
C  C100  1  0.55820000  0.17100000  0.26470000  1.0 -0.0883842046
C  C101  1  0.73530000  0.55820000  0.82900000  1.0 -0.0883842046
C  C102  1  0.73530000  0.44180000  0.17100000  1.0 -0.0883842046
C  C103  1  0.26470000  0.44180000  0.82900000  1.0 -0.0883842046
C  C104  1  0.26470000  0.55820000  0.17100000  1.0 -0.0883842046
C  C105  1  0.82900000  0.73530000  0.55820000  1.0 -0.0883842046
C  C106  1  0.17100000  0.73530000  0.44180000  1.0 -0.0883842046
C  C107  1  0.82900000  0.26470000  0.44180000  1.0 -0.0883842046
C  C108  1  0.17100000  0.26470000  0.55820000  1.0 -0.0883842046
C  C109  1  0.82900000  0.55820000  0.26470000  1.0 -0.0883842046
C  C110  1  0.17100000  0.44180000  0.26470000  1.0 -0.0883842046
C  C111  1  0.82900000  0.44180000  0.73530000  1.0 -0.0883842046
C  C112  1  0.17100000  0.55820000  0.73530000  1.0 -0.0883842046
C  C113  1  0.55820000  0.73530000  0.17100000  1.0 -0.0883842046
C  C114  1  0.44180000  0.73530000  0.82900000  1.0 -0.0883842046
C  C115  1  0.44180000  0.26470000  0.17100000  1.0 -0.0883842046
C  C116  1  0.55820000  0.26470000  0.82900000  1.0 -0.0883842046
C  C117  1  0.73530000  0.82900000  0.44180000  1.0 -0.0883842046
C  C118  1  0.73530000  0.17100000  0.55820000  1.0 -0.0883842046
C  C119  1  0.26470000  0.82900000  0.55820000  1.0 -0.0883842046
C  C120  1  0.26470000  0.17100000  0.44180000  1.0 -0.0883842046
C  C121  1  0.50000000  0.33790000  0.09030000  1.0 0.2758112535
C  C122  1  0.50000000  0.66210000  0.09030000  1.0 0.2758112535
C  C123  1  0.50000000  0.33790000  0.90970000  1.0 0.2758112535
C  C124  1  0.50000000  0.66210000  0.90970000  1.0 0.2758112535
C  C125  1  0.09030000  0.50000000  0.33790000  1.0 0.2758112535
C  C126  1  0.09030000  0.50000000  0.66210000  1.0 0.2758112535
C  C127  1  0.90970000  0.50000000  0.33790000  1.0 0.2758112535
C  C128  1  0.90970000  0.50000000  0.66210000  1.0 0.2758112535
C  C129  1  0.33790000  0.09030000  0.50000000  1.0 0.2758112535
C  C130  1  0.66210000  0.09030000  0.50000000  1.0 0.2758112535
C  C131  1  0.33790000  0.90970000  0.50000000  1.0 0.2758112535
C  C132  1  0.66210000  0.90970000  0.50000000  1.0 0.2758112535
C  C133  1  0.33790000  0.50000000  0.90970000  1.0 0.2758112535
C  C134  1  0.66210000  0.50000000  0.90970000  1.0 0.2758112535
C  C135  1  0.33790000  0.50000000  0.09030000  1.0 0.2758112535
C  C136  1  0.66210000  0.50000000  0.09030000  1.0 0.2758112535
C  C137  1  0.50000000  0.09030000  0.66210000  1.0 0.2758112535
C  C138  1  0.50000000  0.09030000  0.33790000  1.0 0.2758112535
C  C139  1  0.50000000  0.90970000  0.66210000  1.0 0.2758112535
C  C140  1  0.50000000  0.90970000  0.33790000  1.0 0.2758112535
C  C141  1  0.09030000  0.33790000  0.50000000  1.0 0.2758112535
C  C142  1  0.09030000  0.66210000  0.50000000  1.0 0.2758112535
C  C143  1  0.90970000  0.33790000  0.50000000  1.0 0.2758112535
C  C144  1  0.90970000  0.66210000  0.50000000  1.0 0.2758112535
N  N1  1  0.46630000  0.36160000  0.06760000  1.0 -0.0715381037
N  N2  1  0.53370000  0.63840000  0.06760000  1.0 -0.0715381037
N  N3  1  0.53370000  0.36160000  0.93240000  1.0 -0.0715381037
N  N4  1  0.46630000  0.63840000  0.93240000  1.0 -0.0715381037
N  N5  1  0.06760000  0.46630000  0.36160000  1.0 -0.0715381037
N  N6  1  0.06760000  0.53370000  0.63840000  1.0 -0.0715381037
N  N7  1  0.93240000  0.53370000  0.36160000  1.0 -0.0715381037
N  N8  1  0.93240000  0.46630000  0.63840000  1.0 -0.0715381037
N  N9  1  0.36160000  0.06760000  0.46630000  1.0 -0.0715381037
N  N10  1  0.63840000  0.06760000  0.53370000  1.0 -0.0715381037
N  N11  1  0.36160000  0.93240000  0.53370000  1.0 -0.0715381037
N  N12  1  0.63840000  0.93240000  0.46630000  1.0 -0.0715381037
N  N13  1  0.36160000  0.46630000  0.93240000  1.0 -0.0715381037
N  N14  1  0.63840000  0.53370000  0.93240000  1.0 -0.0715381037
N  N15  1  0.36160000  0.53370000  0.06760000  1.0 -0.0715381037
N  N16  1  0.63840000  0.46630000  0.06760000  1.0 -0.0715381037
N  N17  1  0.46630000  0.06760000  0.63840000  1.0 -0.0715381037
N  N18  1  0.53370000  0.06760000  0.36160000  1.0 -0.0715381037
N  N19  1  0.53370000  0.93240000  0.63840000  1.0 -0.0715381037
N  N20  1  0.46630000  0.93240000  0.36160000  1.0 -0.0715381037
N  N21  1  0.06760000  0.36160000  0.53370000  1.0 -0.0715381037
N  N22  1  0.06760000  0.63840000  0.46630000  1.0 -0.0715381037
N  N23  1  0.93240000  0.36160000  0.46630000  1.0 -0.0715381037
N  N24  1  0.93240000  0.63840000  0.53370000  1.0 -0.0715381037
N  N25  1  0.53370000  0.63840000  0.93240000  1.0 -0.0715381037
N  N26  1  0.46630000  0.36160000  0.93240000  1.0 -0.0715381037
N  N27  1  0.46630000  0.63840000  0.06760000  1.0 -0.0715381037
N  N28  1  0.53370000  0.36160000  0.06760000  1.0 -0.0715381037
N  N29  1  0.93240000  0.53370000  0.63840000  1.0 -0.0715381037
N  N30  1  0.93240000  0.46630000  0.36160000  1.0 -0.0715381037
N  N31  1  0.06760000  0.46630000  0.63840000  1.0 -0.0715381037
N  N32  1  0.06760000  0.53370000  0.36160000  1.0 -0.0715381037
N  N33  1  0.63840000  0.93240000  0.53370000  1.0 -0.0715381037
N  N34  1  0.36160000  0.93240000  0.46630000  1.0 -0.0715381037
N  N35  1  0.63840000  0.06760000  0.46630000  1.0 -0.0715381037
N  N36  1  0.36160000  0.06760000  0.53370000  1.0 -0.0715381037
N  N37  1  0.63840000  0.53370000  0.06760000  1.0 -0.0715381037
N  N38  1  0.36160000  0.46630000  0.06760000  1.0 -0.0715381037
N  N39  1  0.63840000  0.46630000  0.93240000  1.0 -0.0715381037
N  N40  1  0.36160000  0.53370000  0.93240000  1.0 -0.0715381037
N  N41  1  0.53370000  0.93240000  0.36160000  1.0 -0.0715381037
N  N42  1  0.46630000  0.93240000  0.63840000  1.0 -0.0715381037
N  N43  1  0.46630000  0.06760000  0.36160000  1.0 -0.0715381037
N  N44  1  0.53370000  0.06760000  0.63840000  1.0 -0.0715381037
N  N45  1  0.93240000  0.63840000  0.46630000  1.0 -0.0715381037
N  N46  1  0.93240000  0.36160000  0.53370000  1.0 -0.0715381037
N  N47  1  0.06760000  0.63840000  0.53370000  1.0 -0.0715381037
N  N48  1  0.06760000  0.36160000  0.46630000  1.0 -0.0715381037
N  N49  1  0.44510000  0.32110000  0.11310000  1.0 -0.0951891207
N  N50  1  0.55490000  0.67890000  0.11310000  1.0 -0.0951891207
N  N51  1  0.55490000  0.32110000  0.88690000  1.0 -0.0951891207
N  N52  1  0.44510000  0.67890000  0.88690000  1.0 -0.0951891207
N  N53  1  0.11310000  0.44510000  0.32110000  1.0 -0.0951891207
N  N54  1  0.11310000  0.55490000  0.67890000  1.0 -0.0951891207
N  N55  1  0.88690000  0.55490000  0.32110000  1.0 -0.0951891207
N  N56  1  0.88690000  0.44510000  0.67890000  1.0 -0.0951891207
N  N57  1  0.32110000  0.11310000  0.44510000  1.0 -0.0951891207
N  N58  1  0.67890000  0.11310000  0.55490000  1.0 -0.0951891207
N  N59  1  0.32110000  0.88690000  0.55490000  1.0 -0.0951891207
N  N60  1  0.67890000  0.88690000  0.44510000  1.0 -0.0951891207
N  N61  1  0.32110000  0.44510000  0.88690000  1.0 -0.0951891207
N  N62  1  0.67890000  0.55490000  0.88690000  1.0 -0.0951891207
N  N63  1  0.32110000  0.55490000  0.11310000  1.0 -0.0951891207
N  N64  1  0.67890000  0.44510000  0.11310000  1.0 -0.0951891207
N  N65  1  0.44510000  0.11310000  0.67890000  1.0 -0.0951891207
N  N66  1  0.55490000  0.11310000  0.32110000  1.0 -0.0951891207
N  N67  1  0.55490000  0.88690000  0.67890000  1.0 -0.0951891207
N  N68  1  0.44510000  0.88690000  0.32110000  1.0 -0.0951891207
N  N69  1  0.11310000  0.32110000  0.55490000  1.0 -0.0951891207
N  N70  1  0.11310000  0.67890000  0.44510000  1.0 -0.0951891207
N  N71  1  0.88690000  0.32110000  0.44510000  1.0 -0.0951891207
N  N72  1  0.88690000  0.67890000  0.55490000  1.0 -0.0951891207
N  N73  1  0.55490000  0.67890000  0.88690000  1.0 -0.0951891207
N  N74  1  0.44510000  0.32110000  0.88690000  1.0 -0.0951891207
N  N75  1  0.44510000  0.67890000  0.11310000  1.0 -0.0951891207
N  N76  1  0.55490000  0.32110000  0.11310000  1.0 -0.0951891207
N  N77  1  0.88690000  0.55490000  0.67890000  1.0 -0.0951891207
N  N78  1  0.88690000  0.44510000  0.32110000  1.0 -0.0951891207
N  N79  1  0.11310000  0.44510000  0.67890000  1.0 -0.0951891207
N  N80  1  0.11310000  0.55490000  0.32110000  1.0 -0.0951891207
N  N81  1  0.67890000  0.88690000  0.55490000  1.0 -0.0951891207
N  N82  1  0.32110000  0.88690000  0.44510000  1.0 -0.0951891207
N  N83  1  0.67890000  0.11310000  0.44510000  1.0 -0.0951891207
N  N84  1  0.32110000  0.11310000  0.55490000  1.0 -0.0951891207
N  N85  1  0.67890000  0.55490000  0.11310000  1.0 -0.0951891207
N  N86  1  0.32110000  0.44510000  0.11310000  1.0 -0.0951891207
N  N87  1  0.67890000  0.44510000  0.88690000  1.0 -0.0951891207
N  N88  1  0.32110000  0.55490000  0.88690000  1.0 -0.0951891207
N  N89  1  0.55490000  0.88690000  0.32110000  1.0 -0.0951891207
N  N90  1  0.44510000  0.88690000  0.67890000  1.0 -0.0951891207
N  N91  1  0.44510000  0.11310000  0.32110000  1.0 -0.0951891207
N  N92  1  0.55490000  0.11310000  0.67890000  1.0 -0.0951891207
N  N93  1  0.88690000  0.67890000  0.44510000  1.0 -0.0951891207
N  N94  1  0.88690000  0.32110000  0.55490000  1.0 -0.0951891207
N  N95  1  0.11310000  0.67890000  0.55490000  1.0 -0.0951891207
N  N96  1  0.11310000  0.32110000  0.44510000  1.0 -0.0951891207
Cl  Cl1  1  0.50000000  0.50000000  0.00000000  1.0 0.0097323722
Cl  Cl2  1  0.00000000  0.50000000  0.50000000  1.0 0.0097323722
Cl  Cl3  1  0.50000000  0.00000000  0.50000000  1.0 0.0097323722
Cl  Cl4  1  0.50000000  0.50000000  0.01900000  1.0 0.1798107311
Cl  Cl5  1  0.50000000  0.50000000  0.98100000  1.0 0.1798107311
Cl  Cl6  1  0.01900000  0.50000000  0.50000000  1.0 0.1798107311
Cl  Cl7  1  0.98100000  0.50000000  0.50000000  1.0 0.1798107311
Cl  Cl8  1  0.50000000  0.01900000  0.50000000  1.0 0.1798107311
Cl  Cl9  1  0.50000000  0.98100000  0.50000000  1.0 0.1798107311
O  O1  1  0.44360000  0.35660000  0.07010000  1.0 -0.0715381037
O  O2  1  0.55640000  0.64340000  0.07010000  1.0 -0.0715381037
O  O3  1  0.55640000  0.35660000  0.92990000  1.0 -0.0715381037
O  O4  1  0.44360000  0.64340000  0.92990000  1.0 -0.0715381037
O  O5  1  0.07010000  0.44360000  0.35660000  1.0 -0.0715381037
O  O6  1  0.07010000  0.55640000  0.64340000  1.0 -0.0715381037
O  O7  1  0.92990000  0.55640000  0.35660000  1.0 -0.0715381037
O  O8  1  0.92990000  0.44360000  0.64340000  1.0 -0.0715381037
O  O9  1  0.35660000  0.07010000  0.44360000  1.0 -0.0715381037
O  O10  1  0.64340000  0.07010000  0.55640000  1.0 -0.0715381037
O  O11  1  0.35660000  0.92990000  0.55640000  1.0 -0.0715381037
O  O12  1  0.64340000  0.92990000  0.44360000  1.0 -0.0715381037
O  O13  1  0.35660000  0.44360000  0.92990000  1.0 -0.0715381037
O  O14  1  0.64340000  0.55640000  0.92990000  1.0 -0.0715381037
O  O15  1  0.35660000  0.55640000  0.07010000  1.0 -0.0715381037
O  O16  1  0.64340000  0.44360000  0.07010000  1.0 -0.0715381037
O  O17  1  0.44360000  0.07010000  0.64340000  1.0 -0.0715381037
O  O18  1  0.55640000  0.07010000  0.35660000  1.0 -0.0715381037
O  O19  1  0.55640000  0.92990000  0.64340000  1.0 -0.0715381037
O  O20  1  0.44360000  0.92990000  0.35660000  1.0 -0.0715381037
O  O21  1  0.07010000  0.35660000  0.55640000  1.0 -0.0715381037
O  O22  1  0.07010000  0.64340000  0.44360000  1.0 -0.0715381037
O  O23  1  0.92990000  0.35660000  0.44360000  1.0 -0.0715381037
O  O24  1  0.92990000  0.64340000  0.55640000  1.0 -0.0715381037
O  O25  1  0.55640000  0.64340000  0.92990000  1.0 -0.0715381037
O  O26  1  0.44360000  0.35660000  0.92990000  1.0 -0.0715381037
O  O27  1  0.44360000  0.64340000  0.07010000  1.0 -0.0715381037
O  O28  1  0.55640000  0.35660000  0.07010000  1.0 -0.0715381037
O  O29  1  0.92990000  0.55640000  0.64340000  1.0 -0.0715381037
O  O30  1  0.92990000  0.44360000  0.35660000  1.0 -0.0715381037
O  O31  1  0.07010000  0.44360000  0.64340000  1.0 -0.0715381037
O  O32  1  0.07010000  0.55640000  0.35660000  1.0 -0.0715381037
O  O33  1  0.64340000  0.92990000  0.55640000  1.0 -0.0715381037
O  O34  1  0.35660000  0.92990000  0.44360000  1.0 -0.0715381037
O  O35  1  0.64340000  0.07010000  0.44360000  1.0 -0.0715381037
O  O36  1  0.35660000  0.07010000  0.55640000  1.0 -0.0715381037
O  O37  1  0.64340000  0.55640000  0.07010000  1.0 -0.0715381037
O  O38  1  0.35660000  0.44360000  0.07010000  1.0 -0.0715381037
O  O39  1  0.64340000  0.44360000  0.92990000  1.0 -0.0715381037
O  O40  1  0.35660000  0.55640000  0.92990000  1.0 -0.0715381037
O  O41  1  0.55640000  0.92990000  0.35660000  1.0 -0.0715381037
O  O42  1  0.44360000  0.92990000  0.64340000  1.0 -0.0715381037
O  O43  1  0.44360000  0.07010000  0.35660000  1.0 -0.0715381037
O  O44  1  0.55640000  0.07010000  0.64340000  1.0 -0.0715381037
O  O45  1  0.92990000  0.64340000  0.44360000  1.0 -0.0715381037
O  O46  1  0.92990000  0.35660000  0.55640000  1.0 -0.0715381037
O  O47  1  0.07010000  0.64340000  0.55640000  1.0 -0.0715381037
O  O48  1  0.07010000  0.35660000  0.44360000  1.0 -0.0715381037
