# DDEC6 charges by PACMAN v1.1 (https://github.com/mtap-research/PACMAN-charge/)
data_SIVGAI_FSR_pacman
_symmetry_space_group_name_H-M   'P 1'
_cell_length_a   12.61090000
_cell_length_b   18.06240000
_cell_length_c   23.42080000
_cell_angle_alpha   90.00000000
_cell_angle_beta   90.00000000
_cell_angle_gamma   90.00000000
_symmetry_Int_Tables_number   1
_chemical_formula_structural   Cu6H29C34(N7O6)2
_chemical_formula_sum   'Cu24 H116 C136 N56 O48'
_cell_volume   5334.86290064
_cell_formula_units_Z   4
loop_
 _symmetry_equiv_pos_site_id
 _symmetry_equiv_pos_as_xyz
  1  'x, y, z'
loop_
 _atom_site_type_symbol
 _atom_site_label
 _atom_site_symmetry_multiplicity
 _atom_site_fract_x
 _atom_site_fract_y
 _atom_site_fract_z
 _atom_site_occupancy
 _atom_site_charge
Cu  Cu1  1  0.73725000  0.05301000  0.53864000  1.0 0.7002550145
Cu  Cu2  1  0.60076000  0.04818000  0.41362000  1.0 0.8038657983
Cu  Cu3  1  0.71895000  0.20597000  0.45616000  1.0 0.7381183286
Cu  Cu4  1  0.71167000  0.07874000  0.85861000  1.0 0.8258147021
Cu  Cu5  1  0.57460000  0.07673000  0.98457000  1.0 0.7635336896
Cu  Cu6  1  0.69600000  0.23286000  0.93863000  1.0 0.7704984029
Cu  Cu7  1  0.76275000  0.94699000  0.03864000  1.0 0.7002550145
Cu  Cu8  1  0.89924000  0.95182000  0.91362000  1.0 0.8038657983
Cu  Cu9  1  0.78105000  0.79403000  0.95616000  1.0 0.7381183286
Cu  Cu10  1  0.78833000  0.92126000  0.35861000  1.0 0.8258147021
Cu  Cu11  1  0.92540000  0.92327000  0.48457000  1.0 0.7635336896
Cu  Cu12  1  0.80400000  0.76714000  0.43863000  1.0 0.7704984029
Cu  Cu13  1  0.26275000  0.55301000  0.96136000  1.0 0.7002550145
Cu  Cu14  1  0.39924000  0.54818000  0.08638000  1.0 0.8038657983
Cu  Cu15  1  0.28105000  0.70597000  0.04384000  1.0 0.7381183286
Cu  Cu16  1  0.28833000  0.57874000  0.64139000  1.0 0.8258147021
Cu  Cu17  1  0.42540000  0.57673000  0.51543000  1.0 0.7635336896
Cu  Cu18  1  0.30400000  0.73286000  0.56137000  1.0 0.7704984029
Cu  Cu19  1  0.23725000  0.44699000  0.46136000  1.0 0.7002550145
Cu  Cu20  1  0.10076000  0.45182000  0.58638000  1.0 0.8038657983
Cu  Cu21  1  0.21895000  0.29403000  0.54384000  1.0 0.7381183286
Cu  Cu22  1  0.21167000  0.42126000  0.14139000  1.0 0.8258147021
Cu  Cu23  1  0.07460000  0.42327000  0.01543000  1.0 0.7635336896
Cu  Cu24  1  0.19600000  0.26714000  0.06137000  1.0 0.7704984029
H  H1  1  0.54720000  0.87400000  0.41980000  1.0 0.1204997916
H  H2  1  0.61130000  0.79500000  0.50020000  1.0 0.1513031204
H  H3  1  0.71110000  0.87890000  0.56580000  1.0 0.129478132
H  H4  1  0.84460000  0.31370000  0.54260000  1.0 0.129478132
H  H5  1  0.91660000  0.26620000  0.63770000  1.0 0.129478132
H  H6  1  0.86750000  0.13250000  0.63990000  1.0 0.1130956155
H  H7  1  0.52060000  0.11430000  0.29190000  1.0 0.1130956155
H  H8  1  0.57320000  0.24210000  0.25880000  1.0 0.1399235033
H  H9  1  0.67920000  0.29500000  0.33960000  1.0 0.129478132
H  H10  1  0.68630000  0.90440000  0.83420000  1.0 0.1204997916
H  H11  1  0.57820000  0.82180000  0.89870000  1.0 0.1399235033
H  H12  1  0.51490000  0.90500000  0.97800000  1.0 0.1399235033
H  H13  1  0.49400000  0.14860000  0.10530000  1.0 0.1204997916
H  H14  1  0.55630000  0.27220000  0.13740000  1.0 0.1399235033
H  H15  1  0.66330000  0.32350000  0.05590000  1.0 0.129478132
H  H16  1  0.81050000  0.33970000  0.84800000  1.0 0.129478132
H  H17  1  0.86300000  0.29340000  0.75050000  1.0 0.1399235033
H  H18  1  0.81790000  0.15800000  0.74960000  1.0 0.1204997916
H  H19  1  0.21550000  0.94860000  0.17670000  1.0 0.2879925003
H  H20  1  0.22130000  0.94620000  0.24170000  1.0 0.3088722656
H  H21  1  0.65500000  0.99690000  0.19580000  1.0 0.1399235033
H  H22  1  0.36760000  0.98100000  0.11970000  1.0 0.1399235033
H  H23  1  0.39300000  0.96280000  0.29120000  1.0 0.1399235033
H  H24  1  0.16030000  0.46910000  0.37370000  1.0 0.3088722656
H  H25  1  0.12980000  0.38780000  0.37920000  1.0 0.3088722656
H  H26  1  0.74380000  0.51380000  0.45530000  1.0 0.129478132
H  H27  1  0.03310000  0.56500000  0.38840000  1.0 0.1399235033
H  H28  1  0.95050000  0.35190000  0.40830000  1.0 0.1399235033
H  H29  1  0.38790000  0.03170000  0.42310000  1.0 0.3627616395
H  H30  1  0.95280000  0.12600000  0.91980000  1.0 0.1204997916
H  H31  1  0.88870000  0.20500000  0.00020000  1.0 0.1513031204
H  H32  1  0.78890000  0.12110000  0.06580000  1.0 0.129478132
H  H33  1  0.65540000  0.68630000  0.04260000  1.0 0.129478132
H  H34  1  0.58340000  0.73380000  0.13770000  1.0 0.129478132
H  H35  1  0.63250000  0.86750000  0.13990000  1.0 0.1130956155
H  H36  1  0.97940000  0.88570000  0.79190000  1.0 0.1130956155
H  H37  1  0.92680000  0.75790000  0.75880000  1.0 0.1399235033
H  H38  1  0.82080000  0.70500000  0.83960000  1.0 0.129478132
H  H39  1  0.81370000  0.09560000  0.33420000  1.0 0.1204997916
H  H40  1  0.92180000  0.17820000  0.39870000  1.0 0.1399235033
H  H41  1  0.98510000  0.09500000  0.47800000  1.0 0.1399235033
H  H42  1  0.00600000  0.85140000  0.60530000  1.0 0.1204997916
H  H43  1  0.94370000  0.72780000  0.63740000  1.0 0.1399235033
H  H44  1  0.83670000  0.67650000  0.55590000  1.0 0.129478132
H  H45  1  0.68950000  0.66030000  0.34800000  1.0 0.129478132
H  H46  1  0.63700000  0.70660000  0.25050000  1.0 0.1399235033
H  H47  1  0.68210000  0.84200000  0.24960000  1.0 0.1204997916
H  H48  1  0.28450000  0.05140000  0.67670000  1.0 0.2879925003
H  H49  1  0.27870000  0.05380000  0.74170000  1.0 0.3046934982
H  H50  1  0.84500000  0.00310000  0.69580000  1.0 0.1399235033
H  H51  1  0.13240000  0.01900000  0.61970000  1.0 0.1399235033
H  H52  1  0.10700000  0.03720000  0.79120000  1.0 0.1399235033
H  H53  1  0.33970000  0.53090000  0.87370000  1.0 0.3088722656
H  H54  1  0.37020000  0.61220000  0.87920000  1.0 0.315016367
H  H55  1  0.75620000  0.48620000  0.95530000  1.0 0.129478132
H  H56  1  0.46690000  0.43500000  0.88840000  1.0 0.1399235033
H  H57  1  0.54950000  0.64810000  0.90830000  1.0 0.1399235033
H  H58  1  0.11210000  0.96830000  0.92310000  1.0 0.3627616395
H  H59  1  0.45280000  0.37400000  0.08020000  1.0 0.1204997916
H  H60  1  0.38870000  0.29500000  0.99980000  1.0 0.1513031204
H  H61  1  0.28890000  0.37890000  0.93420000  1.0 0.129478132
H  H62  1  0.15540000  0.81370000  0.95740000  1.0 0.129478132
H  H63  1  0.08340000  0.76620000  0.86230000  1.0 0.129478132
H  H64  1  0.13250000  0.63250000  0.86010000  1.0 0.1130956155
H  H65  1  0.47940000  0.61430000  0.20810000  1.0 0.1130956155
H  H66  1  0.42680000  0.74210000  0.24120000  1.0 0.1399235033
H  H67  1  0.32080000  0.79500000  0.16040000  1.0 0.129478132
H  H68  1  0.31370000  0.40440000  0.66580000  1.0 0.1204997916
H  H69  1  0.42180000  0.32180000  0.60130000  1.0 0.1399235033
H  H70  1  0.48510000  0.40500000  0.52200000  1.0 0.1399235033
H  H71  1  0.50600000  0.64860000  0.39470000  1.0 0.1204997916
H  H72  1  0.44370000  0.77220000  0.36260000  1.0 0.1399235033
H  H73  1  0.33670000  0.82350000  0.44410000  1.0 0.129478132
H  H74  1  0.18950000  0.83970000  0.65200000  1.0 0.129478132
H  H75  1  0.13700000  0.79340000  0.74950000  1.0 0.1399235033
H  H76  1  0.18210000  0.65800000  0.75040000  1.0 0.1204997916
H  H77  1  0.78450000  0.44860000  0.32330000  1.0 0.2879925003
H  H78  1  0.77870000  0.44620000  0.25830000  1.0 0.3046934982
H  H79  1  0.34500000  0.49690000  0.30420000  1.0 0.1399235033
H  H80  1  0.63240000  0.48100000  0.38030000  1.0 0.1399235033
H  H81  1  0.60700000  0.46280000  0.20880000  1.0 0.1399235033
H  H82  1  0.83970000  0.96910000  0.12630000  1.0 0.3088722656
H  H83  1  0.87020000  0.88780000  0.12080000  1.0 0.315016367
H  H84  1  0.25620000  0.01380000  0.04470000  1.0 0.129478132
H  H85  1  0.96690000  0.06500000  0.11160000  1.0 0.1399235033
H  H86  1  0.04950000  0.85190000  0.09170000  1.0 0.1399235033
H  H87  1  0.61210000  0.53170000  0.07690000  1.0 0.3627616395
H  H88  1  0.04720000  0.62600000  0.58020000  1.0 0.1204997916
H  H89  1  0.11130000  0.70500000  0.49980000  1.0 0.1513031204
H  H90  1  0.21110000  0.62110000  0.43420000  1.0 0.129478132
H  H91  1  0.34460000  0.18630000  0.45740000  1.0 0.129478132
H  H92  1  0.41660000  0.23380000  0.36230000  1.0 0.129478132
H  H93  1  0.36750000  0.36750000  0.36010000  1.0 0.1130956155
H  H94  1  0.02060000  0.38570000  0.70810000  1.0 0.1130956155
H  H95  1  0.07320000  0.25790000  0.74120000  1.0 0.1399235033
H  H96  1  0.17920000  0.20500000  0.66040000  1.0 0.129478132
H  H97  1  0.18630000  0.59560000  0.16580000  1.0 0.1204997916
H  H98  1  0.07820000  0.67820000  0.10130000  1.0 0.1399235033
H  H99  1  0.01490000  0.59500000  0.02200000  1.0 0.1399235033
H  H100  1  0.99400000  0.35140000  0.89470000  1.0 0.1204997916
H  H101  1  0.05630000  0.22780000  0.86260000  1.0 0.1399235033
H  H102  1  0.16330000  0.17650000  0.94410000  1.0 0.129478132
H  H103  1  0.31050000  0.16030000  0.15200000  1.0 0.129478132
H  H104  1  0.36300000  0.20660000  0.24950000  1.0 0.1399235033
H  H105  1  0.31790000  0.34200000  0.25040000  1.0 0.1204997916
H  H106  1  0.71550000  0.55140000  0.82330000  1.0 0.2879925003
H  H107  1  0.72130000  0.55380000  0.75830000  1.0 0.3046934982
H  H108  1  0.15500000  0.50310000  0.80420000  1.0 0.1399235033
H  H109  1  0.86760000  0.51900000  0.88030000  1.0 0.1399235033
H  H110  1  0.89300000  0.53720000  0.70880000  1.0 0.1399235033
H  H111  1  0.66030000  0.03090000  0.62630000  1.0 0.3088722656
H  H112  1  0.62980000  0.11220000  0.62080000  1.0 0.315016367
H  H113  1  0.24380000  0.98620000  0.54470000  1.0 0.129478132
H  H114  1  0.53310000  0.93500000  0.61160000  1.0 0.1399235033
H  H115  1  0.45050000  0.14810000  0.59170000  1.0 0.1399235033
H  H116  1  0.88790000  0.46830000  0.57690000  1.0 0.3627616395
C  C1  1  0.58940000  0.89010000  0.45100000  1.0 0.0025144676
C  C2  1  0.62340000  0.84650000  0.49520000  1.0 -0.207555994
C  C3  1  0.67900000  0.89310000  0.53070000  1.0 0.0115045616
C  C4  1  0.84050000  0.26420000  0.55610000  1.0 0.0500564496
C  C5  1  0.88010000  0.23890000  0.60920000  1.0 -0.1878008316
C  C6  1  0.85320000  0.16560000  0.60940000  1.0 -0.0173597396
C  C7  1  0.56110000  0.14880000  0.31340000  1.0 0.0115045616
C  C8  1  0.58940000  0.21930000  0.29430000  1.0 -0.2167074453
C  C9  1  0.64670000  0.24750000  0.33950000  1.0 0.0282790123
C  C10  1  0.65210000  0.91940000  0.86850000  1.0 0.0115045616
C  C11  1  0.59240000  0.87310000  0.90340000  1.0 -0.2167074453
C  C12  1  0.55830000  0.91990000  0.94690000  1.0 0.0186810649
C  C13  1  0.53760000  0.18120000  0.08370000  1.0 -0.0017859912
C  C14  1  0.57070000  0.24900000  0.10180000  1.0 -0.207555994
C  C15  1  0.63000000  0.27630000  0.05670000  1.0 0.0186810649
C  C16  1  0.80480000  0.29010000  0.83490000  1.0 0.0282790123
C  C17  1  0.83340000  0.26520000  0.78080000  1.0 -0.2167074453
C  C18  1  0.80920000  0.19070000  0.78100000  1.0 0.0115045616
C  C19  1  0.59760000  0.97840000  0.30390000  1.0 0.5498810192
C  C20  1  0.53360000  0.97680000  0.25100000  1.0 -0.0173597396
C  C21  1  0.58040000  0.99000000  0.19830000  1.0 -0.1601115216
C  C22  1  0.51910000  0.99330000  0.14920000  1.0 -0.0017859912
C  C23  1  0.40970000  0.98170000  0.15330000  1.0 -0.1878008316
C  C24  1  0.36220000  0.97110000  0.20600000  1.0 0.2779713948
C  C25  1  0.42510000  0.96930000  0.25480000  1.0 -0.1988463826
C  C26  1  0.57190000  0.00580000  0.09310000  1.0 0.5614866991
C  C27  1  0.75770000  0.36400000  0.45080000  1.0 0.5498810192
C  C28  1  0.83530000  0.42310000  0.43280000  1.0 0.0186810649
C  C29  1  0.80970000  0.49910000  0.43930000  1.0 -0.1464251052
C  C30  1  0.88340000  0.55120000  0.42160000  1.0 0.0186810649
C  C31  1  0.98330000  0.52880000  0.40050000  1.0 -0.207555994
C  C32  1  0.00850000  0.45590000  0.39730000  1.0 0.2691181679
C  C33  1  0.93370000  0.40290000  0.41220000  1.0 -0.1988463826
C  C34  1  0.86250000  0.63270000  0.42470000  1.0 0.5391964097
C  C35  1  0.91060000  0.10990000  0.95100000  1.0 0.0025144676
C  C36  1  0.87660000  0.15350000  0.99520000  1.0 -0.207555994
C  C37  1  0.82100000  0.10690000  0.03070000  1.0 0.0115045616
C  C38  1  0.65950000  0.73580000  0.05610000  1.0 0.0500564496
C  C39  1  0.61990000  0.76110000  0.10920000  1.0 -0.1878008316
C  C40  1  0.64680000  0.83440000  0.10940000  1.0 -0.0173597396
C  C41  1  0.93890000  0.85120000  0.81340000  1.0 0.0115045616
C  C42  1  0.91060000  0.78070000  0.79430000  1.0 -0.2167074453
C  C43  1  0.85330000  0.75250000  0.83950000  1.0 0.0282790123
C  C44  1  0.84790000  0.08060000  0.36850000  1.0 0.0115045616
C  C45  1  0.90760000  0.12690000  0.40340000  1.0 -0.2167074453
C  C46  1  0.94170000  0.08010000  0.44690000  1.0 0.0186810649
C  C47  1  0.96240000  0.81880000  0.58370000  1.0 -0.0017859912
C  C48  1  0.92930000  0.75100000  0.60180000  1.0 -0.207555994
C  C49  1  0.87000000  0.72370000  0.55670000  1.0 0.0186810649
C  C50  1  0.69520000  0.70990000  0.33490000  1.0 0.0282790123
C  C51  1  0.66666667  0.73480000  0.28080000  1.0 -0.2167074453
C  C52  1  0.69080000  0.80930000  0.28100000  1.0 0.0115045616
C  C53  1  0.90240000  0.02160000  0.80390000  1.0 0.5498810192
C  C54  1  0.96640000  0.02320000  0.75100000  1.0 -0.0173597396
C  C55  1  0.91960000  0.01000000  0.69830000  1.0 -0.1601115216
C  C56  1  0.98090000  0.00670000  0.64920000  1.0 -0.0017859912
C  C57  1  0.09030000  0.01830000  0.65330000  1.0 -0.1878008316
C  C58  1  0.13780000  0.02890000  0.70600000  1.0 0.2779713948
C  C59  1  0.07490000  0.03070000  0.75480000  1.0 -0.1988463826
C  C60  1  0.92810000  0.99420000  0.59310000  1.0 0.5614866991
C  C61  1  0.74230000  0.63600000  0.95080000  1.0 0.5498810192
C  C62  1  0.66470000  0.57690000  0.93280000  1.0 0.0186810649
C  C63  1  0.69030000  0.50090000  0.93930000  1.0 -0.1464251052
C  C64  1  0.61660000  0.44880000  0.92160000  1.0 0.0186810649
C  C65  1  0.51670000  0.47120000  0.90050000  1.0 -0.207555994
C  C66  1  0.49150000  0.54410000  0.89730000  1.0 0.2691181679
C  C67  1  0.56630000  0.59710000  0.91220000  1.0 -0.1988463826
C  C68  1  0.63750000  0.36730000  0.92470000  1.0 0.5391964097
C  C69  1  0.41060000  0.39010000  0.04900000  1.0 0.0025144676
C  C70  1  0.37660000  0.34650000  0.00480000  1.0 -0.207555994
C  C71  1  0.32100000  0.39310000  0.96930000  1.0 0.0115045616
C  C72  1  0.15950000  0.76420000  0.94390000  1.0 0.0500564496
C  C73  1  0.11990000  0.73890000  0.89080000  1.0 -0.1878008316
C  C74  1  0.14680000  0.66560000  0.89060000  1.0 -0.0173597396
C  C75  1  0.43890000  0.64880000  0.18660000  1.0 0.0115045616
C  C76  1  0.41060000  0.71930000  0.20570000  1.0 -0.2167074453
C  C77  1  0.35330000  0.74750000  0.16050000  1.0 0.0282790123
C  C78  1  0.34790000  0.41940000  0.63150000  1.0 0.0115045616
C  C79  1  0.40760000  0.37310000  0.59660000  1.0 -0.2167074453
C  C80  1  0.44170000  0.41990000  0.55310000  1.0 0.0186810649
C  C81  1  0.46240000  0.68120000  0.41630000  1.0 -0.0017859912
C  C82  1  0.42930000  0.74900000  0.39820000  1.0 -0.207555994
C  C83  1  0.37000000  0.77630000  0.44330000  1.0 0.0186810649
C  C84  1  0.19520000  0.79010000  0.66510000  1.0 0.0282790123
C  C85  1  0.16660000  0.76520000  0.71920000  1.0 -0.2167074453
C  C86  1  0.19080000  0.69070000  0.71900000  1.0 0.0115045616
C  C87  1  0.40240000  0.47840000  0.19610000  1.0 0.5498810192
C  C88  1  0.46640000  0.47680000  0.24900000  1.0 -0.0173597396
C  C89  1  0.41960000  0.49000000  0.30170000  1.0 -0.1601115216
C  C90  1  0.48090000  0.49330000  0.35080000  1.0 -0.0017859912
C  C91  1  0.59030000  0.48170000  0.34670000  1.0 -0.1878008316
C  C92  1  0.63780000  0.47110000  0.29400000  1.0 0.2779713948
C  C93  1  0.57490000  0.46930000  0.24520000  1.0 -0.1988463826
C  C94  1  0.42810000  0.50580000  0.40690000  1.0 0.5614866991
C  C95  1  0.24230000  0.86400000  0.04920000  1.0 0.5498810192
C  C96  1  0.16470000  0.92310000  0.06720000  1.0 0.0186810649
C  C97  1  0.19030000  0.99910000  0.06070000  1.0 -0.1464251052
C  C98  1  0.11660000  0.05120000  0.07840000  1.0 0.0186810649
C  C99  1  0.01670000  0.02880000  0.09950000  1.0 -0.207555994
C  C100  1  0.99150000  0.95590000  0.10270000  1.0 0.2691181679
C  C101  1  0.06630000  0.90290000  0.08780000  1.0 -0.1988463826
C  C102  1  0.13750000  0.13270000  0.07530000  1.0 0.5391964097
C  C103  1  0.08940000  0.60990000  0.54900000  1.0 0.0025144676
C  C104  1  0.12340000  0.65350000  0.50480000  1.0 -0.207555994
C  C105  1  0.17900000  0.60690000  0.46930000  1.0 0.0115045616
C  C106  1  0.34050000  0.23580000  0.44390000  1.0 0.0500564496
C  C107  1  0.38010000  0.26110000  0.39080000  1.0 -0.1878008316
C  C108  1  0.35320000  0.33440000  0.39060000  1.0 -0.0173597396
C  C109  1  0.06110000  0.35120000  0.68660000  1.0 0.0115045616
C  C110  1  0.08940000  0.28070000  0.70570000  1.0 -0.2167074453
C  C111  1  0.14670000  0.25250000  0.66050000  1.0 0.0282790123
C  C112  1  0.15210000  0.58060000  0.13150000  1.0 0.0115045616
C  C113  1  0.09240000  0.62690000  0.09660000  1.0 -0.2167074453
C  C114  1  0.05830000  0.58010000  0.05310000  1.0 0.0186810649
C  C115  1  0.03760000  0.31880000  0.91630000  1.0 -0.0017859912
C  C116  1  0.07070000  0.25100000  0.89820000  1.0 -0.207555994
C  C117  1  0.13000000  0.22370000  0.94330000  1.0 0.0186810649
C  C118  1  0.30480000  0.20990000  0.16510000  1.0 0.0282790123
C  C119  1  0.33340000  0.23480000  0.21920000  1.0 -0.2167074453
C  C120  1  0.30920000  0.30930000  0.21900000  1.0 0.0115045616
C  C121  1  0.09760000  0.52160000  0.69610000  1.0 0.5498810192
C  C122  1  0.03360000  0.52320000  0.74900000  1.0 -0.0173597396
C  C123  1  0.08040000  0.51000000  0.80170000  1.0 -0.1601115216
C  C124  1  0.01910000  0.50670000  0.85080000  1.0 -0.0017859912
C  C125  1  0.90970000  0.51830000  0.84670000  1.0 -0.1878008316
C  C126  1  0.86220000  0.52890000  0.79400000  1.0 0.2779713948
C  C127  1  0.92510000  0.53070000  0.74520000  1.0 -0.1988463826
C  C128  1  0.07190000  0.49420000  0.90690000  1.0 0.5614866991
C  C129  1  0.25770000  0.13600000  0.54920000  1.0 0.5498810192
C  C130  1  0.33530000  0.07690000  0.56720000  1.0 0.0186810649
C  C131  1  0.30970000  0.00090000  0.56070000  1.0 -0.1464251052
C  C132  1  0.38340000  0.94880000  0.57840000  1.0 0.0186810649
C  C133  1  0.48330000  0.97120000  0.59950000  1.0 -0.207555994
C  C134  1  0.50850000  0.04410000  0.60270000  1.0 0.2691181679
C  C135  1  0.43370000  0.09710000  0.58780000  1.0 -0.1988463826
C  C136  1  0.36250000  0.86730000  0.57530000  1.0 0.5391964097
N  N1  1  0.62560000  0.95990000  0.45890000  1.0 -0.1700050496
N  N2  1  0.68110000  0.96060000  0.50890000  1.0 -0.1804344597
N  N3  1  0.79610000  0.20730000  0.52790000  1.0 -0.1601115216
N  N4  1  0.80460000  0.14660000  0.56150000  1.0 -0.1804344597
N  N5  1  0.59800000  0.13610000  0.36560000  1.0 -0.1700050496
N  N6  1  0.65080000  0.19990000  0.38300000  1.0 -0.1804344597
N  N7  1  0.65440000  0.98770000  0.88970000  1.0 -0.1804344597
N  N8  1  0.59490000  0.98830000  0.93900000  1.0 -0.1878008316
N  N9  1  0.57570000  0.16650000  0.03050000  1.0 -0.1804344597
N  N10  1  0.63350000  0.22700000  0.01450000  1.0 -0.1700050496
N  N11  1  0.76810000  0.23340000  0.86560000  1.0 -0.1700050496
N  N12  1  0.77170000  0.17160000  0.83250000  1.0 -0.1700050496
N  N13  1  0.25230000  0.95300000  0.20850000  1.0 -0.6166613917
N  N14  1  0.11270000  0.43500000  0.38140000  1.0 -0.5664528827
N  N15  1  0.87440000  0.04010000  0.95890000  1.0 -0.1700050496
N  N16  1  0.81890000  0.03940000  0.00890000  1.0 -0.1804344597
N  N17  1  0.70390000  0.79270000  0.02790000  1.0 -0.1601115216
N  N18  1  0.69540000  0.85340000  0.06150000  1.0 -0.1804344597
N  N19  1  0.90200000  0.86390000  0.86560000  1.0 -0.1700050496
N  N20  1  0.84920000  0.80010000  0.88300000  1.0 -0.1804344597
N  N21  1  0.84560000  0.01230000  0.38970000  1.0 -0.1804344597
N  N22  1  0.90510000  0.01170000  0.43900000  1.0 -0.1878008316
N  N23  1  0.92430000  0.83350000  0.53050000  1.0 -0.1804344597
N  N24  1  0.86650000  0.77300000  0.51450000  1.0 -0.1700050496
N  N25  1  0.73190000  0.76660000  0.36560000  1.0 -0.1700050496
N  N26  1  0.72830000  0.82840000  0.33250000  1.0 -0.1700050496
N  N27  1  0.24770000  0.04700000  0.70850000  1.0 -0.6166613917
N  N28  1  0.38730000  0.56500000  0.88140000  1.0 -0.5664528827
N  N29  1  0.37440000  0.45990000  0.04110000  1.0 -0.1700050496
N  N30  1  0.31890000  0.46060000  0.99110000  1.0 -0.1804344597
N  N31  1  0.20390000  0.70730000  0.97210000  1.0 -0.1700050496
N  N32  1  0.19540000  0.64660000  0.93850000  1.0 -0.1804344597
N  N33  1  0.40200000  0.63610000  0.13440000  1.0 -0.1700050496
N  N34  1  0.34920000  0.69990000  0.11700000  1.0 -0.1804344597
N  N35  1  0.34560000  0.48770000  0.61030000  1.0 -0.1804344597
N  N36  1  0.40510000  0.48830000  0.56100000  1.0 -0.1878008316
N  N37  1  0.42430000  0.66650000  0.46950000  1.0 -0.1804344597
N  N38  1  0.36650000  0.72700000  0.48550000  1.0 -0.1700050496
N  N39  1  0.23190000  0.73340000  0.63440000  1.0 -0.1700050496
N  N40  1  0.22830000  0.67160000  0.66750000  1.0 -0.1700050496
N  N41  1  0.74770000  0.45300000  0.29150000  1.0 -0.6166613917
N  N42  1  0.88730000  0.93500000  0.11860000  1.0 -0.5664528827
N  N43  1  0.12560000  0.54010000  0.54110000  1.0 -0.1700050496
N  N44  1  0.18110000  0.53940000  0.49110000  1.0 -0.1804344597
N  N45  1  0.29610000  0.29270000  0.47210000  1.0 -0.1601115216
N  N46  1  0.30460000  0.35340000  0.43850000  1.0 -0.1804344597
N  N47  1  0.09800000  0.36390000  0.63440000  1.0 -0.1700050496
N  N48  1  0.15080000  0.30010000  0.61700000  1.0 -0.1804344597
N  N49  1  0.15440000  0.51230000  0.11030000  1.0 -0.1804344597
N  N50  1  0.09490000  0.51170000  0.06100000  1.0 -0.1878008316
N  N51  1  0.07570000  0.33350000  0.96950000  1.0 -0.1804344597
N  N52  1  0.13350000  0.27300000  0.98550000  1.0 -0.1700050496
N  N53  1  0.26810000  0.26660000  0.13440000  1.0 -0.1700050496
N  N54  1  0.27170000  0.32840000  0.16750000  1.0 -0.1700050496
N  N55  1  0.75230000  0.54700000  0.79150000  1.0 -0.6166613917
N  N56  1  0.61270000  0.06500000  0.61860000  1.0 -0.5664528827
O  O1  1  0.65370000  0.10920000  0.47900000  1.0 -0.6994244079
O  O2  1  0.63150000  0.13490000  0.91810000  1.0 -0.7667044769
O  O3  1  0.54830000  0.98650000  0.35030000  1.0 -0.5078137438
O  O4  1  0.69780000  0.97430000  0.30010000  1.0 -0.5078137438
O  O5  1  0.51480000  0.02040000  0.05010000  1.0 -0.4868385713
O  O6  1  0.67140000  0.00210000  0.09300000  1.0 -0.5286494712
O  O7  1  0.78400000  0.29970000  0.43420000  1.0 -0.5381949167
O  O8  1  0.67970000  0.37990000  0.48090000  1.0 -0.5381949167
O  O9  1  0.77920000  0.65520000  0.44920000  1.0 -0.5286494712
O  O10  1  0.92620000  0.67500000  0.40080000  1.0 -0.5286494712
O  O11  1  0.42750000  0.05520000  0.44550000  1.0 -0.7060812334
O  O12  1  0.56740000  0.08180000  0.78860000  1.0 -0.3097876902
O  O13  1  0.84630000  0.89080000  0.97900000  1.0 -0.6994244079
O  O14  1  0.86850000  0.86510000  0.41810000  1.0 -0.7667044769
O  O15  1  0.95170000  0.01350000  0.85030000  1.0 -0.5078137438
O  O16  1  0.80220000  0.02570000  0.80010000  1.0 -0.5078137438
O  O17  1  0.98520000  0.97960000  0.55010000  1.0 -0.4868385713
O  O18  1  0.82860000  0.99790000  0.59300000  1.0 -0.5286494712
O  O19  1  0.71600000  0.70030000  0.93420000  1.0 -0.5381949167
O  O20  1  0.82030000  0.62010000  0.98090000  1.0 -0.5381949167
O  O21  1  0.72080000  0.34480000  0.94920000  1.0 -0.5286494712
O  O22  1  0.57380000  0.32500000  0.90080000  1.0 -0.5286494712
O  O23  1  0.07250000  0.94480000  0.94550000  1.0 -0.7060812334
O  O24  1  0.93260000  0.91820000  0.28860000  1.0 -0.3097876902
O  O25  1  0.34630000  0.60920000  0.02100000  1.0 -0.6994244079
O  O26  1  0.36850000  0.63490000  0.58190000  1.0 -0.7667044769
O  O27  1  0.45170000  0.48650000  0.14970000  1.0 -0.5078137438
O  O28  1  0.30220000  0.47430000  0.19990000  1.0 -0.5078137438
O  O29  1  0.48520000  0.52040000  0.44990000  1.0 -0.4868385713
O  O30  1  0.32860000  0.50210000  0.40700000  1.0 -0.5286494712
O  O31  1  0.21600000  0.79970000  0.06580000  1.0 -0.5381949167
O  O32  1  0.32030000  0.87990000  0.01910000  1.0 -0.5381949167
O  O33  1  0.22080000  0.15520000  0.05080000  1.0 -0.5286494712
O  O34  1  0.07380000  0.17500000  0.09920000  1.0 -0.5286494712
O  O35  1  0.57250000  0.55520000  0.05450000  1.0 -0.7060812334
O  O36  1  0.43260000  0.58180000  0.71140000  1.0 -0.3097876902
O  O37  1  0.15370000  0.39080000  0.52100000  1.0 -0.6994244079
O  O38  1  0.13150000  0.36510000  0.08190000  1.0 -0.7667044769
O  O39  1  0.04830000  0.51350000  0.64970000  1.0 -0.5078137438
O  O40  1  0.19780000  0.52570000  0.69990000  1.0 -0.5078137438
O  O41  1  0.01480000  0.47960000  0.94990000  1.0 -0.4868385713
O  O42  1  0.17140000  0.49790000  0.90700000  1.0 -0.5286494712
O  O43  1  0.28400000  0.20030000  0.56580000  1.0 -0.5381949167
O  O44  1  0.17970000  0.12010000  0.51910000  1.0 -0.5381949167
O  O45  1  0.27920000  0.84480000  0.55080000  1.0 -0.5286494712
O  O46  1  0.42620000  0.82500000  0.59920000  1.0 -0.5286494712
O  O47  1  0.92750000  0.44480000  0.55450000  1.0 -0.7060812334
O  O48  1  0.06740000  0.41820000  0.21140000  1.0 -0.3097876902
