# DDEC6 charges by PACMAN v1.1 (https://github.com/mtap-research/PACMAN-charge/)
data_SIVJIS_ASR_pacman
_symmetry_space_group_name_H-M   'P 1'
_cell_length_a   12.04800000
_cell_length_b   12.28000000
_cell_length_c   19.09200000
_cell_angle_alpha   91.92000000
_cell_angle_beta   98.10000000
_cell_angle_gamma   117.88000000
_symmetry_Int_Tables_number   1
_chemical_formula_structural   Cd3H20C34N5O12
_chemical_formula_sum   'Cd6 H40 C68 N10 O24'
_cell_volume   2455.88652764
_cell_formula_units_Z   2
loop_
 _symmetry_equiv_pos_site_id
 _symmetry_equiv_pos_as_xyz
  1  'x, y, z'
loop_
 _atom_site_type_symbol
 _atom_site_label
 _atom_site_symmetry_multiplicity
 _atom_site_fract_x
 _atom_site_fract_y
 _atom_site_fract_z
 _atom_site_occupancy
 _atom_site_charge
Cd  Cd1  1  0.76625000  0.50709000  0.27921000  1.0 0.9634361767
Cd  Cd2  1  0.23375000  0.49291000  0.72079000  1.0 0.9634361767
Cd  Cd3  1  0.57876000  0.67086000  0.20025000  1.0 0.8959700071
Cd  Cd4  1  0.42124000  0.32914000  0.79975000  1.0 0.8959700071
Cd  Cd5  1  0.42096000  0.32541000  0.29919000  1.0 0.8946818315
Cd  Cd6  1  0.57904000  0.67459000  0.70081000  1.0 0.8946818315
H  H1  1  0.70460000  0.54130000  0.47540000  1.0 0.1304288634
H  H2  1  0.29540000  0.45870000  0.52460000  1.0 0.1304288634
H  H3  1  0.51960000  0.76540000  0.54900000  1.0 0.1017958634
H  H4  1  0.48040000  0.23460000  0.45100000  1.0 0.1017958634
H  H5  1  0.52510000  0.74210000  0.43020000  1.0 0.1385404595
H  H6  1  0.47490000  0.25790000  0.56980000  1.0 0.1385404595
H  H7  1  0.67910000  0.47590000  0.06090000  1.0 0.1304288634
H  H8  1  0.32090000  0.52410000  0.93910000  1.0 0.1304288634
H  H9  1  0.28010000  0.22320000  0.93320000  1.0 0.1017958634
H  H10  1  0.71990000  0.77680000  0.06680000  1.0 0.1017958634
H  H11  1  0.30950000  0.24500000  0.05530000  1.0 0.1304288634
H  H12  1  0.69050000  0.75500000  0.94470000  1.0 0.1304288634
H  H13  1  0.70690000  0.58260000  0.59400000  1.0 0.1017958634
H  H14  1  0.29310000  0.41740000  0.40600000  1.0 0.1017958634
H  H15  1  0.09720000  0.86550000  0.32780000  1.0 0.1385404595
H  H16  1  0.90280000  0.13450000  0.67220000  1.0 0.1385404595
H  H17  1  0.64420000  0.43950000  0.93910000  1.0 0.1017958634
H  H18  1  0.35580000  0.56050000  0.06090000  1.0 0.1017958634
H  H19  1  0.14030000  0.18250000  0.19620000  1.0 0.1017958634
H  H20  1  0.85970000  0.81750000  0.80380000  1.0 0.1017958634
H  H21  1  0.28500000  0.05110000  0.34350000  1.0 0.1017958634
H  H22  1  0.71500000  0.94890000  0.65650000  1.0 0.1017958634
H  H23  1  0.46070000  0.98790000  0.31870000  1.0 0.1304288634
H  H24  1  0.53930000  0.01210000  0.68130000  1.0 0.1304288634
H  H25  1  0.69990000  0.13890000  0.18140000  1.0 0.1304288634
H  H26  1  0.30010000  0.86110000  0.81860000  1.0 0.1304288634
H  H27  1  0.45290000  0.80130000  0.28770000  1.0 0.1017958634
H  H28  1  0.54710000  0.19870000  0.71230000  1.0 0.1017958634
H  H29  1  0.95140000  0.00110000  0.17420000  1.0 0.1304288634
H  H30  1  0.04860000  0.99890000  0.82580000  1.0 0.1304288634
H  H31  1  0.68900000  0.94980000  0.15610000  1.0 0.1017958634
H  H32  1  0.31100000  0.05020000  0.84390000  1.0 0.1017958634
H  H33  1  0.20700000  0.65510000  0.18860000  1.0 0.1304288634
H  H34  1  0.79300000  0.34490000  0.81140000  1.0 0.1304288634
H  H35  1  0.01690000  0.65100000  0.19550000  1.0 0.1017958634
H  H36  1  0.98310000  0.34900000  0.80450000  1.0 0.1017958634
H  H37  1  0.08360000  0.33870000  0.27930000  1.0 0.1304288634
H  H38  1  0.91640000  0.66130000  0.72070000  1.0 0.1304288634
H  H39  1  0.89350000  0.33900000  0.27640000  1.0 0.1017958634
H  H40  1  0.10650000  0.66100000  0.72360000  1.0 0.1017958634
C  C1  1  0.61320000  0.61220000  0.36056000  1.0 0.5689738992
C  C2  1  0.38680000  0.38780000  0.63944000  1.0 0.5689738992
C  C3  1  0.61410000  0.63770000  0.43889000  1.0 0.0293111211
C  C4  1  0.38590000  0.36230000  0.56111000  1.0 0.0293111211
C  C5  1  0.49650000  0.36730000  0.07200000  1.0 0.0182579989
C  C6  1  0.50350000  0.63270000  0.92800000  1.0 0.0182579989
C  C7  1  0.51240000  0.39270000  0.15116000  1.0 0.5689738992
C  C8  1  0.48760000  0.60730000  0.84884000  1.0 0.5689738992
C  C9  1  0.29430000  0.49980000  0.23509000  1.0 0.5689738992
C  C10  1  0.70570000  0.50020000  0.76491000  1.0 0.5689738992
C  C11  1  0.66810000  0.58870000  0.48934000  1.0 -0.1691041107
C  C12  1  0.33190000  0.41130000  0.51066000  1.0 -0.1691041107
C  C13  1  0.16970000  0.49820000  0.23310000  1.0 0.0182579989
C  C14  1  0.83030000  0.50180000  0.76690000  1.0 0.0182579989
C  C15  1  0.55830000  0.72090000  0.53390000  1.0 0.0584035569
C  C16  1  0.44170000  0.27910000  0.46610000  1.0 0.0584035569
C  C17  1  0.56000000  0.70630000  0.46236000  1.0 -0.1691041107
C  C18  1  0.44000000  0.29370000  0.53764000  1.0 -0.1691041107
C  C19  1  0.59250000  0.21020000  0.27500000  1.0 0.5597293578
C  C20  1  0.40750000  0.78980000  0.72500000  1.0 0.5597293578
C  C21  1  0.59720000  0.42380000  0.03596000  1.0 -0.1600140727
C  C22  1  0.40280000  0.57620000  0.96404000  1.0 -0.1600140727
C  C23  1  0.36150000  0.27380000  0.95910000  1.0 0.0530335062
C  C24  1  0.63850000  0.72620000  0.04090000  1.0 0.0530335062
C  C25  1  0.87640000  0.79460000  0.23920000  1.0 0.5597293578
C  C26  1  0.12360000  0.20540000  0.76080000  1.0 0.5597293578
C  C27  1  0.37830000  0.28850000  0.03250000  1.0 -0.1691041107
C  C28  1  0.62170000  0.71150000  0.96750000  1.0 -0.1691041107
C  C29  1  0.00220000  0.91340000  0.24980000  1.0 0.0182579989
C  C30  1  0.99780000  0.08660000  0.75020000  1.0 0.0182579989
C  C31  1  0.66666667  0.61170000  0.56033000  1.0 0.068133773
C  C32  1  0.33333333  0.38830000  0.43967000  1.0 0.068133773
C  C33  1  0.10380000  0.92890000  0.30040000  1.0 -0.1600140727
C  C34  1  0.89620000  0.07110000  0.69960000  1.0 -0.1600140727
C  C35  1  0.57530000  0.40240000  0.96266000  1.0 0.068133773
C  C36  1  0.42470000  0.59760000  0.03734000  1.0 0.068133773
C  C37  1  0.58390000  0.08550000  0.25460000  1.0 0.0293111211
C  C38  1  0.41610000  0.91450000  0.74540000  1.0 0.0293111211
C  C39  1  0.13150000  0.11800000  0.22300000  1.0 0.068133773
C  C40  1  0.86850000  0.88200000  0.77700000  1.0 0.068133773
C  C41  1  0.21630000  0.04130000  0.30980000  1.0 0.068133773
C  C42  1  0.78370000  0.95870000  0.69020000  1.0 0.068133773
C  C43  1  0.50800000  0.98230000  0.28560000  1.0 -0.1691041107
C  C44  1  0.49200000  0.01770000  0.71440000  1.0 -0.1691041107
C  C45  1  0.65040000  0.07180000  0.20440000  1.0 -0.1691041107
C  C46  1  0.34960000  0.92820000  0.79560000  1.0 -0.1691041107
C  C47  1  0.50380000  0.87040000  0.26650000  1.0 0.0760437601
C  C48  1  0.49620000  0.12960000  0.73350000  1.0 0.0760437601
C  C49  1  0.01730000  0.00950000  0.20970000  1.0 -0.1691041107
C  C50  1  0.98270000  0.99050000  0.79030000  1.0 -0.1691041107
C  C51  1  0.64210000  0.95740000  0.18890000  1.0 0.068133773
C  C52  1  0.35790000  0.04260000  0.81110000  1.0 0.068133773
C  C53  1  0.14560000  0.59040000  0.20800000  1.0 -0.1691041107
C  C54  1  0.85440000  0.40960000  0.79200000  1.0 -0.1691041107
C  C55  1  0.03010000  0.58670000  0.21170000  1.0 0.0913631708
C  C56  1  0.96990000  0.41330000  0.78830000  1.0 0.0913631708
C  C57  1  0.07210000  0.40250000  0.26080000  1.0 -0.1691041107
C  C58  1  0.92790000  0.59750000  0.73920000  1.0 -0.1691041107
C  C59  1  0.95910000  0.40490000  0.26010000  1.0 0.068133773
C  C60  1  0.04090000  0.59510000  0.73990000  1.0 0.068133773
C  C61  1  0.97590000  0.56800000  0.41300000  1.0 0.493470689
C  C62  1  0.02410000  0.43200000  0.58700000  1.0 0.493470689
C  C63  1  0.03400000  0.54830000  0.48260000  1.0 -0.0443568326
C  C64  1  0.96600000  0.45170000  0.51740000  1.0 -0.0443568326
C  C65  1  0.80070000  0.39820000  0.42080000  1.0 0.1105893754
C  C66  1  0.19930000  0.60180000  0.57920000  1.0 0.1105893754
C  C67  1  0.85660000  0.38000000  0.48710000  1.0 -0.1368125475
C  C68  1  0.14340000  0.62000000  0.51290000  1.0 -0.1368125475
N  N1  1  0.45900000  0.33030000  0.92387000  1.0 -0.2492614366
N  N2  1  0.54100000  0.66970000  0.07613000  1.0 -0.2492614366
N  N3  1  0.23010000  0.13560000  0.27249000  1.0 -0.2331119524
N  N4  1  0.76990000  0.86440000  0.72751000  1.0 -0.2331119524
N  N5  1  0.60980000  0.67410000  0.58267000  1.0 -0.2492614366
N  N6  1  0.39020000  0.32590000  0.41733000  1.0 -0.2492614366
N  N7  1  0.56990000  0.85680000  0.21874000  1.0 -0.2331119524
N  N8  1  0.43010000  0.14320000  0.78126000  1.0 -0.2331119524
N  N9  1  0.93770000  0.49620000  0.23730000  1.0 -0.2449036933
N  N10  1  0.06230000  0.50380000  0.76270000  1.0 -0.2492614366
O  O1  1  0.43080000  0.31480000  0.18133000  1.0 -0.5331387318
O  O2  1  0.56920000  0.68520000  0.81867000  1.0 -0.5331387318
O  O3  1  0.61580000  0.51390000  0.34142000  1.0 -0.5988430775
O  O4  1  0.38420000  0.48610000  0.65858000  1.0 -0.5988430775
O  O5  1  0.61030000  0.49370000  0.18108000  1.0 -0.6104411877
O  O6  1  0.38970000  0.50630000  0.81892000  1.0 -0.6104411877
O  O7  1  0.52280000  0.21240000  0.31614000  1.0 -0.55412511
O  O8  1  0.47720000  0.78760000  0.68386000  1.0 -0.55412511
O  O9  1  0.60700000  0.68820000  0.32093000  1.0 -0.5369761384
O  O10  1  0.39300000  0.31180000  0.67907000  1.0 -0.5369761384
O  O11  1  0.31920000  0.43740000  0.27918000  1.0 -0.570272962
O  O12  1  0.68080000  0.56260000  0.72082000  1.0 -0.570272962
O  O13  1  0.36520000  0.56470000  0.19356000  1.0 -0.570272962
O  O14  1  0.63480000  0.43530000  0.80644000  1.0 -0.570272962
O  O15  1  0.78600000  0.79170000  0.19730000  1.0 -0.55412511
O  O16  1  0.21400000  0.20830000  0.80270000  1.0 -0.55412511
O  O17  1  0.67000000  0.29970000  0.24790000  1.0 -0.5593970067
O  O18  1  0.33000000  0.70030000  0.75210000  1.0 -0.5593970067
O  O19  1  0.87420000  0.71040000  0.27574000  1.0 -0.5593970067
O  O20  1  0.12580000  0.28960000  0.72426000  1.0 -0.5593970067
O  O21  1  0.03270000  0.65250000  0.38460000  1.0 -0.3780808247
O  O22  1  0.96730000  0.34750000  0.61540000  1.0 -0.3780808247
O  O23  1  0.85730000  0.49060000  0.38970000  1.0 -0.2331119524
O  O24  1  0.14270000  0.50940000  0.61030000  1.0 -0.2331119524
