# DDEC6 charges by PACMAN v1.1 (https://github.com/mtap-research/PACMAN-charge/)
data_SIWZOP05_ASR_pacman
_symmetry_space_group_name_H-M   'P 1'
_cell_length_a   7.46000000
_cell_length_b   7.88000000
_cell_length_c   13.67000000
_cell_angle_alpha   90.00000000
_cell_angle_beta   90.00000000
_cell_angle_gamma   90.00000000
_symmetry_Int_Tables_number   1
_chemical_formula_structural   MgH6(CO2)3
_chemical_formula_sum   'Mg4 H24 C12 O24'
_cell_volume   803.58821600
_cell_formula_units_Z   4
loop_
 _symmetry_equiv_pos_site_id
 _symmetry_equiv_pos_as_xyz
  1  'x, y, z'
loop_
 _atom_site_type_symbol
 _atom_site_label
 _atom_site_symmetry_multiplicity
 _atom_site_fract_x
 _atom_site_fract_y
 _atom_site_fract_z
 _atom_site_occupancy
 _atom_site_charge
Mg  Mg1  1  0.74800000  0.74900000  0.66666667  1.0 1.2581890909
Mg  Mg2  1  0.75200000  0.25100000  0.16663000  1.0 1.2581890909
Mg  Mg3  1  0.25200000  0.24900000  0.83337000  1.0 1.2581890909
Mg  Mg4  1  0.24800000  0.75100000  0.33337000  1.0 1.2581890909
H  H1  1  0.95400000  0.50500000  0.79597000  1.0 0.0278144162
H  H2  1  0.54600000  0.49500000  0.29597000  1.0 0.0278144162
H  H3  1  0.04600000  0.00500000  0.70403000  1.0 0.0278144162
H  H4  1  0.45400000  0.99500000  0.20403000  1.0 0.0278144162
H  H5  1  0.45800000  0.82900000  0.52497000  1.0 0.0473957951
H  H6  1  0.04200000  0.17100000  0.02497000  1.0 0.0473957951
H  H7  1  0.54200000  0.32900000  0.97503000  1.0 0.0473957951
H  H8  1  0.95800000  0.67100000  0.47503000  1.0 0.0473957951
H  H9  1  0.39500000  0.91600000  0.75197000  1.0 0.0230528099
H  H10  1  0.10500000  0.08400000  0.25197000  1.0 0.0230528099
H  H11  1  0.60500000  0.41600000  0.74803000  1.0 0.0230528099
H  H12  1  0.89500000  0.58400000  0.24803000  1.0 0.0230528099
H  H13  1  0.05900000  0.57900000  0.76297000  1.0 0.0278144162
H  H14  1  0.44100000  0.42100000  0.26297000  1.0 0.0278144162
H  H15  1  0.94100000  0.07900000  0.73703000  1.0 0.0278144162
H  H16  1  0.55900000  0.92100000  0.23703000  1.0 0.0278144162
H  H17  1  0.55900000  0.97800000  0.79897000  1.0 0.0099756498
H  H18  1  0.94100000  0.02200000  0.29897000  1.0 0.0099756498
H  H19  1  0.44100000  0.47800000  0.70103000  1.0 0.0099756498
H  H20  1  0.05900000  0.52200000  0.20103000  1.0 0.0099756498
H  H21  1  0.63900000  0.73200000  0.45697000  1.0 0.098933659
H  H22  1  0.86100000  0.26800000  0.95697000  1.0 0.098933659
H  H23  1  0.36100000  0.23200000  0.04303000  1.0 0.098933659
H  H24  1  0.13900000  0.76800000  0.54303000  1.0 0.098933659
C  C1  1  0.00400000  0.46500000  0.72097000  1.0 0.4091218276
C  C2  1  0.49600000  0.53500000  0.22097000  1.0 0.4091218276
C  C3  1  0.99600000  0.96500000  0.77903000  1.0 0.4091218276
C  C4  1  0.50400000  0.03500000  0.27903000  1.0 0.4091218276
C  C5  1  0.50200000  0.69000000  0.49687000  1.0 0.3804130642
C  C6  1  0.99800000  0.31000000  0.99687000  1.0 0.3804130642
C  C7  1  0.49800000  0.19000000  0.00313000  1.0 0.3804130642
C  C8  1  0.00200000  0.81000000  0.50313000  1.0 0.3804130642
C  C9  1  0.49600000  0.02200000  0.72197000  1.0 0.3910455792
C  C10  1  0.00400000  0.97800000  0.22197000  1.0 0.3910455792
C  C11  1  0.50400000  0.52200000  0.77803000  1.0 0.3910455792
C  C12  1  0.99600000  0.47800000  0.27803000  1.0 0.3910455792
O  O1  1  0.09700000  0.33800000  0.71897000  1.0 -0.4596741708
O  O2  1  0.40300000  0.66200000  0.21897000  1.0 -0.4596741708
O  O3  1  0.90300000  0.83800000  0.78103000  1.0 -0.4596741708
O  O4  1  0.59700000  0.16200000  0.28103000  1.0 -0.4596741708
O  O5  1  0.59400000  0.63700000  0.55657000  1.0 -0.4021897228
O  O6  1  0.90600000  0.36300000  0.05657000  1.0 -0.4021897228
O  O7  1  0.40600000  0.13700000  0.94343000  1.0 -0.4021897228
O  O8  1  0.09400000  0.86300000  0.44343000  1.0 -0.4021897228
O  O9  1  0.40400000  0.63400000  0.43657000  1.0 -0.4523470909
O  O10  1  0.09600000  0.36600000  0.93657000  1.0 -0.4523470909
O  O11  1  0.59600000  0.13400000  0.06343000  1.0 -0.4523470909
O  O12  1  0.90400000  0.86600000  0.56343000  1.0 -0.4523470909
O  O13  1  0.90400000  0.52200000  0.65797000  1.0 -0.4596741708
O  O14  1  0.59600000  0.47800000  0.15797000  1.0 -0.4596741708
O  O15  1  0.09600000  0.02200000  0.84203000  1.0 -0.4596741708
O  O16  1  0.40400000  0.97800000  0.34203000  1.0 -0.4596741708
O  O17  1  0.41200000  0.14800000  0.71897000  1.0 -0.4194366397
O  O18  1  0.08800000  0.85200000  0.21897000  1.0 -0.4194366397
O  O19  1  0.58800000  0.64800000  0.78103000  1.0 -0.4194366397
O  O20  1  0.91200000  0.35200000  0.28103000  1.0 -0.4194366397
O  O21  1  0.59600000  0.96300000  0.65847000  1.0 -0.4804345132
O  O22  1  0.90400000  0.03700000  0.15847000  1.0 -0.4804345132
O  O23  1  0.40400000  0.46300000  0.84153000  1.0 -0.4804345132
O  O24  1  0.09600000  0.53700000  0.34153000  1.0 -0.4804345132
