# DDEC6 charges by PACMAN v1.1 (https://github.com/mtap-research/PACMAN-charge/)
data_SIWZOP06_ASR_pacman
_symmetry_space_group_name_H-M   'P 1'
_cell_length_a   7.52000000
_cell_length_b   7.88000000
_cell_length_c   13.66000000
_cell_angle_alpha   90.00000000
_cell_angle_beta   90.00000000
_cell_angle_gamma   90.00000000
_symmetry_Int_Tables_number   1
_chemical_formula_structural   MgH6(CO2)3
_chemical_formula_sum   'Mg4 H24 C12 O24'
_cell_volume   809.45881600
_cell_formula_units_Z   4
loop_
 _symmetry_equiv_pos_site_id
 _symmetry_equiv_pos_as_xyz
  1  'x, y, z'
loop_
 _atom_site_type_symbol
 _atom_site_label
 _atom_site_symmetry_multiplicity
 _atom_site_fract_x
 _atom_site_fract_y
 _atom_site_fract_z
 _atom_site_occupancy
 _atom_site_charge
Mg  Mg1  1  0.75200000  0.74450000  0.66860000  1.0 1.2644954531
Mg  Mg2  1  0.74800000  0.25550000  0.16860000  1.0 1.2644954531
Mg  Mg3  1  0.24800000  0.24450000  0.83140000  1.0 1.2644954531
Mg  Mg4  1  0.25200000  0.75550000  0.33140000  1.0 1.2644954531
H  H1  1  0.95100000  0.50000000  0.78600000  1.0 0.0596364436
H  H2  1  0.54900000  0.50000000  0.28600000  1.0 0.0596364436
H  H3  1  0.04900000  0.00000000  0.71400000  1.0 0.0596364436
H  H4  1  0.45100000  0.00000000  0.21400000  1.0 0.0596364436
H  H5  1  0.45900000  0.81900000  0.53400000  1.0 0.0409206536
H  H6  1  0.04100000  0.18100000  0.03400000  1.0 0.0409206536
H  H7  1  0.54100000  0.31900000  0.96600000  1.0 0.0409206536
H  H8  1  0.95900000  0.68100000  0.46600000  1.0 0.0409206536
H  H9  1  0.44600000  0.92100000  0.77500000  1.0 0.0596364436
H  H10  1  0.05400000  0.07900000  0.27500000  1.0 0.0596364436
H  H11  1  0.55400000  0.42100000  0.72500000  1.0 0.0596364436
H  H12  1  0.94600000  0.57900000  0.22500000  1.0 0.0596364436
H  H13  1  0.05400000  0.56900000  0.75500000  1.0 0.0596364436
H  H14  1  0.44600000  0.43100000  0.25500000  1.0 0.0596364436
H  H15  1  0.94600000  0.06900000  0.74500000  1.0 0.0596364436
H  H16  1  0.55400000  0.93100000  0.24500000  1.0 0.0596364436
H  H17  1  0.60300000  0.00800000  0.78000000  1.0 0.0596364436
H  H18  1  0.89700000  0.99200000  0.28000000  1.0 0.0596364436
H  H19  1  0.39700000  0.50800000  0.72000000  1.0 0.0596364436
H  H20  1  0.10300000  0.49200000  0.22000000  1.0 0.0596364436
H  H21  1  0.54800000  0.82900000  0.48100000  1.0 0.0409206536
H  H22  1  0.95200000  0.17100000  0.98100000  1.0 0.0409206536
H  H23  1  0.45200000  0.32900000  0.01900000  1.0 0.0409206536
H  H24  1  0.04800000  0.67100000  0.51900000  1.0 0.0409206536
C  C1  1  0.00400000  0.45900000  0.71420000  1.0 0.4141195847
C  C2  1  0.49600000  0.54100000  0.21420000  1.0 0.4141195847
C  C3  1  0.99600000  0.95900000  0.78580000  1.0 0.4141195847
C  C4  1  0.50400000  0.04100000  0.28580000  1.0 0.4141195847
C  C5  1  0.50200000  0.69900000  0.49920000  1.0 0.4141195847
C  C6  1  0.99800000  0.30100000  0.99920000  1.0 0.4141195847
C  C7  1  0.49800000  0.19900000  0.00080000  1.0 0.4141195847
C  C8  1  0.00200000  0.80100000  0.50080000  1.0 0.4141195847
C  C9  1  0.50070000  0.01270000  0.72420000  1.0 0.3854249625
C  C10  1  0.99930000  0.98730000  0.22420000  1.0 0.3854249625
C  C11  1  0.49930000  0.51270000  0.77580000  1.0 0.3854249625
C  C12  1  0.00070000  0.48730000  0.27580000  1.0 0.3854249625
O  O1  1  0.09700000  0.33200000  0.71920000  1.0 -0.4790196543
O  O2  1  0.40300000  0.66800000  0.21920000  1.0 -0.4857261655
O  O3  1  0.90300000  0.83200000  0.78080000  1.0 -0.4857261655
O  O4  1  0.59700000  0.16800000  0.28080000  1.0 -0.4857261655
O  O5  1  0.60700000  0.63400000  0.55780000  1.0 -0.4790196543
O  O6  1  0.89300000  0.36600000  0.05780000  1.0 -0.4790196543
O  O7  1  0.39300000  0.13400000  0.94220000  1.0 -0.4790196543
O  O8  1  0.10700000  0.86600000  0.44220000  1.0 -0.4790196543
O  O9  1  0.40900000  0.63400000  0.43510000  1.0 -0.4857261655
O  O10  1  0.09100000  0.36600000  0.93510000  1.0 -0.4857261655
O  O11  1  0.59100000  0.13400000  0.06490000  1.0 -0.4857261655
O  O12  1  0.90900000  0.86600000  0.56490000  1.0 -0.4857261655
O  O13  1  0.90800000  0.52600000  0.66040000  1.0 -0.4151829274
O  O14  1  0.59200000  0.47400000  0.16040000  1.0 -0.4151829274
O  O15  1  0.09200000  0.02600000  0.83960000  1.0 -0.4151829274
O  O16  1  0.40800000  0.97400000  0.33960000  1.0 -0.4151829274
O  O17  1  0.40300000  0.13900000  0.72030000  1.0 -0.4790196543
O  O18  1  0.09700000  0.86100000  0.22030000  1.0 -0.4790196543
O  O19  1  0.59700000  0.63900000  0.77970000  1.0 -0.4790196543
O  O20  1  0.90300000  0.36100000  0.27970000  1.0 -0.4790196543
O  O21  1  0.59700000  0.96000000  0.65960000  1.0 -0.4555487276
O  O22  1  0.90300000  0.04000000  0.15960000  1.0 -0.4555487276
O  O23  1  0.40300000  0.46000000  0.84040000  1.0 -0.4555487276
O  O24  1  0.09700000  0.54000000  0.34040000  1.0 -0.4555487276
