# DDEC6 charges by PACMAN v1.1 (https://github.com/mtap-research/PACMAN-charge/)
data_SIYXIH_FSR_pacman
_symmetry_space_group_name_H-M   'P 1'
_cell_length_a   8.66400000
_cell_length_b   8.66400000
_cell_length_c   10.86100000
_cell_angle_alpha   90.00000000
_cell_angle_beta   90.00000000
_cell_angle_gamma   120.00000000
_symmetry_Int_Tables_number   1
_chemical_formula_structural   FeH2C7O5
_chemical_formula_sum   'Fe3 H6 C21 O15'
_cell_volume   706.05304870
_cell_formula_units_Z   3
loop_
 _symmetry_equiv_pos_site_id
 _symmetry_equiv_pos_as_xyz
  1  'x, y, z'
loop_
 _atom_site_type_symbol
 _atom_site_label
 _atom_site_symmetry_multiplicity
 _atom_site_fract_x
 _atom_site_fract_y
 _atom_site_fract_z
 _atom_site_occupancy
 _atom_site_charge
Fe  Fe1  1  0.05597000  0.05597000  0.00000000  1.0 1.1921461868
Fe  Fe2  1  0.94403000  0.00000000  0.33333333  1.0 1.1921461868
Fe  Fe3  1  0.00000000  0.94403000  0.66666667  1.0 1.1921461868
H  H1  1  0.10025000  0.46209000  0.00304000  1.0 0.2356658898
H  H2  1  0.53791000  0.63816000  0.33637000  1.0 0.2356658898
H  H3  1  0.36184000  0.89975000  0.66971000  1.0 0.2356658898
H  H4  1  0.46209000  0.10025000  0.99696000  1.0 0.2340364851
H  H5  1  0.63816000  0.53791000  0.66363000  1.0 0.2356658898
H  H6  1  0.89975000  0.36184000  0.33029000  1.0 0.2340364851
C  C1  1  0.75580000  0.00000000  0.83333000  1.0 0.5928015756
C  C2  1  0.00000000  0.75580000  0.16667000  1.0 0.5928015756
C  C3  1  0.24420000  0.24420000  0.50000000  1.0 0.5928015756
C  C4  1  0.58218000  0.00000000  0.83333000  1.0 -0.0090150473
C  C5  1  0.00000000  0.58218000  0.16667000  1.0 -0.0090150473
C  C6  1  0.41782000  0.41782000  0.50000000  1.0 -0.0090150473
C  C7  1  0.47836000  0.94249000  0.72677000  1.0 -0.1032825649
C  C8  1  0.05751000  0.53587000  0.06010000  1.0 -0.1032825649
C  C9  1  0.46413000  0.52164000  0.39344000  1.0 -0.1053925768
C  C10  1  0.94249000  0.47836000  0.27323000  1.0 -0.1032825649
C  C11  1  0.53587000  0.05751000  0.93990000  1.0 -0.1053925768
C  C12  1  0.52164000  0.46413000  0.60656000  1.0 -0.1032825649
C  C13  1  0.31488000  0.94006000  0.72883000  1.0 0.0811142074
C  C14  1  0.05994000  0.37482000  0.06216000  1.0 0.0811142074
C  C15  1  0.62518000  0.68512000  0.39550000  1.0 0.0811142074
C  C16  1  0.94006000  0.31488000  0.27117000  1.0 0.0811142074
C  C17  1  0.37482000  0.05994000  0.93784000  1.0 0.0811142074
C  C18  1  0.68512000  0.62518000  0.60450000  1.0 0.0811142074
C  C19  1  0.26950000  0.00000000  0.83333000  1.0 0.1535186119
C  C20  1  0.00000000  0.26950000  0.16667000  1.0 0.1535186119
C  C21  1  0.73050000  0.73050000  0.50000000  1.0 0.1535186119
O  O1  1  0.81124000  0.97792000  0.93463000  1.0 -0.5158365719
O  O2  1  0.02208000  0.83332000  0.26796000  1.0 -0.5158365719
O  O3  1  0.16668000  0.18876000  0.60130000  1.0 -0.5158365719
O  O4  1  0.97792000  0.81124000  0.06537000  1.0 -0.5158365719
O  O5  1  0.83332000  0.02208000  0.73204000  1.0 -0.5158365719
O  O6  1  0.18876000  0.16668000  0.39870000  1.0 -0.5158365719
O  O7  1  0.19387000  0.88208000  0.63707000  1.0 -0.414072787
O  O8  1  0.11792000  0.31179000  0.97040000  1.0 -0.414072787
O  O9  1  0.68821000  0.80613000  0.30374000  1.0 -0.4151691549
O  O10  1  0.88208000  0.19387000  0.36293000  1.0 -0.4151691549
O  O11  1  0.31179000  0.11792000  0.02960000  1.0 -0.414072787
O  O12  1  0.80613000  0.68821000  0.69626000  1.0 -0.414072787
O  O13  1  0.11330000  0.00000000  0.83333000  1.0 -0.4934038175
O  O14  1  0.00000000  0.11330000  0.16667000  1.0 -0.4934038175
O  O15  1  0.88670000  0.88670000  0.50000000  1.0 -0.4934038175
