# DDEC6 charges by PACMAN v1.1 (https://github.com/mtap-research/PACMAN-charge/)
data_SIZGIS_ASR_pacman
_symmetry_space_group_name_H-M   'P 1'
_cell_length_a   12.61390000
_cell_length_b   15.70050000
_cell_length_c   16.64730000
_cell_angle_alpha   90.00000000
_cell_angle_beta   90.00000000
_cell_angle_gamma   90.00000000
_symmetry_Int_Tables_number   1
_chemical_formula_structural   CdH3(C3O2)3
_chemical_formula_sum   'Cd8 H24 C72 O48'
_cell_volume   3296.90681997
_cell_formula_units_Z   8
loop_
 _symmetry_equiv_pos_site_id
 _symmetry_equiv_pos_as_xyz
  1  'x, y, z'
loop_
 _atom_site_type_symbol
 _atom_site_label
 _atom_site_symmetry_multiplicity
 _atom_site_fract_x
 _atom_site_fract_y
 _atom_site_fract_z
 _atom_site_occupancy
 _atom_site_charge
Cd  Cd1  1  0.89942000  0.00386000  0.58115000  1.0 1.0394042373
Cd  Cd2  1  0.60058000  0.99614000  0.08115000  1.0 1.0394042373
Cd  Cd3  1  0.10058000  0.50386000  0.91885000  1.0 1.0394042373
Cd  Cd4  1  0.39942000  0.49614000  0.41885000  1.0 1.0394042373
Cd  Cd5  1  0.10058000  0.99614000  0.41885000  1.0 1.0394042373
Cd  Cd6  1  0.39942000  0.00386000  0.91885000  1.0 1.0394042373
Cd  Cd7  1  0.89942000  0.49614000  0.08115000  1.0 1.0394042373
Cd  Cd8  1  0.60058000  0.50386000  0.58115000  1.0 1.0394042373
H  H1  1  0.77420000  0.03650000  0.85780000  1.0 0.1530934988
H  H2  1  0.72580000  0.96350000  0.35780000  1.0 0.1530934988
H  H3  1  0.22580000  0.53650000  0.64220000  1.0 0.1530934988
H  H4  1  0.27420000  0.46350000  0.14220000  1.0 0.1530934988
H  H5  1  0.22580000  0.96350000  0.14220000  1.0 0.1530934988
H  H6  1  0.27420000  0.03650000  0.64220000  1.0 0.1530934988
H  H7  1  0.77420000  0.46350000  0.35780000  1.0 0.1530934988
H  H8  1  0.72580000  0.53650000  0.85780000  1.0 0.1530934988
H  H9  1  0.83690000  0.24270000  0.01540000  1.0 0.1601308748
H  H10  1  0.66310000  0.75730000  0.51540000  1.0 0.1601308748
H  H11  1  0.16310000  0.74270000  0.48460000  1.0 0.1601308748
H  H12  1  0.33690000  0.25730000  0.98460000  1.0 0.1601308748
H  H13  1  0.16310000  0.75730000  0.98460000  1.0 0.1601308748
H  H14  1  0.33690000  0.24270000  0.48460000  1.0 0.1601308748
H  H15  1  0.83690000  0.25730000  0.51540000  1.0 0.1601308748
H  H16  1  0.66310000  0.74270000  0.01540000  1.0 0.1601308748
H  H17  1  0.94470000  0.24660000  0.79180000  1.0 0.1530934988
H  H18  1  0.55530000  0.75340000  0.29180000  1.0 0.1530934988
H  H19  1  0.05530000  0.74660000  0.70820000  1.0 0.1530934988
H  H20  1  0.44470000  0.25340000  0.20820000  1.0 0.1530934988
H  H21  1  0.05530000  0.75340000  0.20820000  1.0 0.1530934988
H  H22  1  0.44470000  0.24660000  0.70820000  1.0 0.1530934988
H  H23  1  0.94470000  0.25340000  0.29180000  1.0 0.1530934988
H  H24  1  0.55530000  0.74660000  0.79180000  1.0 0.1530934988
C  C1  1  0.90338000  0.26358000  0.90928000  1.0 0.0186851908
C  C2  1  0.59662000  0.73642000  0.40928000  1.0 0.0186851908
C  C3  1  0.09662000  0.76358000  0.59072000  1.0 0.0186851908
C  C4  1  0.40338000  0.23642000  0.09072000  1.0 0.0186851908
C  C5  1  0.09662000  0.73642000  0.09072000  1.0 0.0186851908
C  C6  1  0.40338000  0.26358000  0.59072000  1.0 0.0186851908
C  C7  1  0.90338000  0.23642000  0.40928000  1.0 0.0186851908
C  C8  1  0.59662000  0.76358000  0.90928000  1.0 0.0186851908
C  C9  1  0.80388000  0.08980000  0.86693000  1.0 -0.1030208155
C  C10  1  0.69612000  0.91020000  0.36693000  1.0 -0.1030208155
C  C11  1  0.19612000  0.58980000  0.63307000  1.0 -0.1030208155
C  C12  1  0.30388000  0.41020000  0.13307000  1.0 -0.1030208155
C  C13  1  0.19612000  0.91020000  0.13307000  1.0 -0.1030208155
C  C14  1  0.30388000  0.08980000  0.63307000  1.0 -0.1030208155
C  C15  1  0.80388000  0.41020000  0.36693000  1.0 -0.1030208155
C  C16  1  0.69612000  0.58980000  0.86693000  1.0 -0.1030208155
C  C17  1  0.85954000  0.13297000  0.81125000  1.0 0.0356211528
C  C18  1  0.64046000  0.86703000  0.31125000  1.0 0.0356211528
C  C19  1  0.14046000  0.63297000  0.68875000  1.0 0.0343640536
C  C20  1  0.35954000  0.36703000  0.18875000  1.0 0.0343640536
C  C21  1  0.14046000  0.86703000  0.18875000  1.0 0.0343640536
C  C22  1  0.35954000  0.13297000  0.68875000  1.0 0.0343640536
C  C23  1  0.85954000  0.36703000  0.31125000  1.0 0.0356211528
C  C24  1  0.64046000  0.63297000  0.81125000  1.0 0.0356211528
C  C25  1  0.96079000  0.35424000  0.93098000  1.0 0.5797649712
C  C26  1  0.53921000  0.64576000  0.43098000  1.0 0.5797649712
C  C27  1  0.03921000  0.85424000  0.56902000  1.0 0.5797649712
C  C28  1  0.46079000  0.14576000  0.06902000  1.0 0.5797649712
C  C29  1  0.03921000  0.64576000  0.06902000  1.0 0.5797649712
C  C30  1  0.46079000  0.35424000  0.56902000  1.0 0.5797649712
C  C31  1  0.96079000  0.14576000  0.43098000  1.0 0.5797649712
C  C32  1  0.53921000  0.85424000  0.93098000  1.0 0.5797649712
C  C33  1  0.86754000  0.08401000  0.72909000  1.0 0.5208572611
C  C34  1  0.63246000  0.91599000  0.22909000  1.0 0.5208572611
C  C35  1  0.13246000  0.58401000  0.77091000  1.0 0.5208572611
C  C36  1  0.36754000  0.41599000  0.27091000  1.0 0.5208572611
C  C37  1  0.13246000  0.91599000  0.27091000  1.0 0.5208572611
C  C38  1  0.36754000  0.08401000  0.77091000  1.0 0.5208572611
C  C39  1  0.86754000  0.41599000  0.22909000  1.0 0.5208572611
C  C40  1  0.63246000  0.58401000  0.72909000  1.0 0.5208572611
C  C41  1  0.84576000  0.22031000  0.96408000  1.0 -0.0815028786
C  C42  1  0.65424000  0.77969000  0.46408000  1.0 -0.0815028786
C  C43  1  0.15424000  0.72031000  0.53592000  1.0 -0.0815028786
C  C44  1  0.34576000  0.27969000  0.03592000  1.0 -0.0815028786
C  C45  1  0.15424000  0.77969000  0.03592000  1.0 -0.0815028786
C  C46  1  0.34576000  0.22031000  0.53592000  1.0 -0.0815028786
C  C47  1  0.84576000  0.27969000  0.46408000  1.0 -0.0815028786
C  C48  1  0.65424000  0.72031000  0.96408000  1.0 -0.0815028786
C  C49  1  0.90788000  0.21918000  0.83267000  1.0 -0.0720794856
C  C50  1  0.59212000  0.78082000  0.33267000  1.0 -0.0815028786
C  C51  1  0.09212000  0.71918000  0.66733000  1.0 -0.0720794856
C  C52  1  0.40788000  0.28082000  0.16733000  1.0 -0.0720794856
C  C53  1  0.09212000  0.78082000  0.16733000  1.0 -0.0720794856
C  C54  1  0.40788000  0.21918000  0.66733000  1.0 -0.0720794856
C  C55  1  0.90788000  0.28082000  0.33267000  1.0 -0.0815028786
C  C56  1  0.59212000  0.71918000  0.83267000  1.0 -0.0720794856
C  C57  1  0.79502000  0.13510000  0.94269000  1.0 0.0043800399
C  C58  1  0.70498000  0.86490000  0.44269000  1.0 0.0059861382
C  C59  1  0.20498000  0.63510000  0.55731000  1.0 0.0043800399
C  C60  1  0.29502000  0.36490000  0.05731000  1.0 0.0059861382
C  C61  1  0.20498000  0.86490000  0.05731000  1.0 0.0059861382
C  C62  1  0.29502000  0.13510000  0.55731000  1.0 0.0043800399
C  C63  1  0.79502000  0.36490000  0.44269000  1.0 0.0059861382
C  C64  1  0.70498000  0.63510000  0.94269000  1.0 0.0043800399
C  C65  1  0.72928000  0.08998000  0.99974000  1.0 0.4824732706
C  C66  1  0.77072000  0.91002000  0.49974000  1.0 0.4824732706
C  C67  1  0.27072000  0.58998000  0.50026000  1.0 0.4824732706
C  C68  1  0.22928000  0.41002000  0.00026000  1.0 0.4824732706
C  C69  1  0.27072000  0.91002000  0.00026000  1.0 0.4824732706
C  C70  1  0.22928000  0.08998000  0.50026000  1.0 0.4824732706
C  C71  1  0.72928000  0.41002000  0.49974000  1.0 0.4824732706
C  C72  1  0.77072000  0.58998000  0.99974000  1.0 0.4824732706
O  O1  1  0.90817000  0.13507000  0.67619000  1.0 -0.4837330937
O  O2  1  0.59183000  0.86493000  0.17619000  1.0 -0.4837330937
O  O3  1  0.09183000  0.63507000  0.82381000  1.0 -0.4857761323
O  O4  1  0.40817000  0.36493000  0.32381000  1.0 -0.4837330937
O  O5  1  0.09183000  0.86493000  0.32381000  1.0 -0.4837330937
O  O6  1  0.40817000  0.13507000  0.82381000  1.0 -0.4857761323
O  O7  1  0.90817000  0.36493000  0.17619000  1.0 -0.4837330937
O  O8  1  0.59183000  0.63507000  0.67619000  1.0 -0.4837330937
O  O9  1  0.97377000  0.37538000  0.00314000  1.0 -0.4681122027
O  O10  1  0.52623000  0.62462000  0.50314000  1.0 -0.4681122027
O  O11  1  0.02623000  0.87538000  0.49686000  1.0 -0.4681122027
O  O12  1  0.47377000  0.12462000  0.99686000  1.0 -0.4681122027
O  O13  1  0.02623000  0.62462000  0.99686000  1.0 -0.4681122027
O  O14  1  0.47377000  0.37538000  0.49686000  1.0 -0.4681122027
O  O15  1  0.97377000  0.12462000  0.50314000  1.0 -0.4681122027
O  O16  1  0.52623000  0.87538000  0.00314000  1.0 -0.4681122027
O  O17  1  0.99608000  0.40238000  0.87339000  1.0 -0.4578562736
O  O18  1  0.50392000  0.59762000  0.37339000  1.0 -0.4578562736
O  O19  1  0.00392000  0.90238000  0.62661000  1.0 -0.4578562736
O  O20  1  0.49608000  0.09762000  0.12661000  1.0 -0.4578562736
O  O21  1  0.00392000  0.59762000  0.12661000  1.0 -0.4578562736
O  O22  1  0.49608000  0.40238000  0.62661000  1.0 -0.4578562736
O  O23  1  0.99608000  0.09762000  0.37339000  1.0 -0.4578562736
O  O24  1  0.50392000  0.90238000  0.87339000  1.0 -0.4578562736
O  O25  1  0.70677000  0.14232000  0.05872000  1.0 -0.4329783939
O  O26  1  0.79323000  0.85768000  0.55872000  1.0 -0.4329783939
O  O27  1  0.29323000  0.64232000  0.44128000  1.0 -0.4329783939
O  O28  1  0.20677000  0.35768000  0.94128000  1.0 -0.4329783939
O  O29  1  0.29323000  0.85768000  0.94128000  1.0 -0.4329783939
O  O30  1  0.20677000  0.14232000  0.44128000  1.0 -0.4329783939
O  O31  1  0.70677000  0.35768000  0.55872000  1.0 -0.4329783939
O  O32  1  0.79323000  0.64232000  0.05872000  1.0 -0.4329783939
O  O33  1  0.83468000  0.99731000  0.71499000  1.0 -0.5132008553
O  O34  1  0.66532000  0.00269000  0.21499000  1.0 -0.5132008553
O  O35  1  0.16532000  0.49731000  0.78501000  1.0 -0.5132008553
O  O36  1  0.33468000  0.50269000  0.28501000  1.0 -0.5132008553
O  O37  1  0.16532000  0.00269000  0.28501000  1.0 -0.5132008553
O  O38  1  0.33468000  0.99731000  0.78501000  1.0 -0.5132008553
O  O39  1  0.83468000  0.50269000  0.21499000  1.0 -0.5132008553
O  O40  1  0.66532000  0.49731000  0.71499000  1.0 -0.5132008553
O  O41  1  0.69655000  0.00315000  0.98289000  1.0 -0.5323278889
O  O42  1  0.80345000  0.99685000  0.48289000  1.0 -0.5323278889
O  O43  1  0.30345000  0.50315000  0.51711000  1.0 -0.5323278889
O  O44  1  0.19655000  0.49685000  0.01711000  1.0 -0.5323278889
O  O45  1  0.30345000  0.99685000  0.01711000  1.0 -0.5323278889
O  O46  1  0.19655000  0.00315000  0.51711000  1.0 -0.5323278889
O  O47  1  0.69655000  0.49685000  0.48289000  1.0 -0.5323278889
O  O48  1  0.80345000  0.50315000  0.98289000  1.0 -0.5323278889
