# DDEC6 charges by PACMAN v1.1 (https://github.com/mtap-research/PACMAN-charge/)
data_SIZJUH_FSR_pacman
_symmetry_space_group_name_H-M   'P 1'
_cell_length_a   18.52430000
_cell_length_b   18.52430000
_cell_length_c   13.38400000
_cell_angle_alpha   70.40850000
_cell_angle_beta   109.59100000
_cell_angle_gamma   109.83100000
_symmetry_Int_Tables_number   1
_chemical_formula_structural   Na4Mo5H6C5NO31
_chemical_formula_sum   'Na16 Mo20 H24 C20 N4 O124'
_cell_volume   3941.00195440
_cell_formula_units_Z   4
loop_
 _symmetry_equiv_pos_site_id
 _symmetry_equiv_pos_as_xyz
  1  'x, y, z'
loop_
 _atom_site_type_symbol
 _atom_site_label
 _atom_site_symmetry_multiplicity
 _atom_site_fract_x
 _atom_site_fract_y
 _atom_site_fract_z
 _atom_site_occupancy
 _atom_site_charge
Na  Na1  1  0.78770000  0.14350000  0.74170000  1.0 1.0529707336
Na  Na2  1  0.14350000  0.78770000  0.75830000  1.0 1.0529707336
Na  Na3  1  0.21230000  0.85650000  0.25830000  1.0 1.0529707336
Na  Na4  1  0.85650000  0.21230000  0.24170000  1.0 1.0529707336
Na  Na5  1  0.80140000  0.26880000  0.49900000  1.0 1.0867585205
Na  Na6  1  0.26880000  0.80140000  0.00100000  1.0 1.0867585205
Na  Na7  1  0.19860000  0.73120000  0.50100000  1.0 1.0867585205
Na  Na8  1  0.73120000  0.19860000  0.99900000  1.0 1.0867585205
Na  Na9  1  0.48700000  0.77080000  0.99160000  1.0 1.1610811316
Na  Na10  1  0.77080000  0.48700000  0.50840000  1.0 1.1610811316
Na  Na11  1  0.51300000  0.22920000  0.00840000  1.0 1.1768017375
Na  Na12  1  0.22920000  0.51300000  0.49160000  1.0 1.1768017375
Na  Na13  1  0.37450000  0.16130000  0.73410000  1.0 0.9026953541
Na  Na14  1  0.16130000  0.37450000  0.76590000  1.0 0.9026953541
Na  Na15  1  0.62550000  0.83870000  0.26590000  1.0 0.9026953541
Na  Na16  1  0.83870000  0.62550000  0.23410000  1.0 0.9026953541
Mo  Mo1  1  0.56461000  0.01527000  0.62303000  1.0 2.16771793
Mo  Mo2  1  0.01527000  0.56461000  0.87697000  1.0 2.16771793
Mo  Mo3  1  0.43539000  0.98473000  0.37697000  1.0 2.16771793
Mo  Mo4  1  0.98473000  0.43539000  0.12303000  1.0 2.16771793
Mo  Mo5  1  0.76188000  0.93326000  0.90159000  1.0 1.9526075088
Mo  Mo6  1  0.93326000  0.76188000  0.59841000  1.0 1.9526075088
Mo  Mo7  1  0.23812000  0.06674000  0.09841000  1.0 1.9526075088
Mo  Mo8  1  0.06674000  0.23812000  0.40159000  1.0 1.9526075088
Mo  Mo9  1  0.37091000  0.03357000  0.53607000  1.0 2.1463978254
Mo  Mo10  1  0.03357000  0.37091000  0.96393000  1.0 2.1463978254
Mo  Mo11  1  0.62909000  0.96643000  0.46393000  1.0 2.1463978254
Mo  Mo12  1  0.96643000  0.62909000  0.03607000  1.0 2.1463978254
Mo  Mo13  1  0.57526000  0.82586000  0.73652000  1.0 2.186726328
Mo  Mo14  1  0.82586000  0.57526000  0.76348000  1.0 2.186726328
Mo  Mo15  1  0.42474000  0.17414000  0.26348000  1.0 2.186726328
Mo  Mo16  1  0.17414000  0.42474000  0.23652000  1.0 2.186726328
Mo  Mo17  1  0.40160000  0.85940000  0.67552000  1.0 2.0485554301
Mo  Mo18  1  0.85940000  0.40160000  0.82448000  1.0 2.0284306371
Mo  Mo19  1  0.59840000  0.14060000  0.32448000  1.0 2.0485554301
Mo  Mo20  1  0.14060000  0.59840000  0.17552000  1.0 2.0284306371
H  H1  1  0.74810000  0.74970000  0.86010000  1.0 0.17826771
H  H2  1  0.74970000  0.74810000  0.63990000  1.0 0.17826771
H  H3  1  0.25190000  0.25030000  0.13990000  1.0 0.17826771
H  H4  1  0.25030000  0.25190000  0.36010000  1.0 0.17826771
H  H5  1  0.82580000  0.73740000  0.95050000  1.0 0.1734245644
H  H6  1  0.73740000  0.82580000  0.54950000  1.0 0.1734245644
H  H7  1  0.17420000  0.26260000  0.04950000  1.0 0.1734245644
H  H8  1  0.26260000  0.17420000  0.45050000  1.0 0.1734245644
H  H9  1  0.94270000  0.91710000  0.89180000  1.0 0.17826771
H  H10  1  0.91710000  0.94270000  0.60820000  1.0 0.17826771
H  H11  1  0.05730000  0.08290000  0.10820000  1.0 0.17826771
H  H12  1  0.08290000  0.05730000  0.39180000  1.0 0.17826771
H  H13  1  0.93510000  0.83070000  0.96730000  1.0 0.1734245644
H  H14  1  0.83070000  0.93510000  0.53270000  1.0 0.1734245644
H  H15  1  0.06490000  0.16930000  0.03270000  1.0 0.1734245644
H  H16  1  0.16930000  0.06490000  0.46730000  1.0 0.1734245644
H  H17  1  0.76810000  0.85450000  0.72150000  1.0 0.143663358
H  H18  1  0.85450000  0.76810000  0.77850000  1.0 0.143663358
H  H19  1  0.23190000  0.14550000  0.27850000  1.0 0.143663358
H  H20  1  0.14550000  0.23190000  0.22150000  1.0 0.143663358
H  H21  1  0.84420000  0.92500000  0.73240000  1.0 0.143663358
H  H22  1  0.92500000  0.84420000  0.76760000  1.0 0.143663358
H  H23  1  0.15580000  0.07500000  0.26760000  1.0 0.143663358
H  H24  1  0.07500000  0.15580000  0.23240000  1.0 0.143663358
C  C1  1  0.74760000  0.75700000  0.00680000  1.0 0.6550741159
C  C2  1  0.75700000  0.74760000  0.49320000  1.0 0.6550741159
C  C3  1  0.25240000  0.24300000  0.99320000  1.0 0.6544259154
C  C4  1  0.24300000  0.25240000  0.50680000  1.0 0.6544259154
C  C5  1  0.78730000  0.76890000  0.92090000  1.0 -0.2783366851
C  C6  1  0.76890000  0.78730000  0.57910000  1.0 -0.2783366851
C  C7  1  0.21270000  0.23110000  0.07910000  1.0 -0.2783366851
C  C8  1  0.23110000  0.21270000  0.42090000  1.0 -0.2783366851
C  C9  1  0.91290000  0.87610000  0.94120000  1.0 -0.268406745
C  C10  1  0.87610000  0.91290000  0.55880000  1.0 -0.268406745
C  C11  1  0.08710000  0.12390000  0.05880000  1.0 -0.268406745
C  C12  1  0.12390000  0.08710000  0.44120000  1.0 -0.268406745
C  C13  1  0.92210000  0.90610000  0.03650000  1.0 0.6228276157
C  C14  1  0.90610000  0.92210000  0.46350000  1.0 0.6228276157
C  C15  1  0.07790000  0.09390000  0.96350000  1.0 0.6228276157
C  C16  1  0.09390000  0.07790000  0.53650000  1.0 0.6228276157
C  C17  1  0.82330000  0.86870000  0.76070000  1.0 -0.1058563925
C  C18  1  0.86870000  0.82330000  0.73930000  1.0 -0.1058563925
C  C19  1  0.17670000  0.13130000  0.23930000  1.0 -0.1058563925
C  C20  1  0.13130000  0.17670000  0.26070000  1.0 -0.1058563925
N  N1  1  0.82819000  0.85261000  0.87960000  1.0 -0.0963369197
N  N2  1  0.85261000  0.82819000  0.62040000  1.0 -0.0963369197
N  N3  1  0.17181000  0.14739000  0.12040000  1.0 -0.0949515439
N  N4  1  0.14739000  0.17181000  0.37960000  1.0 -0.0949515439
O  O1  1  0.72830000  0.68990000  0.06530000  1.0 -0.3878946093
O  O2  1  0.68990000  0.72830000  0.43470000  1.0 -0.3878946093
O  O3  1  0.27170000  0.31010000  0.93470000  1.0 -0.3878946093
O  O4  1  0.31010000  0.27170000  0.56530000  1.0 -0.3878946093
O  O5  1  0.60820000  0.76880000  0.69290000  1.0 -0.5744191246
O  O6  1  0.76880000  0.60820000  0.80710000  1.0 -0.5753493345
O  O7  1  0.39180000  0.23120000  0.30710000  1.0 -0.5744191246
O  O8  1  0.23120000  0.39180000  0.19290000  1.0 -0.5744191246
O  O9  1  0.50645000  0.07495000  0.61680000  1.0 -0.6725890524
O  O10  1  0.07495000  0.50645000  0.88320000  1.0 -0.6725890524
O  O11  1  0.49355000  0.92505000  0.38320000  1.0 -0.6725890524
O  O12  1  0.92505000  0.49355000  0.11680000  1.0 -0.6725890524
O  O13  1  0.65760000  0.06040000  0.68530000  1.0 -0.6010778474
O  O14  1  0.06040000  0.65760000  0.81470000  1.0 -0.6010778474
O  O15  1  0.34240000  0.93960000  0.31470000  1.0 -0.6010778474
O  O16  1  0.93960000  0.34240000  0.18530000  1.0 -0.6010778474
O  O17  1  0.67940000  0.89200000  0.80000000  1.0 -0.7897930033
O  O18  1  0.89200000  0.67940000  0.70000000  1.0 -0.784560237
O  O19  1  0.32060000  0.10800000  0.20000000  1.0 -0.7897930033
O  O20  1  0.10800000  0.32060000  0.30000000  1.0 -0.7897930033
O  O21  1  0.56140000  0.77140000  0.86310000  1.0 -0.6010778474
O  O22  1  0.77140000  0.56140000  0.63690000  1.0 -0.6010778474
O  O23  1  0.43860000  0.22860000  0.13690000  1.0 -0.6010778474
O  O24  1  0.22860000  0.43860000  0.36310000  1.0 -0.6010778474
O  O25  1  0.53107000  0.92553000  0.73240000  1.0 -0.9081131182
O  O26  1  0.92553000  0.53107000  0.76760000  1.0 -0.9081131182
O  O27  1  0.46893000  0.07447000  0.26760000  1.0 -0.9081131182
O  O28  1  0.07447000  0.46893000  0.23240000  1.0 -0.9081131182
O  O29  1  0.43328000  0.95114000  0.52960000  1.0 -0.9883530176
O  O30  1  0.95114000  0.43328000  0.97040000  1.0 -0.9883530176
O  O31  1  0.56672000  0.04886000  0.47040000  1.0 -0.9883530176
O  O32  1  0.04886000  0.56672000  0.02960000  1.0 -0.9883530176
O  O33  1  0.27320000  0.99120000  0.48040000  1.0 -0.5127190984
O  O34  1  0.99120000  0.27320000  0.01960000  1.0 -0.5127190984
O  O35  1  0.72680000  0.00880000  0.51960000  1.0 -0.5127190984
O  O36  1  0.00880000  0.72680000  0.98040000  1.0 -0.5127190984
O  O37  1  0.81442000  0.01198000  0.82380000  1.0 -0.5856566019
O  O38  1  0.01198000  0.81442000  0.67620000  1.0 -0.5856566019
O  O39  1  0.18558000  0.98802000  0.17620000  1.0 -0.5856566019
O  O40  1  0.98802000  0.18558000  0.32380000  1.0 -0.5856566019
O  O41  1  0.39910000  0.81290000  0.80940000  1.0 -0.6065001524
O  O42  1  0.81290000  0.39910000  0.69060000  1.0 -0.6010778474
O  O43  1  0.60090000  0.18710000  0.19060000  1.0 -0.6010778474
O  O44  1  0.18710000  0.60090000  0.30940000  1.0 -0.6010778474
O  O45  1  0.59284000  0.92296000  0.59300000  1.0 -0.9081131182
O  O46  1  0.92296000  0.59284000  0.90700000  1.0 -0.9081131182
O  O47  1  0.40716000  0.07704000  0.40700000  1.0 -0.9081131182
O  O48  1  0.07704000  0.40716000  0.09300000  1.0 -0.9081131182
O  O49  1  0.72340000  0.97160000  0.96720000  1.0 -0.4314263351
O  O50  1  0.97160000  0.72340000  0.53280000  1.0 -0.4314263351
O  O51  1  0.27660000  0.02840000  0.03280000  1.0 -0.4314263351
O  O52  1  0.02840000  0.27660000  0.46720000  1.0 -0.4314263351
O  O53  1  0.86461000  0.93259000  0.03300000  1.0 -0.5223861671
O  O54  1  0.93259000  0.86461000  0.46700000  1.0 -0.5223861671
O  O55  1  0.13539000  0.06741000  0.96700000  1.0 -0.5223861671
O  O56  1  0.06741000  0.13539000  0.53300000  1.0 -0.5223861671
O  O57  1  0.46541000  0.80379000  0.65640000  1.0 -0.8067904896
O  O58  1  0.80379000  0.46541000  0.84360000  1.0 -0.8067904896
O  O59  1  0.53459000  0.19621000  0.34360000  1.0 -0.8067904896
O  O60  1  0.19621000  0.53459000  0.15640000  1.0 -0.8067904896
O  O61  1  0.31320000  0.81680000  0.59970000  1.0 -0.5287524498
O  O62  1  0.81680000  0.31320000  0.90030000  1.0 -0.5287524498
O  O63  1  0.68680000  0.18320000  0.40030000  1.0 -0.5287524498
O  O64  1  0.18320000  0.68680000  0.09970000  1.0 -0.5287524498
O  O65  1  0.38049000  0.95491000  0.67540000  1.0 -0.7897930033
O  O66  1  0.95491000  0.38049000  0.82460000  1.0 -0.7897930033
O  O67  1  0.61951000  0.04509000  0.32460000  1.0 -0.7897930033
O  O68  1  0.04509000  0.61951000  0.17540000  1.0 -0.7897930033
O  O69  1  0.36744000  0.11376000  0.56970000  1.0 -0.6800562925
O  O70  1  0.11376000  0.36744000  0.93030000  1.0 -0.6800562925
O  O71  1  0.63256000  0.88624000  0.43030000  1.0 -0.6800562925
O  O72  1  0.88624000  0.63256000  0.06970000  1.0 -0.6800562925
O  O73  1  0.98270000  0.90810000  0.10960000  1.0 -0.3638679124
O  O74  1  0.90810000  0.98270000  0.39040000  1.0 -0.3638679124
O  O75  1  0.01730000  0.09190000  0.89040000  1.0 -0.3638679124
O  O76  1  0.09190000  0.01730000  0.60960000  1.0 -0.3638679124
O  O77  1  0.73394000  0.81806000  0.01460000  1.0 -0.4659482873
O  O78  1  0.81806000  0.73394000  0.48540000  1.0 -0.4659482873
O  O79  1  0.26606000  0.18194000  0.98540000  1.0 -0.4659482873
O  O80  1  0.18194000  0.26606000  0.51460000  1.0 -0.4648544825
O  O81  1  0.82670000  0.13570000  0.60120000  1.0 -0.4108092672
O  O82  1  0.13570000  0.82670000  0.89880000  1.0 -0.4108092672
O  O83  1  0.17330000  0.86430000  0.39880000  1.0 -0.4108092672
O  O84  1  0.86430000  0.17330000  0.10120000  1.0 -0.4108092672
O  O85  1  0.73880000  0.25240000  0.62950000  1.0 -0.6800562925
O  O86  1  0.25240000  0.73880000  0.87050000  1.0 -0.6800562925
O  O87  1  0.26120000  0.74760000  0.37050000  1.0 -0.6800562925
O  O88  1  0.74760000  0.26120000  0.12950000  1.0 -0.6800562925
O  O89  1  0.91360000  0.19080000  0.83880000  1.0 0.0165552736
O  O90  1  0.19080000  0.91360000  0.66120000  1.0 0.0141570583
O  O91  1  0.08640000  0.80920000  0.16120000  1.0 0.0165552736
O  O92  1  0.80920000  0.08640000  0.33880000  1.0 0.0165552736
O  O93  1  0.73660000  0.13600000  0.88930000  1.0 -0.7093658633
O  O94  1  0.13600000  0.73660000  0.61070000  1.0 -0.7093658633
O  O95  1  0.26340000  0.86400000  0.11070000  1.0 -0.7093658633
O  O96  1  0.86400000  0.26340000  0.38930000  1.0 -0.7168411053
O  O97  1  0.55470000  0.92270000  0.95330000  1.0 0.1501241215
O  O98  1  0.92270000  0.55470000  0.54670000  1.0 0.1563764774
O  O99  1  0.44530000  0.07730000  0.04670000  1.0 0.1501241215
O  O100  1  0.07730000  0.44530000  0.45330000  1.0 0.1563764774
O  O101  1  0.92720000  0.36260000  0.60330000  1.0 0.1501241215
O  O102  1  0.36260000  0.92720000  0.89670000  1.0 0.1501241215
O  O103  1  0.07280000  0.63740000  0.39670000  1.0 0.1501241215
O  O104  1  0.63740000  0.07280000  0.10330000  1.0 0.1501241215
O  O105  1  0.49280000  0.09080000  0.82100000  1.0 -0.1386163917
O  O106  1  0.09080000  0.49280000  0.67900000  1.0 -0.1386163917
O  O107  1  0.50720000  0.90920000  0.17900000  1.0 -0.1386163917
O  O108  1  0.90920000  0.50720000  0.32100000  1.0 -0.1295049376
O  O109  1  0.76360000  0.39300000  0.40300000  1.0 -0.3715968169
O  O110  1  0.39300000  0.76360000  0.09700000  1.0 -0.3878946093
O  O111  1  0.23640000  0.60700000  0.59700000  1.0 -0.3878946093
O  O112  1  0.60700000  0.23640000  0.90300000  1.0 -0.3715968169
O  O113  1  0.60810000  0.78290000  0.11600000  1.0 -0.7093658633
O  O114  1  0.78290000  0.60810000  0.38400000  1.0 -0.7168411053
O  O115  1  0.39190000  0.21710000  0.88400000  1.0 -0.7168411053
O  O116  1  0.21710000  0.39190000  0.61600000  1.0 -0.7168411053
O  O117  1  0.42560000  0.65320000  0.99500000  1.0 -0.7691880799
O  O118  1  0.65320000  0.42560000  0.50500000  1.0 -0.784560237
O  O119  1  0.57440000  0.34680000  0.00500000  1.0 -0.7897930033
O  O120  1  0.34680000  0.57440000  0.49500000  1.0 -0.7691880799
O  O121  1  0.26870000  0.04230000  0.78400000  1.0 -0.0114328227
O  O122  1  0.04230000  0.26870000  0.71600000  1.0 -0.0114328227
O  O123  1  0.73130000  0.95770000  0.21600000  1.0 -0.0114328227
O  O124  1  0.95770000  0.73130000  0.28400000  1.0 -0.0114328227
