# DDEC6 charges by PACMAN v1.1 (https://github.com/mtap-research/PACMAN-charge/)
data_SIZPAT_FSR_pacman
_symmetry_space_group_name_H-M   'P 1'
_cell_length_a   14.12700000
_cell_length_b   15.53200000
_cell_length_c   16.64500000
_cell_angle_alpha   90.00000000
_cell_angle_beta   90.00000000
_cell_angle_gamma   90.00000000
_symmetry_Int_Tables_number   1
_chemical_formula_structural   PrNi2H32C22S4(N3O8)2
_chemical_formula_sum   'Pr4 Ni8 H128 C88 S16 N24 O64'
_cell_volume   3652.25528778
_cell_formula_units_Z   4
loop_
 _symmetry_equiv_pos_site_id
 _symmetry_equiv_pos_as_xyz
  1  'x, y, z'
loop_
 _atom_site_type_symbol
 _atom_site_label
 _atom_site_symmetry_multiplicity
 _atom_site_fract_x
 _atom_site_fract_y
 _atom_site_fract_z
 _atom_site_occupancy
 _atom_site_charge
Pr  Pr1  1  0.89088000  0.25000000  0.25000000  1.0 2.0461371
Pr  Pr2  1  0.60912000  0.75000000  0.75000000  1.0 2.0461371
Pr  Pr3  1  0.10912000  0.75000000  0.75000000  1.0 2.0461371
Pr  Pr4  1  0.39088000  0.25000000  0.25000000  1.0 2.0461371
Ni  Ni1  1  0.71352000  0.43922000  0.11521000  1.0 0.6293659265
Ni  Ni2  1  0.71352000  0.06078000  0.38479000  1.0 0.6293659265
Ni  Ni3  1  0.78648000  0.56078000  0.61521000  1.0 0.6293659265
Ni  Ni4  1  0.78648000  0.93922000  0.88479000  1.0 0.6293659265
Ni  Ni5  1  0.28648000  0.56078000  0.88479000  1.0 0.6293659265
Ni  Ni6  1  0.28648000  0.93922000  0.61521000  1.0 0.6293659265
Ni  Ni7  1  0.21352000  0.43922000  0.38479000  1.0 0.6293659265
Ni  Ni8  1  0.21352000  0.06078000  0.11521000  1.0 0.6293659265
H  H1  1  0.90280000  0.26440000  0.42640000  1.0 0.3449382837
H  H2  1  0.90280000  0.23560000  0.07360000  1.0 0.3449382837
H  H3  1  0.59720000  0.73560000  0.92640000  1.0 0.3449382837
H  H4  1  0.59720000  0.76440000  0.57360000  1.0 0.3449382837
H  H5  1  0.09720000  0.73560000  0.57360000  1.0 0.3449382837
H  H6  1  0.09720000  0.76440000  0.92640000  1.0 0.3449382837
H  H7  1  0.40280000  0.26440000  0.07360000  1.0 0.3449382837
H  H8  1  0.40280000  0.23560000  0.42640000  1.0 0.3449382837
H  H9  1  0.99150000  0.22630000  0.40400000  1.0 0.3913608546
H  H10  1  0.99150000  0.27370000  0.09600000  1.0 0.3913608546
H  H11  1  0.50850000  0.77370000  0.90400000  1.0 0.3913608546
H  H12  1  0.50850000  0.72630000  0.59600000  1.0 0.3913608546
H  H13  1  0.00850000  0.77370000  0.59600000  1.0 0.3913608546
H  H14  1  0.00850000  0.72630000  0.90400000  1.0 0.3913608546
H  H15  1  0.49150000  0.22630000  0.09600000  1.0 0.3913608546
H  H16  1  0.49150000  0.27370000  0.40400000  1.0 0.3913608546
H  H17  1  0.70330000  0.24290000  0.33280000  1.0 0.383096015
H  H18  1  0.70330000  0.25710000  0.16720000  1.0 0.383096015
H  H19  1  0.79670000  0.75710000  0.83280000  1.0 0.383096015
H  H20  1  0.79670000  0.74290000  0.66720000  1.0 0.383096015
H  H21  1  0.29670000  0.75710000  0.66720000  1.0 0.383096015
H  H22  1  0.29670000  0.74290000  0.83280000  1.0 0.383096015
H  H23  1  0.20330000  0.24290000  0.16720000  1.0 0.383096015
H  H24  1  0.20330000  0.25710000  0.33280000  1.0 0.383096015
H  H25  1  0.75540000  0.30850000  0.37490000  1.0 0.3617014084
H  H26  1  0.75540000  0.19150000  0.12510000  1.0 0.3617014084
H  H27  1  0.74460000  0.69150000  0.87490000  1.0 0.3617014084
H  H28  1  0.74460000  0.80850000  0.62510000  1.0 0.3617014084
H  H29  1  0.24460000  0.69150000  0.62510000  1.0 0.3617014084
H  H30  1  0.24460000  0.80850000  0.87490000  1.0 0.3617014084
H  H31  1  0.25540000  0.30850000  0.12510000  1.0 0.3617014084
H  H32  1  0.25540000  0.19150000  0.37490000  1.0 0.3617014084
H  H33  1  0.77760000  0.54290000  0.30900000  1.0 0.120661104
H  H34  1  0.77760000  0.95710000  0.19100000  1.0 0.120661104
H  H35  1  0.72240000  0.45710000  0.80900000  1.0 0.120661104
H  H36  1  0.72240000  0.04290000  0.69100000  1.0 0.120661104
H  H37  1  0.22240000  0.45710000  0.69100000  1.0 0.120661104
H  H38  1  0.22240000  0.04290000  0.80900000  1.0 0.120661104
H  H39  1  0.27760000  0.54290000  0.19100000  1.0 0.120661104
H  H40  1  0.27760000  0.95710000  0.30900000  1.0 0.120661104
H  H41  1  0.82110000  0.56470000  0.22440000  1.0 0.1408650558
H  H42  1  0.82110000  0.93530000  0.27560000  1.0 0.1408650558
H  H43  1  0.67890000  0.43530000  0.72440000  1.0 0.1408650558
H  H44  1  0.67890000  0.06470000  0.77560000  1.0 0.1408650558
H  H45  1  0.17890000  0.43530000  0.77560000  1.0 0.1408650558
H  H46  1  0.17890000  0.06470000  0.72440000  1.0 0.1408650558
H  H47  1  0.32110000  0.56470000  0.27560000  1.0 0.1408650558
H  H48  1  0.32110000  0.93530000  0.22440000  1.0 0.1408650558
H  H49  1  0.57140000  0.50290000  0.28310000  1.0 0.1408650558
H  H50  1  0.57140000  0.99710000  0.21690000  1.0 0.1408650558
H  H51  1  0.92860000  0.49710000  0.78310000  1.0 0.1408650558
H  H52  1  0.92860000  0.00290000  0.71690000  1.0 0.1408650558
H  H53  1  0.42860000  0.49710000  0.71690000  1.0 0.1408650558
H  H54  1  0.42860000  0.00290000  0.78310000  1.0 0.1408650558
H  H55  1  0.07140000  0.50290000  0.21690000  1.0 0.1408650558
H  H56  1  0.07140000  0.99710000  0.28310000  1.0 0.1408650558
H  H57  1  0.65700000  0.45270000  0.32020000  1.0 0.1541036124
H  H58  1  0.65700000  0.04730000  0.17980000  1.0 0.1541036124
H  H59  1  0.84300000  0.54730000  0.82020000  1.0 0.1541036124
H  H60  1  0.84300000  0.95270000  0.67980000  1.0 0.1541036124
H  H61  1  0.34300000  0.54730000  0.67980000  1.0 0.1541036124
H  H62  1  0.34300000  0.95270000  0.82020000  1.0 0.1541036124
H  H63  1  0.15700000  0.45270000  0.17980000  1.0 0.1541036124
H  H64  1  0.15700000  0.04730000  0.32020000  1.0 0.1541036124
H  H65  1  0.69820000  0.62900000  0.16310000  1.0 0.0892776925
H  H66  1  0.69820000  0.87100000  0.33690000  1.0 0.0892776925
H  H67  1  0.80180000  0.37100000  0.66310000  1.0 0.0892776925
H  H68  1  0.80180000  0.12900000  0.83690000  1.0 0.0892776925
H  H69  1  0.30180000  0.37100000  0.83690000  1.0 0.0892776925
H  H70  1  0.30180000  0.12900000  0.66310000  1.0 0.0892776925
H  H71  1  0.19820000  0.62900000  0.33690000  1.0 0.0892776925
H  H72  1  0.19820000  0.87100000  0.16310000  1.0 0.0892776925
H  H73  1  0.62160000  0.62600000  0.23150000  1.0 0.1001044492
H  H74  1  0.62160000  0.87400000  0.26850000  1.0 0.1001044492
H  H75  1  0.87840000  0.37400000  0.73150000  1.0 0.1001044492
H  H76  1  0.87840000  0.12600000  0.76850000  1.0 0.1001044492
H  H77  1  0.37840000  0.37400000  0.76850000  1.0 0.1001044492
H  H78  1  0.37840000  0.12600000  0.73150000  1.0 0.1001044492
H  H79  1  0.12160000  0.62600000  0.26850000  1.0 0.1001044492
H  H80  1  0.12160000  0.87400000  0.23150000  1.0 0.1001044492
H  H81  1  0.52230000  0.54290000  0.15130000  1.0 0.1101067349
H  H82  1  0.52230000  0.95710000  0.34870000  1.0 0.1101067349
H  H83  1  0.97770000  0.45710000  0.65130000  1.0 0.1101067349
H  H84  1  0.97770000  0.04290000  0.84870000  1.0 0.1101067349
H  H85  1  0.47770000  0.45710000  0.84870000  1.0 0.1101067349
H  H86  1  0.47770000  0.04290000  0.65130000  1.0 0.1101067349
H  H87  1  0.02230000  0.54290000  0.34870000  1.0 0.1101067349
H  H88  1  0.02230000  0.95710000  0.15130000  1.0 0.1101067349
H  H89  1  0.54860000  0.62730000  0.10420000  1.0 0.1001044492
H  H90  1  0.54860000  0.87270000  0.39580000  1.0 0.1001044492
H  H91  1  0.95140000  0.37270000  0.60420000  1.0 0.1001044492
H  H92  1  0.95140000  0.12730000  0.89580000  1.0 0.1001044492
H  H93  1  0.45140000  0.37270000  0.89580000  1.0 0.1001044492
H  H94  1  0.45140000  0.12730000  0.60420000  1.0 0.1001044492
H  H95  1  0.04860000  0.62730000  0.39580000  1.0 0.1001044492
H  H96  1  0.04860000  0.87270000  0.10420000  1.0 0.1001044492
H  H97  1  0.64640000  0.63450000  0.00710000  1.0 0.1001044492
H  H98  1  0.64640000  0.86550000  0.49290000  1.0 0.1001044492
H  H99  1  0.85360000  0.36550000  0.50710000  1.0 0.1001044492
H  H100  1  0.85360000  0.13450000  0.99290000  1.0 0.1001044492
H  H101  1  0.35360000  0.36550000  0.99290000  1.0 0.1001044492
H  H102  1  0.35360000  0.13450000  0.50710000  1.0 0.1001044492
H  H103  1  0.14640000  0.63450000  0.49290000  1.0 0.1001044492
H  H104  1  0.14640000  0.86550000  0.00710000  1.0 0.1001044492
H  H105  1  0.65050000  0.55660000  0.94750000  1.0 0.132326221
H  H106  1  0.65050000  0.94340000  0.55250000  1.0 0.132326221
H  H107  1  0.84950000  0.44340000  0.44750000  1.0 0.132326221
H  H108  1  0.84950000  0.05660000  0.05250000  1.0 0.132326221
H  H109  1  0.34950000  0.44340000  0.05250000  1.0 0.132326221
H  H110  1  0.34950000  0.05660000  0.44750000  1.0 0.132326221
H  H111  1  0.15050000  0.55660000  0.55250000  1.0 0.132326221
H  H112  1  0.15050000  0.94340000  0.94750000  1.0 0.132326221
H  H113  1  0.50700000  0.43510000  0.05860000  1.0 0.1101067349
H  H114  1  0.50700000  0.06490000  0.44140000  1.0 0.1101067349
H  H115  1  0.99300000  0.56490000  0.55860000  1.0 0.1101067349
H  H116  1  0.99300000  0.93510000  0.94140000  1.0 0.1101067349
H  H117  1  0.49300000  0.56490000  0.94140000  1.0 0.1101067349
H  H118  1  0.49300000  0.93510000  0.55860000  1.0 0.1101067349
H  H119  1  0.00700000  0.43510000  0.44140000  1.0 0.1101067349
H  H120  1  0.00700000  0.06490000  0.05860000  1.0 0.1101067349
H  H121  1  0.56550000  0.43580000  0.97870000  1.0 0.0892776925
H  H122  1  0.56550000  0.06420000  0.52130000  1.0 0.0892776925
H  H123  1  0.93450000  0.56420000  0.47870000  1.0 0.0892776925
H  H124  1  0.93450000  0.93580000  0.02130000  1.0 0.0892776925
H  H125  1  0.43450000  0.56420000  0.02130000  1.0 0.0892776925
H  H126  1  0.43450000  0.93580000  0.47870000  1.0 0.0892776925
H  H127  1  0.06550000  0.43580000  0.52130000  1.0 0.0892776925
H  H128  1  0.06550000  0.06420000  0.97870000  1.0 0.0892776925
C  C1  1  0.83280000  0.43630000  0.25270000  1.0 0.6009232606
C  C2  1  0.83280000  0.06370000  0.24730000  1.0 0.6009232606
C  C3  1  0.66720000  0.56370000  0.75270000  1.0 0.6009232606
C  C4  1  0.66720000  0.93630000  0.74730000  1.0 0.6009232606
C  C5  1  0.16720000  0.56370000  0.74730000  1.0 0.6009232606
C  C6  1  0.16720000  0.93630000  0.75270000  1.0 0.6009232606
C  C7  1  0.33280000  0.43630000  0.24730000  1.0 0.6009232606
C  C8  1  0.33280000  0.06370000  0.25270000  1.0 0.6009232606
C  C9  1  0.78400000  0.52290000  0.25410000  1.0 -0.2789330129
C  C10  1  0.78400000  0.97710000  0.24590000  1.0 -0.2789330129
C  C11  1  0.71600000  0.47710000  0.75410000  1.0 -0.2789330129
C  C12  1  0.71600000  0.02290000  0.74590000  1.0 -0.2789330129
C  C13  1  0.21600000  0.47710000  0.74590000  1.0 -0.2789330129
C  C14  1  0.21600000  0.02290000  0.75410000  1.0 -0.2789330129
C  C15  1  0.28400000  0.52290000  0.24590000  1.0 -0.2789330129
C  C16  1  0.28400000  0.97710000  0.25410000  1.0 -0.2789330129
C  C17  1  0.62460000  0.46580000  0.27030000  1.0 -0.2894723286
C  C18  1  0.62460000  0.03420000  0.22970000  1.0 -0.2894723286
C  C19  1  0.87540000  0.53420000  0.77030000  1.0 -0.2894723286
C  C20  1  0.87540000  0.96580000  0.72970000  1.0 -0.2894723286
C  C21  1  0.37540000  0.53420000  0.72970000  1.0 -0.2894723286
C  C22  1  0.37540000  0.96580000  0.77030000  1.0 -0.2894723286
C  C23  1  0.12460000  0.46580000  0.22970000  1.0 -0.2894723286
C  C24  1  0.12460000  0.03420000  0.27030000  1.0 -0.2894723286
C  C25  1  0.58700000  0.38270000  0.23480000  1.0 0.6431255992
C  C26  1  0.58700000  0.11730000  0.26520000  1.0 0.6431255992
C  C27  1  0.91300000  0.61730000  0.73480000  1.0 0.6431255992
C  C28  1  0.91300000  0.88270000  0.76520000  1.0 0.6431255992
C  C29  1  0.41300000  0.61730000  0.76520000  1.0 0.6431255992
C  C30  1  0.41300000  0.88270000  0.73480000  1.0 0.6431255992
C  C31  1  0.08700000  0.38270000  0.26520000  1.0 0.6431255992
C  C32  1  0.08700000  0.11730000  0.23480000  1.0 0.6431255992
C  C33  1  0.64910000  0.59390000  0.18730000  1.0 -0.1654582024
C  C34  1  0.64910000  0.90610000  0.31270000  1.0 -0.1654582024
C  C35  1  0.85090000  0.40610000  0.68730000  1.0 -0.1654582024
C  C36  1  0.85090000  0.09390000  0.81270000  1.0 -0.1654582024
C  C37  1  0.35090000  0.40610000  0.81270000  1.0 -0.1654582024
C  C38  1  0.35090000  0.09390000  0.68730000  1.0 -0.1654582024
C  C39  1  0.14910000  0.59390000  0.31270000  1.0 -0.1654582024
C  C40  1  0.14910000  0.90610000  0.18730000  1.0 -0.1654582024
C  C41  1  0.57380000  0.57390000  0.12570000  1.0 -0.147714669
C  C42  1  0.57380000  0.92610000  0.37430000  1.0 -0.147714669
C  C43  1  0.92620000  0.42610000  0.62570000  1.0 -0.147714669
C  C44  1  0.92620000  0.07390000  0.87430000  1.0 -0.147714669
C  C45  1  0.42620000  0.42610000  0.87430000  1.0 -0.147714669
C  C46  1  0.42620000  0.07390000  0.62570000  1.0 -0.147714669
C  C47  1  0.07380000  0.57390000  0.37430000  1.0 -0.147714669
C  C48  1  0.07380000  0.92610000  0.12570000  1.0 -0.147714669
C  C49  1  0.66666667  0.57510000  0.00140000  1.0 -0.3148625438
C  C50  1  0.66666667  0.92490000  0.49860000  1.0 -0.3148625438
C  C51  1  0.83333000  0.42490000  0.50140000  1.0 -0.3148625438
C  C52  1  0.83333000  0.07510000  0.99860000  1.0 -0.3148625438
C  C53  1  0.33333333  0.42490000  0.99860000  1.0 -0.3148625438
C  C54  1  0.33333333  0.07510000  0.50140000  1.0 -0.3148625438
C  C55  1  0.16667000  0.57510000  0.49860000  1.0 -0.3148625438
C  C56  1  0.16667000  0.92490000  0.00140000  1.0 -0.3148625438
C  C57  1  0.77230000  0.57110000  0.01120000  1.0 0.5859431977
C  C58  1  0.77230000  0.92890000  0.48880000  1.0 0.5859431977
C  C59  1  0.72770000  0.42890000  0.51120000  1.0 0.5859431977
C  C60  1  0.72770000  0.07110000  0.98880000  1.0 0.5859431977
C  C61  1  0.22770000  0.42890000  0.98880000  1.0 0.5859431977
C  C62  1  0.22770000  0.07110000  0.51120000  1.0 0.5859431977
C  C63  1  0.27230000  0.57110000  0.48880000  1.0 0.5859431977
C  C64  1  0.27230000  0.92890000  0.01120000  1.0 0.5859431977
C  C65  1  0.53720000  0.47230000  0.01940000  1.0 -0.1437358205
C  C66  1  0.53720000  0.02770000  0.48060000  1.0 -0.1437358205
C  C67  1  0.96280000  0.52770000  0.51940000  1.0 -0.1437358205
C  C68  1  0.96280000  0.97230000  0.98060000  1.0 -0.1437358205
C  C69  1  0.46280000  0.52770000  0.98060000  1.0 -0.1437358205
C  C70  1  0.46280000  0.97230000  0.51940000  1.0 -0.1437358205
C  C71  1  0.03720000  0.47230000  0.48060000  1.0 -0.1437358205
C  C72  1  0.03720000  0.02770000  0.01940000  1.0 -0.1437358205
C  C73  1  0.76520000  0.34020000  0.97010000  1.0 0.1101067349
C  C74  1  0.76520000  0.15980000  0.52990000  1.0 0.1101067349
C  C75  1  0.73480000  0.65980000  0.47010000  1.0 0.1101067349
C  C76  1  0.73480000  0.84020000  0.02990000  1.0 0.1101067349
C  C77  1  0.23480000  0.65980000  0.02990000  1.0 0.1101067349
C  C78  1  0.23480000  0.84020000  0.47010000  1.0 0.1101067349
C  C79  1  0.26520000  0.34020000  0.52990000  1.0 0.1101067349
C  C80  1  0.26520000  0.15980000  0.97010000  1.0 0.1101067349
C  C81  1  0.71600000  0.32570000  0.96930000  1.0 0.1101067349
C  C82  1  0.71600000  0.17430000  0.53070000  1.0 0.1101067349
C  C83  1  0.78400000  0.67430000  0.46930000  1.0 0.1101067349
C  C84  1  0.78400000  0.82570000  0.03070000  1.0 0.1101067349
C  C85  1  0.28400000  0.67430000  0.03070000  1.0 0.1101067349
C  C86  1  0.28400000  0.82570000  0.46930000  1.0 0.1101067349
C  C87  1  0.21600000  0.32570000  0.53070000  1.0 0.1101067349
C  C88  1  0.21600000  0.17430000  0.96930000  1.0 0.1101067349
S  S1  1  0.81500000  0.29900000  0.88300000  1.0 0.0117380376
S  S2  1  0.81500000  0.20100000  0.61700000  1.0 0.0117380376
S  S3  1  0.68500000  0.70100000  0.38300000  1.0 0.0117380376
S  S4  1  0.68500000  0.79900000  0.11700000  1.0 0.0117380376
S  S5  1  0.18500000  0.70100000  0.11700000  1.0 0.0117380376
S  S6  1  0.18500000  0.79900000  0.38300000  1.0 0.0117380376
S  S7  1  0.31500000  0.29900000  0.61700000  1.0 0.0117380376
S  S8  1  0.31500000  0.20100000  0.88300000  1.0 0.0117380376
S  S9  1  0.70610000  0.27860000  0.87310000  1.0 0.0222442391
S  S10  1  0.70610000  0.22140000  0.62690000  1.0 0.0222442391
S  S11  1  0.79390000  0.72140000  0.37310000  1.0 0.0222442391
S  S12  1  0.79390000  0.77860000  0.12690000  1.0 0.0222442391
S  S13  1  0.29390000  0.72140000  0.12690000  1.0 0.0222442391
S  S14  1  0.29390000  0.77860000  0.37310000  1.0 0.0222442391
S  S15  1  0.20610000  0.27860000  0.62690000  1.0 0.0222442391
S  S16  1  0.20610000  0.22140000  0.87310000  1.0 0.0222442391
N  N1  1  0.69010000  0.51320000  0.21720000  1.0 -0.0135047662
N  N2  1  0.69010000  0.98680000  0.28280000  1.0 -0.0135047662
N  N3  1  0.80990000  0.48680000  0.71720000  1.0 -0.0135047662
N  N4  1  0.80990000  0.01320000  0.78280000  1.0 -0.0135047662
N  N5  1  0.30990000  0.48680000  0.78280000  1.0 -0.0135047662
N  N6  1  0.30990000  0.01320000  0.71720000  1.0 -0.0135047662
N  N7  1  0.19010000  0.51320000  0.28280000  1.0 -0.0135047662
N  N8  1  0.19010000  0.98680000  0.21720000  1.0 -0.0135047662
N  N9  1  0.61290000  0.52160000  0.05970000  1.0 -0.0617034194
N  N10  1  0.61290000  0.97840000  0.44030000  1.0 -0.0617034194
N  N11  1  0.88710000  0.47840000  0.55970000  1.0 -0.0617034194
N  N12  1  0.88710000  0.02160000  0.94030000  1.0 -0.0617034194
N  N13  1  0.38710000  0.47840000  0.94030000  1.0 -0.0617034194
N  N14  1  0.38710000  0.02160000  0.55970000  1.0 -0.0617034194
N  N15  1  0.11290000  0.52160000  0.44030000  1.0 -0.0617034194
N  N16  1  0.11290000  0.97840000  0.05970000  1.0 -0.0617034194
N  N17  1  0.73220000  0.36070000  0.02490000  1.0 -0.2523786221
N  N18  1  0.73220000  0.13930000  0.47510000  1.0 -0.2523786221
N  N19  1  0.76780000  0.63930000  0.52490000  1.0 -0.2523786221
N  N20  1  0.76780000  0.86070000  0.97510000  1.0 -0.2523786221
N  N21  1  0.26780000  0.63930000  0.97510000  1.0 -0.2523786221
N  N22  1  0.26780000  0.86070000  0.52490000  1.0 -0.2523786221
N  N23  1  0.23220000  0.36070000  0.47510000  1.0 -0.2523786221
N  N24  1  0.23220000  0.13930000  0.02490000  1.0 -0.2523786221
O  O1  1  0.81780000  0.38830000  0.19130000  1.0 -0.6166915541
O  O2  1  0.81780000  0.11170000  0.30870000  1.0 -0.6166915541
O  O3  1  0.68220000  0.61170000  0.69130000  1.0 -0.6166915541
O  O4  1  0.68220000  0.88830000  0.80870000  1.0 -0.6166915541
O  O5  1  0.18220000  0.61170000  0.80870000  1.0 -0.6166915541
O  O6  1  0.18220000  0.88830000  0.69130000  1.0 -0.6166915541
O  O7  1  0.31780000  0.38830000  0.30870000  1.0 -0.6166915541
O  O8  1  0.31780000  0.11170000  0.19130000  1.0 -0.6166915541
O  O9  1  0.88330000  0.41320000  0.30910000  1.0 -0.5618535225
O  O10  1  0.88330000  0.08680000  0.19090000  1.0 -0.5618535225
O  O11  1  0.61670000  0.58680000  0.80910000  1.0 -0.5618535225
O  O12  1  0.61670000  0.91320000  0.69090000  1.0 -0.5618535225
O  O13  1  0.11670000  0.58680000  0.69090000  1.0 -0.5618535225
O  O14  1  0.11670000  0.91320000  0.80910000  1.0 -0.5618535225
O  O15  1  0.38330000  0.41320000  0.19090000  1.0 -0.5618535225
O  O16  1  0.38330000  0.08680000  0.30910000  1.0 -0.5618535225
O  O17  1  0.61470000  0.36020000  0.16590000  1.0 -0.5215002839
O  O18  1  0.61470000  0.13980000  0.33410000  1.0 -0.5215002839
O  O19  1  0.88530000  0.63980000  0.66590000  1.0 -0.5215002839
O  O20  1  0.88530000  0.86020000  0.83410000  1.0 -0.5215002839
O  O21  1  0.38530000  0.63980000  0.83410000  1.0 -0.5215002839
O  O22  1  0.38530000  0.86020000  0.66590000  1.0 -0.5215002839
O  O23  1  0.11470000  0.36020000  0.33410000  1.0 -0.5215002839
O  O24  1  0.11470000  0.13980000  0.16590000  1.0 -0.5215002839
O  O25  1  0.53000000  0.34170000  0.27630000  1.0 -0.632171603
O  O26  1  0.53000000  0.15830000  0.22370000  1.0 -0.632171603
O  O27  1  0.97000000  0.65830000  0.77630000  1.0 -0.632171603
O  O28  1  0.97000000  0.84170000  0.72370000  1.0 -0.632171603
O  O29  1  0.47000000  0.65830000  0.72370000  1.0 -0.632171603
O  O30  1  0.47000000  0.84170000  0.77630000  1.0 -0.632171603
O  O31  1  0.03000000  0.34170000  0.22370000  1.0 -0.632171603
O  O32  1  0.03000000  0.15830000  0.27630000  1.0 -0.632171603
O  O33  1  0.80640000  0.52540000  0.06600000  1.0 -0.5107482617
O  O34  1  0.80640000  0.97460000  0.43400000  1.0 -0.5107482617
O  O35  1  0.69360000  0.47460000  0.56600000  1.0 -0.5107482617
O  O36  1  0.69360000  0.02540000  0.93400000  1.0 -0.5107482617
O  O37  1  0.19360000  0.47460000  0.93400000  1.0 -0.5107482617
O  O38  1  0.19360000  0.02540000  0.56600000  1.0 -0.5107482617
O  O39  1  0.30640000  0.52540000  0.43400000  1.0 -0.5107482617
O  O40  1  0.30640000  0.97460000  0.06600000  1.0 -0.5107482617
O  O41  1  0.81860000  0.61410000  0.96180000  1.0 -0.5490707402
O  O42  1  0.81860000  0.88590000  0.53820000  1.0 -0.5490707402
O  O43  1  0.68140000  0.38590000  0.46180000  1.0 -0.5490707402
O  O44  1  0.68140000  0.11410000  0.03820000  1.0 -0.5490707402
O  O45  1  0.18140000  0.38590000  0.03820000  1.0 -0.5490707402
O  O46  1  0.18140000  0.11410000  0.46180000  1.0 -0.5490707402
O  O47  1  0.31860000  0.61410000  0.53820000  1.0 -0.5490707402
O  O48  1  0.31860000  0.88590000  0.96180000  1.0 -0.5490707402
O  O49  1  0.94880000  0.26230000  0.39310000  1.0 -0.7667698805
O  O50  1  0.94880000  0.23770000  0.10690000  1.0 -0.7667698805
O  O51  1  0.55120000  0.73770000  0.89310000  1.0 -0.7667698805
O  O52  1  0.55120000  0.76230000  0.60690000  1.0 -0.7667698805
O  O53  1  0.05120000  0.73770000  0.60690000  1.0 -0.7667698805
O  O54  1  0.05120000  0.76230000  0.89310000  1.0 -0.7667698805
O  O55  1  0.44880000  0.26230000  0.10690000  1.0 -0.7667698805
O  O56  1  0.44880000  0.23770000  0.39310000  1.0 -0.7667698805
O  O57  1  0.74290000  0.28260000  0.33160000  1.0 -0.779052863
O  O58  1  0.74290000  0.21740000  0.16840000  1.0 -0.779052863
O  O59  1  0.75710000  0.71740000  0.83160000  1.0 -0.779052863
O  O60  1  0.75710000  0.78260000  0.66840000  1.0 -0.779052863
O  O61  1  0.25710000  0.71740000  0.66840000  1.0 -0.779052863
O  O62  1  0.25710000  0.78260000  0.83160000  1.0 -0.779052863
O  O63  1  0.24290000  0.28260000  0.16840000  1.0 -0.779052863
O  O64  1  0.24290000  0.21740000  0.33160000  1.0 -0.779052863
