# DDEC6 charges by PACMAN v1.1 (https://github.com/mtap-research/PACMAN-charge/)
data_SIZPEX_ASR_pacman
_symmetry_space_group_name_H-M   'P 1'
_cell_length_a   13.56300000
_cell_length_b   15.03000000
_cell_length_c   16.19300000
_cell_angle_alpha   90.00000000
_cell_angle_beta   90.00000000
_cell_angle_gamma   90.00000000
_symmetry_Int_Tables_number   1
_chemical_formula_structural   CeNi2H24C22S4(NO2)6
_chemical_formula_sum   'Ce4 Ni8 H96 C88 S16 N24 O48'
_cell_volume   3300.97365477
_cell_formula_units_Z   4
loop_
 _symmetry_equiv_pos_site_id
 _symmetry_equiv_pos_as_xyz
  1  'x, y, z'
loop_
 _atom_site_type_symbol
 _atom_site_label
 _atom_site_symmetry_multiplicity
 _atom_site_fract_x
 _atom_site_fract_y
 _atom_site_fract_z
 _atom_site_occupancy
 _atom_site_charge
Ce  Ce1  1  0.89273000  0.25000000  0.25000000  1.0 1.5241202971
Ce  Ce2  1  0.60727000  0.75000000  0.75000000  1.0 1.5257249137
Ce  Ce3  1  0.10727000  0.75000000  0.75000000  1.0 1.5257249137
Ce  Ce4  1  0.39273000  0.25000000  0.25000000  1.0 1.5241202971
Ni  Ni1  1  0.71484000  0.43967000  0.11505000  1.0 0.5576211324
Ni  Ni2  1  0.71484000  0.06033000  0.38495000  1.0 0.5576211324
Ni  Ni3  1  0.78516000  0.56033000  0.61505000  1.0 0.5576211324
Ni  Ni4  1  0.78516000  0.93967000  0.88495000  1.0 0.5576211324
Ni  Ni5  1  0.28516000  0.56033000  0.88495000  1.0 0.5576211324
Ni  Ni6  1  0.28516000  0.93967000  0.61505000  1.0 0.5576211324
Ni  Ni7  1  0.21484000  0.43967000  0.38495000  1.0 0.5576211324
Ni  Ni8  1  0.21484000  0.06033000  0.11505000  1.0 0.5576211324
H  H1  1  0.78030000  0.54550000  0.30920000  1.0 0.1206786859
H  H2  1  0.78030000  0.95450000  0.19080000  1.0 0.1206786859
H  H3  1  0.71970000  0.45450000  0.80920000  1.0 0.1206786859
H  H4  1  0.71970000  0.04550000  0.69080000  1.0 0.1206786859
H  H5  1  0.21970000  0.45450000  0.69080000  1.0 0.1206786859
H  H6  1  0.21970000  0.04550000  0.80920000  1.0 0.1206786859
H  H7  1  0.28030000  0.54550000  0.19080000  1.0 0.1206786859
H  H8  1  0.28030000  0.95450000  0.30920000  1.0 0.1206786859
H  H9  1  0.82560000  0.56640000  0.22180000  1.0 0.139994297
H  H10  1  0.82560000  0.93360000  0.27820000  1.0 0.139994297
H  H11  1  0.67440000  0.43360000  0.72180000  1.0 0.139994297
H  H12  1  0.67440000  0.06640000  0.77820000  1.0 0.139994297
H  H13  1  0.17440000  0.43360000  0.77820000  1.0 0.139994297
H  H14  1  0.17440000  0.06640000  0.72180000  1.0 0.139994297
H  H15  1  0.32560000  0.56640000  0.27820000  1.0 0.139994297
H  H16  1  0.32560000  0.93360000  0.22180000  1.0 0.139994297
H  H17  1  0.56950000  0.50600000  0.28230000  1.0 0.1451479753
H  H18  1  0.56950000  0.99400000  0.21770000  1.0 0.1451479753
H  H19  1  0.93050000  0.49400000  0.78230000  1.0 0.1451479753
H  H20  1  0.93050000  0.00600000  0.71770000  1.0 0.1451479753
H  H21  1  0.43050000  0.49400000  0.71770000  1.0 0.1451479753
H  H22  1  0.43050000  0.00600000  0.78230000  1.0 0.1451479753
H  H23  1  0.06950000  0.50600000  0.21770000  1.0 0.1451479753
H  H24  1  0.06950000  0.99400000  0.28230000  1.0 0.1451479753
H  H25  1  0.65880000  0.45530000  0.32180000  1.0 0.1561143657
H  H26  1  0.65880000  0.04470000  0.17820000  1.0 0.1561143657
H  H27  1  0.84120000  0.54470000  0.82180000  1.0 0.1561143657
H  H28  1  0.84120000  0.95530000  0.67820000  1.0 0.1561143657
H  H29  1  0.34120000  0.54470000  0.67820000  1.0 0.1561143657
H  H30  1  0.34120000  0.95530000  0.82180000  1.0 0.1561143657
H  H31  1  0.15880000  0.45530000  0.17820000  1.0 0.1561143657
H  H32  1  0.15880000  0.04470000  0.32180000  1.0 0.1561143657
H  H33  1  0.70150000  0.63130000  0.16200000  1.0 0.0797128452
H  H34  1  0.70150000  0.86870000  0.33800000  1.0 0.0797128452
H  H35  1  0.79850000  0.36870000  0.66200000  1.0 0.0797128452
H  H36  1  0.79850000  0.13130000  0.83800000  1.0 0.0797128452
H  H37  1  0.29850000  0.36870000  0.83800000  1.0 0.0797128452
H  H38  1  0.29850000  0.13130000  0.66200000  1.0 0.0797128452
H  H39  1  0.20150000  0.63130000  0.33800000  1.0 0.0797128452
H  H40  1  0.20150000  0.86870000  0.16200000  1.0 0.0797128452
H  H41  1  0.62140000  0.62790000  0.23200000  1.0 0.0920610798
H  H42  1  0.62140000  0.87210000  0.26800000  1.0 0.0920610798
H  H43  1  0.87860000  0.37210000  0.73200000  1.0 0.0920610798
H  H44  1  0.87860000  0.12790000  0.76800000  1.0 0.0920610798
H  H45  1  0.37860000  0.37210000  0.76800000  1.0 0.0920610798
H  H46  1  0.37860000  0.12790000  0.73200000  1.0 0.0920610798
H  H47  1  0.12140000  0.62790000  0.26800000  1.0 0.0920610798
H  H48  1  0.12140000  0.87210000  0.23200000  1.0 0.0920610798
H  H49  1  0.52030000  0.54360000  0.15080000  1.0 0.1107575172
H  H50  1  0.52030000  0.95640000  0.34920000  1.0 0.1107575172
H  H51  1  0.97970000  0.45640000  0.65080000  1.0 0.1107575172
H  H52  1  0.97970000  0.04360000  0.84920000  1.0 0.1107575172
H  H53  1  0.47970000  0.45640000  0.84920000  1.0 0.1107575172
H  H54  1  0.47970000  0.04360000  0.65080000  1.0 0.1107575172
H  H55  1  0.02030000  0.54360000  0.34920000  1.0 0.1107575172
H  H56  1  0.02030000  0.95640000  0.15080000  1.0 0.1107575172
H  H57  1  0.54870000  0.63040000  0.10230000  1.0 0.0957543047
H  H58  1  0.54870000  0.86960000  0.39770000  1.0 0.0957543047
H  H59  1  0.95130000  0.36960000  0.60230000  1.0 0.0957543047
H  H60  1  0.95130000  0.13040000  0.89770000  1.0 0.0957543047
H  H61  1  0.45130000  0.36960000  0.89770000  1.0 0.0957543047
H  H62  1  0.45130000  0.13040000  0.60230000  1.0 0.0957543047
H  H63  1  0.04870000  0.63040000  0.39770000  1.0 0.0957543047
H  H64  1  0.04870000  0.86960000  0.10230000  1.0 0.0957543047
H  H65  1  0.64760000  0.63620000  0.00640000  1.0 0.1206786859
H  H66  1  0.64760000  0.86380000  0.49360000  1.0 0.1206786859
H  H67  1  0.85240000  0.36380000  0.50640000  1.0 0.1206786859
H  H68  1  0.85240000  0.13620000  0.99360000  1.0 0.1206786859
H  H69  1  0.35240000  0.36380000  0.99360000  1.0 0.1206786859
H  H70  1  0.35240000  0.13620000  0.50640000  1.0 0.1206786859
H  H71  1  0.14760000  0.63620000  0.49360000  1.0 0.1206786859
H  H72  1  0.14760000  0.86380000  0.00640000  1.0 0.1206786859
H  H73  1  0.65040000  0.55530000  0.94540000  1.0 0.139994297
H  H74  1  0.65040000  0.94470000  0.55460000  1.0 0.139994297
H  H75  1  0.84960000  0.44470000  0.44540000  1.0 0.139994297
H  H76  1  0.84960000  0.05530000  0.05460000  1.0 0.139994297
H  H77  1  0.34960000  0.44470000  0.05460000  1.0 0.139994297
H  H78  1  0.34960000  0.05530000  0.44540000  1.0 0.139994297
H  H79  1  0.15040000  0.55530000  0.55460000  1.0 0.139994297
H  H80  1  0.15040000  0.94470000  0.94540000  1.0 0.139994297
H  H81  1  0.50750000  0.43310000  0.05920000  1.0 0.1107575172
H  H82  1  0.50750000  0.06690000  0.44080000  1.0 0.1107575172
H  H83  1  0.99250000  0.56690000  0.55920000  1.0 0.1107575172
H  H84  1  0.99250000  0.93310000  0.94080000  1.0 0.1107575172
H  H85  1  0.49250000  0.56690000  0.94080000  1.0 0.1107575172
H  H86  1  0.49250000  0.93310000  0.55920000  1.0 0.1107575172
H  H87  1  0.00750000  0.43310000  0.44080000  1.0 0.1107575172
H  H88  1  0.00750000  0.06690000  0.05920000  1.0 0.1107575172
H  H89  1  0.56780000  0.43510000  0.97670000  1.0 0.0920610798
H  H90  1  0.56780000  0.06490000  0.52330000  1.0 0.0920610798
H  H91  1  0.93220000  0.56490000  0.47670000  1.0 0.0920610798
H  H92  1  0.93220000  0.93510000  0.02330000  1.0 0.0920610798
H  H93  1  0.43220000  0.56490000  0.02330000  1.0 0.0920610798
H  H94  1  0.43220000  0.93510000  0.47670000  1.0 0.0920610798
H  H95  1  0.06780000  0.43510000  0.52330000  1.0 0.0920610798
H  H96  1  0.06780000  0.06490000  0.97670000  1.0 0.0920610798
C  C1  1  0.83440000  0.43720000  0.25240000  1.0 0.5396011134
C  C2  1  0.83440000  0.06280000  0.24760000  1.0 0.5396011134
C  C3  1  0.66560000  0.56280000  0.75240000  1.0 0.5396011134
C  C4  1  0.66560000  0.93720000  0.74760000  1.0 0.5396011134
C  C5  1  0.16560000  0.56280000  0.74760000  1.0 0.5396011134
C  C6  1  0.16560000  0.93720000  0.75240000  1.0 0.5396011134
C  C7  1  0.33440000  0.43720000  0.24760000  1.0 0.5396011134
C  C8  1  0.33440000  0.06280000  0.25240000  1.0 0.5396011134
C  C9  1  0.78670000  0.52400000  0.25300000  1.0 -0.3114888558
C  C10  1  0.78670000  0.97600000  0.24700000  1.0 -0.3114888558
C  C11  1  0.71330000  0.47600000  0.75300000  1.0 -0.3114888558
C  C12  1  0.71330000  0.02400000  0.74700000  1.0 -0.3114888558
C  C13  1  0.21330000  0.47600000  0.74700000  1.0 -0.3114888558
C  C14  1  0.21330000  0.02400000  0.75300000  1.0 -0.3114888558
C  C15  1  0.28670000  0.52400000  0.24700000  1.0 -0.3114888558
C  C16  1  0.28670000  0.97600000  0.25300000  1.0 -0.3114888558
C  C17  1  0.62530000  0.46770000  0.27010000  1.0 -0.3264037857
C  C18  1  0.62530000  0.03230000  0.22990000  1.0 -0.3264037857
C  C19  1  0.87470000  0.53230000  0.77010000  1.0 -0.3264037857
C  C20  1  0.87470000  0.96770000  0.72990000  1.0 -0.3264037857
C  C21  1  0.37470000  0.53230000  0.72990000  1.0 -0.3264037857
C  C22  1  0.37470000  0.96770000  0.77010000  1.0 -0.3264037857
C  C23  1  0.12530000  0.46770000  0.22990000  1.0 -0.3264037857
C  C24  1  0.12530000  0.03230000  0.27010000  1.0 -0.3264037857
C  C25  1  0.58860000  0.38360000  0.23520000  1.0 0.591463331
C  C26  1  0.58860000  0.11640000  0.26480000  1.0 0.591463331
C  C27  1  0.91140000  0.61640000  0.73520000  1.0 0.591463331
C  C28  1  0.91140000  0.88360000  0.76480000  1.0 0.591463331
C  C29  1  0.41140000  0.61640000  0.76480000  1.0 0.591463331
C  C30  1  0.41140000  0.88360000  0.73520000  1.0 0.591463331
C  C31  1  0.08860000  0.38360000  0.26480000  1.0 0.591463331
C  C32  1  0.08860000  0.11640000  0.23520000  1.0 0.591463331
C  C33  1  0.65020000  0.59490000  0.18660000  1.0 -0.1635728567
C  C34  1  0.65020000  0.90510000  0.31340000  1.0 -0.1650663653
C  C35  1  0.84980000  0.40510000  0.68660000  1.0 -0.1650663653
C  C36  1  0.84980000  0.09490000  0.81340000  1.0 -0.1650663653
C  C37  1  0.34980000  0.40510000  0.81340000  1.0 -0.1650663653
C  C38  1  0.34980000  0.09490000  0.68660000  1.0 -0.1635728567
C  C39  1  0.15020000  0.59490000  0.31340000  1.0 -0.1635728567
C  C40  1  0.15020000  0.90510000  0.18660000  1.0 -0.1650663653
C  C41  1  0.57430000  0.57520000  0.12480000  1.0 -0.1449525544
C  C42  1  0.57430000  0.92480000  0.37520000  1.0 -0.1458145717
C  C43  1  0.92570000  0.42480000  0.62480000  1.0 -0.1449525544
C  C44  1  0.92570000  0.07520000  0.87520000  1.0 -0.1449525544
C  C45  1  0.42570000  0.42480000  0.87520000  1.0 -0.1449525544
C  C46  1  0.42570000  0.07520000  0.62480000  1.0 -0.1449525544
C  C47  1  0.07430000  0.57520000  0.37520000  1.0 -0.1449525544
C  C48  1  0.07430000  0.92480000  0.12480000  1.0 -0.1458145717
C  C49  1  0.66780000  0.57460000  0.00070000  1.0 -0.3433976734
C  C50  1  0.66780000  0.92540000  0.49930000  1.0 -0.3433976734
C  C51  1  0.83220000  0.42540000  0.50070000  1.0 -0.3433976734
C  C52  1  0.83220000  0.07460000  0.99930000  1.0 -0.3433976734
C  C53  1  0.33220000  0.42540000  0.99930000  1.0 -0.3433976734
C  C54  1  0.33220000  0.07460000  0.50070000  1.0 -0.3433976734
C  C55  1  0.16780000  0.57460000  0.49930000  1.0 -0.3433976734
C  C56  1  0.16780000  0.92540000  0.00070000  1.0 -0.3433976734
C  C57  1  0.77390000  0.56940000  0.01000000  1.0 0.5396011134
C  C58  1  0.77390000  0.93060000  0.49000000  1.0 0.5396011134
C  C59  1  0.72610000  0.43060000  0.51000000  1.0 0.5396011134
C  C60  1  0.72610000  0.06940000  0.99000000  1.0 0.5396011134
C  C61  1  0.22610000  0.43060000  0.99000000  1.0 0.5396011134
C  C62  1  0.22610000  0.06940000  0.51000000  1.0 0.5396011134
C  C63  1  0.27390000  0.56940000  0.49000000  1.0 0.5396011134
C  C64  1  0.27390000  0.93060000  0.01000000  1.0 0.5396011134
C  C65  1  0.53830000  0.47220000  0.01900000  1.0 -0.1458145717
C  C66  1  0.53830000  0.02780000  0.48100000  1.0 -0.1449525544
C  C67  1  0.96170000  0.52780000  0.51900000  1.0 -0.1449525544
C  C68  1  0.96170000  0.97220000  0.98100000  1.0 -0.1458145717
C  C69  1  0.46170000  0.52780000  0.98100000  1.0 -0.1449525544
C  C70  1  0.46170000  0.97220000  0.51900000  1.0 -0.1458145717
C  C71  1  0.03830000  0.47220000  0.48100000  1.0 -0.1458145717
C  C72  1  0.03830000  0.02780000  0.01900000  1.0 -0.1458145717
C  C73  1  0.77050000  0.34210000  0.97410000  1.0 0.1206786859
C  C74  1  0.77050000  0.15790000  0.52590000  1.0 0.1206786859
C  C75  1  0.72950000  0.65790000  0.47410000  1.0 0.1206786859
C  C76  1  0.72950000  0.84210000  0.02590000  1.0 0.1206786859
C  C77  1  0.22950000  0.65790000  0.02590000  1.0 0.1206786859
C  C78  1  0.22950000  0.84210000  0.47410000  1.0 0.1206786859
C  C79  1  0.27050000  0.34210000  0.52590000  1.0 0.1206786859
C  C80  1  0.27050000  0.15790000  0.97410000  1.0 0.1107575172
C  C81  1  0.72200000  0.32850000  0.96930000  1.0 0.1107575172
C  C82  1  0.72200000  0.17150000  0.53070000  1.0 0.1107575172
C  C83  1  0.77800000  0.67150000  0.46930000  1.0 0.1107575172
C  C84  1  0.77800000  0.82850000  0.03070000  1.0 0.1107575172
C  C85  1  0.27800000  0.67150000  0.03070000  1.0 0.1107575172
C  C86  1  0.27800000  0.82850000  0.46930000  1.0 0.1107575172
C  C87  1  0.22200000  0.32850000  0.53070000  1.0 0.1107575172
C  C88  1  0.22200000  0.17150000  0.96930000  1.0 0.1107575172
S  S1  1  0.81950000  0.30040000  0.88270000  1.0 0.0098557575
S  S2  1  0.81950000  0.19960000  0.61730000  1.0 0.0098557575
S  S3  1  0.68050000  0.69960000  0.38270000  1.0 0.0098557575
S  S4  1  0.68050000  0.80040000  0.11730000  1.0 0.0098557575
S  S5  1  0.18050000  0.69960000  0.11730000  1.0 0.0098557575
S  S6  1  0.18050000  0.80040000  0.38270000  1.0 0.0098557575
S  S7  1  0.31950000  0.30040000  0.61730000  1.0 0.0098557575
S  S8  1  0.31950000  0.19960000  0.88270000  1.0 0.0098557575
S  S9  1  0.70440000  0.27820000  0.87260000  1.0 0.0098557575
S  S10  1  0.70440000  0.22180000  0.62740000  1.0 0.0098557575
S  S11  1  0.79560000  0.72180000  0.37260000  1.0 0.0098557575
S  S12  1  0.79560000  0.77820000  0.12740000  1.0 0.0098557575
S  S13  1  0.29560000  0.72180000  0.12740000  1.0 0.0098557575
S  S14  1  0.29560000  0.77820000  0.37260000  1.0 0.0098557575
S  S15  1  0.20440000  0.27820000  0.62740000  1.0 0.0098557575
S  S16  1  0.20440000  0.22180000  0.87260000  1.0 0.0098557575
N  N1  1  0.69160000  0.51420000  0.21640000  1.0 0.0366586681
N  N2  1  0.69160000  0.98580000  0.28360000  1.0 0.0366586681
N  N3  1  0.80840000  0.48580000  0.71640000  1.0 0.0366586681
N  N4  1  0.80840000  0.01420000  0.78360000  1.0 0.0345789583
N  N5  1  0.30840000  0.48580000  0.78360000  1.0 0.0366586681
N  N6  1  0.30840000  0.01420000  0.71640000  1.0 0.0345789583
N  N7  1  0.19160000  0.51420000  0.28360000  1.0 0.0366586681
N  N8  1  0.19160000  0.98580000  0.21640000  1.0 0.0366586681
N  N9  1  0.61440000  0.52190000  0.05910000  1.0 -0.0370941032
N  N10  1  0.61440000  0.97810000  0.44090000  1.0 -0.0370941032
N  N11  1  0.88560000  0.47810000  0.55910000  1.0 -0.0370941032
N  N12  1  0.88560000  0.02190000  0.94090000  1.0 -0.0370941032
N  N13  1  0.38560000  0.47810000  0.94090000  1.0 -0.0370941032
N  N14  1  0.38560000  0.02190000  0.55910000  1.0 -0.0370941032
N  N15  1  0.11440000  0.52190000  0.44090000  1.0 -0.0370941032
N  N16  1  0.11440000  0.97810000  0.05910000  1.0 -0.0370941032
N  N17  1  0.73200000  0.36140000  0.02810000  1.0 -0.2706781404
N  N18  1  0.73200000  0.13860000  0.47190000  1.0 -0.2706781404
N  N19  1  0.76800000  0.63860000  0.52810000  1.0 -0.2706781404
N  N20  1  0.76800000  0.86140000  0.97190000  1.0 -0.2706781404
N  N21  1  0.26800000  0.63860000  0.97190000  1.0 -0.2706781404
N  N22  1  0.26800000  0.86140000  0.52810000  1.0 -0.2706781404
N  N23  1  0.23200000  0.36140000  0.47190000  1.0 -0.2706781404
N  N24  1  0.23200000  0.13860000  0.02810000  1.0 -0.2706781404
O  O1  1  0.81960000  0.38910000  0.19100000  1.0 -0.5101449957
O  O2  1  0.81960000  0.11090000  0.30900000  1.0 -0.5101449957
O  O3  1  0.68040000  0.61090000  0.69100000  1.0 -0.5101449957
O  O4  1  0.68040000  0.88910000  0.80900000  1.0 -0.5101449957
O  O5  1  0.18040000  0.61090000  0.80900000  1.0 -0.5101449957
O  O6  1  0.18040000  0.88910000  0.69100000  1.0 -0.5101449957
O  O7  1  0.31960000  0.38910000  0.30900000  1.0 -0.5101449957
O  O8  1  0.31960000  0.11090000  0.19100000  1.0 -0.5101449957
O  O9  1  0.88530000  0.41470000  0.30860000  1.0 -0.5031201916
O  O10  1  0.88530000  0.08530000  0.19140000  1.0 -0.5031201916
O  O11  1  0.61470000  0.58530000  0.80860000  1.0 -0.5031201916
O  O12  1  0.61470000  0.91470000  0.69140000  1.0 -0.5031201916
O  O13  1  0.11470000  0.58530000  0.69140000  1.0 -0.5031201916
O  O14  1  0.11470000  0.91470000  0.80860000  1.0 -0.5031201916
O  O15  1  0.38530000  0.41470000  0.19140000  1.0 -0.5031201916
O  O16  1  0.38530000  0.08530000  0.30860000  1.0 -0.5031201916
O  O17  1  0.61530000  0.36150000  0.16650000  1.0 -0.4655642362
O  O18  1  0.61530000  0.13850000  0.33350000  1.0 -0.4655642362
O  O19  1  0.88470000  0.63850000  0.66650000  1.0 -0.4655642362
O  O20  1  0.88470000  0.86150000  0.83350000  1.0 -0.4655642362
O  O21  1  0.38470000  0.63850000  0.83350000  1.0 -0.4655642362
O  O22  1  0.38470000  0.86150000  0.66650000  1.0 -0.4655642362
O  O23  1  0.11530000  0.36150000  0.33350000  1.0 -0.4655642362
O  O24  1  0.11530000  0.13850000  0.16650000  1.0 -0.4655642362
O  O25  1  0.53330000  0.34180000  0.27730000  1.0 -0.5101449957
O  O26  1  0.53330000  0.15820000  0.22270000  1.0 -0.5101449957
O  O27  1  0.96670000  0.65820000  0.77730000  1.0 -0.5101449957
O  O28  1  0.96670000  0.84180000  0.72270000  1.0 -0.5101449957
O  O29  1  0.46670000  0.65820000  0.72270000  1.0 -0.5101449957
O  O30  1  0.46670000  0.84180000  0.77730000  1.0 -0.5101449957
O  O31  1  0.03330000  0.34180000  0.22270000  1.0 -0.5101449957
O  O32  1  0.03330000  0.15820000  0.27730000  1.0 -0.5101449957
O  O33  1  0.80910000  0.52470000  0.06510000  1.0 -0.4611545915
O  O34  1  0.80910000  0.97530000  0.43490000  1.0 -0.4611545915
O  O35  1  0.69090000  0.47530000  0.56510000  1.0 -0.4611545915
O  O36  1  0.69090000  0.02470000  0.93490000  1.0 -0.4611545915
O  O37  1  0.19090000  0.47530000  0.93490000  1.0 -0.4611545915
O  O38  1  0.19090000  0.02470000  0.56510000  1.0 -0.4611545915
O  O39  1  0.30910000  0.52470000  0.43490000  1.0 -0.4611545915
O  O40  1  0.30910000  0.97530000  0.06510000  1.0 -0.4611545915
O  O41  1  0.82180000  0.61240000  0.96070000  1.0 -0.4861497136
O  O42  1  0.82180000  0.88760000  0.53930000  1.0 -0.4861497136
O  O43  1  0.67820000  0.38760000  0.46070000  1.0 -0.4861497136
O  O44  1  0.67820000  0.11240000  0.03930000  1.0 -0.4861497136
O  O45  1  0.17820000  0.38760000  0.03930000  1.0 -0.4861497136
O  O46  1  0.17820000  0.11240000  0.46070000  1.0 -0.4861497136
O  O47  1  0.32180000  0.61240000  0.53930000  1.0 -0.4861497136
O  O48  1  0.32180000  0.88760000  0.96070000  1.0 -0.4861497136
