# DDEC6 charges by PACMAN v1.1 (https://github.com/mtap-research/PACMAN-charge/)
data_SIZPUN_ASR_pacman
_symmetry_space_group_name_H-M   'P 1'
_cell_length_a   29.70200000
_cell_length_b   29.70200000
_cell_length_c   29.70200000
_cell_angle_alpha   60.00000000
_cell_angle_beta   60.00000000
_cell_angle_gamma   60.00000000
_symmetry_Int_Tables_number   1
_chemical_formula_structural   ZnH3C12NO6
_chemical_formula_sum   'Zn24 H72 C288 N24 O144'
_cell_volume   18528.57771526
_cell_formula_units_Z   24
loop_
 _symmetry_equiv_pos_site_id
 _symmetry_equiv_pos_as_xyz
  1  'x, y, z'
loop_
 _atom_site_type_symbol
 _atom_site_label
 _atom_site_symmetry_multiplicity
 _atom_site_fract_x
 _atom_site_fract_y
 _atom_site_fract_z
 _atom_site_occupancy
 _atom_site_charge
Zn  Zn1  1  0.50000000  0.13536000  0.50000000  1.0 0.9558194451
Zn  Zn2  1  0.50000000  0.50000000  0.13536000  1.0 0.9558194451
Zn  Zn3  1  0.13536000  0.50000000  0.50000000  1.0 0.9558194451
Zn  Zn4  1  0.50000000  0.86464000  0.13536000  1.0 0.9558194451
Zn  Zn5  1  0.50000000  0.13536000  0.86464000  1.0 0.9558194451
Zn  Zn6  1  0.13536000  0.86464000  0.50000000  1.0 0.9558194451
Zn  Zn7  1  0.86464000  0.13536000  0.50000000  1.0 0.9558194451
Zn  Zn8  1  0.86464000  0.50000000  0.13536000  1.0 0.9558194451
Zn  Zn9  1  0.13536000  0.50000000  0.86464000  1.0 0.9558194451
Zn  Zn10  1  0.50000000  0.86464000  0.50000000  1.0 0.9558194451
Zn  Zn11  1  0.50000000  0.50000000  0.86464000  1.0 0.9558194451
Zn  Zn12  1  0.86464000  0.50000000  0.50000000  1.0 0.9558194451
Zn  Zn13  1  0.50000000  0.23698000  0.50000000  1.0 1.0358624034
Zn  Zn14  1  0.50000000  0.50000000  0.23698000  1.0 1.0358624034
Zn  Zn15  1  0.23698000  0.50000000  0.50000000  1.0 1.0358624034
Zn  Zn16  1  0.50000000  0.76302000  0.23698000  1.0 1.0358624034
Zn  Zn17  1  0.50000000  0.23698000  0.76302000  1.0 1.0358624034
Zn  Zn18  1  0.23698000  0.76302000  0.50000000  1.0 1.0358624034
Zn  Zn19  1  0.76302000  0.23698000  0.50000000  1.0 1.0358624034
Zn  Zn20  1  0.76302000  0.50000000  0.23698000  1.0 1.0358624034
Zn  Zn21  1  0.23698000  0.50000000  0.76302000  1.0 1.0358624034
Zn  Zn22  1  0.50000000  0.76302000  0.50000000  1.0 1.0358624034
Zn  Zn23  1  0.50000000  0.50000000  0.76302000  1.0 1.0358624034
Zn  Zn24  1  0.76302000  0.50000000  0.50000000  1.0 1.0358624034
H  H1  1  0.67370000  0.04330000  0.47710000  1.0 0.142022851
H  H2  1  0.47710000  0.67370000  0.04330000  1.0 0.142022851
H  H3  1  0.04330000  0.47710000  0.67370000  1.0 0.142022851
H  H4  1  0.32630000  0.95670000  0.19410000  1.0 0.142022851
H  H5  1  0.52290000  0.19410000  0.95670000  1.0 0.142022851
H  H6  1  0.19410000  0.52290000  0.32630000  1.0 0.142022851
H  H7  1  0.52290000  0.32630000  0.19410000  1.0 0.142022851
H  H8  1  0.19410000  0.95670000  0.52290000  1.0 0.142022851
H  H9  1  0.95670000  0.19410000  0.32630000  1.0 0.142022851
H  H10  1  0.95670000  0.52290000  0.19410000  1.0 0.142022851
H  H11  1  0.32630000  0.19410000  0.52290000  1.0 0.142022851
H  H12  1  0.19410000  0.32630000  0.95670000  1.0 0.142022851
H  H13  1  0.04330000  0.67370000  0.80590000  1.0 0.142022851
H  H14  1  0.47710000  0.80590000  0.67370000  1.0 0.142022851
H  H15  1  0.80590000  0.47710000  0.04330000  1.0 0.142022851
H  H16  1  0.80590000  0.04330000  0.67370000  1.0 0.142022851
H  H17  1  0.67370000  0.47710000  0.80590000  1.0 0.142022851
H  H18  1  0.04330000  0.80590000  0.47710000  1.0 0.142022851
H  H19  1  0.67370000  0.80590000  0.04330000  1.0 0.142022851
H  H20  1  0.80590000  0.67370000  0.47710000  1.0 0.142022851
H  H21  1  0.47710000  0.04330000  0.80590000  1.0 0.142022851
H  H22  1  0.95670000  0.32630000  0.52290000  1.0 0.142022851
H  H23  1  0.32630000  0.52290000  0.95670000  1.0 0.142022851
H  H24  1  0.52290000  0.95670000  0.32630000  1.0 0.142022851
H  H25  1  0.32630000  0.95670000  0.52290000  1.0 0.142022851
H  H26  1  0.52290000  0.32630000  0.95670000  1.0 0.142022851
H  H27  1  0.95670000  0.52290000  0.32630000  1.0 0.142022851
H  H28  1  0.67370000  0.04330000  0.80590000  1.0 0.142022851
H  H29  1  0.47710000  0.80590000  0.04330000  1.0 0.142022851
H  H30  1  0.80590000  0.47710000  0.67370000  1.0 0.142022851
H  H31  1  0.47710000  0.67370000  0.80590000  1.0 0.142022851
H  H32  1  0.80590000  0.04330000  0.47710000  1.0 0.142022851
H  H33  1  0.04330000  0.80590000  0.67370000  1.0 0.142022851
H  H34  1  0.04330000  0.47710000  0.80590000  1.0 0.142022851
H  H35  1  0.67370000  0.80590000  0.47710000  1.0 0.142022851
H  H36  1  0.80590000  0.67370000  0.04330000  1.0 0.142022851
H  H37  1  0.95670000  0.32630000  0.19410000  1.0 0.142022851
H  H38  1  0.52290000  0.19410000  0.32630000  1.0 0.142022851
H  H39  1  0.19410000  0.52290000  0.95670000  1.0 0.142022851
H  H40  1  0.19410000  0.95670000  0.32630000  1.0 0.142022851
H  H41  1  0.32630000  0.52290000  0.19410000  1.0 0.142022851
H  H42  1  0.95670000  0.19410000  0.52290000  1.0 0.142022851
H  H43  1  0.32630000  0.19410000  0.95670000  1.0 0.142022851
H  H44  1  0.19410000  0.32630000  0.52290000  1.0 0.142022851
H  H45  1  0.52290000  0.95670000  0.19410000  1.0 0.142022851
H  H46  1  0.04330000  0.67370000  0.47710000  1.0 0.142022851
H  H47  1  0.67370000  0.47710000  0.04330000  1.0 0.142022851
H  H48  1  0.47710000  0.04330000  0.67370000  1.0 0.142022851
H  H49  1  0.66980000  0.17740000  0.48300000  1.0 0.1328306382
H  H50  1  0.48300000  0.66980000  0.17740000  1.0 0.1328306382
H  H51  1  0.17740000  0.48300000  0.66980000  1.0 0.1328306382
H  H52  1  0.33020000  0.82260000  0.33020000  1.0 0.1328306382
H  H53  1  0.51700000  0.33020000  0.82260000  1.0 0.1328306382
H  H54  1  0.33020000  0.51700000  0.33020000  1.0 0.1328306382
H  H55  1  0.51700000  0.33020000  0.33020000  1.0 0.1328306382
H  H56  1  0.33020000  0.82260000  0.51700000  1.0 0.1328306382
H  H57  1  0.82260000  0.33020000  0.33020000  1.0 0.1328306382
H  H58  1  0.82260000  0.51700000  0.33020000  1.0 0.1328306382
H  H59  1  0.33020000  0.33020000  0.51700000  1.0 0.1328306382
H  H60  1  0.33020000  0.33020000  0.82260000  1.0 0.1328306382
H  H61  1  0.17740000  0.66980000  0.66980000  1.0 0.1328306382
H  H62  1  0.48300000  0.66980000  0.66980000  1.0 0.1328306382
H  H63  1  0.66980000  0.48300000  0.17740000  1.0 0.1328306382
H  H64  1  0.66980000  0.17740000  0.66980000  1.0 0.1328306382
H  H65  1  0.66980000  0.48300000  0.66980000  1.0 0.1328306382
H  H66  1  0.17740000  0.66980000  0.48300000  1.0 0.1328306382
H  H67  1  0.66980000  0.66980000  0.17740000  1.0 0.1328306382
H  H68  1  0.66980000  0.66980000  0.48300000  1.0 0.1328306382
H  H69  1  0.48300000  0.17740000  0.66980000  1.0 0.1328306382
H  H70  1  0.82260000  0.33020000  0.51700000  1.0 0.1328306382
H  H71  1  0.33020000  0.51700000  0.82260000  1.0 0.1328306382
H  H72  1  0.51700000  0.82260000  0.33020000  1.0 0.1328306382
C  C1  1  0.60030000  0.13870000  0.49070000  1.0 0.5905162951
C  C2  1  0.49070000  0.60030000  0.13870000  1.0 0.5905162951
C  C3  1  0.13870000  0.49070000  0.60030000  1.0 0.5905162951
C  C4  1  0.39970000  0.86130000  0.22970000  1.0 0.5905162951
C  C5  1  0.50930000  0.22970000  0.86130000  1.0 0.5905162951
C  C6  1  0.22970000  0.50930000  0.39970000  1.0 0.5905162951
C  C7  1  0.50930000  0.39970000  0.22970000  1.0 0.5905162951
C  C8  1  0.22970000  0.86130000  0.50930000  1.0 0.5905162951
C  C9  1  0.86130000  0.22970000  0.39970000  1.0 0.5905162951
C  C10  1  0.86130000  0.50930000  0.22970000  1.0 0.5905162951
C  C11  1  0.39970000  0.22970000  0.50930000  1.0 0.5905162951
C  C12  1  0.22970000  0.39970000  0.86130000  1.0 0.5905162951
C  C13  1  0.13870000  0.60030000  0.77030000  1.0 0.5905162951
C  C14  1  0.49070000  0.77030000  0.60030000  1.0 0.5905162951
C  C15  1  0.77030000  0.49070000  0.13870000  1.0 0.5905162951
C  C16  1  0.77030000  0.13870000  0.60030000  1.0 0.5905162951
C  C17  1  0.60030000  0.49070000  0.77030000  1.0 0.5905162951
C  C18  1  0.13870000  0.77030000  0.49070000  1.0 0.5905162951
C  C19  1  0.60030000  0.77030000  0.13870000  1.0 0.5905162951
C  C20  1  0.77030000  0.60030000  0.49070000  1.0 0.5905162951
C  C21  1  0.49070000  0.13870000  0.77030000  1.0 0.5905162951
C  C22  1  0.86130000  0.39970000  0.50930000  1.0 0.5905162951
C  C23  1  0.39970000  0.50930000  0.86130000  1.0 0.5905162951
C  C24  1  0.50930000  0.86130000  0.39970000  1.0 0.5905162951
C  C25  1  0.39970000  0.86130000  0.50930000  1.0 0.5905162951
C  C26  1  0.50930000  0.39970000  0.86130000  1.0 0.5905162951
C  C27  1  0.86130000  0.50930000  0.39970000  1.0 0.5905162951
C  C28  1  0.60030000  0.13870000  0.77030000  1.0 0.5905162951
C  C29  1  0.49070000  0.77030000  0.13870000  1.0 0.5905162951
C  C30  1  0.77030000  0.49070000  0.60030000  1.0 0.5905162951
C  C31  1  0.49070000  0.60030000  0.77030000  1.0 0.5905162951
C  C32  1  0.77030000  0.13870000  0.49070000  1.0 0.5905162951
C  C33  1  0.13870000  0.77030000  0.60030000  1.0 0.5905162951
C  C34  1  0.13870000  0.49070000  0.77030000  1.0 0.5905162951
C  C35  1  0.60030000  0.77030000  0.49070000  1.0 0.5905162951
C  C36  1  0.77030000  0.60030000  0.13870000  1.0 0.5905162951
C  C37  1  0.86130000  0.39970000  0.22970000  1.0 0.5905162951
C  C38  1  0.50930000  0.22970000  0.39970000  1.0 0.5905162951
C  C39  1  0.22970000  0.50930000  0.86130000  1.0 0.5905162951
C  C40  1  0.22970000  0.86130000  0.39970000  1.0 0.5905162951
C  C41  1  0.39970000  0.50930000  0.22970000  1.0 0.5905162951
C  C42  1  0.86130000  0.22970000  0.50930000  1.0 0.5905162951
C  C43  1  0.39970000  0.22970000  0.86130000  1.0 0.5905162951
C  C44  1  0.22970000  0.39970000  0.50930000  1.0 0.5905162951
C  C45  1  0.50930000  0.86130000  0.22970000  1.0 0.5905162951
C  C46  1  0.13870000  0.60030000  0.49070000  1.0 0.5905162951
C  C47  1  0.60030000  0.49070000  0.13870000  1.0 0.5905162951
C  C48  1  0.49070000  0.13870000  0.60030000  1.0 0.5905162951
C  C49  1  0.65900000  0.11520000  0.47860000  1.0 -0.0660702849
C  C50  1  0.47860000  0.65900000  0.11520000  1.0 -0.0660702849
C  C51  1  0.11520000  0.47860000  0.65900000  1.0 -0.0660702849
C  C52  1  0.34100000  0.88480000  0.25280000  1.0 -0.0660702849
C  C53  1  0.52140000  0.25280000  0.88480000  1.0 -0.0660702849
C  C54  1  0.25280000  0.52140000  0.34100000  1.0 -0.0660702849
C  C55  1  0.52140000  0.34100000  0.25280000  1.0 -0.0660702849
C  C56  1  0.25280000  0.88480000  0.52140000  1.0 -0.0660702849
C  C57  1  0.88480000  0.25280000  0.34100000  1.0 -0.0660702849
C  C58  1  0.88480000  0.52140000  0.25280000  1.0 -0.0660702849
C  C59  1  0.34100000  0.25280000  0.52140000  1.0 -0.0660702849
C  C60  1  0.25280000  0.34100000  0.88480000  1.0 -0.0660702849
C  C61  1  0.11520000  0.65900000  0.74720000  1.0 -0.0660702849
C  C62  1  0.47860000  0.74720000  0.65900000  1.0 -0.0660702849
C  C63  1  0.74720000  0.47860000  0.11520000  1.0 -0.0660702849
C  C64  1  0.74720000  0.11520000  0.65900000  1.0 -0.0660702849
C  C65  1  0.65900000  0.47860000  0.74720000  1.0 -0.0660702849
C  C66  1  0.11520000  0.74720000  0.47860000  1.0 -0.0660702849
C  C67  1  0.65900000  0.74720000  0.11520000  1.0 -0.0660702849
C  C68  1  0.74720000  0.65900000  0.47860000  1.0 -0.0660702849
C  C69  1  0.47860000  0.11520000  0.74720000  1.0 -0.0660702849
C  C70  1  0.88480000  0.34100000  0.52140000  1.0 -0.0660702849
C  C71  1  0.34100000  0.52140000  0.88480000  1.0 -0.0660702849
C  C72  1  0.52140000  0.88480000  0.34100000  1.0 -0.0660702849
C  C73  1  0.34100000  0.88480000  0.52140000  1.0 -0.0660702849
C  C74  1  0.52140000  0.34100000  0.88480000  1.0 -0.0660702849
C  C75  1  0.88480000  0.52140000  0.34100000  1.0 -0.0660702849
C  C76  1  0.65900000  0.11520000  0.74720000  1.0 -0.0660702849
C  C77  1  0.47860000  0.74720000  0.11520000  1.0 -0.0660702849
C  C78  1  0.74720000  0.47860000  0.65900000  1.0 -0.0660702849
C  C79  1  0.47860000  0.65900000  0.74720000  1.0 -0.0660702849
C  C80  1  0.74720000  0.11520000  0.47860000  1.0 -0.0660702849
C  C81  1  0.11520000  0.74720000  0.65900000  1.0 -0.0660702849
C  C82  1  0.11520000  0.47860000  0.74720000  1.0 -0.0660702849
C  C83  1  0.65900000  0.74720000  0.47860000  1.0 -0.0660702849
C  C84  1  0.74720000  0.65900000  0.11520000  1.0 -0.0660702849
C  C85  1  0.88480000  0.34100000  0.25280000  1.0 -0.0660702849
C  C86  1  0.52140000  0.25280000  0.34100000  1.0 -0.0660702849
C  C87  1  0.25280000  0.52140000  0.88480000  1.0 -0.0660702849
C  C88  1  0.25280000  0.88480000  0.34100000  1.0 -0.0660702849
C  C89  1  0.34100000  0.52140000  0.25280000  1.0 -0.0660702849
C  C90  1  0.88480000  0.25280000  0.52140000  1.0 -0.0660702849
C  C91  1  0.34100000  0.25280000  0.88480000  1.0 -0.0660702849
C  C92  1  0.25280000  0.34100000  0.52140000  1.0 -0.0660702849
C  C93  1  0.52140000  0.88480000  0.25280000  1.0 -0.0660702849
C  C94  1  0.11520000  0.65900000  0.47860000  1.0 -0.0660702849
C  C95  1  0.65900000  0.47860000  0.11520000  1.0 -0.0660702849
C  C96  1  0.47860000  0.11520000  0.65900000  1.0 -0.0660702849
C  C97  1  0.69150000  0.06390000  0.47470000  1.0 -0.1099097359
C  C98  1  0.47470000  0.69150000  0.06390000  1.0 -0.1099097359
C  C99  1  0.06390000  0.47470000  0.69150000  1.0 -0.1099097359
C  C100  1  0.30850000  0.93610000  0.23010000  1.0 -0.1099097359
C  C101  1  0.52530000  0.23010000  0.93610000  1.0 -0.1099097359
C  C102  1  0.23010000  0.52530000  0.30850000  1.0 -0.1099097359
C  C103  1  0.52530000  0.30850000  0.23010000  1.0 -0.1099097359
C  C104  1  0.23010000  0.93610000  0.52530000  1.0 -0.1099097359
C  C105  1  0.93610000  0.23010000  0.30850000  1.0 -0.1099097359
C  C106  1  0.93610000  0.52530000  0.23010000  1.0 -0.1099097359
C  C107  1  0.30850000  0.23010000  0.52530000  1.0 -0.1099097359
C  C108  1  0.23010000  0.30850000  0.93610000  1.0 -0.1099097359
C  C109  1  0.06390000  0.69150000  0.76990000  1.0 -0.1099097359
C  C110  1  0.47470000  0.76990000  0.69150000  1.0 -0.1099097359
C  C111  1  0.76990000  0.47470000  0.06390000  1.0 -0.1099097359
C  C112  1  0.76990000  0.06390000  0.69150000  1.0 -0.1099097359
C  C113  1  0.69150000  0.47470000  0.76990000  1.0 -0.1099097359
C  C114  1  0.06390000  0.76990000  0.47470000  1.0 -0.1099097359
C  C115  1  0.69150000  0.76990000  0.06390000  1.0 -0.1099097359
C  C116  1  0.76990000  0.69150000  0.47470000  1.0 -0.1099097359
C  C117  1  0.47470000  0.06390000  0.76990000  1.0 -0.1099097359
C  C118  1  0.93610000  0.30850000  0.52530000  1.0 -0.1099097359
C  C119  1  0.30850000  0.52530000  0.93610000  1.0 -0.1099097359
C  C120  1  0.52530000  0.93610000  0.30850000  1.0 -0.1099097359
C  C121  1  0.30850000  0.93610000  0.52530000  1.0 -0.1099097359
C  C122  1  0.52530000  0.30850000  0.93610000  1.0 -0.1099097359
C  C123  1  0.93610000  0.52530000  0.30850000  1.0 -0.1099097359
C  C124  1  0.69150000  0.06390000  0.76990000  1.0 -0.1099097359
C  C125  1  0.47470000  0.76990000  0.06390000  1.0 -0.1099097359
C  C126  1  0.76990000  0.47470000  0.69150000  1.0 -0.1099097359
C  C127  1  0.47470000  0.69150000  0.76990000  1.0 -0.1099097359
C  C128  1  0.76990000  0.06390000  0.47470000  1.0 -0.1099097359
C  C129  1  0.06390000  0.76990000  0.69150000  1.0 -0.1099097359
C  C130  1  0.06390000  0.47470000  0.76990000  1.0 -0.1099097359
C  C131  1  0.69150000  0.76990000  0.47470000  1.0 -0.1099097359
C  C132  1  0.76990000  0.69150000  0.06390000  1.0 -0.1099097359
C  C133  1  0.93610000  0.30850000  0.23010000  1.0 -0.1099097359
C  C134  1  0.52530000  0.23010000  0.30850000  1.0 -0.1099097359
C  C135  1  0.23010000  0.52530000  0.93610000  1.0 -0.1099097359
C  C136  1  0.23010000  0.93610000  0.30850000  1.0 -0.1099097359
C  C137  1  0.30850000  0.52530000  0.23010000  1.0 -0.1099097359
C  C138  1  0.93610000  0.23010000  0.52530000  1.0 -0.1099097359
C  C139  1  0.30850000  0.23010000  0.93610000  1.0 -0.1099097359
C  C140  1  0.23010000  0.30850000  0.52530000  1.0 -0.1099097359
C  C141  1  0.52530000  0.93610000  0.23010000  1.0 -0.1099097359
C  C142  1  0.06390000  0.69150000  0.47470000  1.0 -0.1099097359
C  C143  1  0.69150000  0.47470000  0.06390000  1.0 -0.1099097359
C  C144  1  0.47470000  0.06390000  0.69150000  1.0 -0.1099097359
C  C145  1  0.74670000  0.03910000  0.46750000  1.0 0.1929883378
C  C146  1  0.46750000  0.74670000  0.03910000  1.0 0.1929883378
C  C147  1  0.03910000  0.46750000  0.74670000  1.0 0.1929883378
C  C148  1  0.25330000  0.96090000  0.25330000  1.0 0.1929883378
C  C149  1  0.53250000  0.25330000  0.96090000  1.0 0.1929883378
C  C150  1  0.25330000  0.53250000  0.25330000  1.0 0.1929883378
C  C151  1  0.53250000  0.25330000  0.25330000  1.0 0.1929883378
C  C152  1  0.25330000  0.96090000  0.53250000  1.0 0.1929883378
C  C153  1  0.96090000  0.25330000  0.25330000  1.0 0.1929883378
C  C154  1  0.96090000  0.53250000  0.25330000  1.0 0.1929883378
C  C155  1  0.25330000  0.25330000  0.53250000  1.0 0.1929883378
C  C156  1  0.25330000  0.25330000  0.96090000  1.0 0.1929883378
C  C157  1  0.03910000  0.74670000  0.74670000  1.0 0.1929883378
C  C158  1  0.46750000  0.74670000  0.74670000  1.0 0.1929883378
C  C159  1  0.74670000  0.46750000  0.03910000  1.0 0.1929883378
C  C160  1  0.74670000  0.03910000  0.74670000  1.0 0.1929883378
C  C161  1  0.74670000  0.46750000  0.74670000  1.0 0.1929883378
C  C162  1  0.03910000  0.74670000  0.46750000  1.0 0.1929883378
C  C163  1  0.74670000  0.74670000  0.03910000  1.0 0.1929883378
C  C164  1  0.74670000  0.74670000  0.46750000  1.0 0.1929883378
C  C165  1  0.46750000  0.03910000  0.74670000  1.0 0.1929883378
C  C166  1  0.96090000  0.25330000  0.53250000  1.0 0.1929883378
C  C167  1  0.25330000  0.53250000  0.96090000  1.0 0.1929883378
C  C168  1  0.53250000  0.96090000  0.25330000  1.0 0.1929883378
C  C169  1  0.68900000  0.14140000  0.48060000  1.0 -0.0443735558
C  C170  1  0.48060000  0.68900000  0.14140000  1.0 -0.0443735558
C  C171  1  0.14140000  0.48060000  0.68900000  1.0 -0.0443735558
C  C172  1  0.31100000  0.85860000  0.31100000  1.0 -0.0443735558
C  C173  1  0.51940000  0.31100000  0.85860000  1.0 -0.0443735558
C  C174  1  0.31100000  0.51940000  0.31100000  1.0 -0.0443735558
C  C175  1  0.51940000  0.31100000  0.31100000  1.0 -0.0443735558
C  C176  1  0.31100000  0.85860000  0.51940000  1.0 -0.0443735558
C  C177  1  0.85860000  0.31100000  0.31100000  1.0 -0.0443735558
C  C178  1  0.85860000  0.51940000  0.31100000  1.0 -0.0443735558
C  C179  1  0.31100000  0.31100000  0.51940000  1.0 -0.0443735558
C  C180  1  0.31100000  0.31100000  0.85860000  1.0 -0.0443735558
C  C181  1  0.14140000  0.68900000  0.68900000  1.0 -0.0443735558
C  C182  1  0.48060000  0.68900000  0.68900000  1.0 -0.0443735558
C  C183  1  0.68900000  0.48060000  0.14140000  1.0 -0.0443735558
C  C184  1  0.68900000  0.14140000  0.68900000  1.0 -0.0443735558
C  C185  1  0.68900000  0.48060000  0.68900000  1.0 -0.0443735558
C  C186  1  0.14140000  0.68900000  0.48060000  1.0 -0.0443735558
C  C187  1  0.68900000  0.68900000  0.14140000  1.0 -0.0443735558
C  C188  1  0.68900000  0.68900000  0.48060000  1.0 -0.0443735558
C  C189  1  0.48060000  0.14140000  0.68900000  1.0 -0.0443735558
C  C190  1  0.85860000  0.31100000  0.51940000  1.0 -0.0443735558
C  C191  1  0.31100000  0.51940000  0.85860000  1.0 -0.0443735558
C  C192  1  0.51940000  0.85860000  0.31100000  1.0 -0.0443735558
C  C193  1  0.82660000  0.94780000  0.46280000  1.0 0.3394416116
C  C194  1  0.46280000  0.82660000  0.94780000  1.0 0.3394416116
C  C195  1  0.94780000  0.46280000  0.82660000  1.0 0.3394416116
C  C196  1  0.17340000  0.05220000  0.23720000  1.0 0.3394416116
C  C197  1  0.53720000  0.23720000  0.05220000  1.0 0.3394416116
C  C198  1  0.23720000  0.53720000  0.17340000  1.0 0.3394416116
C  C199  1  0.53720000  0.17340000  0.23720000  1.0 0.3394416116
C  C200  1  0.23720000  0.05220000  0.53720000  1.0 0.3394416116
C  C201  1  0.05220000  0.23720000  0.17340000  1.0 0.3394416116
C  C202  1  0.05220000  0.53720000  0.23720000  1.0 0.3394416116
C  C203  1  0.17340000  0.23720000  0.53720000  1.0 0.3394416116
C  C204  1  0.23720000  0.17340000  0.05220000  1.0 0.3394416116
C  C205  1  0.94780000  0.82660000  0.76280000  1.0 0.3394416116
C  C206  1  0.46280000  0.76280000  0.82660000  1.0 0.3394416116
C  C207  1  0.76280000  0.46280000  0.94780000  1.0 0.3394416116
C  C208  1  0.76280000  0.94780000  0.82660000  1.0 0.3394416116
C  C209  1  0.82660000  0.46280000  0.76280000  1.0 0.3394416116
C  C210  1  0.94780000  0.76280000  0.46280000  1.0 0.3394416116
C  C211  1  0.82660000  0.76280000  0.94780000  1.0 0.3394416116
C  C212  1  0.76280000  0.82660000  0.46280000  1.0 0.3394416116
C  C213  1  0.46280000  0.94780000  0.76280000  1.0 0.3394416116
C  C214  1  0.05220000  0.17340000  0.53720000  1.0 0.3394416116
C  C215  1  0.17340000  0.53720000  0.05220000  1.0 0.3394416116
C  C216  1  0.53720000  0.05220000  0.17340000  1.0 0.3394416116
C  C217  1  0.17340000  0.05220000  0.53720000  1.0 0.3394416116
C  C218  1  0.53720000  0.17340000  0.05220000  1.0 0.3394416116
C  C219  1  0.05220000  0.53720000  0.17340000  1.0 0.3394416116
C  C220  1  0.82660000  0.94780000  0.76280000  1.0 0.3394416116
C  C221  1  0.46280000  0.76280000  0.94780000  1.0 0.3394416116
C  C222  1  0.76280000  0.46280000  0.82660000  1.0 0.3394416116
C  C223  1  0.46280000  0.82660000  0.76280000  1.0 0.3394416116
C  C224  1  0.76280000  0.94780000  0.46280000  1.0 0.3394416116
C  C225  1  0.94780000  0.76280000  0.82660000  1.0 0.3394416116
C  C226  1  0.94780000  0.46280000  0.76280000  1.0 0.3394416116
C  C227  1  0.82660000  0.76280000  0.46280000  1.0 0.3394416116
C  C228  1  0.76280000  0.82660000  0.94780000  1.0 0.3394416116
C  C229  1  0.05220000  0.17340000  0.23720000  1.0 0.3394416116
C  C230  1  0.53720000  0.23720000  0.17340000  1.0 0.3394416116
C  C231  1  0.23720000  0.53720000  0.05220000  1.0 0.3394416116
C  C232  1  0.23720000  0.05220000  0.17340000  1.0 0.3394416116
C  C233  1  0.17340000  0.53720000  0.23720000  1.0 0.3394416116
C  C234  1  0.05220000  0.23720000  0.53720000  1.0 0.3394416116
C  C235  1  0.17340000  0.23720000  0.05220000  1.0 0.3394416116
C  C236  1  0.23720000  0.17340000  0.53720000  1.0 0.3394416116
C  C237  1  0.53720000  0.05220000  0.23720000  1.0 0.3394416116
C  C238  1  0.94780000  0.82660000  0.46280000  1.0 0.3394416116
C  C239  1  0.82660000  0.46280000  0.94780000  1.0 0.3394416116
C  C240  1  0.46280000  0.94780000  0.82660000  1.0 0.3394416116
C  C241  1  0.84630000  0.89190000  0.46330000  1.0 -0.0296522404
C  C242  1  0.46330000  0.84630000  0.89190000  1.0 -0.0296522404
C  C243  1  0.89190000  0.46330000  0.84630000  1.0 -0.0296522404
C  C244  1  0.15370000  0.10810000  0.20150000  1.0 -0.0296522404
C  C245  1  0.53670000  0.20150000  0.10810000  1.0 -0.0296522404
C  C246  1  0.20150000  0.53670000  0.15370000  1.0 -0.0296522404
C  C247  1  0.53670000  0.15370000  0.20150000  1.0 -0.0296522404
C  C248  1  0.20150000  0.10810000  0.53670000  1.0 -0.0296522404
C  C249  1  0.10810000  0.20150000  0.15370000  1.0 -0.0296522404
C  C250  1  0.10810000  0.53670000  0.20150000  1.0 -0.0296522404
C  C251  1  0.15370000  0.20150000  0.53670000  1.0 -0.0296522404
C  C252  1  0.20150000  0.15370000  0.10810000  1.0 -0.0296522404
C  C253  1  0.89190000  0.84630000  0.79850000  1.0 -0.0296522404
C  C254  1  0.46330000  0.79850000  0.84630000  1.0 -0.0296522404
C  C255  1  0.79850000  0.46330000  0.89190000  1.0 -0.0296522404
C  C256  1  0.79850000  0.89190000  0.84630000  1.0 -0.0296522404
C  C257  1  0.84630000  0.46330000  0.79850000  1.0 -0.0296522404
C  C258  1  0.89190000  0.79850000  0.46330000  1.0 -0.0296522404
C  C259  1  0.84630000  0.79850000  0.89190000  1.0 -0.0296522404
C  C260  1  0.79850000  0.84630000  0.46330000  1.0 -0.0296522404
C  C261  1  0.46330000  0.89190000  0.79850000  1.0 -0.0296522404
C  C262  1  0.10810000  0.15370000  0.53670000  1.0 -0.0296522404
C  C263  1  0.15370000  0.53670000  0.10810000  1.0 -0.0296522404
C  C264  1  0.53670000  0.10810000  0.15370000  1.0 -0.0296522404
C  C265  1  0.15370000  0.10810000  0.53670000  1.0 -0.0296522404
C  C266  1  0.53670000  0.15370000  0.10810000  1.0 -0.0296522404
C  C267  1  0.10810000  0.53670000  0.15370000  1.0 -0.0296522404
C  C268  1  0.84630000  0.89190000  0.79850000  1.0 -0.0296522404
C  C269  1  0.46330000  0.79850000  0.89190000  1.0 -0.0296522404
C  C270  1  0.79850000  0.46330000  0.84630000  1.0 -0.0296522404
C  C271  1  0.46330000  0.84630000  0.79850000  1.0 -0.0296522404
C  C272  1  0.79850000  0.89190000  0.46330000  1.0 -0.0296522404
C  C273  1  0.89190000  0.79850000  0.84630000  1.0 -0.0296522404
C  C274  1  0.89190000  0.46330000  0.79850000  1.0 -0.0296522404
C  C275  1  0.84630000  0.79850000  0.46330000  1.0 -0.0296522404
C  C276  1  0.79850000  0.84630000  0.89190000  1.0 -0.0296522404
C  C277  1  0.10810000  0.15370000  0.20150000  1.0 -0.0296522404
C  C278  1  0.53670000  0.20150000  0.15370000  1.0 -0.0296522404
C  C279  1  0.20150000  0.53670000  0.10810000  1.0 -0.0296522404
C  C280  1  0.20150000  0.10810000  0.15370000  1.0 -0.0296522404
C  C281  1  0.15370000  0.53670000  0.20150000  1.0 -0.0296522404
C  C282  1  0.10810000  0.20150000  0.53670000  1.0 -0.0296522404
C  C283  1  0.15370000  0.20150000  0.10810000  1.0 -0.0296522404
C  C284  1  0.20150000  0.15370000  0.53670000  1.0 -0.0296522404
C  C285  1  0.53670000  0.10810000  0.20150000  1.0 -0.0296522404
C  C286  1  0.89190000  0.84630000  0.46330000  1.0 -0.0296522404
C  C287  1  0.84630000  0.46330000  0.89190000  1.0 -0.0296522404
C  C288  1  0.46330000  0.89190000  0.84630000  1.0 -0.0296522404
N  N1  1  0.77570000  0.98470000  0.46390000  1.0 -0.1099097359
N  N2  1  0.46390000  0.77570000  0.98470000  1.0 -0.1099097359
N  N3  1  0.98470000  0.46390000  0.77570000  1.0 -0.1099097359
N  N4  1  0.22430000  0.01530000  0.22430000  1.0 -0.1099097359
N  N5  1  0.53610000  0.22430000  0.01530000  1.0 -0.1099097359
N  N6  1  0.22430000  0.53610000  0.22430000  1.0 -0.1099097359
N  N7  1  0.53610000  0.22430000  0.22430000  1.0 -0.1099097359
N  N8  1  0.22430000  0.01530000  0.53610000  1.0 -0.1099097359
N  N9  1  0.01530000  0.22430000  0.22430000  1.0 -0.1099097359
N  N10  1  0.01530000  0.53610000  0.22430000  1.0 -0.1099097359
N  N11  1  0.22430000  0.22430000  0.53610000  1.0 -0.1099097359
N  N12  1  0.22430000  0.22430000  0.01530000  1.0 -0.1099097359
N  N13  1  0.98470000  0.77570000  0.77570000  1.0 -0.1099097359
N  N14  1  0.46390000  0.77570000  0.77570000  1.0 -0.1099097359
N  N15  1  0.77570000  0.46390000  0.98470000  1.0 -0.1099097359
N  N16  1  0.77570000  0.98470000  0.77570000  1.0 -0.1099097359
N  N17  1  0.77570000  0.46390000  0.77570000  1.0 -0.1099097359
N  N18  1  0.98470000  0.77570000  0.46390000  1.0 -0.1099097359
N  N19  1  0.77570000  0.77570000  0.98470000  1.0 -0.1099097359
N  N20  1  0.77570000  0.77570000  0.46390000  1.0 -0.1099097359
N  N21  1  0.46390000  0.98470000  0.77570000  1.0 -0.1099097359
N  N22  1  0.01530000  0.22430000  0.53610000  1.0 -0.1099097359
N  N23  1  0.22430000  0.53610000  0.01530000  1.0 -0.1099097359
N  N24  1  0.53610000  0.01530000  0.22430000  1.0 -0.1099097359
O  O1  1  0.57720000  0.11640000  0.48632000  1.0 -0.5023521262
O  O2  1  0.48632000  0.57720000  0.11640000  1.0 -0.5023521262
O  O3  1  0.11640000  0.48632000  0.57720000  1.0 -0.5023521262
O  O4  1  0.42280000  0.88360000  0.17992000  1.0 -0.5023521262
O  O5  1  0.51368000  0.17992000  0.88360000  1.0 -0.5023521262
O  O6  1  0.17992000  0.51368000  0.42280000  1.0 -0.5023521262
O  O7  1  0.51368000  0.42280000  0.17992000  1.0 -0.5023521262
O  O8  1  0.17992000  0.88360000  0.51368000  1.0 -0.5023521262
O  O9  1  0.88360000  0.17992000  0.42280000  1.0 -0.5023521262
O  O10  1  0.88360000  0.51368000  0.17992000  1.0 -0.5023521262
O  O11  1  0.42280000  0.17992000  0.51368000  1.0 -0.5023521262
O  O12  1  0.17992000  0.42280000  0.88360000  1.0 -0.5023521262
O  O13  1  0.11640000  0.57720000  0.82008000  1.0 -0.5023521262
O  O14  1  0.48632000  0.82008000  0.57720000  1.0 -0.5023521262
O  O15  1  0.82008000  0.48632000  0.11640000  1.0 -0.5023521262
O  O16  1  0.82008000  0.11640000  0.57720000  1.0 -0.5023521262
O  O17  1  0.57720000  0.48632000  0.82008000  1.0 -0.5023521262
O  O18  1  0.11640000  0.82008000  0.48632000  1.0 -0.5023521262
O  O19  1  0.57720000  0.82008000  0.11640000  1.0 -0.5023521262
O  O20  1  0.82008000  0.57720000  0.48632000  1.0 -0.5023521262
O  O21  1  0.48632000  0.11640000  0.82008000  1.0 -0.5023521262
O  O22  1  0.88360000  0.42280000  0.51368000  1.0 -0.5023521262
O  O23  1  0.42280000  0.51368000  0.88360000  1.0 -0.5023521262
O  O24  1  0.51368000  0.88360000  0.42280000  1.0 -0.5023521262
O  O25  1  0.42280000  0.88360000  0.51368000  1.0 -0.5023521262
O  O26  1  0.51368000  0.42280000  0.88360000  1.0 -0.5023521262
O  O27  1  0.88360000  0.51368000  0.42280000  1.0 -0.5023521262
O  O28  1  0.57720000  0.11640000  0.82008000  1.0 -0.5023521262
O  O29  1  0.48632000  0.82008000  0.11640000  1.0 -0.5023521262
O  O30  1  0.82008000  0.48632000  0.57720000  1.0 -0.5023521262
O  O31  1  0.48632000  0.57720000  0.82008000  1.0 -0.5023521262
O  O32  1  0.82008000  0.11640000  0.48632000  1.0 -0.5023521262
O  O33  1  0.11640000  0.82008000  0.57720000  1.0 -0.5023521262
O  O34  1  0.11640000  0.48632000  0.82008000  1.0 -0.5023521262
O  O35  1  0.57720000  0.82008000  0.48632000  1.0 -0.5023521262
O  O36  1  0.82008000  0.57720000  0.11640000  1.0 -0.5023521262
O  O37  1  0.88360000  0.42280000  0.17992000  1.0 -0.5023521262
O  O38  1  0.51368000  0.17992000  0.42280000  1.0 -0.5023521262
O  O39  1  0.17992000  0.51368000  0.88360000  1.0 -0.5023521262
O  O40  1  0.17992000  0.88360000  0.42280000  1.0 -0.5023521262
O  O41  1  0.42280000  0.51368000  0.17992000  1.0 -0.5023521262
O  O42  1  0.88360000  0.17992000  0.51368000  1.0 -0.5023521262
O  O43  1  0.42280000  0.17992000  0.88360000  1.0 -0.5023521262
O  O44  1  0.17992000  0.42280000  0.51368000  1.0 -0.5023521262
O  O45  1  0.51368000  0.88360000  0.17992000  1.0 -0.5023521262
O  O46  1  0.11640000  0.57720000  0.48632000  1.0 -0.5023521262
O  O47  1  0.57720000  0.48632000  0.11640000  1.0 -0.5023521262
O  O48  1  0.48632000  0.11640000  0.57720000  1.0 -0.5023521262
O  O49  1  0.57644000  0.19196000  0.48804000  1.0 -0.573332156
O  O50  1  0.48804000  0.57644000  0.19196000  1.0 -0.573332156
O  O51  1  0.19196000  0.48804000  0.57644000  1.0 -0.573332156
O  O52  1  0.42356000  0.80804000  0.25644000  1.0 -0.573332156
O  O53  1  0.51196000  0.25644000  0.80804000  1.0 -0.573332156
O  O54  1  0.25644000  0.51196000  0.42356000  1.0 -0.573332156
O  O55  1  0.51196000  0.42356000  0.25644000  1.0 -0.573332156
O  O56  1  0.25644000  0.80804000  0.51196000  1.0 -0.573332156
O  O57  1  0.80804000  0.25644000  0.42356000  1.0 -0.573332156
O  O58  1  0.80804000  0.51196000  0.25644000  1.0 -0.573332156
O  O59  1  0.42356000  0.25644000  0.51196000  1.0 -0.573332156
O  O60  1  0.25644000  0.42356000  0.80804000  1.0 -0.573332156
O  O61  1  0.19196000  0.57644000  0.74356000  1.0 -0.573332156
O  O62  1  0.48804000  0.74356000  0.57644000  1.0 -0.573332156
O  O63  1  0.74356000  0.48804000  0.19196000  1.0 -0.573332156
O  O64  1  0.74356000  0.19196000  0.57644000  1.0 -0.573332156
O  O65  1  0.57644000  0.48804000  0.74356000  1.0 -0.573332156
O  O66  1  0.19196000  0.74356000  0.48804000  1.0 -0.573332156
O  O67  1  0.57644000  0.74356000  0.19196000  1.0 -0.573332156
O  O68  1  0.74356000  0.57644000  0.48804000  1.0 -0.573332156
O  O69  1  0.48804000  0.19196000  0.74356000  1.0 -0.573332156
O  O70  1  0.80804000  0.42356000  0.51196000  1.0 -0.573332156
O  O71  1  0.42356000  0.51196000  0.80804000  1.0 -0.573332156
O  O72  1  0.51196000  0.80804000  0.42356000  1.0 -0.573332156
O  O73  1  0.42356000  0.80804000  0.51196000  1.0 -0.573332156
O  O74  1  0.51196000  0.42356000  0.80804000  1.0 -0.573332156
O  O75  1  0.80804000  0.51196000  0.42356000  1.0 -0.573332156
O  O76  1  0.57644000  0.19196000  0.74356000  1.0 -0.573332156
O  O77  1  0.48804000  0.74356000  0.19196000  1.0 -0.573332156
O  O78  1  0.74356000  0.48804000  0.57644000  1.0 -0.573332156
O  O79  1  0.48804000  0.57644000  0.74356000  1.0 -0.573332156
O  O80  1  0.74356000  0.19196000  0.48804000  1.0 -0.573332156
O  O81  1  0.19196000  0.74356000  0.57644000  1.0 -0.573332156
O  O82  1  0.19196000  0.48804000  0.74356000  1.0 -0.573332156
O  O83  1  0.57644000  0.74356000  0.48804000  1.0 -0.573332156
O  O84  1  0.74356000  0.57644000  0.19196000  1.0 -0.573332156
O  O85  1  0.80804000  0.42356000  0.25644000  1.0 -0.573332156
O  O86  1  0.51196000  0.25644000  0.42356000  1.0 -0.573332156
O  O87  1  0.25644000  0.51196000  0.80804000  1.0 -0.573332156
O  O88  1  0.25644000  0.80804000  0.42356000  1.0 -0.573332156
O  O89  1  0.42356000  0.51196000  0.25644000  1.0 -0.573332156
O  O90  1  0.80804000  0.25644000  0.51196000  1.0 -0.573332156
O  O91  1  0.42356000  0.25644000  0.80804000  1.0 -0.573332156
O  O92  1  0.25644000  0.42356000  0.51196000  1.0 -0.573332156
O  O93  1  0.51196000  0.80804000  0.25644000  1.0 -0.573332156
O  O94  1  0.19196000  0.57644000  0.48804000  1.0 -0.573332156
O  O95  1  0.57644000  0.48804000  0.19196000  1.0 -0.573332156
O  O96  1  0.48804000  0.19196000  0.57644000  1.0 -0.573332156
O  O97  1  0.85530000  0.97310000  0.45430000  1.0 -0.3743525186
O  O98  1  0.45430000  0.85530000  0.97310000  1.0 -0.3743525186
O  O99  1  0.97310000  0.45430000  0.85530000  1.0 -0.3743525186
O  O100  1  0.14470000  0.02690000  0.28270000  1.0 -0.3743525186
O  O101  1  0.54570000  0.28270000  0.02690000  1.0 -0.3743525186
O  O102  1  0.28270000  0.54570000  0.14470000  1.0 -0.3743525186
O  O103  1  0.54570000  0.14470000  0.28270000  1.0 -0.3743525186
O  O104  1  0.28270000  0.02690000  0.54570000  1.0 -0.3743525186
O  O105  1  0.02690000  0.28270000  0.14470000  1.0 -0.3743525186
O  O106  1  0.02690000  0.54570000  0.28270000  1.0 -0.3743525186
O  O107  1  0.14470000  0.28270000  0.54570000  1.0 -0.3743525186
O  O108  1  0.28270000  0.14470000  0.02690000  1.0 -0.3743525186
O  O109  1  0.97310000  0.85530000  0.71730000  1.0 -0.3743525186
O  O110  1  0.45430000  0.71730000  0.85530000  1.0 -0.3743525186
O  O111  1  0.71730000  0.45430000  0.97310000  1.0 -0.3743525186
O  O112  1  0.71730000  0.97310000  0.85530000  1.0 -0.3743525186
O  O113  1  0.85530000  0.45430000  0.71730000  1.0 -0.3743525186
O  O114  1  0.97310000  0.71730000  0.45430000  1.0 -0.3743525186
O  O115  1  0.85530000  0.71730000  0.97310000  1.0 -0.3743525186
O  O116  1  0.71730000  0.85530000  0.45430000  1.0 -0.3743525186
O  O117  1  0.45430000  0.97310000  0.71730000  1.0 -0.3743525186
O  O118  1  0.02690000  0.14470000  0.54570000  1.0 -0.3743525186
O  O119  1  0.14470000  0.54570000  0.02690000  1.0 -0.3743525186
O  O120  1  0.54570000  0.02690000  0.14470000  1.0 -0.3743525186
O  O121  1  0.14470000  0.02690000  0.54570000  1.0 -0.3743525186
O  O122  1  0.54570000  0.14470000  0.02690000  1.0 -0.3743525186
O  O123  1  0.02690000  0.54570000  0.14470000  1.0 -0.3743525186
O  O124  1  0.85530000  0.97310000  0.71730000  1.0 -0.3743525186
O  O125  1  0.45430000  0.71730000  0.97310000  1.0 -0.3743525186
O  O126  1  0.71730000  0.45430000  0.85530000  1.0 -0.3743525186
O  O127  1  0.45430000  0.85530000  0.71730000  1.0 -0.3743525186
O  O128  1  0.71730000  0.97310000  0.45430000  1.0 -0.3743525186
O  O129  1  0.97310000  0.71730000  0.85530000  1.0 -0.3743525186
O  O130  1  0.97310000  0.45430000  0.71730000  1.0 -0.3743525186
O  O131  1  0.85530000  0.71730000  0.45430000  1.0 -0.3743525186
O  O132  1  0.71730000  0.85530000  0.97310000  1.0 -0.3743525186
O  O133  1  0.02690000  0.14470000  0.28270000  1.0 -0.3743525186
O  O134  1  0.54570000  0.28270000  0.14470000  1.0 -0.3743525186
O  O135  1  0.28270000  0.54570000  0.02690000  1.0 -0.3743525186
O  O136  1  0.28270000  0.02690000  0.14470000  1.0 -0.3743525186
O  O137  1  0.14470000  0.54570000  0.28270000  1.0 -0.3743525186
O  O138  1  0.02690000  0.28270000  0.54570000  1.0 -0.3743525186
O  O139  1  0.14470000  0.28270000  0.02690000  1.0 -0.3743525186
O  O140  1  0.28270000  0.14470000  0.54570000  1.0 -0.3743525186
O  O141  1  0.54570000  0.02690000  0.28270000  1.0 -0.3743525186
O  O142  1  0.97310000  0.85530000  0.45430000  1.0 -0.3743525186
O  O143  1  0.85530000  0.45430000  0.97310000  1.0 -0.3743525186
O  O144  1  0.45430000  0.97310000  0.85530000  1.0 -0.3743525186
