# DDEC6 charges by PACMAN v1.1 (https://github.com/mtap-research/PACMAN-charge/)
data_SOCWIS_ASR_pacman
_symmetry_space_group_name_H-M   'P 1'
_cell_length_a   13.68080000
_cell_length_b   12.63400000
_cell_length_c   12.78300000
_cell_angle_alpha   90.00000000
_cell_angle_beta   116.98300000
_cell_angle_gamma   90.00000000
_symmetry_Int_Tables_number   1
_chemical_formula_structural   FePHO3F
_chemical_formula_sum   'Fe16 P16 H16 O48 F16'
_cell_volume   1968.93632678
_cell_formula_units_Z   16
loop_
 _symmetry_equiv_pos_site_id
 _symmetry_equiv_pos_as_xyz
  1  'x, y, z'
loop_
 _atom_site_type_symbol
 _atom_site_label
 _atom_site_symmetry_multiplicity
 _atom_site_fract_x
 _atom_site_fract_y
 _atom_site_fract_z
 _atom_site_occupancy
 _atom_site_charge
Fe  Fe1  1  0.18505000  0.24289000  0.13148000  1.0 1.4494286166
Fe  Fe2  1  0.81495000  0.75711000  0.86852000  1.0 1.4415149079
Fe  Fe3  1  0.81496000  0.74290000  0.36853000  1.0 1.4415149079
Fe  Fe4  1  0.18504000  0.25710000  0.63147000  1.0 1.4494286166
Fe  Fe5  1  0.69731000  0.24710000  0.31497000  1.0 1.4329308258
Fe  Fe6  1  0.30269000  0.75290000  0.68503000  1.0 1.4329308258
Fe  Fe7  1  0.30270000  0.74711000  0.18506000  1.0 1.4329308258
Fe  Fe8  1  0.69730000  0.25289000  0.81494000  1.0 1.4329308258
Fe  Fe9  1  0.25647000  0.99904000  0.03648000  1.0 1.4226355837
Fe  Fe10  1  0.74353000  0.00096000  0.96352000  1.0 1.4226355837
Fe  Fe11  1  0.74353000  0.49903000  0.46351000  1.0 1.4226355837
Fe  Fe12  1  0.25647000  0.50097000  0.53649000  1.0 1.4226355837
Fe  Fe13  1  0.24784000  0.49995000  0.29689000  1.0 1.4004348205
Fe  Fe14  1  0.75216000  0.50005000  0.70311000  1.0 1.4004348205
Fe  Fe15  1  0.75216000  0.99995000  0.20312000  1.0 1.4004348205
Fe  Fe16  1  0.24784000  0.00005000  0.79688000  1.0 1.4004348205
P  P1  1  0.15571000  0.29534000  0.36051000  1.0 1.2606836203
P  P2  1  0.84429000  0.70466000  0.63949000  1.0 1.2606836203
P  P3  1  0.84424000  0.79538000  0.13945000  1.0 1.2606836203
P  P4  1  0.15576000  0.20462000  0.86055000  1.0 1.2606836203
P  P5  1  0.34035000  0.79182000  0.95771000  1.0 1.2770238803
P  P6  1  0.65965000  0.20818000  0.04229000  1.0 1.2770238803
P  P7  1  0.65960000  0.29176000  0.54224000  1.0 1.2770238803
P  P8  1  0.34040000  0.70824000  0.45776000  1.0 1.2770238803
P  P9  1  0.93313000  0.15971000  0.98094000  1.0 1.2606836203
P  P10  1  0.06687000  0.84029000  0.01906000  1.0 1.2606836203
P  P11  1  0.06691000  0.65969000  0.51907000  1.0 1.2606836203
P  P12  1  0.93309000  0.34031000  0.48093000  1.0 1.2548301207
P  P13  1  0.41804000  0.19676000  0.15155000  1.0 1.2960786508
P  P14  1  0.58196000  0.80324000  0.84845000  1.0 1.2960786508
P  P15  1  0.58195000  0.69675000  0.34844000  1.0 1.2960786508
P  P16  1  0.41805000  0.30325000  0.65156000  1.0 1.2960786508
H  H1  1  0.04542000  0.32099000  0.28496000  1.0 -0.1090641966
H  H2  1  0.95458000  0.67901000  0.71504000  1.0 -0.1090641966
H  H3  1  0.95461000  0.82100000  0.21504000  1.0 -0.1090641966
H  H4  1  0.04539000  0.17900000  0.78496000  1.0 -0.1090641966
H  H5  1  0.45549000  0.80137000  0.02430000  1.0 -0.0995157524
H  H6  1  0.54451000  0.19863000  0.97570000  1.0 -0.0995157524
H  H7  1  0.54455000  0.30132000  0.47572000  1.0 -0.0995157524
H  H8  1  0.45545000  0.69868000  0.52428000  1.0 -0.0995157524
H  H9  1  0.98195000  0.09788000  0.92532000  1.0 -0.0941965445
H  H10  1  0.01805000  0.90212000  0.07468000  1.0 -0.0941965445
H  H11  1  0.01803000  0.59789000  0.57466000  1.0 -0.0941965445
H  H12  1  0.98197000  0.40211000  0.42534000  1.0 -0.0941965445
H  H13  1  0.40071000  0.24560000  0.04506000  1.0 -0.1090641966
H  H14  1  0.59929000  0.75440000  0.95494000  1.0 -0.1090641966
H  H15  1  0.59927000  0.74560000  0.45493000  1.0 -0.1090641966
H  H16  1  0.40073000  0.25440000  0.54507000  1.0 -0.1090641966
O  O1  1  0.20639000  0.23380000  0.29437000  1.0 -0.657908282
O  O2  1  0.79361000  0.76620000  0.70563000  1.0 -0.657908282
O  O3  1  0.79362000  0.73380000  0.20561000  1.0 -0.657908282
O  O4  1  0.20638000  0.26620000  0.79439000  1.0 -0.6539178504
O  O5  1  0.16626000  0.25964000  0.97052000  1.0 -0.7033800496
O  O6  1  0.83374000  0.74036000  0.02948000  1.0 -0.7076864256
O  O7  1  0.83369000  0.75963000  0.52945000  1.0 -0.7076864256
O  O8  1  0.16631000  0.24037000  0.47055000  1.0 -0.7033800496
O  O9  1  0.33804000  0.25059000  0.19203000  1.0 -0.6362679216
O  O10  1  0.66196000  0.74941000  0.80797000  1.0 -0.6362679216
O  O11  1  0.66194000  0.75059000  0.30797000  1.0 -0.6362679216
O  O12  1  0.33806000  0.24941000  0.69203000  1.0 -0.6295107616
O  O13  1  0.02610000  0.22601000  0.07716000  1.0 -0.681489616
O  O14  1  0.97390000  0.77399000  0.92284000  1.0 -0.681489616
O  O15  1  0.97387000  0.72602000  0.42283000  1.0 -0.6879988087
O  O16  1  0.02613000  0.27398000  0.57717000  1.0 -0.681489616
O  O17  1  0.31172000  0.73817000  0.84171000  1.0 -0.681489616
O  O18  1  0.68828000  0.26183000  0.15829000  1.0 -0.681489616
O  O19  1  0.68829000  0.23815000  0.65835000  1.0 -0.681489616
O  O20  1  0.31171000  0.76185000  0.34165000  1.0 -0.681489616
O  O21  1  0.53623000  0.21725000  0.24288000  1.0 -0.7076864256
O  O22  1  0.46377000  0.78275000  0.75712000  1.0 -0.7076864256
O  O23  1  0.46379000  0.71727000  0.25711000  1.0 -0.7076864256
O  O24  1  0.53621000  0.28273000  0.74289000  1.0 -0.7076864256
O  O25  1  0.29163000  0.73583000  0.02921000  1.0 -0.6879988087
O  O26  1  0.70837000  0.26417000  0.97079000  1.0 -0.6879988087
O  O27  1  0.70840000  0.23587000  0.47078000  1.0 -0.6879988087
O  O28  1  0.29160000  0.76413000  0.52922000  1.0 -0.681489616
O  O29  1  0.84962000  0.23228000  0.88145000  1.0 -0.6295107616
O  O30  1  0.15038000  0.76772000  0.11855000  1.0 -0.6295107616
O  O31  1  0.15039000  0.73228000  0.61856000  1.0 -0.6295107616
O  O32  1  0.84961000  0.26772000  0.38144000  1.0 -0.6295107616
O  O33  1  0.30207000  0.91659000  0.93617000  1.0 -0.7278510793
O  O34  1  0.69793000  0.08341000  0.06383000  1.0 -0.7278510793
O  O35  1  0.69792000  0.41662000  0.56383000  1.0 -0.7278510793
O  O36  1  0.30208000  0.58338000  0.43617000  1.0 -0.7278510793
O  O37  1  0.87779000  0.08283000  0.03246000  1.0 -0.681489616
O  O38  1  0.12221000  0.91717000  0.96754000  1.0 -0.6879988087
O  O39  1  0.12221000  0.58286000  0.46753000  1.0 -0.681489616
O  O40  1  0.87779000  0.41714000  0.53247000  1.0 -0.681489616
O  O41  1  0.39037000  0.07719000  0.12088000  1.0 -0.681489616
O  O42  1  0.60963000  0.92281000  0.87912000  1.0 -0.681489616
O  O43  1  0.60961000  0.57719000  0.37909000  1.0 -0.681489616
O  O44  1  0.39039000  0.42281000  0.62091000  1.0 -0.681489616
O  O45  1  0.21157000  0.41393000  0.39413000  1.0 -0.7429273291
O  O46  1  0.78843000  0.58607000  0.60587000  1.0 -0.7429273291
O  O47  1  0.78846000  0.91389000  0.10588000  1.0 -0.7429273291
O  O48  1  0.21154000  0.08611000  0.89412000  1.0 -0.7429273291
F  F1  1  0.18875000  0.09273000  0.10834000  1.0 -0.5596551164
F  F2  1  0.81125000  0.90727000  0.89166000  1.0 -0.5596551164
F  F3  1  0.81125000  0.59270000  0.39168000  1.0 -0.5596551164
F  F4  1  0.18875000  0.40730000  0.60832000  1.0 -0.5596551164
F  F5  1  0.19497000  0.40166000  0.17167000  1.0 -0.5397210305
F  F6  1  0.80503000  0.59834000  0.82833000  1.0 -0.5397210305
F  F7  1  0.80505000  0.90164000  0.32837000  1.0 -0.5397210305
F  F8  1  0.19495000  0.09836000  0.67163000  1.0 -0.5397210305
F  F9  1  0.31729000  0.89720000  0.16781000  1.0 -0.5397210305
F  F10  1  0.68271000  0.10280000  0.83219000  1.0 -0.5397210305
F  F11  1  0.68270000  0.39722000  0.33218000  1.0 -0.5397210305
F  F12  1  0.31730000  0.60278000  0.66782000  1.0 -0.5283935878
F  F13  1  0.27620000  0.59776000  0.20385000  1.0 -0.5283935878
F  F14  1  0.72380000  0.40224000  0.79615000  1.0 -0.5283935878
F  F15  1  0.72378000  0.09775000  0.29616000  1.0 -0.5231877579
F  F16  1  0.27622000  0.90225000  0.70384000  1.0 -0.5231877579
