# DDEC6 charges by PACMAN v1.1 (https://github.com/mtap-research/PACMAN-charge/)
data_SOCWOY_ASR_pacman
_symmetry_space_group_name_H-M   'P 1'
_cell_length_a   13.68230000
_cell_length_b   12.60630000
_cell_length_c   12.75350000
_cell_angle_alpha   90.00000000
_cell_angle_beta   116.98800000
_cell_angle_gamma   90.00000000
_symmetry_Int_Tables_number   1
_chemical_formula_structural   Fe3CoP4H4(O3F)4
_chemical_formula_sum   'Fe12 Co4 P16 H16 O48 F16'
_cell_volume   1960.21338731
_cell_formula_units_Z   4
loop_
 _symmetry_equiv_pos_site_id
 _symmetry_equiv_pos_as_xyz
  1  'x, y, z'
loop_
 _atom_site_type_symbol
 _atom_site_label
 _atom_site_symmetry_multiplicity
 _atom_site_fract_x
 _atom_site_fract_y
 _atom_site_fract_z
 _atom_site_occupancy
 _atom_site_charge
Fe  Fe1  1  0.18524000  0.24329000  0.13161000  1.0 1.4457145988
Fe  Fe2  1  0.81476000  0.75671000  0.86839000  1.0 1.4442126809
Fe  Fe3  1  0.81476000  0.74329000  0.36839000  1.0 1.4457145988
Fe  Fe4  1  0.18524000  0.25671000  0.63161000  1.0 1.4457145988
Fe  Fe5  1  0.69797000  0.24652000  0.31491000  1.0 1.4301519899
Fe  Fe6  1  0.30203000  0.75348000  0.68509000  1.0 1.4301519899
Fe  Fe7  1  0.30203000  0.74652000  0.18509000  1.0 1.4301519899
Fe  Fe8  1  0.69797000  0.25348000  0.81491000  1.0 1.4301519899
Fe  Fe9  1  0.25657000  0.99898000  0.03652000  1.0 1.4301519899
Fe  Fe10  1  0.74343000  0.00102000  0.96348000  1.0 1.4301519899
Fe  Fe11  1  0.74343000  0.49897000  0.46348000  1.0 1.4301519899
Fe  Fe12  1  0.25657000  0.50103000  0.53652000  1.0 1.4301519899
Co  Co1  1  0.24728000  0.50012000  0.29669000  1.0 1.2592998151
Co  Co2  1  0.75272000  0.49988000  0.70331000  1.0 1.2592998151
Co  Co3  1  0.75272000  0.00012000  0.20331000  1.0 1.2592998151
Co  Co4  1  0.24728000  0.99988000  0.79669000  1.0 1.2592998151
P  P1  1  0.15591000  0.29559000  0.35949000  1.0 1.2592998151
P  P2  1  0.84409000  0.70441000  0.64051000  1.0 1.2592998151
P  P3  1  0.84409000  0.79559000  0.14047000  1.0 1.2592998151
P  P4  1  0.15591000  0.20441000  0.85953000  1.0 1.2704031526
P  P5  1  0.33971000  0.79173000  0.95803000  1.0 1.2765857437
P  P6  1  0.66029000  0.20827000  0.04197000  1.0 1.2704031526
P  P7  1  0.66029000  0.29173000  0.54197000  1.0 1.2765857437
P  P8  1  0.33971000  0.70827000  0.45803000  1.0 1.2765857437
P  P9  1  0.93350000  0.15896000  0.98066000  1.0 1.2592998151
P  P10  1  0.06650000  0.84104000  0.01934000  1.0 1.2592998151
P  P11  1  0.06651000  0.65895000  0.51935000  1.0 1.2592998151
P  P12  1  0.93349000  0.34105000  0.48065000  1.0 1.2592998151
P  P13  1  0.41832000  0.19682000  0.15149000  1.0 1.2992218195
P  P14  1  0.58168000  0.80318000  0.84851000  1.0 1.2992218195
P  P15  1  0.58168000  0.69682000  0.34852000  1.0 1.2992218195
P  P16  1  0.41832000  0.30318000  0.65148000  1.0 1.2992218195
H  H1  1  0.04570000  0.32035000  0.28258000  1.0 -0.0993954276
H  H2  1  0.95430000  0.67965000  0.71742000  1.0 -0.0993954276
H  H3  1  0.95430000  0.82035000  0.21742000  1.0 -0.0993954276
H  H4  1  0.04570000  0.17965000  0.78258000  1.0 -0.0993954276
H  H5  1  0.45436000  0.80105000  0.02662000  1.0 -0.0888961104
H  H6  1  0.54564000  0.19895000  0.97338000  1.0 -0.0888961104
H  H7  1  0.54564000  0.30105000  0.47338000  1.0 -0.0888961104
H  H8  1  0.45436000  0.69895000  0.52662000  1.0 -0.0888961104
H  H9  1  0.98219000  0.09709000  0.92482000  1.0 -0.0844771263
H  H10  1  0.01781000  0.90291000  0.07518000  1.0 -0.0844771263
H  H11  1  0.01781000  0.59709000  0.57518000  1.0 -0.0844771263
H  H12  1  0.98219000  0.40291000  0.42482000  1.0 -0.0844771263
H  H13  1  0.40297000  0.24530000  0.04518000  1.0 -0.0993954276
H  H14  1  0.59703000  0.75470000  0.95482000  1.0 -0.0993954276
H  H15  1  0.59703000  0.74530000  0.45481000  1.0 -0.0993954276
H  H16  1  0.40297000  0.25470000  0.54519000  1.0 -0.0993954276
O  O1  1  0.20745000  0.23346000  0.29412000  1.0 -0.6484408171
O  O2  1  0.79255000  0.76654000  0.70588000  1.0 -0.6484408171
O  O3  1  0.79254000  0.73345000  0.20588000  1.0 -0.6484408171
O  O4  1  0.20746000  0.26655000  0.79412000  1.0 -0.6484408171
O  O5  1  0.16497000  0.25927000  0.96956000  1.0 -0.7038121505
O  O6  1  0.83503000  0.74073000  0.03044000  1.0 -0.7038121505
O  O7  1  0.83503000  0.75928000  0.53042000  1.0 -0.7038121505
O  O8  1  0.16497000  0.24072000  0.46958000  1.0 -0.7038121505
O  O9  1  0.33782000  0.25158000  0.19052000  1.0 -0.630847478
O  O10  1  0.66218000  0.74842000  0.80948000  1.0 -0.630847478
O  O11  1  0.66218000  0.75158000  0.30949000  1.0 -0.630847478
O  O12  1  0.33782000  0.24842000  0.69051000  1.0 -0.630847478
O  O13  1  0.02666000  0.22523000  0.07741000  1.0 -0.6731384894
O  O14  1  0.97334000  0.77477000  0.92259000  1.0 -0.6801443041
O  O15  1  0.97333000  0.72523000  0.42258000  1.0 -0.6731384894
O  O16  1  0.02667000  0.27477000  0.57742000  1.0 -0.6731384894
O  O17  1  0.31280000  0.73805000  0.84201000  1.0 -0.6731384894
O  O18  1  0.68720000  0.26195000  0.15799000  1.0 -0.6731384894
O  O19  1  0.68720000  0.23805000  0.65800000  1.0 -0.6731384894
O  O20  1  0.31280000  0.76195000  0.34200000  1.0 -0.6731384894
O  O21  1  0.53672000  0.21656000  0.24455000  1.0 -0.7078609408
O  O22  1  0.46328000  0.78344000  0.75545000  1.0 -0.7038121505
O  O23  1  0.46328000  0.71656000  0.25546000  1.0 -0.7038121505
O  O24  1  0.53672000  0.28344000  0.74454000  1.0 -0.7038121505
O  O25  1  0.29005000  0.73560000  0.02842000  1.0 -0.6801443041
O  O26  1  0.70995000  0.26440000  0.97158000  1.0 -0.6801443041
O  O27  1  0.70995000  0.23560000  0.47158000  1.0 -0.6853140534
O  O28  1  0.29005000  0.76440000  0.52842000  1.0 -0.6801443041
O  O29  1  0.84965000  0.23162000  0.88079000  1.0 -0.6188506575
O  O30  1  0.15035000  0.76838000  0.11921000  1.0 -0.6188506575
O  O31  1  0.15034000  0.73162000  0.61920000  1.0 -0.6188506575
O  O32  1  0.84966000  0.26838000  0.38080000  1.0 -0.6188506575
O  O33  1  0.30185000  0.91639000  0.93606000  1.0 -0.7268937768
O  O34  1  0.69815000  0.08361000  0.06394000  1.0 -0.7268937768
O  O35  1  0.69815000  0.41639000  0.56394000  1.0 -0.7268937768
O  O36  1  0.30185000  0.58361000  0.43606000  1.0 -0.7268937768
O  O37  1  0.87792000  0.08192000  0.03219000  1.0 -0.6731384894
O  O38  1  0.12208000  0.91808000  0.96781000  1.0 -0.6731384894
O  O39  1  0.12208000  0.58192000  0.46781000  1.0 -0.6731384894
O  O40  1  0.87792000  0.41808000  0.53219000  1.0 -0.6731384894
O  O41  1  0.38990000  0.07711000  0.12109000  1.0 -0.6731384894
O  O42  1  0.61010000  0.92289000  0.87891000  1.0 -0.6731384894
O  O43  1  0.61010000  0.57711000  0.37891000  1.0 -0.6731384894
O  O44  1  0.38990000  0.42289000  0.62109000  1.0 -0.6731384894
O  O45  1  0.21219000  0.41340000  0.39426000  1.0 -0.740389222
O  O46  1  0.78781000  0.58660000  0.60574000  1.0 -0.740389222
O  O47  1  0.78781000  0.91340000  0.10574000  1.0 -0.740389222
O  O48  1  0.21219000  0.08660000  0.89426000  1.0 -0.740389222
F  F1  1  0.18907000  0.09254000  0.10845000  1.0 -0.5528911741
F  F2  1  0.81093000  0.90746000  0.89155000  1.0 -0.5528911741
F  F3  1  0.81093000  0.59254000  0.39156000  1.0 -0.5528911741
F  F4  1  0.18907000  0.40746000  0.60844000  1.0 -0.5528911741
F  F5  1  0.19110000  0.40256000  0.16986000  1.0 -0.5377692373
F  F6  1  0.80890000  0.59744000  0.83014000  1.0 -0.5377692373
F  F7  1  0.80889000  0.90256000  0.33015000  1.0 -0.5377692373
F  F8  1  0.19111000  0.09744000  0.66985000  1.0 -0.5377692373
F  F9  1  0.31715000  0.89684000  0.16758000  1.0 -0.5281428636
F  F10  1  0.68285000  0.10316000  0.83242000  1.0 -0.5281428636
F  F11  1  0.68285000  0.39684000  0.33241000  1.0 -0.5281428636
F  F12  1  0.31715000  0.60316000  0.66759000  1.0 -0.5214784325
F  F13  1  0.27655000  0.59647000  0.20245000  1.0 -0.5214784325
F  F14  1  0.72345000  0.40353000  0.79755000  1.0 -0.5214784325
F  F15  1  0.72344000  0.09647000  0.29754000  1.0 -0.5214784325
F  F16  1  0.27656000  0.90353000  0.70246000  1.0 -0.5214784325
