# DDEC6 charges by PACMAN v1.1 (https://github.com/mtap-research/PACMAN-charge/)
data_SODNOR_ASR_pacman
_symmetry_space_group_name_H-M   'P 1'
_cell_length_a   23.80690000
_cell_length_b   23.80690000
_cell_length_c   23.80690000
_cell_angle_alpha   60.00000000
_cell_angle_beta   60.00000000
_cell_angle_gamma   60.00000000
_symmetry_Int_Tables_number   1
_chemical_formula_structural   Tb3H96(C6O)16
_chemical_formula_sum   'Tb6 H192 C192 O32'
_cell_volume   9540.99229896
_cell_formula_units_Z   2
loop_
 _symmetry_equiv_pos_site_id
 _symmetry_equiv_pos_as_xyz
  1  'x, y, z'
loop_
 _atom_site_type_symbol
 _atom_site_label
 _atom_site_symmetry_multiplicity
 _atom_site_fract_x
 _atom_site_fract_y
 _atom_site_fract_z
 _atom_site_occupancy
 _atom_site_charge
Tb  Tb1  1  0.41794000  0.58206000  0.41794000  1.0 2.1684087496
Tb  Tb2  1  0.58206000  0.41794000  0.58206000  1.0 2.1684087496
Tb  Tb3  1  0.58206000  0.41794000  0.41794000  1.0 2.1684087496
Tb  Tb4  1  0.41794000  0.58206000  0.58206000  1.0 2.1684087496
Tb  Tb5  1  0.41794000  0.41794000  0.58206000  1.0 2.1684087496
Tb  Tb6  1  0.58206000  0.58206000  0.41794000  1.0 2.1684087496
H  H1  1  0.17780000  0.46300000  0.36320000  1.0 0.1285728418
H  H2  1  0.13460000  0.54120000  0.33940000  1.0 0.1285728418
H  H3  1  0.12440000  0.48740000  0.32880000  1.0 0.1224132614
H  H4  1  0.36320000  0.99600000  0.17780000  1.0 0.1285728418
H  H5  1  0.33940000  0.98480000  0.13460000  1.0 0.1285728418
H  H6  1  0.32880000  0.05940000  0.12440000  1.0 0.1224132614
H  H7  1  0.46300000  0.17780000  0.99600000  1.0 0.1285728418
H  H8  1  0.54120000  0.13460000  0.98480000  1.0 0.1285728418
H  H9  1  0.48740000  0.12440000  0.05940000  1.0 0.1224132614
H  H10  1  0.99600000  0.36320000  0.46300000  1.0 0.1285728418
H  H11  1  0.98480000  0.33940000  0.54120000  1.0 0.1285728418
H  H12  1  0.05940000  0.32880000  0.48740000  1.0 0.1224132614
H  H13  1  0.46300000  0.36320000  0.17780000  1.0 0.1285728418
H  H14  1  0.54120000  0.33940000  0.13460000  1.0 0.1285728418
H  H15  1  0.48740000  0.32880000  0.12440000  1.0 0.1224132614
H  H16  1  0.99600000  0.17780000  0.36320000  1.0 0.1285728418
H  H17  1  0.98480000  0.13460000  0.33940000  1.0 0.1285728418
H  H18  1  0.05940000  0.12440000  0.32880000  1.0 0.1224132614
H  H19  1  0.17780000  0.99600000  0.46300000  1.0 0.1285728418
H  H20  1  0.13460000  0.98480000  0.54120000  1.0 0.1285728418
H  H21  1  0.12440000  0.05940000  0.48740000  1.0 0.1224132614
H  H22  1  0.36320000  0.46300000  0.99600000  1.0 0.1285728418
H  H23  1  0.33940000  0.54120000  0.98480000  1.0 0.1285728418
H  H24  1  0.32880000  0.48740000  0.05940000  1.0 0.1224132614
H  H25  1  0.36320000  0.17780000  0.46300000  1.0 0.1285728418
H  H26  1  0.33940000  0.13460000  0.54120000  1.0 0.1285728418
H  H27  1  0.32880000  0.12440000  0.48740000  1.0 0.1224132614
H  H28  1  0.17780000  0.36320000  0.99600000  1.0 0.1285728418
H  H29  1  0.13460000  0.33940000  0.98480000  1.0 0.1285728418
H  H30  1  0.12440000  0.32880000  0.05940000  1.0 0.1224132614
H  H31  1  0.99600000  0.46300000  0.17780000  1.0 0.1285728418
H  H32  1  0.98480000  0.54120000  0.13460000  1.0 0.1285728418
H  H33  1  0.05940000  0.48740000  0.12440000  1.0 0.1224132614
H  H34  1  0.46300000  0.99600000  0.36320000  1.0 0.1285728418
H  H35  1  0.54120000  0.98480000  0.33940000  1.0 0.1285728418
H  H36  1  0.48740000  0.05940000  0.32880000  1.0 0.1224132614
H  H37  1  0.82220000  0.00400000  0.63680000  1.0 0.1285728418
H  H38  1  0.86540000  0.01520000  0.66060000  1.0 0.1285728418
H  H39  1  0.87560000  0.94060000  0.67120000  1.0 0.1224132614
H  H40  1  0.63680000  0.53700000  0.82220000  1.0 0.1285728418
H  H41  1  0.66060000  0.45880000  0.86540000  1.0 0.1285728418
H  H42  1  0.67120000  0.51260000  0.87560000  1.0 0.1224132614
H  H43  1  0.53700000  0.63680000  0.00400000  1.0 0.1285728418
H  H44  1  0.45880000  0.66060000  0.01520000  1.0 0.1285728418
H  H45  1  0.51260000  0.67120000  0.94060000  1.0 0.1224132614
H  H46  1  0.00400000  0.82220000  0.53700000  1.0 0.1285728418
H  H47  1  0.01520000  0.86540000  0.45880000  1.0 0.1285728418
H  H48  1  0.94060000  0.87560000  0.51260000  1.0 0.1224132614
H  H49  1  0.53700000  0.00400000  0.82220000  1.0 0.1285728418
H  H50  1  0.45880000  0.01520000  0.86540000  1.0 0.1285728418
H  H51  1  0.51260000  0.94060000  0.87560000  1.0 0.1224132614
H  H52  1  0.00400000  0.53700000  0.63680000  1.0 0.1285728418
H  H53  1  0.01520000  0.45880000  0.66060000  1.0 0.1285728418
H  H54  1  0.94060000  0.51260000  0.67120000  1.0 0.1224132614
H  H55  1  0.82220000  0.63680000  0.53700000  1.0 0.1285728418
H  H56  1  0.86540000  0.66060000  0.45880000  1.0 0.1285728418
H  H57  1  0.87560000  0.67120000  0.51260000  1.0 0.1224132614
H  H58  1  0.63680000  0.82220000  0.00400000  1.0 0.1285728418
H  H59  1  0.66060000  0.86540000  0.01520000  1.0 0.1285728418
H  H60  1  0.67120000  0.87560000  0.94060000  1.0 0.1224132614
H  H61  1  0.63680000  0.00400000  0.53700000  1.0 0.1285728418
H  H62  1  0.66060000  0.01520000  0.45880000  1.0 0.1285728418
H  H63  1  0.67120000  0.94060000  0.51260000  1.0 0.1224132614
H  H64  1  0.82220000  0.53700000  0.00400000  1.0 0.1285728418
H  H65  1  0.86540000  0.45880000  0.01520000  1.0 0.1285728418
H  H66  1  0.87560000  0.51260000  0.94060000  1.0 0.1224132614
H  H67  1  0.00400000  0.63680000  0.82220000  1.0 0.1285728418
H  H68  1  0.01520000  0.66060000  0.86540000  1.0 0.1285728418
H  H69  1  0.94060000  0.67120000  0.87560000  1.0 0.1224132614
H  H70  1  0.53700000  0.82220000  0.63680000  1.0 0.1285728418
H  H71  1  0.45880000  0.86540000  0.66060000  1.0 0.1285728418
H  H72  1  0.51260000  0.87560000  0.67120000  1.0 0.1224132614
H  H73  1  0.82220000  0.53700000  0.63680000  1.0 0.1285728418
H  H74  1  0.86540000  0.45880000  0.66060000  1.0 0.1285728418
H  H75  1  0.87560000  0.51260000  0.67120000  1.0 0.1224132614
H  H76  1  0.63680000  0.00400000  0.82220000  1.0 0.1285728418
H  H77  1  0.66060000  0.01520000  0.86540000  1.0 0.1285728418
H  H78  1  0.67120000  0.94060000  0.87560000  1.0 0.1224132614
H  H79  1  0.53700000  0.82220000  0.00400000  1.0 0.1285728418
H  H80  1  0.45880000  0.86540000  0.01520000  1.0 0.1285728418
H  H81  1  0.51260000  0.87560000  0.94060000  1.0 0.1224132614
H  H82  1  0.00400000  0.63680000  0.53700000  1.0 0.1285728418
H  H83  1  0.01520000  0.66060000  0.45880000  1.0 0.1285728418
H  H84  1  0.94060000  0.67120000  0.51260000  1.0 0.1224132614
H  H85  1  0.53700000  0.63680000  0.82220000  1.0 0.1285728418
H  H86  1  0.45880000  0.66060000  0.86540000  1.0 0.1285728418
H  H87  1  0.51260000  0.67120000  0.87560000  1.0 0.1224132614
H  H88  1  0.00400000  0.82220000  0.63680000  1.0 0.1285728418
H  H89  1  0.01520000  0.86540000  0.66060000  1.0 0.1285728418
H  H90  1  0.94060000  0.87560000  0.67120000  1.0 0.1224132614
H  H91  1  0.82220000  0.00400000  0.53700000  1.0 0.1285728418
H  H92  1  0.86540000  0.01520000  0.45880000  1.0 0.1285728418
H  H93  1  0.87560000  0.94060000  0.51260000  1.0 0.1224132614
H  H94  1  0.63680000  0.53700000  0.00400000  1.0 0.1285728418
H  H95  1  0.66060000  0.45880000  0.01520000  1.0 0.1285728418
H  H96  1  0.67120000  0.51260000  0.94060000  1.0 0.1224132614
H  H97  1  0.63680000  0.82220000  0.53700000  1.0 0.1285728418
H  H98  1  0.66060000  0.86540000  0.45880000  1.0 0.1285728418
H  H99  1  0.67120000  0.87560000  0.51260000  1.0 0.1224132614
H  H100  1  0.82220000  0.63680000  0.00400000  1.0 0.1285728418
H  H101  1  0.86540000  0.66060000  0.01520000  1.0 0.1285728418
H  H102  1  0.87560000  0.67120000  0.94060000  1.0 0.1224132614
H  H103  1  0.00400000  0.53700000  0.82220000  1.0 0.1285728418
H  H104  1  0.01520000  0.45880000  0.86540000  1.0 0.1285728418
H  H105  1  0.94060000  0.51260000  0.87560000  1.0 0.1224132614
H  H106  1  0.53700000  0.00400000  0.63680000  1.0 0.1285728418
H  H107  1  0.45880000  0.01520000  0.66060000  1.0 0.1285728418
H  H108  1  0.51260000  0.94060000  0.67120000  1.0 0.1224132614
H  H109  1  0.17780000  0.99600000  0.36320000  1.0 0.1285728418
H  H110  1  0.13460000  0.98480000  0.33940000  1.0 0.1285728418
H  H111  1  0.12440000  0.05940000  0.32880000  1.0 0.1224132614
H  H112  1  0.36320000  0.46300000  0.17780000  1.0 0.1285728418
H  H113  1  0.33940000  0.54120000  0.13460000  1.0 0.1285728418
H  H114  1  0.32880000  0.48740000  0.12440000  1.0 0.1224132614
H  H115  1  0.46300000  0.36320000  0.99600000  1.0 0.1285728418
H  H116  1  0.54120000  0.33940000  0.98480000  1.0 0.1285728418
H  H117  1  0.48740000  0.32880000  0.05940000  1.0 0.1224132614
H  H118  1  0.99600000  0.17780000  0.46300000  1.0 0.1285728418
H  H119  1  0.98480000  0.13460000  0.54120000  1.0 0.1285728418
H  H120  1  0.05940000  0.12440000  0.48740000  1.0 0.1224132614
H  H121  1  0.46300000  0.99600000  0.17780000  1.0 0.1285728418
H  H122  1  0.54120000  0.98480000  0.13460000  1.0 0.1285728418
H  H123  1  0.48740000  0.05940000  0.12440000  1.0 0.1224132614
H  H124  1  0.99600000  0.46300000  0.36320000  1.0 0.1285728418
H  H125  1  0.98480000  0.54120000  0.33940000  1.0 0.1285728418
H  H126  1  0.05940000  0.48740000  0.32880000  1.0 0.1224132614
H  H127  1  0.17780000  0.36320000  0.46300000  1.0 0.1285728418
H  H128  1  0.13460000  0.33940000  0.54120000  1.0 0.1285728418
H  H129  1  0.12440000  0.32880000  0.48740000  1.0 0.1224132614
H  H130  1  0.36320000  0.17780000  0.99600000  1.0 0.1285728418
H  H131  1  0.33940000  0.13460000  0.98480000  1.0 0.1285728418
H  H132  1  0.32880000  0.12440000  0.05940000  1.0 0.1224132614
H  H133  1  0.36320000  0.99600000  0.46300000  1.0 0.1285728418
H  H134  1  0.33940000  0.98480000  0.54120000  1.0 0.1285728418
H  H135  1  0.32880000  0.05940000  0.48740000  1.0 0.1224132614
H  H136  1  0.17780000  0.46300000  0.99600000  1.0 0.1285728418
H  H137  1  0.13460000  0.54120000  0.98480000  1.0 0.1285728418
H  H138  1  0.12440000  0.48740000  0.05940000  1.0 0.1224132614
H  H139  1  0.99600000  0.36320000  0.17780000  1.0 0.1285728418
H  H140  1  0.98480000  0.33940000  0.13460000  1.0 0.1285728418
H  H141  1  0.05940000  0.32880000  0.12440000  1.0 0.1224132614
H  H142  1  0.46300000  0.17780000  0.36320000  1.0 0.1285728418
H  H143  1  0.54120000  0.13460000  0.33940000  1.0 0.1285728418
H  H144  1  0.48740000  0.12440000  0.32880000  1.0 0.1224132614
H  H145  1  0.22950000  0.58230000  0.41770000  1.0 0.1285728418
H  H146  1  0.13280000  0.58260000  0.41740000  1.0 0.1285728418
H  H147  1  0.41770000  0.77050000  0.22950000  1.0 0.1285728418
H  H148  1  0.41740000  0.86720000  0.13280000  1.0 0.1285728418
H  H149  1  0.58230000  0.22950000  0.77050000  1.0 0.1285728418
H  H150  1  0.58260000  0.13280000  0.86720000  1.0 0.1285728418
H  H151  1  0.77050000  0.41770000  0.58230000  1.0 0.1285728418
H  H152  1  0.86720000  0.41740000  0.58260000  1.0 0.1285728418
H  H153  1  0.58230000  0.41770000  0.22950000  1.0 0.1285728418
H  H154  1  0.58260000  0.41740000  0.13280000  1.0 0.1285728418
H  H155  1  0.77050000  0.22950000  0.41770000  1.0 0.1285728418
H  H156  1  0.86720000  0.13280000  0.41740000  1.0 0.1285728418
H  H157  1  0.22950000  0.77050000  0.58230000  1.0 0.1285728418
H  H158  1  0.13280000  0.86720000  0.58260000  1.0 0.1285728418
H  H159  1  0.41770000  0.58230000  0.77050000  1.0 0.1285728418
H  H160  1  0.41740000  0.58260000  0.86720000  1.0 0.1285728418
H  H161  1  0.41770000  0.22950000  0.58230000  1.0 0.1285728418
H  H162  1  0.41740000  0.13280000  0.58260000  1.0 0.1285728418
H  H163  1  0.22950000  0.41770000  0.77050000  1.0 0.1285728418
H  H164  1  0.13280000  0.41740000  0.86720000  1.0 0.1285728418
H  H165  1  0.77050000  0.58230000  0.22950000  1.0 0.1285728418
H  H166  1  0.86720000  0.58260000  0.13280000  1.0 0.1285728418
H  H167  1  0.58230000  0.77050000  0.41770000  1.0 0.1285728418
H  H168  1  0.58260000  0.86720000  0.41740000  1.0 0.1285728418
H  H169  1  0.77050000  0.22950000  0.58230000  1.0 0.1285728418
H  H170  1  0.86720000  0.13280000  0.58260000  1.0 0.1285728418
H  H171  1  0.58230000  0.41770000  0.77050000  1.0 0.1285728418
H  H172  1  0.58260000  0.41740000  0.86720000  1.0 0.1285728418
H  H173  1  0.41770000  0.58230000  0.22950000  1.0 0.1285728418
H  H174  1  0.41740000  0.58260000  0.13280000  1.0 0.1285728418
H  H175  1  0.22950000  0.77050000  0.41770000  1.0 0.1285728418
H  H176  1  0.13280000  0.86720000  0.41740000  1.0 0.1285728418
H  H177  1  0.41770000  0.22950000  0.77050000  1.0 0.1285728418
H  H178  1  0.41740000  0.13280000  0.86720000  1.0 0.1285728418
H  H179  1  0.22950000  0.41770000  0.58230000  1.0 0.1285728418
H  H180  1  0.13280000  0.41740000  0.58260000  1.0 0.1285728418
H  H181  1  0.77050000  0.58230000  0.41770000  1.0 0.1285728418
H  H182  1  0.86720000  0.58260000  0.41740000  1.0 0.1285728418
H  H183  1  0.58230000  0.77050000  0.22950000  1.0 0.1285728418
H  H184  1  0.58260000  0.86720000  0.13280000  1.0 0.1285728418
H  H185  1  0.58230000  0.22950000  0.41770000  1.0 0.1285728418
H  H186  1  0.58260000  0.13280000  0.41740000  1.0 0.1285728418
H  H187  1  0.77050000  0.41770000  0.22950000  1.0 0.1285728418
H  H188  1  0.86720000  0.41740000  0.13280000  1.0 0.1285728418
H  H189  1  0.22950000  0.58230000  0.77050000  1.0 0.1285728418
H  H190  1  0.13280000  0.58260000  0.86720000  1.0 0.1285728418
H  H191  1  0.41770000  0.77050000  0.58230000  1.0 0.1285728418
H  H192  1  0.41740000  0.86720000  0.58260000  1.0 0.1285728418
C  C1  1  0.07190000  0.48410000  0.43690000  1.0 0.0347677615
C  C2  1  0.13380000  0.49520000  0.35860000  1.0 -0.4502425486
C  C3  1  0.43690000  0.00710000  0.07190000  1.0 0.0347677615
C  C4  1  0.35860000  0.01240000  0.13380000  1.0 -0.4502425486
C  C5  1  0.48410000  0.07190000  0.00710000  1.0 0.0347677615
C  C6  1  0.49520000  0.13380000  0.01240000  1.0 -0.4502425486
C  C7  1  0.00710000  0.43690000  0.48410000  1.0 0.0347677615
C  C8  1  0.01240000  0.35860000  0.49520000  1.0 -0.4502425486
C  C9  1  0.48410000  0.43690000  0.07190000  1.0 0.0347677615
C  C10  1  0.49520000  0.35860000  0.13380000  1.0 -0.4502425486
C  C11  1  0.00710000  0.07190000  0.43690000  1.0 0.0347677615
C  C12  1  0.01240000  0.13380000  0.35860000  1.0 -0.4502425486
C  C13  1  0.07190000  0.00710000  0.48410000  1.0 0.0347677615
C  C14  1  0.13380000  0.01240000  0.49520000  1.0 -0.4502425486
C  C15  1  0.43690000  0.48410000  0.00710000  1.0 0.0347677615
C  C16  1  0.35860000  0.49520000  0.01240000  1.0 -0.4502425486
C  C17  1  0.43690000  0.07190000  0.48410000  1.0 0.0347677615
C  C18  1  0.35860000  0.13380000  0.49520000  1.0 -0.4502425486
C  C19  1  0.07190000  0.43690000  0.00710000  1.0 0.0347677615
C  C20  1  0.13380000  0.35860000  0.01240000  1.0 -0.4502425486
C  C21  1  0.00710000  0.48410000  0.07190000  1.0 0.0347677615
C  C22  1  0.01240000  0.49520000  0.13380000  1.0 -0.4502425486
C  C23  1  0.48410000  0.00710000  0.43690000  1.0 0.0347677615
C  C24  1  0.49520000  0.01240000  0.35860000  1.0 -0.4502425486
C  C25  1  0.92810000  0.99290000  0.56310000  1.0 0.0347677615
C  C26  1  0.86620000  0.98760000  0.64140000  1.0 -0.4502425486
C  C27  1  0.56310000  0.51590000  0.92810000  1.0 0.0347677615
C  C28  1  0.64140000  0.50480000  0.86620000  1.0 -0.4502425486
C  C29  1  0.51590000  0.56310000  0.99290000  1.0 0.0347677615
C  C30  1  0.50480000  0.64140000  0.98760000  1.0 -0.4502425486
C  C31  1  0.99290000  0.92810000  0.51590000  1.0 0.0347677615
C  C32  1  0.98760000  0.86620000  0.50480000  1.0 -0.4502425486
C  C33  1  0.51590000  0.99290000  0.92810000  1.0 0.0347677615
C  C34  1  0.50480000  0.98760000  0.86620000  1.0 -0.4502425486
C  C35  1  0.99290000  0.51590000  0.56310000  1.0 0.0347677615
C  C36  1  0.98760000  0.50480000  0.64140000  1.0 -0.4502425486
C  C37  1  0.92810000  0.56310000  0.51590000  1.0 0.0347677615
C  C38  1  0.86620000  0.64140000  0.50480000  1.0 -0.4502425486
C  C39  1  0.56310000  0.92810000  0.99290000  1.0 0.0347677615
C  C40  1  0.64140000  0.86620000  0.98760000  1.0 -0.4502425486
C  C41  1  0.56310000  0.99290000  0.51590000  1.0 0.0347677615
C  C42  1  0.64140000  0.98760000  0.50480000  1.0 -0.4502425486
C  C43  1  0.92810000  0.51590000  0.99290000  1.0 0.0347677615
C  C44  1  0.86620000  0.50480000  0.98760000  1.0 -0.4502425486
C  C45  1  0.99290000  0.56310000  0.92810000  1.0 0.0347677615
C  C46  1  0.98760000  0.64140000  0.86620000  1.0 -0.4502425486
C  C47  1  0.51590000  0.92810000  0.56310000  1.0 0.0347677615
C  C48  1  0.50480000  0.86620000  0.64140000  1.0 -0.4502425486
C  C49  1  0.92810000  0.51590000  0.56310000  1.0 0.0347677615
C  C50  1  0.86620000  0.50480000  0.64140000  1.0 -0.4502425486
C  C51  1  0.56310000  0.99290000  0.92810000  1.0 0.0347677615
C  C52  1  0.64140000  0.98760000  0.86620000  1.0 -0.4502425486
C  C53  1  0.51590000  0.92810000  0.99290000  1.0 0.0347677615
C  C54  1  0.50480000  0.86620000  0.98760000  1.0 -0.4502425486
C  C55  1  0.99290000  0.56310000  0.51590000  1.0 0.0347677615
C  C56  1  0.98760000  0.64140000  0.50480000  1.0 -0.4502425486
C  C57  1  0.51590000  0.56310000  0.92810000  1.0 0.0347677615
C  C58  1  0.50480000  0.64140000  0.86620000  1.0 -0.4502425486
C  C59  1  0.99290000  0.92810000  0.56310000  1.0 0.0347677615
C  C60  1  0.98760000  0.86620000  0.64140000  1.0 -0.4502425486
C  C61  1  0.92810000  0.99290000  0.51590000  1.0 0.0347677615
C  C62  1  0.86620000  0.98760000  0.50480000  1.0 -0.4502425486
C  C63  1  0.56310000  0.51590000  0.99290000  1.0 0.0347677615
C  C64  1  0.64140000  0.50480000  0.98760000  1.0 -0.4502425486
C  C65  1  0.56310000  0.92810000  0.51590000  1.0 0.0347677615
C  C66  1  0.64140000  0.86620000  0.50480000  1.0 -0.4502425486
C  C67  1  0.92810000  0.56310000  0.99290000  1.0 0.0347677615
C  C68  1  0.86620000  0.64140000  0.98760000  1.0 -0.4502425486
C  C69  1  0.99290000  0.51590000  0.92810000  1.0 0.0347677615
C  C70  1  0.98760000  0.50480000  0.86620000  1.0 -0.4502425486
C  C71  1  0.51590000  0.99290000  0.56310000  1.0 0.0347677615
C  C72  1  0.50480000  0.98760000  0.64140000  1.0 -0.4502425486
C  C73  1  0.07190000  0.00710000  0.43690000  1.0 0.0347677615
C  C74  1  0.13380000  0.01240000  0.35860000  1.0 -0.4502425486
C  C75  1  0.43690000  0.48410000  0.07190000  1.0 0.0347677615
C  C76  1  0.35860000  0.49520000  0.13380000  1.0 -0.4502425486
C  C77  1  0.48410000  0.43690000  0.00710000  1.0 0.0347677615
C  C78  1  0.49520000  0.35860000  0.01240000  1.0 -0.4502425486
C  C79  1  0.00710000  0.07190000  0.48410000  1.0 0.0347677615
C  C80  1  0.01240000  0.13380000  0.49520000  1.0 -0.4502425486
C  C81  1  0.48410000  0.00710000  0.07190000  1.0 0.0347677615
C  C82  1  0.49520000  0.01240000  0.13380000  1.0 -0.4502425486
C  C83  1  0.00710000  0.48410000  0.43690000  1.0 0.0347677615
C  C84  1  0.01240000  0.49520000  0.35860000  1.0 -0.4502425486
C  C85  1  0.07190000  0.43690000  0.48410000  1.0 0.0347677615
C  C86  1  0.13380000  0.35860000  0.49520000  1.0 -0.4502425486
C  C87  1  0.43690000  0.07190000  0.00710000  1.0 0.0347677615
C  C88  1  0.35860000  0.13380000  0.01240000  1.0 -0.4502425486
C  C89  1  0.43690000  0.00710000  0.48410000  1.0 0.0347677615
C  C90  1  0.35860000  0.01240000  0.49520000  1.0 -0.4502425486
C  C91  1  0.07190000  0.48410000  0.00710000  1.0 0.0347677615
C  C92  1  0.13380000  0.49520000  0.01240000  1.0 -0.4502425486
C  C93  1  0.00710000  0.43690000  0.07190000  1.0 0.0347677615
C  C94  1  0.01240000  0.35860000  0.13380000  1.0 -0.4502425486
C  C95  1  0.48410000  0.07190000  0.43690000  1.0 0.0347677615
C  C96  1  0.49520000  0.13380000  0.35860000  1.0 -0.4502425486
C  C97  1  0.30274000  0.50000000  0.50000000  1.0 0.6436881802
C  C98  1  0.23916000  0.50000000  0.50000000  1.0 -0.0196965964
C  C99  1  0.12240000  0.50000000  0.50000000  1.0 0.0754181749
C  C100  1  0.05960000  0.50000000  0.50000000  1.0 0.039214317
C  C101  1  0.50000000  0.69726000  0.30274000  1.0 0.6436881802
C  C102  1  0.50000000  0.76084000  0.23916000  1.0 -0.0196965964
C  C103  1  0.50000000  0.87760000  0.12240000  1.0 0.0754181749
C  C104  1  0.50000000  0.94040000  0.05960000  1.0 0.039214317
C  C105  1  0.50000000  0.30274000  0.69726000  1.0 0.6436881802
C  C106  1  0.50000000  0.23916000  0.76084000  1.0 -0.0196965964
C  C107  1  0.50000000  0.12240000  0.87760000  1.0 0.0754181749
C  C108  1  0.50000000  0.05960000  0.94040000  1.0 0.039214317
C  C109  1  0.69726000  0.50000000  0.50000000  1.0 0.6436881802
C  C110  1  0.76084000  0.50000000  0.50000000  1.0 -0.0196965964
C  C111  1  0.87760000  0.50000000  0.50000000  1.0 0.0754181749
C  C112  1  0.94040000  0.50000000  0.50000000  1.0 0.039214317
C  C113  1  0.50000000  0.50000000  0.30274000  1.0 0.6436881802
C  C114  1  0.50000000  0.50000000  0.23916000  1.0 -0.0196965964
C  C115  1  0.50000000  0.50000000  0.12240000  1.0 0.0754181749
C  C116  1  0.50000000  0.50000000  0.05960000  1.0 0.039214317
C  C117  1  0.69726000  0.30274000  0.50000000  1.0 0.6436881802
C  C118  1  0.76084000  0.23916000  0.50000000  1.0 -0.0196965964
C  C119  1  0.87760000  0.12240000  0.50000000  1.0 0.0754181749
C  C120  1  0.94040000  0.05960000  0.50000000  1.0 0.039214317
C  C121  1  0.30274000  0.69726000  0.50000000  1.0 0.6436881802
C  C122  1  0.23916000  0.76084000  0.50000000  1.0 -0.0196965964
C  C123  1  0.12240000  0.87760000  0.50000000  1.0 0.0754181749
C  C124  1  0.05960000  0.94040000  0.50000000  1.0 0.039214317
C  C125  1  0.50000000  0.50000000  0.69726000  1.0 0.6436881802
C  C126  1  0.50000000  0.50000000  0.76084000  1.0 -0.0196965964
C  C127  1  0.50000000  0.50000000  0.87760000  1.0 0.0754181749
C  C128  1  0.50000000  0.50000000  0.94040000  1.0 0.039214317
C  C129  1  0.50000000  0.30274000  0.50000000  1.0 0.6436881802
C  C130  1  0.50000000  0.23916000  0.50000000  1.0 -0.0196965964
C  C131  1  0.50000000  0.12240000  0.50000000  1.0 0.0754181749
C  C132  1  0.50000000  0.05960000  0.50000000  1.0 0.039214317
C  C133  1  0.30274000  0.50000000  0.69726000  1.0 0.6436881802
C  C134  1  0.23916000  0.50000000  0.76084000  1.0 -0.0196965964
C  C135  1  0.12240000  0.50000000  0.87760000  1.0 0.0754181749
C  C136  1  0.05960000  0.50000000  0.94040000  1.0 0.039214317
C  C137  1  0.69726000  0.50000000  0.30274000  1.0 0.6436881802
C  C138  1  0.76084000  0.50000000  0.23916000  1.0 -0.0196965964
C  C139  1  0.87760000  0.50000000  0.12240000  1.0 0.0754181749
C  C140  1  0.94040000  0.50000000  0.05960000  1.0 0.039214317
C  C141  1  0.50000000  0.69726000  0.50000000  1.0 0.6436881802
C  C142  1  0.50000000  0.76084000  0.50000000  1.0 -0.0196965964
C  C143  1  0.50000000  0.87760000  0.50000000  1.0 0.0754181749
C  C144  1  0.50000000  0.94040000  0.50000000  1.0 0.039214317
C  C145  1  0.21010000  0.54830000  0.45170000  1.0 -0.0791431212
C  C146  1  0.15180000  0.54860000  0.45140000  1.0 -0.132402376
C  C147  1  0.45170000  0.78990000  0.21010000  1.0 -0.0791431212
C  C148  1  0.45140000  0.84820000  0.15180000  1.0 -0.132402376
C  C149  1  0.54830000  0.21010000  0.78990000  1.0 -0.0791431212
C  C150  1  0.54860000  0.15180000  0.84820000  1.0 -0.132402376
C  C151  1  0.78990000  0.45170000  0.54830000  1.0 -0.0791431212
C  C152  1  0.84820000  0.45140000  0.54860000  1.0 -0.132402376
C  C153  1  0.54830000  0.45170000  0.21010000  1.0 -0.0791431212
C  C154  1  0.54860000  0.45140000  0.15180000  1.0 -0.132402376
C  C155  1  0.78990000  0.21010000  0.45170000  1.0 -0.0791431212
C  C156  1  0.84820000  0.15180000  0.45140000  1.0 -0.132402376
C  C157  1  0.21010000  0.78990000  0.54830000  1.0 -0.0791431212
C  C158  1  0.15180000  0.84820000  0.54860000  1.0 -0.132402376
C  C159  1  0.45170000  0.54830000  0.78990000  1.0 -0.0791431212
C  C160  1  0.45140000  0.54860000  0.84820000  1.0 -0.132402376
C  C161  1  0.45170000  0.21010000  0.54830000  1.0 -0.0791431212
C  C162  1  0.45140000  0.15180000  0.54860000  1.0 -0.132402376
C  C163  1  0.21010000  0.45170000  0.78990000  1.0 -0.0791431212
C  C164  1  0.15180000  0.45140000  0.84820000  1.0 -0.132402376
C  C165  1  0.78990000  0.54830000  0.21010000  1.0 -0.0791431212
C  C166  1  0.84820000  0.54860000  0.15180000  1.0 -0.132402376
C  C167  1  0.54830000  0.78990000  0.45170000  1.0 -0.0791431212
C  C168  1  0.54860000  0.84820000  0.45140000  1.0 -0.132402376
C  C169  1  0.78990000  0.21010000  0.54830000  1.0 -0.0791431212
C  C170  1  0.84820000  0.15180000  0.54860000  1.0 -0.132402376
C  C171  1  0.54830000  0.45170000  0.78990000  1.0 -0.0791431212
C  C172  1  0.54860000  0.45140000  0.84820000  1.0 -0.132402376
C  C173  1  0.45170000  0.54830000  0.21010000  1.0 -0.0791431212
C  C174  1  0.45140000  0.54860000  0.15180000  1.0 -0.132402376
C  C175  1  0.21010000  0.78990000  0.45170000  1.0 -0.0791431212
C  C176  1  0.15180000  0.84820000  0.45140000  1.0 -0.132402376
C  C177  1  0.45170000  0.21010000  0.78990000  1.0 -0.0791431212
C  C178  1  0.45140000  0.15180000  0.84820000  1.0 -0.132402376
C  C179  1  0.21010000  0.45170000  0.54830000  1.0 -0.0791431212
C  C180  1  0.15180000  0.45140000  0.54860000  1.0 -0.132402376
C  C181  1  0.78990000  0.54830000  0.45170000  1.0 -0.0791431212
C  C182  1  0.84820000  0.54860000  0.45140000  1.0 -0.132402376
C  C183  1  0.54830000  0.78990000  0.21010000  1.0 -0.0791431212
C  C184  1  0.54860000  0.84820000  0.15180000  1.0 -0.132402376
C  C185  1  0.54830000  0.21010000  0.45170000  1.0 -0.0791431212
C  C186  1  0.54860000  0.15180000  0.45140000  1.0 -0.132402376
C  C187  1  0.78990000  0.45170000  0.21010000  1.0 -0.0791431212
C  C188  1  0.84820000  0.45140000  0.15180000  1.0 -0.132402376
C  C189  1  0.21010000  0.54830000  0.78990000  1.0 -0.0791431212
C  C190  1  0.15180000  0.54860000  0.84820000  1.0 -0.132402376
C  C191  1  0.45170000  0.78990000  0.54830000  1.0 -0.0791431212
C  C192  1  0.45140000  0.84820000  0.54860000  1.0 -0.132402376
O  O1  1  0.32571000  0.54719000  0.45281000  1.0 -0.5714425265
O  O2  1  0.45281000  0.67429000  0.32571000  1.0 -0.5714425265
O  O3  1  0.54719000  0.32571000  0.67429000  1.0 -0.5714425265
O  O4  1  0.67429000  0.45281000  0.54719000  1.0 -0.5714425265
O  O5  1  0.54719000  0.45281000  0.32571000  1.0 -0.5714425265
O  O6  1  0.67429000  0.32571000  0.45281000  1.0 -0.5714425265
O  O7  1  0.32571000  0.67429000  0.54719000  1.0 -0.5714425265
O  O8  1  0.45281000  0.54719000  0.67429000  1.0 -0.5714425265
O  O9  1  0.45281000  0.32571000  0.54719000  1.0 -0.5714425265
O  O10  1  0.32571000  0.45281000  0.67429000  1.0 -0.5714425265
O  O11  1  0.67429000  0.54719000  0.32571000  1.0 -0.5714425265
O  O12  1  0.54719000  0.67429000  0.45281000  1.0 -0.5714425265
O  O13  1  0.67429000  0.32571000  0.54719000  1.0 -0.5714425265
O  O14  1  0.54719000  0.45281000  0.67429000  1.0 -0.5714425265
O  O15  1  0.45281000  0.54719000  0.32571000  1.0 -0.5714425265
O  O16  1  0.32571000  0.67429000  0.45281000  1.0 -0.5714425265
O  O17  1  0.45281000  0.32571000  0.67429000  1.0 -0.5714425265
O  O18  1  0.32571000  0.45281000  0.54719000  1.0 -0.5714425265
O  O19  1  0.67429000  0.54719000  0.45281000  1.0 -0.5714425265
O  O20  1  0.54719000  0.67429000  0.32571000  1.0 -0.5714425265
O  O21  1  0.54719000  0.32571000  0.45281000  1.0 -0.5714425265
O  O22  1  0.67429000  0.45281000  0.32571000  1.0 -0.5714425265
O  O23  1  0.32571000  0.54719000  0.67429000  1.0 -0.5714425265
O  O24  1  0.45281000  0.67429000  0.54719000  1.0 -0.5714425265
O  O25  1  0.38609000  0.53797000  0.53797000  1.0 -0.9412206033
O  O26  1  0.53797000  0.53797000  0.38609000  1.0 -0.9412206033
O  O27  1  0.53797000  0.38609000  0.53797000  1.0 -0.9412206033
O  O28  1  0.53797000  0.53797000  0.53797000  1.0 -0.9412206033
O  O29  1  0.61391000  0.46203000  0.46203000  1.0 -0.9412206033
O  O30  1  0.46203000  0.46203000  0.61391000  1.0 -0.9412206033
O  O31  1  0.46203000  0.46203000  0.46203000  1.0 -0.9412206033
O  O32  1  0.46203000  0.61391000  0.46203000  1.0 -0.9412206033
