# DDEC6 charges by PACMAN v1.1 (https://github.com/mtap-research/PACMAN-charge/)
data_SODRUB_ASR_pacman
_symmetry_space_group_name_H-M   'P 1'
_cell_length_a   24.56880000
_cell_length_b   24.56880000
_cell_length_c   24.56880000
_cell_angle_alpha   90.00000000
_cell_angle_beta   90.00000000
_cell_angle_gamma   90.00000000
_symmetry_Int_Tables_number   1
_chemical_formula_structural   Tb3H18(C9O4)4
_chemical_formula_sum   'Tb24 H144 C288 O128'
_cell_volume   14830.36483350
_cell_formula_units_Z   8
loop_
 _symmetry_equiv_pos_site_id
 _symmetry_equiv_pos_as_xyz
  1  'x, y, z'
loop_
 _atom_site_type_symbol
 _atom_site_label
 _atom_site_symmetry_multiplicity
 _atom_site_fract_x
 _atom_site_fract_y
 _atom_site_fract_z
 _atom_site_occupancy
 _atom_site_charge
Tb  Tb1  1  0.25555000  0.13739000  0.75560000  1.0 2.1829650838
Tb  Tb2  1  0.74445000  0.86261000  0.75560000  1.0 2.1829650838
Tb  Tb3  1  0.74445000  0.13739000  0.24440000  1.0 2.1829650838
Tb  Tb4  1  0.25555000  0.86261000  0.24440000  1.0 2.1829650838
Tb  Tb5  1  0.75560000  0.25555000  0.13739000  1.0 2.1829650838
Tb  Tb6  1  0.75560000  0.74445000  0.86261000  1.0 2.1829650838
Tb  Tb7  1  0.24440000  0.74445000  0.13739000  1.0 2.1829650838
Tb  Tb8  1  0.24440000  0.25555000  0.86261000  1.0 2.1829650838
Tb  Tb9  1  0.13739000  0.75560000  0.25555000  1.0 2.1829650838
Tb  Tb10  1  0.86261000  0.75560000  0.74445000  1.0 2.1829650838
Tb  Tb11  1  0.13739000  0.24440000  0.74445000  1.0 2.1829650838
Tb  Tb12  1  0.86261000  0.24440000  0.25555000  1.0 2.1829650838
Tb  Tb13  1  0.24445000  0.36261000  0.74440000  1.0 2.1829650838
Tb  Tb14  1  0.75555000  0.63739000  0.74440000  1.0 2.1829650838
Tb  Tb15  1  0.75555000  0.36261000  0.25560000  1.0 2.1829650838
Tb  Tb16  1  0.24445000  0.63739000  0.25560000  1.0 2.1829650838
Tb  Tb17  1  0.74440000  0.24445000  0.36261000  1.0 2.1829650838
Tb  Tb18  1  0.74440000  0.75555000  0.63739000  1.0 2.1829650838
Tb  Tb19  1  0.25560000  0.75555000  0.36261000  1.0 2.1829650838
Tb  Tb20  1  0.25560000  0.24445000  0.63739000  1.0 2.1829650838
Tb  Tb21  1  0.36261000  0.74440000  0.24445000  1.0 2.1829650838
Tb  Tb22  1  0.63739000  0.74440000  0.75555000  1.0 2.1829650838
Tb  Tb23  1  0.36261000  0.25560000  0.75555000  1.0 2.1829650838
Tb  Tb24  1  0.63739000  0.25560000  0.24445000  1.0 2.1829650838
H  H1  1  0.01740000  0.10640000  0.74340000  1.0 0.1396932389
H  H2  1  0.26650000  0.99480000  0.64170000  1.0 0.1396932389
H  H3  1  0.26120000  0.10950000  0.51580000  1.0 0.1396932389
H  H4  1  0.26880000  0.91630000  0.57520000  1.0 0.1396932389
H  H5  1  0.91940000  0.07230000  0.74640000  1.0 0.1275127407
H  H6  1  0.14210000  0.00280000  0.76240000  1.0 0.1396932389
H  H7  1  0.98260000  0.89360000  0.74340000  1.0 0.1396932389
H  H8  1  0.73350000  0.00520000  0.64170000  1.0 0.1396932389
H  H9  1  0.73880000  0.89050000  0.51580000  1.0 0.1396932389
H  H10  1  0.73120000  0.08370000  0.57520000  1.0 0.1396932389
H  H11  1  0.08060000  0.92770000  0.74640000  1.0 0.1275127407
H  H12  1  0.85790000  0.99720000  0.76240000  1.0 0.1396932389
H  H13  1  0.98260000  0.10640000  0.25660000  1.0 0.1396932389
H  H14  1  0.73350000  0.99480000  0.35830000  1.0 0.1396932389
H  H15  1  0.73880000  0.10950000  0.48420000  1.0 0.1396932389
H  H16  1  0.73120000  0.91630000  0.42480000  1.0 0.1396932389
H  H17  1  0.08060000  0.07230000  0.25360000  1.0 0.1275127407
H  H18  1  0.85790000  0.00280000  0.23760000  1.0 0.1396932389
H  H19  1  0.01740000  0.89360000  0.25660000  1.0 0.1396932389
H  H20  1  0.26650000  0.00520000  0.35830000  1.0 0.1396932389
H  H21  1  0.26120000  0.89050000  0.48420000  1.0 0.1396932389
H  H22  1  0.26880000  0.08370000  0.42480000  1.0 0.1396932389
H  H23  1  0.91940000  0.92770000  0.25360000  1.0 0.1275127407
H  H24  1  0.14210000  0.99720000  0.23760000  1.0 0.1396932389
H  H25  1  0.74340000  0.01740000  0.10640000  1.0 0.1396932389
H  H26  1  0.64170000  0.26650000  0.99480000  1.0 0.1396932389
H  H27  1  0.51580000  0.26120000  0.10950000  1.0 0.1396932389
H  H28  1  0.57520000  0.26880000  0.91630000  1.0 0.1396932389
H  H29  1  0.74640000  0.91940000  0.07230000  1.0 0.1275127407
H  H30  1  0.76240000  0.14210000  0.00280000  1.0 0.1396932389
H  H31  1  0.74340000  0.98260000  0.89360000  1.0 0.1396932389
H  H32  1  0.64170000  0.73350000  0.00520000  1.0 0.1396932389
H  H33  1  0.51580000  0.73880000  0.89050000  1.0 0.1396932389
H  H34  1  0.57520000  0.73120000  0.08370000  1.0 0.1396932389
H  H35  1  0.74640000  0.08060000  0.92770000  1.0 0.1275127407
H  H36  1  0.76240000  0.85790000  0.99720000  1.0 0.1396932389
H  H37  1  0.25660000  0.98260000  0.10640000  1.0 0.1396932389
H  H38  1  0.35830000  0.73350000  0.99480000  1.0 0.1396932389
H  H39  1  0.48420000  0.73880000  0.10950000  1.0 0.1396932389
H  H40  1  0.42480000  0.73120000  0.91630000  1.0 0.1396932389
H  H41  1  0.25360000  0.08060000  0.07230000  1.0 0.1275127407
H  H42  1  0.23760000  0.85790000  0.00280000  1.0 0.1396932389
H  H43  1  0.25660000  0.01740000  0.89360000  1.0 0.1396932389
H  H44  1  0.35830000  0.26650000  0.00520000  1.0 0.1396932389
H  H45  1  0.48420000  0.26120000  0.89050000  1.0 0.1396932389
H  H46  1  0.42480000  0.26880000  0.08370000  1.0 0.1396932389
H  H47  1  0.25360000  0.91940000  0.92770000  1.0 0.1275127407
H  H48  1  0.23760000  0.14210000  0.99720000  1.0 0.1396932389
H  H49  1  0.10640000  0.74340000  0.01740000  1.0 0.1396932389
H  H50  1  0.99480000  0.64170000  0.26650000  1.0 0.1396932389
H  H51  1  0.10950000  0.51580000  0.26120000  1.0 0.1396932389
H  H52  1  0.91630000  0.57520000  0.26880000  1.0 0.1396932389
H  H53  1  0.07230000  0.74640000  0.91940000  1.0 0.1275127407
H  H54  1  0.00280000  0.76240000  0.14210000  1.0 0.1396932389
H  H55  1  0.89360000  0.74340000  0.98260000  1.0 0.1396932389
H  H56  1  0.00520000  0.64170000  0.73350000  1.0 0.1396932389
H  H57  1  0.89050000  0.51580000  0.73880000  1.0 0.1396932389
H  H58  1  0.08370000  0.57520000  0.73120000  1.0 0.1396932389
H  H59  1  0.92770000  0.74640000  0.08060000  1.0 0.1275127407
H  H60  1  0.99720000  0.76240000  0.85790000  1.0 0.1396932389
H  H61  1  0.10640000  0.25660000  0.98260000  1.0 0.1396932389
H  H62  1  0.99480000  0.35830000  0.73350000  1.0 0.1396932389
H  H63  1  0.10950000  0.48420000  0.73880000  1.0 0.1396932389
H  H64  1  0.91630000  0.42480000  0.73120000  1.0 0.1396932389
H  H65  1  0.07230000  0.25360000  0.08060000  1.0 0.1275127407
H  H66  1  0.00280000  0.23760000  0.85790000  1.0 0.1396932389
H  H67  1  0.89360000  0.25660000  0.01740000  1.0 0.1396932389
H  H68  1  0.00520000  0.35830000  0.26650000  1.0 0.1396932389
H  H69  1  0.89050000  0.48420000  0.26120000  1.0 0.1396932389
H  H70  1  0.08370000  0.42480000  0.26880000  1.0 0.1396932389
H  H71  1  0.92770000  0.25360000  0.91940000  1.0 0.1275127407
H  H72  1  0.99720000  0.23760000  0.14210000  1.0 0.1396932389
H  H73  1  0.48260000  0.39360000  0.75660000  1.0 0.1396932389
H  H74  1  0.23350000  0.50520000  0.85830000  1.0 0.1396932389
H  H75  1  0.23880000  0.39050000  0.98420000  1.0 0.1396932389
H  H76  1  0.23120000  0.58370000  0.92480000  1.0 0.1396932389
H  H77  1  0.58060000  0.42770000  0.75360000  1.0 0.1275127407
H  H78  1  0.35790000  0.49720000  0.73760000  1.0 0.1396932389
H  H79  1  0.51740000  0.60640000  0.75660000  1.0 0.1396932389
H  H80  1  0.76650000  0.49480000  0.85830000  1.0 0.1396932389
H  H81  1  0.76120000  0.60950000  0.98420000  1.0 0.1396932389
H  H82  1  0.76880000  0.41630000  0.92480000  1.0 0.1396932389
H  H83  1  0.41940000  0.57230000  0.75360000  1.0 0.1275127407
H  H84  1  0.64210000  0.50280000  0.73760000  1.0 0.1396932389
H  H85  1  0.51740000  0.39360000  0.24340000  1.0 0.1396932389
H  H86  1  0.76650000  0.50520000  0.14170000  1.0 0.1396932389
H  H87  1  0.76120000  0.39050000  0.01580000  1.0 0.1396932389
H  H88  1  0.76880000  0.58370000  0.07520000  1.0 0.1396932389
H  H89  1  0.41940000  0.42770000  0.24640000  1.0 0.1275127407
H  H90  1  0.64210000  0.49720000  0.26240000  1.0 0.1396932389
H  H91  1  0.48260000  0.60640000  0.24340000  1.0 0.1396932389
H  H92  1  0.23350000  0.49480000  0.14170000  1.0 0.1396932389
H  H93  1  0.23880000  0.60950000  0.01580000  1.0 0.1396932389
H  H94  1  0.23120000  0.41630000  0.07520000  1.0 0.1396932389
H  H95  1  0.58060000  0.57230000  0.24640000  1.0 0.1275127407
H  H96  1  0.35790000  0.50280000  0.26240000  1.0 0.1396932389
H  H97  1  0.75660000  0.48260000  0.39360000  1.0 0.1396932389
H  H98  1  0.85830000  0.23350000  0.50520000  1.0 0.1396932389
H  H99  1  0.98420000  0.23880000  0.39050000  1.0 0.1396932389
H  H100  1  0.92480000  0.23120000  0.58370000  1.0 0.1396932389
H  H101  1  0.75360000  0.58060000  0.42770000  1.0 0.1275127407
H  H102  1  0.73760000  0.35790000  0.49720000  1.0 0.1396932389
H  H103  1  0.75660000  0.51740000  0.60640000  1.0 0.1396932389
H  H104  1  0.85830000  0.76650000  0.49480000  1.0 0.1396932389
H  H105  1  0.98420000  0.76120000  0.60950000  1.0 0.1396932389
H  H106  1  0.92480000  0.76880000  0.41630000  1.0 0.1396932389
H  H107  1  0.75360000  0.41940000  0.57230000  1.0 0.1275127407
H  H108  1  0.73760000  0.64210000  0.50280000  1.0 0.1396932389
H  H109  1  0.24340000  0.51740000  0.39360000  1.0 0.1396932389
H  H110  1  0.14170000  0.76650000  0.50520000  1.0 0.1396932389
H  H111  1  0.01580000  0.76120000  0.39050000  1.0 0.1396932389
H  H112  1  0.07520000  0.76880000  0.58370000  1.0 0.1396932389
H  H113  1  0.24640000  0.41940000  0.42770000  1.0 0.1275127407
H  H114  1  0.26240000  0.64210000  0.49720000  1.0 0.1396932389
H  H115  1  0.24340000  0.48260000  0.60640000  1.0 0.1396932389
H  H116  1  0.14170000  0.23350000  0.49480000  1.0 0.1396932389
H  H117  1  0.01580000  0.23880000  0.60950000  1.0 0.1396932389
H  H118  1  0.07520000  0.23120000  0.41630000  1.0 0.1396932389
H  H119  1  0.24640000  0.58060000  0.57230000  1.0 0.1275127407
H  H120  1  0.26240000  0.35790000  0.50280000  1.0 0.1396932389
H  H121  1  0.39360000  0.75660000  0.48260000  1.0 0.1396932389
H  H122  1  0.50520000  0.85830000  0.23350000  1.0 0.1396932389
H  H123  1  0.39050000  0.98420000  0.23880000  1.0 0.1396932389
H  H124  1  0.58370000  0.92480000  0.23120000  1.0 0.1396932389
H  H125  1  0.42770000  0.75360000  0.58060000  1.0 0.1275127407
H  H126  1  0.49720000  0.73760000  0.35790000  1.0 0.1396932389
H  H127  1  0.60640000  0.75660000  0.51740000  1.0 0.1396932389
H  H128  1  0.49480000  0.85830000  0.76650000  1.0 0.1396932389
H  H129  1  0.60950000  0.98420000  0.76120000  1.0 0.1396932389
H  H130  1  0.41630000  0.92480000  0.76880000  1.0 0.1396932389
H  H131  1  0.57230000  0.75360000  0.41940000  1.0 0.1275127407
H  H132  1  0.50280000  0.73760000  0.64210000  1.0 0.1396932389
H  H133  1  0.39360000  0.24340000  0.51740000  1.0 0.1396932389
H  H134  1  0.50520000  0.14170000  0.76650000  1.0 0.1396932389
H  H135  1  0.39050000  0.01580000  0.76120000  1.0 0.1396932389
H  H136  1  0.58370000  0.07520000  0.76880000  1.0 0.1396932389
H  H137  1  0.42770000  0.24640000  0.41940000  1.0 0.1275127407
H  H138  1  0.49720000  0.26240000  0.64210000  1.0 0.1396932389
H  H139  1  0.60640000  0.24340000  0.48260000  1.0 0.1396932389
H  H140  1  0.49480000  0.14170000  0.23350000  1.0 0.1396932389
H  H141  1  0.60950000  0.01580000  0.23880000  1.0 0.1396932389
H  H142  1  0.41630000  0.07520000  0.23120000  1.0 0.1396932389
H  H143  1  0.57230000  0.24640000  0.58060000  1.0 0.1275127407
H  H144  1  0.50280000  0.26240000  0.35790000  1.0 0.1396932389
C  C1  1  0.12190000  0.10600000  0.75110000  1.0 0.6570714949
C  C2  1  0.08220000  0.06260000  0.74950000  1.0 -0.0572215017
C  C3  1  0.03010000  0.07000000  0.74700000  1.0 -0.1097024098
C  C4  1  0.99000000  0.02770000  0.74940000  1.0 0.0808275208
C  C5  1  0.25780000  0.06260000  0.58120000  1.0 -0.0226632085
C  C6  1  0.25810000  0.10800000  0.62140000  1.0 0.6570714949
C  C7  1  0.26370000  0.00100000  0.60360000  1.0 -0.0765703867
C  C8  1  0.25970000  0.07290000  0.52840000  1.0 -0.1401320595
C  C9  1  0.25930000  0.02620000  0.48760000  1.0 0.0808275208
C  C10  1  0.26500000  0.95400000  0.56500000  1.0 -0.1734641653
C  C11  1  0.93320000  0.03630000  0.74980000  1.0 -0.1640144437
C  C12  1  0.10450000  0.00860000  0.75530000  1.0 -0.074945616
C  C13  1  0.87810000  0.89400000  0.75110000  1.0 0.6570714949
C  C14  1  0.91780000  0.93740000  0.74950000  1.0 -0.0572215017
C  C15  1  0.96990000  0.93000000  0.74700000  1.0 -0.1097024098
C  C16  1  0.01000000  0.97230000  0.74940000  1.0 0.0808275208
C  C17  1  0.74220000  0.93740000  0.58120000  1.0 -0.0226632085
C  C18  1  0.74190000  0.89200000  0.62140000  1.0 0.6570714949
C  C19  1  0.73630000  0.99900000  0.60360000  1.0 -0.0765703867
C  C20  1  0.74030000  0.92710000  0.52840000  1.0 -0.1401320595
C  C21  1  0.74070000  0.97380000  0.48760000  1.0 0.0808275208
C  C22  1  0.73500000  0.04600000  0.56500000  1.0 -0.1734641653
C  C23  1  0.06680000  0.96370000  0.74980000  1.0 -0.1640144437
C  C24  1  0.89550000  0.99140000  0.75530000  1.0 -0.074945616
C  C25  1  0.87810000  0.10600000  0.24890000  1.0 0.6570714949
C  C26  1  0.91780000  0.06260000  0.25050000  1.0 -0.0572215017
C  C27  1  0.96990000  0.07000000  0.25300000  1.0 -0.1097024098
C  C28  1  0.01000000  0.02770000  0.25060000  1.0 0.0808275208
C  C29  1  0.74220000  0.06260000  0.41880000  1.0 -0.0226632085
C  C30  1  0.74190000  0.10800000  0.37860000  1.0 0.6570714949
C  C31  1  0.73630000  0.00100000  0.39640000  1.0 -0.0765703867
C  C32  1  0.74030000  0.07290000  0.47160000  1.0 -0.1401320595
C  C33  1  0.74070000  0.02620000  0.51240000  1.0 0.0808275208
C  C34  1  0.73500000  0.95400000  0.43500000  1.0 -0.1734641653
C  C35  1  0.06680000  0.03630000  0.25020000  1.0 -0.1640144437
C  C36  1  0.89550000  0.00860000  0.24470000  1.0 -0.074945616
C  C37  1  0.12190000  0.89400000  0.24890000  1.0 0.6570714949
C  C38  1  0.08220000  0.93740000  0.25050000  1.0 -0.0572215017
C  C39  1  0.03010000  0.93000000  0.25300000  1.0 -0.1097024098
C  C40  1  0.99000000  0.97230000  0.25060000  1.0 0.0808275208
C  C41  1  0.25780000  0.93740000  0.41880000  1.0 -0.0226632085
C  C42  1  0.25810000  0.89200000  0.37860000  1.0 0.6570714949
C  C43  1  0.26370000  0.99900000  0.39640000  1.0 -0.0765703867
C  C44  1  0.25970000  0.92710000  0.47160000  1.0 -0.1401320595
C  C45  1  0.25930000  0.97380000  0.51240000  1.0 0.0808275208
C  C46  1  0.26500000  0.04600000  0.43500000  1.0 -0.1734641653
C  C47  1  0.93320000  0.96370000  0.25020000  1.0 -0.1640144437
C  C48  1  0.10450000  0.99140000  0.24470000  1.0 -0.074945616
C  C49  1  0.75110000  0.12190000  0.10600000  1.0 0.6570714949
C  C50  1  0.74950000  0.08220000  0.06260000  1.0 -0.0572215017
C  C51  1  0.74700000  0.03010000  0.07000000  1.0 -0.1097024098
C  C52  1  0.74940000  0.99000000  0.02770000  1.0 0.0808275208
C  C53  1  0.58120000  0.25780000  0.06260000  1.0 -0.0226632085
C  C54  1  0.62140000  0.25810000  0.10800000  1.0 0.6570714949
C  C55  1  0.60360000  0.26370000  0.00100000  1.0 -0.0765703867
C  C56  1  0.52840000  0.25970000  0.07290000  1.0 -0.1401320595
C  C57  1  0.48760000  0.25930000  0.02620000  1.0 0.0808275208
C  C58  1  0.56500000  0.26500000  0.95400000  1.0 -0.1734641653
C  C59  1  0.74980000  0.93320000  0.03630000  1.0 -0.1640144437
C  C60  1  0.75530000  0.10450000  0.00860000  1.0 -0.074945616
C  C61  1  0.75110000  0.87810000  0.89400000  1.0 0.6570714949
C  C62  1  0.74950000  0.91780000  0.93740000  1.0 -0.0572215017
C  C63  1  0.74700000  0.96990000  0.93000000  1.0 -0.1097024098
C  C64  1  0.74940000  0.01000000  0.97230000  1.0 0.0808275208
C  C65  1  0.58120000  0.74220000  0.93740000  1.0 -0.0226632085
C  C66  1  0.62140000  0.74190000  0.89200000  1.0 0.6570714949
C  C67  1  0.60360000  0.73630000  0.99900000  1.0 -0.0765703867
C  C68  1  0.52840000  0.74030000  0.92710000  1.0 -0.1401320595
C  C69  1  0.48760000  0.74070000  0.97380000  1.0 0.0808275208
C  C70  1  0.56500000  0.73500000  0.04600000  1.0 -0.1734641653
C  C71  1  0.74980000  0.06680000  0.96370000  1.0 -0.1640144437
C  C72  1  0.75530000  0.89550000  0.99140000  1.0 -0.074945616
C  C73  1  0.24890000  0.87810000  0.10600000  1.0 0.6570714949
C  C74  1  0.25050000  0.91780000  0.06260000  1.0 -0.0572215017
C  C75  1  0.25300000  0.96990000  0.07000000  1.0 -0.1097024098
C  C76  1  0.25060000  0.01000000  0.02770000  1.0 0.0808275208
C  C77  1  0.41880000  0.74220000  0.06260000  1.0 -0.0226632085
C  C78  1  0.37860000  0.74190000  0.10800000  1.0 0.6570714949
C  C79  1  0.39640000  0.73630000  0.00100000  1.0 -0.0765703867
C  C80  1  0.47160000  0.74030000  0.07290000  1.0 -0.1401320595
C  C81  1  0.51240000  0.74070000  0.02620000  1.0 0.0808275208
C  C82  1  0.43500000  0.73500000  0.95400000  1.0 -0.1734641653
C  C83  1  0.25020000  0.06680000  0.03630000  1.0 -0.1640144437
C  C84  1  0.24470000  0.89550000  0.00860000  1.0 -0.074945616
C  C85  1  0.24890000  0.12190000  0.89400000  1.0 0.6570714949
C  C86  1  0.25050000  0.08220000  0.93740000  1.0 -0.0572215017
C  C87  1  0.25300000  0.03010000  0.93000000  1.0 -0.1097024098
C  C88  1  0.25060000  0.99000000  0.97230000  1.0 0.0808275208
C  C89  1  0.41880000  0.25780000  0.93740000  1.0 -0.0226632085
C  C90  1  0.37860000  0.25810000  0.89200000  1.0 0.6570714949
C  C91  1  0.39640000  0.26370000  0.99900000  1.0 -0.0765703867
C  C92  1  0.47160000  0.25970000  0.92710000  1.0 -0.1401320595
C  C93  1  0.51240000  0.25930000  0.97380000  1.0 0.0808275208
C  C94  1  0.43500000  0.26500000  0.04600000  1.0 -0.1734641653
C  C95  1  0.25020000  0.93320000  0.96370000  1.0 -0.1640144437
C  C96  1  0.24470000  0.10450000  0.99140000  1.0 -0.074945616
C  C97  1  0.10600000  0.75110000  0.12190000  1.0 0.6570714949
C  C98  1  0.06260000  0.74950000  0.08220000  1.0 -0.0572215017
C  C99  1  0.07000000  0.74700000  0.03010000  1.0 -0.1097024098
C  C100  1  0.02770000  0.74940000  0.99000000  1.0 0.0808275208
C  C101  1  0.06260000  0.58120000  0.25780000  1.0 -0.0226632085
C  C102  1  0.10800000  0.62140000  0.25810000  1.0 0.6570714949
C  C103  1  0.00100000  0.60360000  0.26370000  1.0 -0.0765703867
C  C104  1  0.07290000  0.52840000  0.25970000  1.0 -0.1401320595
C  C105  1  0.02620000  0.48760000  0.25930000  1.0 0.0808275208
C  C106  1  0.95400000  0.56500000  0.26500000  1.0 -0.1734641653
C  C107  1  0.03630000  0.74980000  0.93320000  1.0 -0.1640144437
C  C108  1  0.00860000  0.75530000  0.10450000  1.0 -0.0765703867
C  C109  1  0.89400000  0.75110000  0.87810000  1.0 0.6570714949
C  C110  1  0.93740000  0.74950000  0.91780000  1.0 -0.0572215017
C  C111  1  0.93000000  0.74700000  0.96990000  1.0 -0.1097024098
C  C112  1  0.97230000  0.74940000  0.01000000  1.0 0.0808275208
C  C113  1  0.93740000  0.58120000  0.74220000  1.0 -0.0226632085
C  C114  1  0.89200000  0.62140000  0.74190000  1.0 0.6570714949
C  C115  1  0.99900000  0.60360000  0.73630000  1.0 -0.0765703867
C  C116  1  0.92710000  0.52840000  0.74030000  1.0 -0.1401320595
C  C117  1  0.97380000  0.48760000  0.74070000  1.0 0.0808275208
C  C118  1  0.04600000  0.56500000  0.73500000  1.0 -0.1734641653
C  C119  1  0.96370000  0.74980000  0.06680000  1.0 -0.1640144437
C  C120  1  0.99140000  0.75530000  0.89550000  1.0 -0.074945616
C  C121  1  0.10600000  0.24890000  0.87810000  1.0 0.6570714949
C  C122  1  0.06260000  0.25050000  0.91780000  1.0 -0.0572215017
C  C123  1  0.07000000  0.25300000  0.96990000  1.0 -0.1097024098
C  C124  1  0.02770000  0.25060000  0.01000000  1.0 0.0808275208
C  C125  1  0.06260000  0.41880000  0.74220000  1.0 -0.0226632085
C  C126  1  0.10800000  0.37860000  0.74190000  1.0 0.6570714949
C  C127  1  0.00100000  0.39640000  0.73630000  1.0 -0.0765703867
C  C128  1  0.07290000  0.47160000  0.74030000  1.0 -0.1401320595
C  C129  1  0.02620000  0.51240000  0.74070000  1.0 0.0808275208
C  C130  1  0.95400000  0.43500000  0.73500000  1.0 -0.1734641653
C  C131  1  0.03630000  0.25020000  0.06680000  1.0 -0.1640144437
C  C132  1  0.00860000  0.24470000  0.89550000  1.0 -0.074945616
C  C133  1  0.89400000  0.24890000  0.12190000  1.0 0.6570714949
C  C134  1  0.93740000  0.25050000  0.08220000  1.0 -0.0572215017
C  C135  1  0.93000000  0.25300000  0.03010000  1.0 -0.1097024098
C  C136  1  0.97230000  0.25060000  0.99000000  1.0 0.0808275208
C  C137  1  0.93740000  0.41880000  0.25780000  1.0 -0.0226632085
C  C138  1  0.89200000  0.37860000  0.25810000  1.0 0.6570714949
C  C139  1  0.99900000  0.39640000  0.26370000  1.0 -0.0765703867
C  C140  1  0.92710000  0.47160000  0.25970000  1.0 -0.1401320595
C  C141  1  0.97380000  0.51240000  0.25930000  1.0 0.0808275208
C  C142  1  0.04600000  0.43500000  0.26500000  1.0 -0.1734641653
C  C143  1  0.96370000  0.25020000  0.93320000  1.0 -0.1640144437
C  C144  1  0.99140000  0.24470000  0.10450000  1.0 -0.074945616
C  C145  1  0.37810000  0.39400000  0.74890000  1.0 0.6570714949
C  C146  1  0.41780000  0.43740000  0.75050000  1.0 -0.0572215017
C  C147  1  0.46990000  0.43000000  0.75300000  1.0 -0.1097024098
C  C148  1  0.51000000  0.47230000  0.75060000  1.0 0.0808275208
C  C149  1  0.24220000  0.43740000  0.91880000  1.0 -0.0226632085
C  C150  1  0.24190000  0.39200000  0.87860000  1.0 0.6570714949
C  C151  1  0.23630000  0.49900000  0.89640000  1.0 -0.0765703867
C  C152  1  0.24030000  0.42710000  0.97160000  1.0 -0.1401320595
C  C153  1  0.24070000  0.47380000  0.01240000  1.0 0.0808275208
C  C154  1  0.23500000  0.54600000  0.93500000  1.0 -0.1734641653
C  C155  1  0.56680000  0.46370000  0.75020000  1.0 -0.1640144437
C  C156  1  0.39550000  0.49140000  0.74470000  1.0 -0.074945616
C  C157  1  0.62190000  0.60600000  0.74890000  1.0 0.6570714949
C  C158  1  0.58220000  0.56260000  0.75050000  1.0 -0.0572215017
C  C159  1  0.53010000  0.57000000  0.75300000  1.0 -0.1097024098
C  C160  1  0.49000000  0.52770000  0.75060000  1.0 0.0808275208
C  C161  1  0.75780000  0.56260000  0.91880000  1.0 -0.0226632085
C  C162  1  0.75810000  0.60800000  0.87860000  1.0 0.6570714949
C  C163  1  0.76370000  0.50100000  0.89640000  1.0 -0.0765703867
C  C164  1  0.75970000  0.57290000  0.97160000  1.0 -0.1401320595
C  C165  1  0.75930000  0.52620000  0.01240000  1.0 0.0808275208
C  C166  1  0.76500000  0.45400000  0.93500000  1.0 -0.1734641653
C  C167  1  0.43320000  0.53630000  0.75020000  1.0 -0.1640144437
C  C168  1  0.60450000  0.50860000  0.74470000  1.0 -0.074945616
C  C169  1  0.62190000  0.39400000  0.25110000  1.0 0.6570714949
C  C170  1  0.58220000  0.43740000  0.24950000  1.0 -0.0572215017
C  C171  1  0.53010000  0.43000000  0.24700000  1.0 -0.1097024098
C  C172  1  0.49000000  0.47230000  0.24940000  1.0 0.0808275208
C  C173  1  0.75780000  0.43740000  0.08120000  1.0 -0.0226632085
C  C174  1  0.75810000  0.39200000  0.12140000  1.0 0.6570714949
C  C175  1  0.76370000  0.49900000  0.10360000  1.0 -0.0765703867
C  C176  1  0.75970000  0.42710000  0.02840000  1.0 -0.1401320595
C  C177  1  0.75930000  0.47380000  0.98760000  1.0 0.0808275208
C  C178  1  0.76500000  0.54600000  0.06500000  1.0 -0.1734641653
C  C179  1  0.43320000  0.46370000  0.24980000  1.0 -0.1640144437
C  C180  1  0.60450000  0.49140000  0.25530000  1.0 -0.074945616
C  C181  1  0.37810000  0.60600000  0.25110000  1.0 0.6570714949
C  C182  1  0.41780000  0.56260000  0.24950000  1.0 -0.0572215017
C  C183  1  0.46990000  0.57000000  0.24700000  1.0 -0.1097024098
C  C184  1  0.51000000  0.52770000  0.24940000  1.0 0.0808275208
C  C185  1  0.24220000  0.56260000  0.08120000  1.0 -0.0226632085
C  C186  1  0.24190000  0.60800000  0.12140000  1.0 0.6570714949
C  C187  1  0.23630000  0.50100000  0.10360000  1.0 -0.0765703867
C  C188  1  0.24030000  0.57290000  0.02840000  1.0 -0.1401320595
C  C189  1  0.24070000  0.52620000  0.98760000  1.0 0.0808275208
C  C190  1  0.23500000  0.45400000  0.06500000  1.0 -0.1734641653
C  C191  1  0.56680000  0.53630000  0.24980000  1.0 -0.1640144437
C  C192  1  0.39550000  0.50860000  0.25530000  1.0 -0.074945616
C  C193  1  0.74890000  0.37810000  0.39400000  1.0 0.6570714949
C  C194  1  0.75050000  0.41780000  0.43740000  1.0 -0.0572215017
C  C195  1  0.75300000  0.46990000  0.43000000  1.0 -0.1097024098
C  C196  1  0.75060000  0.51000000  0.47230000  1.0 0.0808275208
C  C197  1  0.91880000  0.24220000  0.43740000  1.0 -0.0226632085
C  C198  1  0.87860000  0.24190000  0.39200000  1.0 0.6570714949
C  C199  1  0.89640000  0.23630000  0.49900000  1.0 -0.0765703867
C  C200  1  0.97160000  0.24030000  0.42710000  1.0 -0.1401320595
C  C201  1  0.01240000  0.24070000  0.47380000  1.0 0.0808275208
C  C202  1  0.93500000  0.23500000  0.54600000  1.0 -0.1734641653
C  C203  1  0.75020000  0.56680000  0.46370000  1.0 -0.1640144437
C  C204  1  0.74470000  0.39550000  0.49140000  1.0 -0.074945616
C  C205  1  0.74890000  0.62190000  0.60600000  1.0 0.6570714949
C  C206  1  0.75050000  0.58220000  0.56260000  1.0 -0.0572215017
C  C207  1  0.75300000  0.53010000  0.57000000  1.0 -0.1097024098
C  C208  1  0.75060000  0.49000000  0.52770000  1.0 0.0808275208
C  C209  1  0.91880000  0.75780000  0.56260000  1.0 -0.0226632085
C  C210  1  0.87860000  0.75810000  0.60800000  1.0 0.6570714949
C  C211  1  0.89640000  0.76370000  0.50100000  1.0 -0.0765703867
C  C212  1  0.97160000  0.75970000  0.57290000  1.0 -0.1401320595
C  C213  1  0.01240000  0.75930000  0.52620000  1.0 0.0808275208
C  C214  1  0.93500000  0.76500000  0.45400000  1.0 -0.1734641653
C  C215  1  0.75020000  0.43320000  0.53630000  1.0 -0.1640144437
C  C216  1  0.74470000  0.60450000  0.50860000  1.0 -0.074945616
C  C217  1  0.25110000  0.62190000  0.39400000  1.0 0.6570714949
C  C218  1  0.24950000  0.58220000  0.43740000  1.0 -0.0572215017
C  C219  1  0.24700000  0.53010000  0.43000000  1.0 -0.1097024098
C  C220  1  0.24940000  0.49000000  0.47230000  1.0 0.0808275208
C  C221  1  0.08120000  0.75780000  0.43740000  1.0 -0.0226632085
C  C222  1  0.12140000  0.75810000  0.39200000  1.0 0.6570714949
C  C223  1  0.10360000  0.76370000  0.49900000  1.0 -0.0765703867
C  C224  1  0.02840000  0.75970000  0.42710000  1.0 -0.1401320595
C  C225  1  0.98760000  0.75930000  0.47380000  1.0 0.0808275208
C  C226  1  0.06500000  0.76500000  0.54600000  1.0 -0.1734641653
C  C227  1  0.24980000  0.43320000  0.46370000  1.0 -0.1640144437
C  C228  1  0.25530000  0.60450000  0.49140000  1.0 -0.074945616
C  C229  1  0.25110000  0.37810000  0.60600000  1.0 0.6570714949
C  C230  1  0.24950000  0.41780000  0.56260000  1.0 -0.0572215017
C  C231  1  0.24700000  0.46990000  0.57000000  1.0 -0.1097024098
C  C232  1  0.24940000  0.51000000  0.52770000  1.0 0.0808275208
C  C233  1  0.08120000  0.24220000  0.56260000  1.0 -0.0226632085
C  C234  1  0.12140000  0.24190000  0.60800000  1.0 0.6570714949
C  C235  1  0.10360000  0.23630000  0.50100000  1.0 -0.0765703867
C  C236  1  0.02840000  0.24030000  0.57290000  1.0 -0.1401320595
C  C237  1  0.98760000  0.24070000  0.52620000  1.0 0.0808275208
C  C238  1  0.06500000  0.23500000  0.45400000  1.0 -0.1734641653
C  C239  1  0.24980000  0.56680000  0.53630000  1.0 -0.1640144437
C  C240  1  0.25530000  0.39550000  0.50860000  1.0 -0.074945616
C  C241  1  0.39400000  0.74890000  0.37810000  1.0 0.6570714949
C  C242  1  0.43740000  0.75050000  0.41780000  1.0 -0.0572215017
C  C243  1  0.43000000  0.75300000  0.46990000  1.0 -0.1097024098
C  C244  1  0.47230000  0.75060000  0.51000000  1.0 0.0808275208
C  C245  1  0.43740000  0.91880000  0.24220000  1.0 -0.0226632085
C  C246  1  0.39200000  0.87860000  0.24190000  1.0 0.6570714949
C  C247  1  0.49900000  0.89640000  0.23630000  1.0 -0.0765703867
C  C248  1  0.42710000  0.97160000  0.24030000  1.0 -0.1401320595
C  C249  1  0.47380000  0.01240000  0.24070000  1.0 0.0808275208
C  C250  1  0.54600000  0.93500000  0.23500000  1.0 -0.1734641653
C  C251  1  0.46370000  0.75020000  0.56680000  1.0 -0.1640144437
C  C252  1  0.49140000  0.74470000  0.39550000  1.0 -0.074945616
C  C253  1  0.60600000  0.74890000  0.62190000  1.0 0.6570714949
C  C254  1  0.56260000  0.75050000  0.58220000  1.0 -0.0572215017
C  C255  1  0.57000000  0.75300000  0.53010000  1.0 -0.1097024098
C  C256  1  0.52770000  0.75060000  0.49000000  1.0 0.0808275208
C  C257  1  0.56260000  0.91880000  0.75780000  1.0 -0.0226632085
C  C258  1  0.60800000  0.87860000  0.75810000  1.0 0.6570714949
C  C259  1  0.50100000  0.89640000  0.76370000  1.0 -0.0765703867
C  C260  1  0.57290000  0.97160000  0.75970000  1.0 -0.1401320595
C  C261  1  0.52620000  0.01240000  0.75930000  1.0 0.0808275208
C  C262  1  0.45400000  0.93500000  0.76500000  1.0 -0.1734641653
C  C263  1  0.53630000  0.75020000  0.43320000  1.0 -0.1640144437
C  C264  1  0.50860000  0.74470000  0.60450000  1.0 -0.074945616
C  C265  1  0.39400000  0.25110000  0.62190000  1.0 0.6570714949
C  C266  1  0.43740000  0.24950000  0.58220000  1.0 -0.0572215017
C  C267  1  0.43000000  0.24700000  0.53010000  1.0 -0.1097024098
C  C268  1  0.47230000  0.24940000  0.49000000  1.0 0.0808275208
C  C269  1  0.43740000  0.08120000  0.75780000  1.0 -0.0226632085
C  C270  1  0.39200000  0.12140000  0.75810000  1.0 0.6570714949
C  C271  1  0.49900000  0.10360000  0.76370000  1.0 -0.0765703867
C  C272  1  0.42710000  0.02840000  0.75970000  1.0 -0.1401320595
C  C273  1  0.47380000  0.98760000  0.75930000  1.0 0.0808275208
C  C274  1  0.54600000  0.06500000  0.76500000  1.0 -0.1734641653
C  C275  1  0.46370000  0.24980000  0.43320000  1.0 -0.1640144437
C  C276  1  0.49140000  0.25530000  0.60450000  1.0 -0.074945616
C  C277  1  0.60600000  0.25110000  0.37810000  1.0 0.6570714949
C  C278  1  0.56260000  0.24950000  0.41780000  1.0 -0.0572215017
C  C279  1  0.57000000  0.24700000  0.46990000  1.0 -0.1097024098
C  C280  1  0.52770000  0.24940000  0.51000000  1.0 0.0808275208
C  C281  1  0.56260000  0.08120000  0.24220000  1.0 -0.0226632085
C  C282  1  0.60800000  0.12140000  0.24190000  1.0 0.6570714949
C  C283  1  0.50100000  0.10360000  0.23630000  1.0 -0.0765703867
C  C284  1  0.57290000  0.02840000  0.24030000  1.0 -0.1401320595
C  C285  1  0.52620000  0.98760000  0.24070000  1.0 0.0808275208
C  C286  1  0.45400000  0.06500000  0.23500000  1.0 -0.1734641653
C  C287  1  0.53630000  0.24980000  0.56680000  1.0 -0.1640144437
C  C288  1  0.50860000  0.25530000  0.39550000  1.0 -0.074945616
O  O1  1  0.30686000  0.19850000  0.70300000  1.0 -0.9586404673
O  O2  1  0.25950000  0.09120000  0.67250000  1.0 -0.6086351871
O  O3  1  0.25940000  0.15550000  0.60100000  1.0 -0.5754005374
O  O4  1  0.17250000  0.09080000  0.75440000  1.0 -0.5990905525
O  O5  1  0.10120000  0.15530000  0.74620000  1.0 -0.6086351871
O  O6  1  0.69314000  0.80150000  0.70300000  1.0 -0.9586404673
O  O7  1  0.74050000  0.90880000  0.67250000  1.0 -0.6086351871
O  O8  1  0.74060000  0.84450000  0.60100000  1.0 -0.5754005374
O  O9  1  0.82750000  0.90920000  0.75440000  1.0 -0.5990905525
O  O10  1  0.89880000  0.84470000  0.74620000  1.0 -0.6086351871
O  O11  1  0.69314000  0.19850000  0.29700000  1.0 -0.9586404673
O  O12  1  0.74050000  0.09120000  0.32750000  1.0 -0.6086351871
O  O13  1  0.74060000  0.15550000  0.39900000  1.0 -0.5754005374
O  O14  1  0.82750000  0.09080000  0.24560000  1.0 -0.5990905525
O  O15  1  0.89880000  0.15530000  0.25380000  1.0 -0.6086351871
O  O16  1  0.30686000  0.80150000  0.29700000  1.0 -0.9586404673
O  O17  1  0.25950000  0.90880000  0.32750000  1.0 -0.6086351871
O  O18  1  0.25940000  0.84450000  0.39900000  1.0 -0.5754005374
O  O19  1  0.17250000  0.90920000  0.24560000  1.0 -0.5990905525
O  O20  1  0.10120000  0.84470000  0.25380000  1.0 -0.6086351871
O  O21  1  0.70300000  0.30686000  0.19850000  1.0 -0.9586404673
O  O22  1  0.67250000  0.25950000  0.09120000  1.0 -0.6086351871
O  O23  1  0.60100000  0.25940000  0.15550000  1.0 -0.5754005374
O  O24  1  0.75440000  0.17250000  0.09080000  1.0 -0.5990905525
O  O25  1  0.74620000  0.10120000  0.15530000  1.0 -0.6086351871
O  O26  1  0.70300000  0.69314000  0.80150000  1.0 -0.9586404673
O  O27  1  0.67250000  0.74050000  0.90880000  1.0 -0.6086351871
O  O28  1  0.60100000  0.74060000  0.84450000  1.0 -0.5754005374
O  O29  1  0.75440000  0.82750000  0.90920000  1.0 -0.5990905525
O  O30  1  0.74620000  0.89880000  0.84470000  1.0 -0.6086351871
O  O31  1  0.29700000  0.69314000  0.19850000  1.0 -0.9586404673
O  O32  1  0.32750000  0.74050000  0.09120000  1.0 -0.6086351871
O  O33  1  0.39900000  0.74060000  0.15550000  1.0 -0.5754005374
O  O34  1  0.24560000  0.82750000  0.09080000  1.0 -0.5990905525
O  O35  1  0.25380000  0.89880000  0.15530000  1.0 -0.6086351871
O  O36  1  0.29700000  0.30686000  0.80150000  1.0 -0.9586404673
O  O37  1  0.32750000  0.25950000  0.90880000  1.0 -0.6086351871
O  O38  1  0.39900000  0.25940000  0.84450000  1.0 -0.5754005374
O  O39  1  0.24560000  0.17250000  0.90920000  1.0 -0.5990905525
O  O40  1  0.25380000  0.10120000  0.84470000  1.0 -0.6086351871
O  O41  1  0.19850000  0.70300000  0.30686000  1.0 -0.9586404673
O  O42  1  0.09120000  0.67250000  0.25950000  1.0 -0.6086351871
O  O43  1  0.15550000  0.60100000  0.25940000  1.0 -0.5754005374
O  O44  1  0.09080000  0.75440000  0.17250000  1.0 -0.5990905525
O  O45  1  0.15530000  0.74620000  0.10120000  1.0 -0.6086351871
O  O46  1  0.80150000  0.70300000  0.69314000  1.0 -0.9586404673
O  O47  1  0.90880000  0.67250000  0.74050000  1.0 -0.6086351871
O  O48  1  0.84450000  0.60100000  0.74060000  1.0 -0.5754005374
O  O49  1  0.90920000  0.75440000  0.82750000  1.0 -0.5990905525
O  O50  1  0.84470000  0.74620000  0.89880000  1.0 -0.6086351871
O  O51  1  0.19850000  0.29700000  0.69314000  1.0 -0.9586404673
O  O52  1  0.09120000  0.32750000  0.74050000  1.0 -0.6086351871
O  O53  1  0.15550000  0.39900000  0.74060000  1.0 -0.5754005374
O  O54  1  0.09080000  0.24560000  0.82750000  1.0 -0.5990905525
O  O55  1  0.15530000  0.25380000  0.89880000  1.0 -0.6086351871
O  O56  1  0.80150000  0.29700000  0.30686000  1.0 -0.9586404673
O  O57  1  0.90880000  0.32750000  0.25950000  1.0 -0.6086351871
O  O58  1  0.84450000  0.39900000  0.25940000  1.0 -0.5754005374
O  O59  1  0.90920000  0.24560000  0.17250000  1.0 -0.5990905525
O  O60  1  0.84470000  0.25380000  0.10120000  1.0 -0.6086351871
O  O61  1  0.19314000  0.30150000  0.79700000  1.0 -0.9586404673
O  O62  1  0.24050000  0.40880000  0.82750000  1.0 -0.6086351871
O  O63  1  0.24060000  0.34450000  0.89900000  1.0 -0.5754005374
O  O64  1  0.32750000  0.40920000  0.74560000  1.0 -0.5990905525
O  O65  1  0.39880000  0.34470000  0.75380000  1.0 -0.6086351871
O  O66  1  0.80686000  0.69850000  0.79700000  1.0 -0.9586404673
O  O67  1  0.75950000  0.59120000  0.82750000  1.0 -0.6086351871
O  O68  1  0.75940000  0.65550000  0.89900000  1.0 -0.5754005374
O  O69  1  0.67250000  0.59080000  0.74560000  1.0 -0.5990905525
O  O70  1  0.60120000  0.65530000  0.75380000  1.0 -0.6086351871
O  O71  1  0.80686000  0.30150000  0.20300000  1.0 -0.9586404673
O  O72  1  0.75950000  0.40880000  0.17250000  1.0 -0.6086351871
O  O73  1  0.75940000  0.34450000  0.10100000  1.0 -0.5754005374
O  O74  1  0.67250000  0.40920000  0.25440000  1.0 -0.5990905525
O  O75  1  0.60120000  0.34470000  0.24620000  1.0 -0.6086351871
O  O76  1  0.19314000  0.69850000  0.20300000  1.0 -0.9586404673
O  O77  1  0.24050000  0.59120000  0.17250000  1.0 -0.6086351871
O  O78  1  0.24060000  0.65550000  0.10100000  1.0 -0.5754005374
O  O79  1  0.32750000  0.59080000  0.25440000  1.0 -0.5990905525
O  O80  1  0.39880000  0.65530000  0.24620000  1.0 -0.6086351871
O  O81  1  0.79700000  0.19314000  0.30150000  1.0 -0.9586404673
O  O82  1  0.82750000  0.24050000  0.40880000  1.0 -0.6086351871
O  O83  1  0.89900000  0.24060000  0.34450000  1.0 -0.5754005374
O  O84  1  0.74560000  0.32750000  0.40920000  1.0 -0.5990905525
O  O85  1  0.75380000  0.39880000  0.34470000  1.0 -0.6086351871
O  O86  1  0.79700000  0.80686000  0.69850000  1.0 -0.9586404673
O  O87  1  0.82750000  0.75950000  0.59120000  1.0 -0.6086351871
O  O88  1  0.89900000  0.75940000  0.65550000  1.0 -0.5754005374
O  O89  1  0.74560000  0.67250000  0.59080000  1.0 -0.5990905525
O  O90  1  0.75380000  0.60120000  0.65530000  1.0 -0.6086351871
O  O91  1  0.20300000  0.80686000  0.30150000  1.0 -0.9586404673
O  O92  1  0.17250000  0.75950000  0.40880000  1.0 -0.6086351871
O  O93  1  0.10100000  0.75940000  0.34450000  1.0 -0.5754005374
O  O94  1  0.25440000  0.67250000  0.40920000  1.0 -0.5990905525
O  O95  1  0.24620000  0.60120000  0.34470000  1.0 -0.6086351871
O  O96  1  0.20300000  0.19314000  0.69850000  1.0 -0.9586404673
O  O97  1  0.17250000  0.24050000  0.59120000  1.0 -0.6086351871
O  O98  1  0.10100000  0.24060000  0.65550000  1.0 -0.5754005374
O  O99  1  0.25440000  0.32750000  0.59080000  1.0 -0.5990905525
O  O100  1  0.24620000  0.39880000  0.65530000  1.0 -0.6086351871
O  O101  1  0.30150000  0.79700000  0.19314000  1.0 -0.9586404673
O  O102  1  0.40880000  0.82750000  0.24050000  1.0 -0.6086351871
O  O103  1  0.34450000  0.89900000  0.24060000  1.0 -0.5754005374
O  O104  1  0.40920000  0.74560000  0.32750000  1.0 -0.5990905525
O  O105  1  0.34470000  0.75380000  0.39880000  1.0 -0.6086351871
O  O106  1  0.69850000  0.79700000  0.80686000  1.0 -0.9586404673
O  O107  1  0.59120000  0.82750000  0.75950000  1.0 -0.6086351871
O  O108  1  0.65550000  0.89900000  0.75940000  1.0 -0.5754005374
O  O109  1  0.59080000  0.74560000  0.67250000  1.0 -0.5990905525
O  O110  1  0.65530000  0.75380000  0.60120000  1.0 -0.6086351871
O  O111  1  0.30150000  0.20300000  0.80686000  1.0 -0.9586404673
O  O112  1  0.40880000  0.17250000  0.75950000  1.0 -0.6086351871
O  O113  1  0.34450000  0.10100000  0.75940000  1.0 -0.5754005374
O  O114  1  0.40920000  0.25440000  0.67250000  1.0 -0.5990905525
O  O115  1  0.34470000  0.24620000  0.60120000  1.0 -0.6086351871
O  O116  1  0.69850000  0.20300000  0.19314000  1.0 -0.9586404673
O  O117  1  0.59120000  0.17250000  0.24050000  1.0 -0.6086351871
O  O118  1  0.65550000  0.10100000  0.24060000  1.0 -0.5754005374
O  O119  1  0.59080000  0.25440000  0.32750000  1.0 -0.5990905525
O  O120  1  0.65530000  0.24620000  0.39880000  1.0 -0.6086351871
O  O121  1  0.19820000  0.19820000  0.80180000  1.0 -0.9466758878
O  O122  1  0.80180000  0.80180000  0.80180000  1.0 -0.9466758878
O  O123  1  0.80180000  0.19820000  0.19820000  1.0 -0.9466758878
O  O124  1  0.19820000  0.80180000  0.19820000  1.0 -0.9466758878
O  O125  1  0.30180000  0.30180000  0.69820000  1.0 -0.9466758878
O  O126  1  0.69820000  0.69820000  0.69820000  1.0 -0.9466758878
O  O127  1  0.69820000  0.30180000  0.30180000  1.0 -0.9466758878
O  O128  1  0.30180000  0.69820000  0.30180000  1.0 -0.9466758878
