# DDEC6 charges by PACMAN v1.1 (https://github.com/mtap-research/PACMAN-charge/)
data_SOHMOS_FSR_pacman
_symmetry_space_group_name_H-M   'P 1'
_cell_length_a   13.78730000
_cell_length_b   28.01200000
_cell_length_c   45.38800000
_cell_angle_alpha   90.00000000
_cell_angle_beta   90.00000000
_cell_angle_gamma   90.00000000
_symmetry_Int_Tables_number   1
_chemical_formula_structural   Zn3H83C94I6(N7O)2
_chemical_formula_sum   'Zn24 H664 C752 I48 N112 O16'
_cell_volume   17529.29256287
_cell_formula_units_Z   8
loop_
 _symmetry_equiv_pos_site_id
 _symmetry_equiv_pos_as_xyz
  1  'x, y, z'
loop_
 _atom_site_type_symbol
 _atom_site_label
 _atom_site_symmetry_multiplicity
 _atom_site_fract_x
 _atom_site_fract_y
 _atom_site_fract_z
 _atom_site_occupancy
 _atom_site_charge
Zn  Zn1  1  0.14902000  0.75855000  0.68807000  1.0 0.4830445706
Zn  Zn2  1  0.85098000  0.74145000  0.18807000  1.0 0.4830445706
Zn  Zn3  1  0.64902000  0.24145000  0.81193000  1.0 0.4830445706
Zn  Zn4  1  0.35098000  0.25855000  0.31193000  1.0 0.4830445706
Zn  Zn5  1  0.15501000  0.94373000  0.42749000  1.0 0.4664924316
Zn  Zn6  1  0.84499000  0.55627000  0.92749000  1.0 0.4664924316
Zn  Zn7  1  0.65501000  0.05627000  0.07251000  1.0 0.4664924316
Zn  Zn8  1  0.34499000  0.44373000  0.57251000  1.0 0.4664924316
Zn  Zn9  1  0.35557000  0.97287000  0.58582000  1.0 0.4610288314
Zn  Zn10  1  0.64443000  0.52713000  0.08582000  1.0 0.4610288314
Zn  Zn11  1  0.85557000  0.02713000  0.91418000  1.0 0.4610288314
Zn  Zn12  1  0.14443000  0.47287000  0.41418000  1.0 0.4610288314
Zn  Zn13  1  0.85098000  0.24145000  0.31193000  1.0 0.4830445706
Zn  Zn14  1  0.14902000  0.25855000  0.81193000  1.0 0.4830445706
Zn  Zn15  1  0.35098000  0.75855000  0.18807000  1.0 0.4830445706
Zn  Zn16  1  0.64902000  0.74145000  0.68807000  1.0 0.4830445706
Zn  Zn17  1  0.84499000  0.05627000  0.57251000  1.0 0.4664924316
Zn  Zn18  1  0.15501000  0.44373000  0.07251000  1.0 0.4664924316
Zn  Zn19  1  0.34499000  0.94373000  0.92749000  1.0 0.4664924316
Zn  Zn20  1  0.65501000  0.55627000  0.42749000  1.0 0.4664924316
Zn  Zn21  1  0.64443000  0.02713000  0.41418000  1.0 0.4610288314
Zn  Zn22  1  0.35557000  0.47287000  0.91418000  1.0 0.4610288314
Zn  Zn23  1  0.14443000  0.97287000  0.08582000  1.0 0.4610288314
Zn  Zn24  1  0.85557000  0.52713000  0.58582000  1.0 0.4610288314
H  H1  1  0.50650000  0.92060000  0.61970000  1.0 0.1108605496
H  H2  1  0.49350000  0.57940000  0.11970000  1.0 0.1108605496
H  H3  1  0.00650000  0.07940000  0.88030000  1.0 0.1108605496
H  H4  1  0.99350000  0.42060000  0.38030000  1.0 0.1108605496
H  H5  1  0.66310000  0.89180000  0.61460000  1.0 0.1288455162
H  H6  1  0.33690000  0.60820000  0.11460000  1.0 0.1288455162
H  H7  1  0.16310000  0.10820000  0.88540000  1.0 0.1288455162
H  H8  1  0.83690000  0.39180000  0.38540000  1.0 0.1288455162
H  H9  1  0.50150000  0.95950000  0.53660000  1.0 0.1108605496
H  H10  1  0.49850000  0.54050000  0.03660000  1.0 0.1108605496
H  H11  1  0.00150000  0.04050000  0.96340000  1.0 0.1108605496
H  H12  1  0.99850000  0.45950000  0.46340000  1.0 0.1108605496
H  H13  1  0.65990000  0.93390000  0.52970000  1.0 0.1383251831
H  H14  1  0.34010000  0.56610000  0.02970000  1.0 0.1383251831
H  H15  1  0.15990000  0.06610000  0.97030000  1.0 0.1383251831
H  H16  1  0.84010000  0.43390000  0.47030000  1.0 0.1383251831
H  H17  1  0.96340000  0.96520000  0.45420000  1.0 0.0996315122
H  H18  1  0.03660000  0.53480000  0.95420000  1.0 0.0996315122
H  H19  1  0.46340000  0.03480000  0.04580000  1.0 0.0996315122
H  H20  1  0.53660000  0.46520000  0.54580000  1.0 0.0996315122
H  H21  1  0.86870000  0.94610000  0.49520000  1.0 0.1383251831
H  H22  1  0.13130000  0.55390000  0.99520000  1.0 0.1383251831
H  H23  1  0.36870000  0.05390000  0.00480000  1.0 0.1383251831
H  H24  1  0.63130000  0.44610000  0.50480000  1.0 0.1383251831
H  H25  1  0.18930000  0.89830000  0.48690000  1.0 0.0996315122
H  H26  1  0.81070000  0.60170000  0.98690000  1.0 0.0996315122
H  H27  1  0.68930000  0.10170000  0.01310000  1.0 0.0996315122
H  H28  1  0.31070000  0.39830000  0.51310000  1.0 0.0996315122
H  H29  1  0.10510000  0.87790000  0.52860000  1.0 0.1383251831
H  H30  1  0.89490000  0.62210000  0.02860000  1.0 0.1383251831
H  H31  1  0.60510000  0.12210000  0.97140000  1.0 0.1383251831
H  H32  1  0.39490000  0.37790000  0.47140000  1.0 0.1383251831
H  H33  1  0.18300000  0.81840000  0.63630000  1.0 0.0996315122
H  H34  1  0.81700000  0.68160000  0.13630000  1.0 0.0996315122
H  H35  1  0.68300000  0.18160000  0.86370000  1.0 0.0996315122
H  H36  1  0.31700000  0.31840000  0.36370000  1.0 0.0996315122
H  H37  1  0.10190000  0.85460000  0.59790000  1.0 0.1383251831
H  H38  1  0.89810000  0.64540000  0.09790000  1.0 0.1383251831
H  H39  1  0.60190000  0.14540000  0.90210000  1.0 0.1383251831
H  H40  1  0.39810000  0.35460000  0.40210000  1.0 0.1383251831
H  H41  1  0.93790000  0.78150000  0.67350000  1.0 0.1108605496
H  H42  1  0.06210000  0.71850000  0.17350000  1.0 0.1108605496
H  H43  1  0.43790000  0.21850000  0.82650000  1.0 0.1108605496
H  H44  1  0.56210000  0.28150000  0.32650000  1.0 0.1108605496
H  H45  1  0.85010000  0.81860000  0.63650000  1.0 0.1383251831
H  H46  1  0.14990000  0.68140000  0.13650000  1.0 0.1383251831
H  H47  1  0.35010000  0.18140000  0.86350000  1.0 0.1383251831
H  H48  1  0.64990000  0.31860000  0.36350000  1.0 0.1383251831
H  H49  1  0.03150000  0.70080000  0.73040000  1.0 0.0996315122
H  H50  1  0.96850000  0.79920000  0.23040000  1.0 0.0996315122
H  H51  1  0.53150000  0.29920000  0.76960000  1.0 0.0996315122
H  H52  1  0.46850000  0.20080000  0.26960000  1.0 0.0996315122
H  H53  1  0.96600000  0.70810000  0.77810000  1.0 0.1288455162
H  H54  1  0.03400000  0.79190000  0.27810000  1.0 0.1288455162
H  H55  1  0.46600000  0.29190000  0.72190000  1.0 0.1288455162
H  H56  1  0.53400000  0.20810000  0.22190000  1.0 0.1288455162
H  H57  1  0.10490000  0.83660000  0.73050000  1.0 0.1186283719
H  H58  1  0.89510000  0.66340000  0.23050000  1.0 0.1186283719
H  H59  1  0.60490000  0.16340000  0.76950000  1.0 0.1186283719
H  H60  1  0.39510000  0.33660000  0.26950000  1.0 0.1186283719
H  H61  1  0.03990000  0.84680000  0.77790000  1.0 0.1672516431
H  H62  1  0.96010000  0.65320000  0.27790000  1.0 0.1672516431
H  H63  1  0.53990000  0.15320000  0.72210000  1.0 0.1672516431
H  H64  1  0.46010000  0.34680000  0.22210000  1.0 0.1672516431
H  H65  1  0.89640000  0.98710000  0.85390000  1.0 0.1108605496
H  H66  1  0.10360000  0.51290000  0.35390000  1.0 0.1108605496
H  H67  1  0.39640000  0.01290000  0.64610000  1.0 0.1108605496
H  H68  1  0.60360000  0.48710000  0.14610000  1.0 0.1108605496
H  H69  1  0.92170000  0.91490000  0.82990000  1.0 0.1501075796
H  H70  1  0.07830000  0.58510000  0.32990000  1.0 0.1501075796
H  H71  1  0.42170000  0.08510000  0.67010000  1.0 0.1501075796
H  H72  1  0.57830000  0.41490000  0.17010000  1.0 0.1501075796
H  H73  1  0.88370000  0.92430000  0.93110000  1.0 0.0996315122
H  H74  1  0.11630000  0.57570000  0.43110000  1.0 0.0996315122
H  H75  1  0.38370000  0.07570000  0.56890000  1.0 0.0996315122
H  H76  1  0.61630000  0.42430000  0.06890000  1.0 0.0996315122
H  H77  1  0.90360000  0.85020000  0.90950000  1.0 0.1288455162
H  H78  1  0.09640000  0.64980000  0.40950000  1.0 0.1288455162
H  H79  1  0.40360000  0.14980000  0.59050000  1.0 0.1288455162
H  H80  1  0.59640000  0.35020000  0.09050000  1.0 0.1288455162
H  H81  1  0.84810000  0.66220000  0.93790000  1.0 0.1108605496
H  H82  1  0.15190000  0.83780000  0.43790000  1.0 0.1108605496
H  H83  1  0.34810000  0.33780000  0.56210000  1.0 0.1108605496
H  H84  1  0.65190000  0.16220000  0.06210000  1.0 0.1108605496
H  H85  1  0.87440000  0.73350000  0.91310000  1.0 0.1383251831
H  H86  1  0.12560000  0.76650000  0.41310000  1.0 0.1383251831
H  H87  1  0.37440000  0.26650000  0.58690000  1.0 0.1383251831
H  H88  1  0.62560000  0.23350000  0.08690000  1.0 0.1383251831
H  H89  1  0.91740000  0.58750000  0.86760000  1.0 0.1186283719
H  H90  1  0.08260000  0.91250000  0.36760000  1.0 0.1186283719
H  H91  1  0.41740000  0.41250000  0.63240000  1.0 0.1186283719
H  H92  1  0.58260000  0.08750000  0.13240000  1.0 0.1186283719
H  H93  1  0.94240000  0.65590000  0.84060000  1.0 0.1501075796
H  H94  1  0.05760000  0.84410000  0.34060000  1.0 0.1501075796
H  H95  1  0.44240000  0.34410000  0.65940000  1.0 0.1501075796
H  H96  1  0.55760000  0.15590000  0.15940000  1.0 0.1501075796
H  H97  1  0.49350000  0.07940000  0.38030000  1.0 0.1108605496
H  H98  1  0.50650000  0.42060000  0.88030000  1.0 0.1108605496
H  H99  1  0.99350000  0.92060000  0.11970000  1.0 0.1108605496
H  H100  1  0.00650000  0.57940000  0.61970000  1.0 0.1108605496
H  H101  1  0.33690000  0.10820000  0.38540000  1.0 0.1288455162
H  H102  1  0.66310000  0.39180000  0.88540000  1.0 0.1288455162
H  H103  1  0.83690000  0.89180000  0.11460000  1.0 0.1288455162
H  H104  1  0.16310000  0.60820000  0.61460000  1.0 0.1288455162
H  H105  1  0.49850000  0.04050000  0.46340000  1.0 0.1108605496
H  H106  1  0.50150000  0.45950000  0.96340000  1.0 0.1108605496
H  H107  1  0.99850000  0.95950000  0.03660000  1.0 0.1108605496
H  H108  1  0.00150000  0.54050000  0.53660000  1.0 0.1108605496
H  H109  1  0.34010000  0.06610000  0.47030000  1.0 0.1383251831
H  H110  1  0.65990000  0.43390000  0.97030000  1.0 0.1383251831
H  H111  1  0.84010000  0.93390000  0.02970000  1.0 0.1383251831
H  H112  1  0.15990000  0.56610000  0.52970000  1.0 0.1383251831
H  H113  1  0.03660000  0.03480000  0.54580000  1.0 0.0996315122
H  H114  1  0.96340000  0.46520000  0.04580000  1.0 0.0996315122
H  H115  1  0.53660000  0.96520000  0.95420000  1.0 0.0996315122
H  H116  1  0.46340000  0.53480000  0.45420000  1.0 0.0996315122
H  H117  1  0.13130000  0.05390000  0.50480000  1.0 0.1383251831
H  H118  1  0.86870000  0.44610000  0.00480000  1.0 0.1383251831
H  H119  1  0.63130000  0.94610000  0.99520000  1.0 0.1383251831
H  H120  1  0.36870000  0.55390000  0.49520000  1.0 0.1383251831
H  H121  1  0.81070000  0.10170000  0.51310000  1.0 0.0996315122
H  H122  1  0.18930000  0.39830000  0.01310000  1.0 0.0996315122
H  H123  1  0.31070000  0.89830000  0.98690000  1.0 0.0996315122
H  H124  1  0.68930000  0.60170000  0.48690000  1.0 0.0996315122
H  H125  1  0.89490000  0.12210000  0.47140000  1.0 0.1383251831
H  H126  1  0.10510000  0.37790000  0.97140000  1.0 0.1383251831
H  H127  1  0.39490000  0.87790000  0.02860000  1.0 0.1383251831
H  H128  1  0.60510000  0.62210000  0.52860000  1.0 0.1383251831
H  H129  1  0.81700000  0.18160000  0.36370000  1.0 0.0996315122
H  H130  1  0.18300000  0.31840000  0.86370000  1.0 0.0996315122
H  H131  1  0.31700000  0.81840000  0.13630000  1.0 0.0996315122
H  H132  1  0.68300000  0.68160000  0.63630000  1.0 0.0996315122
H  H133  1  0.89810000  0.14540000  0.40210000  1.0 0.1383251831
H  H134  1  0.10190000  0.35460000  0.90210000  1.0 0.1383251831
H  H135  1  0.39810000  0.85460000  0.09790000  1.0 0.1383251831
H  H136  1  0.60190000  0.64540000  0.59790000  1.0 0.1383251831
H  H137  1  0.06210000  0.21850000  0.32650000  1.0 0.1108605496
H  H138  1  0.93790000  0.28150000  0.82650000  1.0 0.1108605496
H  H139  1  0.56210000  0.78150000  0.17350000  1.0 0.1108605496
H  H140  1  0.43790000  0.71850000  0.67350000  1.0 0.1108605496
H  H141  1  0.14990000  0.18140000  0.36350000  1.0 0.1383251831
H  H142  1  0.85010000  0.31860000  0.86350000  1.0 0.1383251831
H  H143  1  0.64990000  0.81860000  0.13650000  1.0 0.1383251831
H  H144  1  0.35010000  0.68140000  0.63650000  1.0 0.1383251831
H  H145  1  0.96850000  0.29920000  0.26960000  1.0 0.0996315122
H  H146  1  0.03150000  0.20080000  0.76960000  1.0 0.0996315122
H  H147  1  0.46850000  0.70080000  0.23040000  1.0 0.0996315122
H  H148  1  0.53150000  0.79920000  0.73040000  1.0 0.0996315122
H  H149  1  0.03400000  0.29190000  0.22190000  1.0 0.1288455162
H  H150  1  0.96600000  0.20810000  0.72190000  1.0 0.1288455162
H  H151  1  0.53400000  0.70810000  0.27810000  1.0 0.1288455162
H  H152  1  0.46600000  0.79190000  0.77810000  1.0 0.1288455162
H  H153  1  0.89510000  0.16340000  0.26950000  1.0 0.1186283719
H  H154  1  0.10490000  0.33660000  0.76950000  1.0 0.1186283719
H  H155  1  0.39510000  0.83660000  0.23050000  1.0 0.1186283719
H  H156  1  0.60490000  0.66340000  0.73050000  1.0 0.1186283719
H  H157  1  0.96010000  0.15320000  0.22210000  1.0 0.1672516431
H  H158  1  0.03990000  0.34680000  0.72210000  1.0 0.1672516431
H  H159  1  0.46010000  0.84680000  0.27790000  1.0 0.1672516431
H  H160  1  0.53990000  0.65320000  0.77790000  1.0 0.1672516431
H  H161  1  0.10360000  0.01290000  0.14610000  1.0 0.1108605496
H  H162  1  0.89640000  0.48710000  0.64610000  1.0 0.1108605496
H  H163  1  0.60360000  0.98710000  0.35390000  1.0 0.1108605496
H  H164  1  0.39640000  0.51290000  0.85390000  1.0 0.1108605496
H  H165  1  0.07830000  0.08510000  0.17010000  1.0 0.1501075796
H  H166  1  0.92170000  0.41490000  0.67010000  1.0 0.1501075796
H  H167  1  0.57830000  0.91490000  0.32990000  1.0 0.1501075796
H  H168  1  0.42170000  0.58510000  0.82990000  1.0 0.1501075796
H  H169  1  0.11630000  0.07570000  0.06890000  1.0 0.0996315122
H  H170  1  0.88370000  0.42430000  0.56890000  1.0 0.0996315122
H  H171  1  0.61630000  0.92430000  0.43110000  1.0 0.0996315122
H  H172  1  0.38370000  0.57570000  0.93110000  1.0 0.0996315122
H  H173  1  0.09640000  0.14980000  0.09050000  1.0 0.1288455162
H  H174  1  0.90360000  0.35020000  0.59050000  1.0 0.1288455162
H  H175  1  0.59640000  0.85020000  0.40950000  1.0 0.1288455162
H  H176  1  0.40360000  0.64980000  0.90950000  1.0 0.1288455162
H  H177  1  0.15190000  0.33780000  0.06210000  1.0 0.1108605496
H  H178  1  0.84810000  0.16220000  0.56210000  1.0 0.1108605496
H  H179  1  0.65190000  0.66220000  0.43790000  1.0 0.1108605496
H  H180  1  0.34810000  0.83780000  0.93790000  1.0 0.1108605496
H  H181  1  0.12560000  0.26650000  0.08690000  1.0 0.1383251831
H  H182  1  0.87440000  0.23350000  0.58690000  1.0 0.1383251831
H  H183  1  0.62560000  0.73350000  0.41310000  1.0 0.1383251831
H  H184  1  0.37440000  0.76650000  0.91310000  1.0 0.1383251831
H  H185  1  0.08260000  0.41250000  0.13240000  1.0 0.1186283719
H  H186  1  0.91740000  0.08750000  0.63240000  1.0 0.1186283719
H  H187  1  0.58260000  0.58750000  0.36760000  1.0 0.1186283719
H  H188  1  0.41740000  0.91250000  0.86760000  1.0 0.1186283719
H  H189  1  0.05760000  0.34410000  0.15940000  1.0 0.1501075796
H  H190  1  0.94240000  0.15590000  0.65940000  1.0 0.1501075796
H  H191  1  0.55760000  0.65590000  0.34060000  1.0 0.1501075796
H  H192  1  0.44240000  0.84410000  0.84060000  1.0 0.1501075796
H  H193  1  0.70740000  0.18320000  0.67640000  1.0 0.0805140531
H  H194  1  0.70740000  0.68320000  0.82360000  1.0 0.0805140531
H  H195  1  0.62630000  0.16740000  0.59120000  1.0 0.0805140531
H  H196  1  0.62630000  0.66740000  0.90880000  1.0 0.0805140531
H  H197  1  0.62760000  0.25000000  0.58510000  1.0 0.089522663
H  H198  1  0.62760000  0.75000000  0.91490000  1.0 0.089522663
H  H199  1  0.64180000  0.31700000  0.58000000  1.0 0.089522663
H  H200  1  0.64180000  0.81700000  0.92000000  1.0 0.089522663
H  H201  1  0.62130000  0.39930000  0.57530000  1.0 0.089522663
H  H202  1  0.62130000  0.89930000  0.92470000  1.0 0.089522663
H  H203  1  0.65540000  0.44890000  0.61590000  1.0 0.0996315122
H  H204  1  0.65540000  0.94890000  0.88410000  1.0 0.0996315122
H  H205  1  0.66730000  0.41460000  0.66290000  1.0 0.1108605496
H  H206  1  0.66730000  0.91460000  0.83710000  1.0 0.1108605496
H  H207  1  0.71150000  0.38660000  0.70020000  1.0 0.0703267412
H  H208  1  0.71150000  0.88660000  0.79980000  1.0 0.0703267412
H  H209  1  0.75460000  0.35140000  0.74480000  1.0 0.1108605496
H  H210  1  0.75460000  0.85140000  0.75520000  1.0 0.1108605496
H  H211  1  0.77620000  0.26840000  0.74810000  1.0 0.0805140531
H  H212  1  0.77620000  0.76840000  0.75190000  1.0 0.0805140531
H  H213  1  0.74240000  0.22060000  0.70700000  1.0 0.0996315122
H  H214  1  0.74240000  0.72060000  0.79300000  1.0 0.0996315122
H  H215  1  0.65770000  0.10260000  0.62030000  1.0 0.1579346083
H  H216  1  0.65770000  0.60260000  0.87970000  1.0 0.1579346083
H  H217  1  0.55990000  0.01460000  0.69690000  1.0 0.1186283719
H  H218  1  0.55990000  0.51460000  0.80310000  1.0 0.1108605496
H  H219  1  0.54040000  0.96880000  0.67720000  1.0 0.1108605496
H  H220  1  0.54040000  0.46880000  0.82280000  1.0 0.1108605496
H  H221  1  0.61720000  0.97170000  0.73320000  1.0 0.1186283719
H  H222  1  0.61720000  0.47170000  0.76680000  1.0 0.1186283719
H  H223  1  0.62330000  0.92520000  0.71340000  1.0 0.1108605496
H  H224  1  0.62330000  0.42520000  0.78660000  1.0 0.1108605496
H  H225  1  0.46080000  0.91910000  0.71460000  1.0 0.1186283719
H  H226  1  0.46080000  0.41910000  0.78540000  1.0 0.1186283719
H  H227  1  0.45580000  0.96510000  0.73480000  1.0 0.0996315122
H  H228  1  0.45580000  0.46510000  0.76520000  1.0 0.0996315122
H  H229  1  0.51120000  0.87500000  0.74940000  1.0 0.089522663
H  H230  1  0.51120000  0.37500000  0.75060000  1.0 0.089522663
H  H231  1  0.53940000  0.91910000  0.76960000  1.0 0.0996315122
H  H232  1  0.53940000  0.41910000  0.73040000  1.0 0.0996315122
H  H233  1  0.41800000  0.87830000  0.78910000  1.0 0.1108605496
H  H234  1  0.41800000  0.37830000  0.71090000  1.0 0.1108605496
H  H235  1  0.38170000  0.93080000  0.78050000  1.0 0.1383251831
H  H236  1  0.38170000  0.43080000  0.71950000  1.0 0.1383251831
H  H237  1  0.35330000  0.88620000  0.76020000  1.0 0.1288455162
H  H238  1  0.35330000  0.38620000  0.73980000  1.0 0.1288455162
H  H239  1  0.72300000  0.86460000  0.79810000  1.0 0.0805140531
H  H240  1  0.72300000  0.36460000  0.70190000  1.0 0.0805140531
H  H241  1  0.76980000  0.73350000  0.76280000  1.0 0.089522663
H  H242  1  0.76980000  0.23350000  0.73720000  1.0 0.089522663
H  H243  1  0.72330000  0.69790000  0.80680000  1.0 0.089522663
H  H244  1  0.72330000  0.19790000  0.69320000  1.0 0.089522663
H  H245  1  0.69050000  0.66950000  0.84290000  1.0 0.0996315122
H  H246  1  0.69050000  0.16950000  0.65710000  1.0 0.0996315122
H  H247  1  0.64390000  0.63400000  0.88720000  1.0 0.0996315122
H  H248  1  0.64390000  0.13400000  0.61280000  1.0 0.0996315122
H  H249  1  0.61420000  0.68150000  0.92870000  1.0 0.0996315122
H  H250  1  0.61420000  0.18150000  0.57130000  1.0 0.0996315122
H  H251  1  0.60950000  0.76480000  0.92380000  1.0 0.0703267412
H  H252  1  0.60950000  0.26480000  0.57620000  1.0 0.0703267412
H  H253  1  0.62420000  0.83290000  0.92220000  1.0 0.0996315122
H  H254  1  0.62420000  0.33290000  0.57780000  1.0 0.0996315122
H  H255  1  0.64140000  0.91580000  0.92000000  1.0 0.089522663
H  H256  1  0.64140000  0.41580000  0.58000000  1.0 0.089522663
H  H257  1  0.63930000  0.95270000  0.87250000  1.0 0.089522663
H  H258  1  0.63930000  0.45270000  0.62750000  1.0 0.089522663
H  H259  1  0.68710000  0.90580000  0.83200000  1.0 0.0996315122
H  H260  1  0.68710000  0.40580000  0.66800000  1.0 0.0996315122
H  H261  1  0.81310000  0.88970000  0.70550000  1.0 0.0509002669
H  H262  1  0.81310000  0.38970000  0.79450000  1.0 0.0509002669
H  H263  1  0.89850000  0.85370000  0.71310000  1.0 0.0996315122
H  H264  1  0.89850000  0.35370000  0.78690000  1.0 0.0996315122
H  H265  1  0.90630000  0.94830000  0.72500000  1.0 0.0597144204
H  H266  1  0.90630000  0.44830000  0.77500000  1.0 0.0597144204
H  H267  1  0.99210000  0.91020000  0.72630000  1.0 0.089522663
H  H268  1  0.99210000  0.41020000  0.77370000  1.0 0.089522663
H  H269  1  0.90420000  0.94720000  0.67480000  1.0 0.1108605496
H  H270  1  0.90420000  0.44720000  0.82520000  1.0 0.1108605496
H  H271  1  0.97470000  0.90200000  0.67360000  1.0 0.0805140531
H  H272  1  0.97470000  0.40200000  0.82640000  1.0 0.0805140531
H  H273  1  0.06660000  0.96280000  0.66110000  1.0 0.0805140531
H  H274  1  0.06660000  0.46280000  0.83890000  1.0 0.0805140531
H  H275  1  0.02200000  0.99670000  0.68580000  1.0 0.0597144204
H  H276  1  0.02200000  0.49670000  0.81420000  1.0 0.0597144204
H  H277  1  0.10720000  0.95130000  0.72150000  1.0 0.0703267412
H  H278  1  0.10720000  0.45130000  0.77850000  1.0 0.0703267412
H  H279  1  0.15910000  0.92380000  0.69490000  1.0 0.0703267412
H  H280  1  0.15910000  0.42380000  0.80510000  1.0 0.0703267412
H  H281  1  0.17960000  0.02200000  0.70930000  1.0 0.0996315122
H  H282  1  0.17960000  0.52200000  0.79070000  1.0 0.0996315122
H  H283  1  0.21440000  0.00180000  0.67800000  1.0 0.089522663
H  H284  1  0.21440000  0.50180000  0.82200000  1.0 0.089522663
H  H285  1  0.34450000  0.00570000  0.71160000  1.0 0.1186283719
H  H286  1  0.34450000  0.50570000  0.78840000  1.0 0.1186283719
H  H287  1  0.28920000  0.96910000  0.73280000  1.0 0.1288455162
H  H288  1  0.28920000  0.46910000  0.76720000  1.0 0.1288455162
H  H289  1  0.32650000  0.95190000  0.70120000  1.0 0.1186283719
H  H290  1  0.32650000  0.45190000  0.79880000  1.0 0.1186283719
H  H291  1  0.77640000  0.80930000  0.73290000  1.0 0.1579346083
H  H292  1  0.77640000  0.30930000  0.76710000  1.0 0.1579346083
H  H293  1  0.81330000  0.90740000  0.68220000  1.0 0.0805140531
H  H294  1  0.81330000  0.40740000  0.81780000  1.0 0.0805140531
H  H295  1  0.77140000  0.93220000  0.71030000  1.0 0.089522663
H  H296  1  0.77140000  0.43220000  0.78970000  1.0 0.089522663
H  H297  1  0.90810000  0.97330000  0.70630000  1.0 0.089522663
H  H298  1  0.90810000  0.47330000  0.79370000  1.0 0.089522663
H  H299  1  0.88050000  0.92800000  0.72460000  1.0 0.0703267412
H  H300  1  0.88050000  0.42800000  0.77540000  1.0 0.0703267412
H  H301  1  0.00410000  0.92120000  0.72400000  1.0 0.0996315122
H  H302  1  0.00410000  0.42120000  0.77600000  1.0 0.0996315122
H  H303  1  0.97750000  0.89000000  0.69660000  1.0 0.0597144204
H  H304  1  0.97750000  0.39000000  0.80340000  1.0 0.0597144204
H  H305  1  0.12330000  0.92120000  0.70450000  1.0 0.0597144204
H  H306  1  0.12330000  0.42120000  0.79550000  1.0 0.0597144204
H  H307  1  0.07770000  0.91650000  0.67220000  1.0 0.089522663
H  H308  1  0.07770000  0.41650000  0.82780000  1.0 0.089522663
H  H309  1  0.07910000  0.96720000  0.68850000  1.0 0.0383027065
H  H310  1  0.07910000  0.46720000  0.81150000  1.0 0.0383027065
H  H311  1  0.29260000  0.31680000  0.17640000  1.0 0.0805140531
H  H312  1  0.29260000  0.81680000  0.32360000  1.0 0.0805140531
H  H313  1  0.37370000  0.33260000  0.09120000  1.0 0.0805140531
H  H314  1  0.37370000  0.83260000  0.40880000  1.0 0.0805140531
H  H315  1  0.37240000  0.25000000  0.08510000  1.0 0.089522663
H  H316  1  0.37240000  0.75000000  0.41490000  1.0 0.089522663
H  H317  1  0.35820000  0.18300000  0.08000000  1.0 0.089522663
H  H318  1  0.35820000  0.68300000  0.42000000  1.0 0.089522663
H  H319  1  0.37870000  0.10070000  0.07530000  1.0 0.089522663
H  H320  1  0.37870000  0.60070000  0.42470000  1.0 0.089522663
H  H321  1  0.34460000  0.05110000  0.11590000  1.0 0.0996315122
H  H322  1  0.34460000  0.55110000  0.38410000  1.0 0.0996315122
H  H323  1  0.33270000  0.08540000  0.16290000  1.0 0.1108605496
H  H324  1  0.33270000  0.58540000  0.33710000  1.0 0.1108605496
H  H325  1  0.28850000  0.11340000  0.20020000  1.0 0.0703267412
H  H326  1  0.28850000  0.61340000  0.29980000  1.0 0.0703267412
H  H327  1  0.24540000  0.14860000  0.24480000  1.0 0.1108605496
H  H328  1  0.24540000  0.64860000  0.25520000  1.0 0.1108605496
H  H329  1  0.22380000  0.23160000  0.24810000  1.0 0.0805140531
H  H330  1  0.22380000  0.73160000  0.25190000  1.0 0.0805140531
H  H331  1  0.25760000  0.27940000  0.20700000  1.0 0.0996315122
H  H332  1  0.25760000  0.77940000  0.29300000  1.0 0.0996315122
H  H333  1  0.34230000  0.39740000  0.12030000  1.0 0.1579346083
H  H334  1  0.34230000  0.89740000  0.37970000  1.0 0.1579346083
H  H335  1  0.44010000  0.48540000  0.19690000  1.0 0.1186283719
H  H336  1  0.44010000  0.98540000  0.30310000  1.0 0.1186283719
H  H337  1  0.45960000  0.53120000  0.17720000  1.0 0.1108605496
H  H338  1  0.45960000  0.03120000  0.32280000  1.0 0.1108605496
H  H339  1  0.38280000  0.52830000  0.23320000  1.0 0.1186283719
H  H340  1  0.38280000  0.02830000  0.26680000  1.0 0.1186283719
H  H341  1  0.37670000  0.57480000  0.21340000  1.0 0.1108605496
H  H342  1  0.37670000  0.07480000  0.28660000  1.0 0.1108605496
H  H343  1  0.53920000  0.58090000  0.21460000  1.0 0.1186283719
H  H344  1  0.53920000  0.08090000  0.28540000  1.0 0.1186283719
H  H345  1  0.54420000  0.53490000  0.23480000  1.0 0.0996315122
H  H346  1  0.54420000  0.03490000  0.26520000  1.0 0.0996315122
H  H347  1  0.48880000  0.62500000  0.24940000  1.0 0.089522663
H  H348  1  0.48880000  0.12500000  0.25060000  1.0 0.089522663
H  H349  1  0.46060000  0.58090000  0.26960000  1.0 0.0996315122
H  H350  1  0.46060000  0.08090000  0.23040000  1.0 0.0996315122
H  H351  1  0.58200000  0.62170000  0.28910000  1.0 0.1108605496
H  H352  1  0.58200000  0.12170000  0.21090000  1.0 0.1108605496
H  H353  1  0.61830000  0.56920000  0.28050000  1.0 0.1383251831
H  H354  1  0.61830000  0.06920000  0.21950000  1.0 0.1383251831
H  H355  1  0.64670000  0.61380000  0.26020000  1.0 0.1288455162
H  H356  1  0.64670000  0.11380000  0.23980000  1.0 0.1288455162
H  H357  1  0.27700000  0.63540000  0.29810000  1.0 0.0805140531
H  H358  1  0.27700000  0.13540000  0.20190000  1.0 0.0805140531
H  H359  1  0.23020000  0.76650000  0.26280000  1.0 0.089522663
H  H360  1  0.23020000  0.26650000  0.23720000  1.0 0.089522663
H  H361  1  0.27670000  0.80210000  0.30680000  1.0 0.089522663
H  H362  1  0.27670000  0.30210000  0.19320000  1.0 0.089522663
H  H363  1  0.30950000  0.83050000  0.34290000  1.0 0.0996315122
H  H364  1  0.30950000  0.33050000  0.15710000  1.0 0.0996315122
H  H365  1  0.35610000  0.86600000  0.38720000  1.0 0.0996315122
H  H366  1  0.35610000  0.36600000  0.11280000  1.0 0.0996315122
H  H367  1  0.38580000  0.81850000  0.42870000  1.0 0.0996315122
H  H368  1  0.38580000  0.31850000  0.07130000  1.0 0.0996315122
H  H369  1  0.39050000  0.73520000  0.42380000  1.0 0.0703267412
H  H370  1  0.39050000  0.23520000  0.07620000  1.0 0.0703267412
H  H371  1  0.37580000  0.66710000  0.42220000  1.0 0.0996315122
H  H372  1  0.37580000  0.16710000  0.07780000  1.0 0.0996315122
H  H373  1  0.35860000  0.58420000  0.42000000  1.0 0.089522663
H  H374  1  0.35860000  0.08420000  0.08000000  1.0 0.089522663
H  H375  1  0.36070000  0.54730000  0.37250000  1.0 0.089522663
H  H376  1  0.36070000  0.04730000  0.12750000  1.0 0.089522663
H  H377  1  0.31290000  0.59420000  0.33200000  1.0 0.0996315122
H  H378  1  0.31290000  0.09420000  0.16800000  1.0 0.0996315122
H  H379  1  0.18690000  0.61030000  0.20550000  1.0 0.0509002669
H  H380  1  0.18690000  0.11030000  0.29450000  1.0 0.0509002669
H  H381  1  0.10150000  0.64630000  0.21310000  1.0 0.0996315122
H  H382  1  0.10150000  0.14630000  0.28690000  1.0 0.0996315122
H  H383  1  0.09370000  0.55170000  0.22500000  1.0 0.0597144204
H  H384  1  0.09370000  0.05170000  0.27500000  1.0 0.0597144204
H  H385  1  0.00790000  0.58980000  0.22630000  1.0 0.089522663
H  H386  1  0.00790000  0.08980000  0.27370000  1.0 0.089522663
H  H387  1  0.09580000  0.55280000  0.17480000  1.0 0.1108605496
H  H388  1  0.09580000  0.05280000  0.32520000  1.0 0.1108605496
H  H389  1  0.02530000  0.59800000  0.17360000  1.0 0.0805140531
H  H390  1  0.02530000  0.09800000  0.32640000  1.0 0.0805140531
H  H391  1  0.93340000  0.53720000  0.16110000  1.0 0.0805140531
H  H392  1  0.93340000  0.03720000  0.33890000  1.0 0.0805140531
H  H393  1  0.97800000  0.50330000  0.18580000  1.0 0.0597144204
H  H394  1  0.97800000  0.00330000  0.31420000  1.0 0.0597144204
H  H395  1  0.89280000  0.54870000  0.22150000  1.0 0.0703267412
H  H396  1  0.89280000  0.04870000  0.27850000  1.0 0.0703267412
H  H397  1  0.84090000  0.57620000  0.19490000  1.0 0.0703267412
H  H398  1  0.84090000  0.07620000  0.30510000  1.0 0.0703267412
H  H399  1  0.82040000  0.47800000  0.20930000  1.0 0.0996315122
H  H400  1  0.82040000  0.97800000  0.29070000  1.0 0.0996315122
H  H401  1  0.78560000  0.49820000  0.17800000  1.0 0.089522663
H  H402  1  0.78560000  0.99820000  0.32200000  1.0 0.089522663
H  H403  1  0.65550000  0.49430000  0.21160000  1.0 0.1186283719
H  H404  1  0.65550000  0.99430000  0.28840000  1.0 0.1186283719
H  H405  1  0.71080000  0.53090000  0.23280000  1.0 0.1288455162
H  H406  1  0.71080000  0.03090000  0.26720000  1.0 0.1288455162
H  H407  1  0.67350000  0.54810000  0.20120000  1.0 0.1186283719
H  H408  1  0.67350000  0.04810000  0.29880000  1.0 0.1186283719
H  H409  1  0.22360000  0.69070000  0.23290000  1.0 0.1579346083
H  H410  1  0.22360000  0.19070000  0.26710000  1.0 0.1579346083
H  H411  1  0.18670000  0.59260000  0.18220000  1.0 0.0805140531
H  H412  1  0.18670000  0.09260000  0.31780000  1.0 0.0805140531
H  H413  1  0.22860000  0.56780000  0.21030000  1.0 0.089522663
H  H414  1  0.22860000  0.06780000  0.28970000  1.0 0.089522663
H  H415  1  0.09190000  0.52670000  0.20630000  1.0 0.089522663
H  H416  1  0.09190000  0.02670000  0.29370000  1.0 0.089522663
H  H417  1  0.11950000  0.57200000  0.22460000  1.0 0.0703267412
H  H418  1  0.11950000  0.07200000  0.27540000  1.0 0.0703267412
H  H419  1  0.99590000  0.57880000  0.22400000  1.0 0.0996315122
H  H420  1  0.99590000  0.07880000  0.27600000  1.0 0.0996315122
H  H421  1  0.02250000  0.61000000  0.19660000  1.0 0.0597144204
H  H422  1  0.02250000  0.11000000  0.30340000  1.0 0.0597144204
H  H423  1  0.87670000  0.57880000  0.20450000  1.0 0.0597144204
H  H424  1  0.87670000  0.07880000  0.29550000  1.0 0.0597144204
H  H425  1  0.92230000  0.58350000  0.17220000  1.0 0.089522663
H  H426  1  0.92230000  0.08350000  0.32780000  1.0 0.089522663
H  H427  1  0.92090000  0.53280000  0.18850000  1.0 0.0383027065
H  H428  1  0.92090000  0.03280000  0.31150000  1.0 0.0383027065
H  H429  1  0.20740000  0.81680000  0.82360000  1.0 0.0805140531
H  H430  1  0.20740000  0.31680000  0.67640000  1.0 0.0805140531
H  H431  1  0.12630000  0.83260000  0.90880000  1.0 0.0805140531
H  H432  1  0.12630000  0.33260000  0.59120000  1.0 0.0805140531
H  H433  1  0.12760000  0.75000000  0.91490000  1.0 0.089522663
H  H434  1  0.12760000  0.25000000  0.58510000  1.0 0.089522663
H  H435  1  0.14180000  0.68300000  0.92000000  1.0 0.089522663
H  H436  1  0.14180000  0.18300000  0.58000000  1.0 0.089522663
H  H437  1  0.12130000  0.60070000  0.92470000  1.0 0.089522663
H  H438  1  0.12130000  0.10070000  0.57530000  1.0 0.089522663
H  H439  1  0.15540000  0.55110000  0.88410000  1.0 0.0996315122
H  H440  1  0.15540000  0.05110000  0.61590000  1.0 0.0996315122
H  H441  1  0.16730000  0.58540000  0.83710000  1.0 0.1108605496
H  H442  1  0.16730000  0.08540000  0.66290000  1.0 0.1108605496
H  H443  1  0.21150000  0.61340000  0.79980000  1.0 0.0703267412
H  H444  1  0.21150000  0.11340000  0.70020000  1.0 0.0703267412
H  H445  1  0.25460000  0.64860000  0.75520000  1.0 0.1108605496
H  H446  1  0.25460000  0.14860000  0.74480000  1.0 0.1108605496
H  H447  1  0.27620000  0.73160000  0.75190000  1.0 0.0805140531
H  H448  1  0.27620000  0.23160000  0.74810000  1.0 0.0805140531
H  H449  1  0.24240000  0.77940000  0.79300000  1.0 0.0996315122
H  H450  1  0.24240000  0.27940000  0.70700000  1.0 0.0996315122
H  H451  1  0.15770000  0.89740000  0.87970000  1.0 0.1579346083
H  H452  1  0.15770000  0.39740000  0.62030000  1.0 0.1579346083
H  H453  1  0.05990000  0.98540000  0.80310000  1.0 0.1108605496
H  H454  1  0.05990000  0.48540000  0.69690000  1.0 0.1186283719
H  H455  1  0.04040000  0.03120000  0.82280000  1.0 0.1108605496
H  H456  1  0.04040000  0.53120000  0.67720000  1.0 0.1108605496
H  H457  1  0.11720000  0.02830000  0.76680000  1.0 0.1186283719
H  H458  1  0.11720000  0.52830000  0.73320000  1.0 0.1186283719
H  H459  1  0.12330000  0.07480000  0.78660000  1.0 0.1108605496
H  H460  1  0.12330000  0.57480000  0.71340000  1.0 0.1108605496
H  H461  1  0.96080000  0.08090000  0.78540000  1.0 0.1186283719
H  H462  1  0.96080000  0.58090000  0.71460000  1.0 0.1186283719
H  H463  1  0.95580000  0.03490000  0.76520000  1.0 0.0996315122
H  H464  1  0.95580000  0.53490000  0.73480000  1.0 0.0996315122
H  H465  1  0.01120000  0.12500000  0.75060000  1.0 0.089522663
H  H466  1  0.01120000  0.62500000  0.74940000  1.0 0.089522663
H  H467  1  0.03940000  0.08090000  0.73040000  1.0 0.0996315122
H  H468  1  0.03940000  0.58090000  0.76960000  1.0 0.0996315122
H  H469  1  0.91800000  0.12170000  0.71090000  1.0 0.1108605496
H  H470  1  0.91800000  0.62170000  0.78910000  1.0 0.1108605496
H  H471  1  0.88170000  0.06920000  0.71950000  1.0 0.1383251831
H  H472  1  0.88170000  0.56920000  0.78050000  1.0 0.1383251831
H  H473  1  0.85330000  0.11380000  0.73980000  1.0 0.1288455162
H  H474  1  0.85330000  0.61380000  0.76020000  1.0 0.1288455162
H  H475  1  0.22300000  0.13540000  0.70190000  1.0 0.0805140531
H  H476  1  0.22300000  0.63540000  0.79810000  1.0 0.0805140531
H  H477  1  0.26980000  0.26650000  0.73720000  1.0 0.089522663
H  H478  1  0.26980000  0.76650000  0.76280000  1.0 0.089522663
H  H479  1  0.22330000  0.30210000  0.69320000  1.0 0.089522663
H  H480  1  0.22330000  0.80210000  0.80680000  1.0 0.089522663
H  H481  1  0.19050000  0.33050000  0.65710000  1.0 0.0996315122
H  H482  1  0.19050000  0.83050000  0.84290000  1.0 0.0996315122
H  H483  1  0.14390000  0.36600000  0.61280000  1.0 0.0996315122
H  H484  1  0.14390000  0.86600000  0.88720000  1.0 0.0996315122
H  H485  1  0.11420000  0.31850000  0.57130000  1.0 0.0996315122
H  H486  1  0.11420000  0.81850000  0.92870000  1.0 0.0996315122
H  H487  1  0.10950000  0.23520000  0.57620000  1.0 0.0703267412
H  H488  1  0.10950000  0.73520000  0.92380000  1.0 0.0703267412
H  H489  1  0.12420000  0.16710000  0.57780000  1.0 0.0996315122
H  H490  1  0.12420000  0.66710000  0.92220000  1.0 0.0996315122
H  H491  1  0.14140000  0.08420000  0.58000000  1.0 0.089522663
H  H492  1  0.14140000  0.58420000  0.92000000  1.0 0.089522663
H  H493  1  0.13930000  0.04730000  0.62750000  1.0 0.089522663
H  H494  1  0.13930000  0.54730000  0.87250000  1.0 0.089522663
H  H495  1  0.18710000  0.09420000  0.66800000  1.0 0.0996315122
H  H496  1  0.18710000  0.59420000  0.83200000  1.0 0.0996315122
H  H497  1  0.31310000  0.11030000  0.79450000  1.0 0.0509002669
H  H498  1  0.31310000  0.61030000  0.70550000  1.0 0.0509002669
H  H499  1  0.39850000  0.14630000  0.78690000  1.0 0.0996315122
H  H500  1  0.39850000  0.64630000  0.71310000  1.0 0.0996315122
H  H501  1  0.40630000  0.05170000  0.77500000  1.0 0.0597144204
H  H502  1  0.40630000  0.55170000  0.72500000  1.0 0.0597144204
H  H503  1  0.49210000  0.08980000  0.77370000  1.0 0.089522663
H  H504  1  0.49210000  0.58980000  0.72630000  1.0 0.089522663
H  H505  1  0.40420000  0.05280000  0.82520000  1.0 0.1108605496
H  H506  1  0.40420000  0.55280000  0.67480000  1.0 0.1108605496
H  H507  1  0.47470000  0.09800000  0.82640000  1.0 0.0805140531
H  H508  1  0.47470000  0.59800000  0.67360000  1.0 0.0805140531
H  H509  1  0.56660000  0.03720000  0.83890000  1.0 0.0805140531
H  H510  1  0.56660000  0.53720000  0.66110000  1.0 0.0805140531
H  H511  1  0.52200000  0.00330000  0.81420000  1.0 0.0597144204
H  H512  1  0.52200000  0.50330000  0.68580000  1.0 0.0597144204
H  H513  1  0.60720000  0.04870000  0.77850000  1.0 0.0703267412
H  H514  1  0.60720000  0.54870000  0.72150000  1.0 0.0703267412
H  H515  1  0.65910000  0.07620000  0.80510000  1.0 0.0703267412
H  H516  1  0.65910000  0.57620000  0.69490000  1.0 0.0703267412
H  H517  1  0.67960000  0.97800000  0.79070000  1.0 0.0996315122
H  H518  1  0.67960000  0.47800000  0.70930000  1.0 0.0996315122
H  H519  1  0.71440000  0.99820000  0.82200000  1.0 0.089522663
H  H520  1  0.71440000  0.49820000  0.67800000  1.0 0.089522663
H  H521  1  0.84450000  0.99430000  0.78840000  1.0 0.1186283719
H  H522  1  0.84450000  0.49430000  0.71160000  1.0 0.1186283719
H  H523  1  0.78920000  0.03090000  0.76720000  1.0 0.1288455162
H  H524  1  0.78920000  0.53090000  0.73280000  1.0 0.1288455162
H  H525  1  0.82650000  0.04810000  0.79880000  1.0 0.1186283719
H  H526  1  0.82650000  0.54810000  0.70120000  1.0 0.1186283719
H  H527  1  0.27640000  0.19070000  0.76710000  1.0 0.1579346083
H  H528  1  0.27640000  0.69070000  0.73290000  1.0 0.1579346083
H  H529  1  0.31330000  0.09260000  0.81780000  1.0 0.0805140531
H  H530  1  0.31330000  0.59260000  0.68220000  1.0 0.0805140531
H  H531  1  0.27140000  0.06780000  0.78970000  1.0 0.089522663
H  H532  1  0.27140000  0.56780000  0.71030000  1.0 0.089522663
H  H533  1  0.40810000  0.02670000  0.79370000  1.0 0.089522663
H  H534  1  0.40810000  0.52670000  0.70630000  1.0 0.089522663
H  H535  1  0.38050000  0.07200000  0.77540000  1.0 0.0703267412
H  H536  1  0.38050000  0.57200000  0.72460000  1.0 0.0703267412
H  H537  1  0.50410000  0.07880000  0.77600000  1.0 0.0996315122
H  H538  1  0.50410000  0.57880000  0.72400000  1.0 0.0996315122
H  H539  1  0.47750000  0.11000000  0.80340000  1.0 0.0597144204
H  H540  1  0.47750000  0.61000000  0.69660000  1.0 0.0597144204
H  H541  1  0.62330000  0.07880000  0.79550000  1.0 0.0597144204
H  H542  1  0.62330000  0.57880000  0.70450000  1.0 0.0597144204
H  H543  1  0.57770000  0.08350000  0.82780000  1.0 0.089522663
H  H544  1  0.57770000  0.58350000  0.67220000  1.0 0.089522663
H  H545  1  0.57910000  0.03280000  0.81150000  1.0 0.0383027065
H  H546  1  0.57910000  0.53280000  0.68850000  1.0 0.0383027065
H  H547  1  0.79260000  0.68320000  0.32360000  1.0 0.0805140531
H  H548  1  0.79260000  0.18320000  0.17640000  1.0 0.0805140531
H  H549  1  0.87370000  0.66740000  0.40880000  1.0 0.0805140531
H  H550  1  0.87370000  0.16740000  0.09120000  1.0 0.0805140531
H  H551  1  0.87240000  0.75000000  0.41490000  1.0 0.089522663
H  H552  1  0.87240000  0.25000000  0.08510000  1.0 0.089522663
H  H553  1  0.85820000  0.81700000  0.42000000  1.0 0.089522663
H  H554  1  0.85820000  0.31700000  0.08000000  1.0 0.089522663
H  H555  1  0.87870000  0.89930000  0.42470000  1.0 0.089522663
H  H556  1  0.87870000  0.39930000  0.07530000  1.0 0.089522663
H  H557  1  0.84460000  0.94890000  0.38410000  1.0 0.0996315122
H  H558  1  0.84460000  0.44890000  0.11590000  1.0 0.0996315122
H  H559  1  0.83270000  0.91460000  0.33710000  1.0 0.1108605496
H  H560  1  0.83270000  0.41460000  0.16290000  1.0 0.1108605496
H  H561  1  0.78850000  0.88660000  0.29980000  1.0 0.0703267412
H  H562  1  0.78850000  0.38660000  0.20020000  1.0 0.0703267412
H  H563  1  0.74540000  0.85140000  0.25520000  1.0 0.1108605496
H  H564  1  0.74540000  0.35140000  0.24480000  1.0 0.1108605496
H  H565  1  0.72380000  0.76840000  0.25190000  1.0 0.0805140531
H  H566  1  0.72380000  0.26840000  0.24810000  1.0 0.0805140531
H  H567  1  0.75760000  0.72060000  0.29300000  1.0 0.0996315122
H  H568  1  0.75760000  0.22060000  0.20700000  1.0 0.0996315122
H  H569  1  0.84230000  0.60260000  0.37970000  1.0 0.1579346083
H  H570  1  0.84230000  0.10260000  0.12030000  1.0 0.1579346083
H  H571  1  0.94010000  0.51460000  0.30310000  1.0 0.1186283719
H  H572  1  0.94010000  0.01460000  0.19690000  1.0 0.1186283719
H  H573  1  0.95960000  0.46880000  0.32280000  1.0 0.1108605496
H  H574  1  0.95960000  0.96880000  0.17720000  1.0 0.1108605496
H  H575  1  0.88280000  0.47170000  0.26680000  1.0 0.1186283719
H  H576  1  0.88280000  0.97170000  0.23320000  1.0 0.1186283719
H  H577  1  0.87670000  0.42520000  0.28660000  1.0 0.1108605496
H  H578  1  0.87670000  0.92520000  0.21340000  1.0 0.1108605496
H  H579  1  0.03920000  0.41910000  0.28540000  1.0 0.1186283719
H  H580  1  0.03920000  0.91910000  0.21460000  1.0 0.1186283719
H  H581  1  0.04420000  0.46510000  0.26520000  1.0 0.0996315122
H  H582  1  0.04420000  0.96510000  0.23480000  1.0 0.0996315122
H  H583  1  0.98880000  0.37500000  0.25060000  1.0 0.089522663
H  H584  1  0.98880000  0.87500000  0.24940000  1.0 0.089522663
H  H585  1  0.96060000  0.41910000  0.23040000  1.0 0.0996315122
H  H586  1  0.96060000  0.91910000  0.26960000  1.0 0.0996315122
H  H587  1  0.08200000  0.37830000  0.21090000  1.0 0.1108605496
H  H588  1  0.08200000  0.87830000  0.28910000  1.0 0.1108605496
H  H589  1  0.11830000  0.43080000  0.21950000  1.0 0.1383251831
H  H590  1  0.11830000  0.93080000  0.28050000  1.0 0.1383251831
H  H591  1  0.14670000  0.38620000  0.23980000  1.0 0.1288455162
H  H592  1  0.14670000  0.88620000  0.26020000  1.0 0.1288455162
H  H593  1  0.77700000  0.36460000  0.20190000  1.0 0.0805140531
H  H594  1  0.77700000  0.86460000  0.29810000  1.0 0.0805140531
H  H595  1  0.73020000  0.23350000  0.23720000  1.0 0.089522663
H  H596  1  0.73020000  0.73350000  0.26280000  1.0 0.089522663
H  H597  1  0.77670000  0.19790000  0.19320000  1.0 0.089522663
H  H598  1  0.77670000  0.69790000  0.30680000  1.0 0.089522663
H  H599  1  0.80950000  0.16950000  0.15710000  1.0 0.0996315122
H  H600  1  0.80950000  0.66950000  0.34290000  1.0 0.0996315122
H  H601  1  0.85610000  0.13400000  0.11280000  1.0 0.0996315122
H  H602  1  0.85610000  0.63400000  0.38720000  1.0 0.0996315122
H  H603  1  0.88580000  0.18150000  0.07130000  1.0 0.0996315122
H  H604  1  0.88580000  0.68150000  0.42870000  1.0 0.0996315122
H  H605  1  0.89050000  0.26480000  0.07620000  1.0 0.0703267412
H  H606  1  0.89050000  0.76480000  0.42380000  1.0 0.0703267412
H  H607  1  0.87580000  0.33290000  0.07780000  1.0 0.0996315122
H  H608  1  0.87580000  0.83290000  0.42220000  1.0 0.0996315122
H  H609  1  0.85860000  0.41580000  0.08000000  1.0 0.089522663
H  H610  1  0.85860000  0.91580000  0.42000000  1.0 0.089522663
H  H611  1  0.86070000  0.45270000  0.12750000  1.0 0.089522663
H  H612  1  0.86070000  0.95270000  0.37250000  1.0 0.089522663
H  H613  1  0.81290000  0.40580000  0.16800000  1.0 0.0996315122
H  H614  1  0.81290000  0.90580000  0.33200000  1.0 0.0996315122
H  H615  1  0.68690000  0.38970000  0.29450000  1.0 0.0509002669
H  H616  1  0.68690000  0.88970000  0.20550000  1.0 0.0509002669
H  H617  1  0.60150000  0.35370000  0.28690000  1.0 0.0996315122
H  H618  1  0.60150000  0.85370000  0.21310000  1.0 0.0996315122
H  H619  1  0.59370000  0.44830000  0.27500000  1.0 0.0597144204
H  H620  1  0.59370000  0.94830000  0.22500000  1.0 0.0597144204
H  H621  1  0.50790000  0.41020000  0.27370000  1.0 0.089522663
H  H622  1  0.50790000  0.91020000  0.22630000  1.0 0.089522663
H  H623  1  0.59580000  0.44720000  0.32520000  1.0 0.1108605496
H  H624  1  0.59580000  0.94720000  0.17480000  1.0 0.1108605496
H  H625  1  0.52530000  0.40200000  0.32640000  1.0 0.0805140531
H  H626  1  0.52530000  0.90200000  0.17360000  1.0 0.0805140531
H  H627  1  0.43340000  0.46280000  0.33890000  1.0 0.0805140531
H  H628  1  0.43340000  0.96280000  0.16110000  1.0 0.0805140531
H  H629  1  0.47800000  0.49670000  0.31420000  1.0 0.0597144204
H  H630  1  0.47800000  0.99670000  0.18580000  1.0 0.0597144204
H  H631  1  0.39280000  0.45130000  0.27850000  1.0 0.0703267412
H  H632  1  0.39280000  0.95130000  0.22150000  1.0 0.0703267412
H  H633  1  0.34090000  0.42380000  0.30510000  1.0 0.0703267412
H  H634  1  0.34090000  0.92380000  0.19490000  1.0 0.0703267412
H  H635  1  0.32040000  0.52200000  0.29070000  1.0 0.0996315122
H  H636  1  0.32040000  0.02200000  0.20930000  1.0 0.0996315122
H  H637  1  0.28560000  0.50180000  0.32200000  1.0 0.089522663
H  H638  1  0.28560000  0.00180000  0.17800000  1.0 0.089522663
H  H639  1  0.15550000  0.50570000  0.28840000  1.0 0.1186283719
H  H640  1  0.15550000  0.00570000  0.21160000  1.0 0.1186283719
H  H641  1  0.21080000  0.46910000  0.26720000  1.0 0.1288455162
H  H642  1  0.21080000  0.96910000  0.23280000  1.0 0.1288455162
H  H643  1  0.17350000  0.45190000  0.29880000  1.0 0.1186283719
H  H644  1  0.17350000  0.95190000  0.20120000  1.0 0.1186283719
H  H645  1  0.72360000  0.30930000  0.26710000  1.0 0.1579346083
H  H646  1  0.72360000  0.80930000  0.23290000  1.0 0.1579346083
H  H647  1  0.68670000  0.40740000  0.31780000  1.0 0.0805140531
H  H648  1  0.68670000  0.90740000  0.18220000  1.0 0.0805140531
H  H649  1  0.72860000  0.43220000  0.28970000  1.0 0.089522663
H  H650  1  0.72860000  0.93220000  0.21030000  1.0 0.089522663
H  H651  1  0.59190000  0.47330000  0.29370000  1.0 0.089522663
H  H652  1  0.59190000  0.97330000  0.20630000  1.0 0.089522663
H  H653  1  0.61950000  0.42800000  0.27540000  1.0 0.0703267412
H  H654  1  0.61950000  0.92800000  0.22460000  1.0 0.0703267412
H  H655  1  0.49590000  0.42120000  0.27600000  1.0 0.0996315122
H  H656  1  0.49590000  0.92120000  0.22400000  1.0 0.0996315122
H  H657  1  0.52250000  0.39000000  0.30340000  1.0 0.0597144204
H  H658  1  0.52250000  0.89000000  0.19660000  1.0 0.0597144204
H  H659  1  0.37670000  0.42120000  0.29550000  1.0 0.0597144204
H  H660  1  0.37670000  0.92120000  0.20450000  1.0 0.0597144204
H  H661  1  0.42230000  0.41650000  0.32780000  1.0 0.089522663
H  H662  1  0.42230000  0.91650000  0.17220000  1.0 0.089522663
H  H663  1  0.42090000  0.46720000  0.31150000  1.0 0.0383027065
H  H664  1  0.42090000  0.96720000  0.18850000  1.0 0.0383027065
C  C1  1  0.53820000  0.92340000  0.60118000  1.0 0.0805140531
C  C2  1  0.46180000  0.57660000  0.10118000  1.0 0.0805140531
C  C3  1  0.03820000  0.07660000  0.89882000  1.0 0.0805140531
C  C4  1  0.96180000  0.42340000  0.39882000  1.0 0.0805140531
C  C5  1  0.63130000  0.90610000  0.59832000  1.0 -0.1368201228
C  C6  1  0.36870000  0.59390000  0.09832000  1.0 -0.1368201228
C  C7  1  0.13130000  0.09390000  0.90168000  1.0 -0.1368201228
C  C8  1  0.86870000  0.40610000  0.40168000  1.0 -0.1368201228
C  C9  1  0.53570000  0.94630000  0.55282000  1.0 0.089522663
C  C10  1  0.46430000  0.55370000  0.05282000  1.0 0.089522663
C  C11  1  0.03570000  0.05370000  0.94718000  1.0 0.089522663
C  C12  1  0.96430000  0.44630000  0.44718000  1.0 0.089522663
C  C13  1  0.62960000  0.93050000  0.54842000  1.0 -0.1279063675
C  C14  1  0.37040000  0.56950000  0.04842000  1.0 -0.1279063675
C  C15  1  0.12960000  0.06950000  0.95158000  1.0 -0.1279063675
C  C16  1  0.87040000  0.43050000  0.45158000  1.0 -0.1279063675
C  C17  1  0.67810000  0.90990000  0.57161000  1.0 0.0597144204
C  C18  1  0.32190000  0.59010000  0.07161000  1.0 0.0597144204
C  C19  1  0.17810000  0.09010000  0.92839000  1.0 0.0597144204
C  C20  1  0.82190000  0.40990000  0.42839000  1.0 0.0597144204
C  C21  1  0.78050000  0.89440000  0.56817000  1.0 0.3732619568
C  C22  1  0.21950000  0.60560000  0.06817000  1.0 0.3732619568
C  C23  1  0.28050000  0.10560000  0.93183000  1.0 0.3732619568
C  C24  1  0.71950000  0.39440000  0.43183000  1.0 0.3732619568
C  C25  1  0.99130000  0.94680000  0.46956000  1.0 0.0703267412
C  C26  1  0.00870000  0.55320000  0.96956000  1.0 0.0703267412
C  C27  1  0.49130000  0.05320000  0.03044000  1.0 0.0703267412
C  C28  1  0.50870000  0.44680000  0.53044000  1.0 0.0703267412
C  C29  1  0.93400000  0.93560000  0.49388000  1.0 -0.1585489609
C  C30  1  0.06600000  0.56440000  0.99388000  1.0 -0.1585489609
C  C31  1  0.43400000  0.06440000  0.00612000  1.0 -0.1585489609
C  C32  1  0.56600000  0.43560000  0.50612000  1.0 -0.1585489609
C  C33  1  0.12340000  0.90780000  0.48877000  1.0 0.0703267412
C  C34  1  0.87660000  0.59220000  0.98877000  1.0 0.0703267412
C  C35  1  0.62340000  0.09220000  0.01123000  1.0 0.0703267412
C  C36  1  0.37660000  0.40780000  0.51123000  1.0 0.0703267412
C  C37  1  0.07360000  0.89540000  0.51341000  1.0 -0.1368201228
C  C38  1  0.92640000  0.60460000  0.01341000  1.0 -0.1368201228
C  C39  1  0.57360000  0.10460000  0.98659000  1.0 -0.1368201228
C  C40  1  0.42640000  0.39540000  0.48659000  1.0 -0.1368201228
C  C41  1  0.97620000  0.90820000  0.51651000  1.0 0.0597144204
C  C42  1  0.02380000  0.59180000  0.01651000  1.0 0.0597144204
C  C43  1  0.47620000  0.09180000  0.98349000  1.0 0.0597144204
C  C44  1  0.52380000  0.40820000  0.48349000  1.0 0.0597144204
C  C45  1  0.91990000  0.89460000  0.54257000  1.0 0.3589745186
C  C46  1  0.08010000  0.60540000  0.04257000  1.0 0.3589745186
C  C47  1  0.41990000  0.10540000  0.95743000  1.0 0.3589745186
C  C48  1  0.58010000  0.39460000  0.45743000  1.0 0.3589745186
C  C49  1  0.11410000  0.81800000  0.63626000  1.0 0.0805140531
C  C50  1  0.88590000  0.68200000  0.13626000  1.0 0.0805140531
C  C51  1  0.61410000  0.18200000  0.86374000  1.0 0.0805140531
C  C52  1  0.38590000  0.31800000  0.36374000  1.0 0.0805140531
C  C53  1  0.06650000  0.83980000  0.61337000  1.0 -0.1279063675
C  C54  1  0.93350000  0.66020000  0.11337000  1.0 -0.1279063675
C  C55  1  0.56650000  0.16020000  0.88663000  1.0 -0.1279063675
C  C56  1  0.43350000  0.33980000  0.38663000  1.0 -0.1279063675
C  C57  1  0.97200000  0.79680000  0.65799000  1.0 0.0597144204
C  C58  1  0.02800000  0.70320000  0.15799000  1.0 0.0597144204
C  C59  1  0.47200000  0.20320000  0.84201000  1.0 0.0597144204
C  C60  1  0.52800000  0.29680000  0.34201000  1.0 0.0597144204
C  C61  1  0.91900000  0.81860000  0.63587000  1.0 -0.1585489609
C  C62  1  0.08100000  0.68140000  0.13587000  1.0 -0.1585489609
C  C63  1  0.41900000  0.18140000  0.86413000  1.0 -0.1585489609
C  C64  1  0.58100000  0.31860000  0.36413000  1.0 -0.1585489609
C  C65  1  0.96670000  0.84010000  0.61319000  1.0 0.0597144204
C  C66  1  0.03330000  0.65990000  0.11319000  1.0 0.0597144204
C  C67  1  0.46670000  0.15990000  0.88681000  1.0 0.0597144204
C  C68  1  0.53330000  0.34010000  0.38681000  1.0 0.0597144204
C  C69  1  0.91500000  0.86200000  0.58822000  1.0 0.3589745186
C  C70  1  0.08500000  0.63800000  0.08822000  1.0 0.3589745186
C  C71  1  0.41500000  0.13800000  0.91178000  1.0 0.3589745186
C  C72  1  0.58500000  0.36200000  0.41178000  1.0 0.3589745186
C  C73  1  0.03390000  0.73070000  0.74028000  1.0 0.0383027065
C  C74  1  0.96610000  0.76930000  0.24028000  1.0 0.0383027065
C  C75  1  0.53390000  0.26930000  0.75972000  1.0 0.0383027065
C  C76  1  0.46610000  0.23070000  0.25972000  1.0 0.0383027065
C  C77  1  0.99470000  0.73500000  0.76872000  1.0 -0.239873399
C  C78  1  0.00530000  0.76500000  0.26872000  1.0 -0.239873399
C  C79  1  0.49470000  0.26500000  0.73128000  1.0 -0.239873399
C  C80  1  0.50530000  0.23500000  0.23128000  1.0 -0.239873399
C  C81  1  0.07650000  0.81010000  0.74035000  1.0 -0.0159719861
C  C82  1  0.92350000  0.68990000  0.24035000  1.0 -0.0095699061
C  C83  1  0.57650000  0.18990000  0.75965000  1.0 -0.0159719861
C  C84  1  0.42350000  0.31010000  0.25965000  1.0 -0.0095699061
C  C85  1  0.03830000  0.81640000  0.76862000  1.0 -0.1998360061
C  C86  1  0.96170000  0.68360000  0.26862000  1.0 -0.1998360061
C  C87  1  0.53830000  0.18360000  0.73138000  1.0 -0.1998360061
C  C88  1  0.46170000  0.31640000  0.23138000  1.0 -0.1998360061
C  C89  1  0.99800000  0.77750000  0.78265000  1.0 -0.0310133602
C  C90  1  0.00200000  0.72250000  0.28265000  1.0 -0.0310133602
C  C91  1  0.49800000  0.22250000  0.71735000  1.0 -0.0310133602
C  C92  1  0.50200000  0.27750000  0.21735000  1.0 -0.0310133602
C  C93  1  0.96340000  0.78220000  0.81366000  1.0 0.2628180928
C  C94  1  0.03660000  0.71780000  0.31366000  1.0 0.2628180928
C  C95  1  0.46340000  0.21780000  0.68634000  1.0 0.2628180928
C  C96  1  0.53660000  0.28220000  0.18634000  1.0 0.2628180928
C  C97  1  0.89850000  0.95870000  0.86531000  1.0 0.0509002669
C  C98  1  0.10150000  0.54130000  0.36531000  1.0 0.0509002669
C  C99  1  0.39850000  0.04130000  0.63469000  1.0 0.0509002669
C  C100  1  0.60150000  0.45870000  0.13469000  1.0 0.0509002669
C  C101  1  0.91280000  0.91580000  0.85062000  1.0 -0.2308959026
C  C102  1  0.08720000  0.58420000  0.35062000  1.0 -0.2308959026
C  C103  1  0.41280000  0.08420000  0.64938000  1.0 -0.2308959026
C  C104  1  0.58720000  0.41580000  0.14938000  1.0 -0.2308959026
C  C105  1  0.89040000  0.92220000  0.91029000  1.0 0.0509002669
C  C106  1  0.10960000  0.57780000  0.41029000  1.0 0.0509002669
C  C107  1  0.39040000  0.07780000  0.58971000  1.0 0.0509002669
C  C108  1  0.60960000  0.42220000  0.08971000  1.0 0.0509002669
C  C109  1  0.90270000  0.87800000  0.89756000  1.0 -0.2089797013
C  C110  1  0.09730000  0.62200000  0.39756000  1.0 -0.2089797013
C  C111  1  0.40270000  0.12200000  0.60244000  1.0 -0.2089797013
C  C112  1  0.59730000  0.37800000  0.10244000  1.0 -0.2089797013
C  C113  1  0.91370000  0.87420000  0.86734000  1.0 0.0116127304
C  C114  1  0.08630000  0.62580000  0.36734000  1.0 0.0116127304
C  C115  1  0.41370000  0.12580000  0.63266000  1.0 0.0116127304
C  C116  1  0.58630000  0.37420000  0.13266000  1.0 0.0116127304
C  C117  1  0.92670000  0.82670000  0.85319000  1.0 0.239031317
C  C118  1  0.07330000  0.67330000  0.35319000  1.0 0.239031317
C  C119  1  0.42670000  0.17330000  0.64681000  1.0 0.239031317
C  C120  1  0.57330000  0.32670000  0.14681000  1.0 0.239031317
C  C121  1  0.86780000  0.66120000  0.91782000  1.0 -0.0095699061
C  C122  1  0.13220000  0.83880000  0.41782000  1.0 -0.0095699061
C  C123  1  0.36780000  0.33880000  0.58218000  1.0 -0.0095699061
C  C124  1  0.63220000  0.16120000  0.08218000  1.0 -0.0095699061
C  C125  1  0.88270000  0.70390000  0.90324000  1.0 -0.2308959026
C  C126  1  0.11730000  0.79610000  0.40324000  1.0 -0.2308959026
C  C127  1  0.38270000  0.29610000  0.59676000  1.0 -0.2308959026
C  C128  1  0.61730000  0.20390000  0.09676000  1.0 -0.2308959026
C  C129  1  0.90780000  0.61760000  0.87678000  1.0 -0.0095699061
C  C130  1  0.09220000  0.88240000  0.37678000  1.0 -0.0159719861
C  C131  1  0.40780000  0.38240000  0.62322000  1.0 -0.0095699061
C  C132  1  0.59220000  0.11760000  0.12322000  1.0 -0.0095699061
C  C133  1  0.92310000  0.65820000  0.86063000  1.0 -0.239873399
C  C134  1  0.07690000  0.84180000  0.36063000  1.0 -0.239873399
C  C135  1  0.42310000  0.34180000  0.63937000  1.0 -0.239873399
C  C136  1  0.57690000  0.15820000  0.13937000  1.0 -0.239873399
C  C137  1  0.91040000  0.70240000  0.87358000  1.0 -0.0385223794
C  C138  1  0.08960000  0.79760000  0.37358000  1.0 -0.0385223794
C  C139  1  0.41040000  0.29760000  0.62642000  1.0 -0.0385223794
C  C140  1  0.58960000  0.20240000  0.12642000  1.0 -0.0385223794
C  C141  1  0.92460000  0.74680000  0.85671000  1.0 0.1970139783
C  C142  1  0.07540000  0.75320000  0.35671000  1.0 0.1970139783
C  C143  1  0.42460000  0.25320000  0.64329000  1.0 0.1970139783
C  C144  1  0.57540000  0.24680000  0.14329000  1.0 0.1970139783
C  C145  1  0.46180000  0.07660000  0.39882000  1.0 0.0805140531
C  C146  1  0.53820000  0.42340000  0.89882000  1.0 0.0805140531
C  C147  1  0.96180000  0.92340000  0.10118000  1.0 0.0805140531
C  C148  1  0.03820000  0.57660000  0.60118000  1.0 0.0805140531
C  C149  1  0.36870000  0.09390000  0.40168000  1.0 -0.1368201228
C  C150  1  0.63130000  0.40610000  0.90168000  1.0 -0.1368201228
C  C151  1  0.86870000  0.90610000  0.09832000  1.0 -0.1368201228
C  C152  1  0.13130000  0.59390000  0.59832000  1.0 -0.1368201228
C  C153  1  0.46430000  0.05370000  0.44718000  1.0 0.089522663
C  C154  1  0.53570000  0.44630000  0.94718000  1.0 0.089522663
C  C155  1  0.96430000  0.94630000  0.05282000  1.0 0.089522663
C  C156  1  0.03570000  0.55370000  0.55282000  1.0 0.089522663
C  C157  1  0.37040000  0.06950000  0.45158000  1.0 -0.1279063675
C  C158  1  0.62960000  0.43050000  0.95158000  1.0 -0.1279063675
C  C159  1  0.87040000  0.93050000  0.04842000  1.0 -0.1279063675
C  C160  1  0.12960000  0.56950000  0.54842000  1.0 -0.1279063675
C  C161  1  0.32190000  0.09010000  0.42839000  1.0 0.0597144204
C  C162  1  0.67810000  0.40990000  0.92839000  1.0 0.0597144204
C  C163  1  0.82190000  0.90990000  0.07161000  1.0 0.0597144204
C  C164  1  0.17810000  0.59010000  0.57161000  1.0 0.0597144204
C  C165  1  0.21950000  0.10560000  0.43183000  1.0 0.3732619568
C  C166  1  0.78050000  0.39440000  0.93183000  1.0 0.3732619568
C  C167  1  0.71950000  0.89440000  0.06817000  1.0 0.3732619568
C  C168  1  0.28050000  0.60560000  0.56817000  1.0 0.3732619568
C  C169  1  0.00870000  0.05320000  0.53044000  1.0 0.0703267412
C  C170  1  0.99130000  0.44680000  0.03044000  1.0 0.0703267412
C  C171  1  0.50870000  0.94680000  0.96956000  1.0 0.0703267412
C  C172  1  0.49130000  0.55320000  0.46956000  1.0 0.0703267412
C  C173  1  0.06600000  0.06440000  0.50612000  1.0 -0.1585489609
C  C174  1  0.93400000  0.43560000  0.00612000  1.0 -0.1585489609
C  C175  1  0.56600000  0.93560000  0.99388000  1.0 -0.1585489609
C  C176  1  0.43400000  0.56440000  0.49388000  1.0 -0.1585489609
C  C177  1  0.87660000  0.09220000  0.51123000  1.0 0.0703267412
C  C178  1  0.12340000  0.40780000  0.01123000  1.0 0.0703267412
C  C179  1  0.37660000  0.90780000  0.98877000  1.0 0.0703267412
C  C180  1  0.62340000  0.59220000  0.48877000  1.0 0.0703267412
C  C181  1  0.92640000  0.10460000  0.48659000  1.0 -0.1368201228
C  C182  1  0.07360000  0.39540000  0.98659000  1.0 -0.1368201228
C  C183  1  0.42640000  0.89540000  0.01341000  1.0 -0.1368201228
C  C184  1  0.57360000  0.60460000  0.51341000  1.0 -0.1368201228
C  C185  1  0.02380000  0.09180000  0.48349000  1.0 0.0597144204
C  C186  1  0.97620000  0.40820000  0.98349000  1.0 0.0597144204
C  C187  1  0.52380000  0.90820000  0.01651000  1.0 0.0597144204
C  C188  1  0.47620000  0.59180000  0.51651000  1.0 0.0597144204
C  C189  1  0.08010000  0.10540000  0.45743000  1.0 0.3589745186
C  C190  1  0.91990000  0.39460000  0.95743000  1.0 0.3589745186
C  C191  1  0.58010000  0.89460000  0.04257000  1.0 0.3589745186
C  C192  1  0.41990000  0.60540000  0.54257000  1.0 0.3589745186
C  C193  1  0.88590000  0.18200000  0.36374000  1.0 0.0805140531
C  C194  1  0.11410000  0.31800000  0.86374000  1.0 0.0805140531
C  C195  1  0.38590000  0.81800000  0.13626000  1.0 0.0805140531
C  C196  1  0.61410000  0.68200000  0.63626000  1.0 0.0805140531
C  C197  1  0.93350000  0.16020000  0.38663000  1.0 -0.1279063675
C  C198  1  0.06650000  0.33980000  0.88663000  1.0 -0.1279063675
C  C199  1  0.43350000  0.83980000  0.11337000  1.0 -0.1279063675
C  C200  1  0.56650000  0.66020000  0.61337000  1.0 -0.1279063675
C  C201  1  0.02800000  0.20320000  0.34201000  1.0 0.0597144204
C  C202  1  0.97200000  0.29680000  0.84201000  1.0 0.0597144204
C  C203  1  0.52800000  0.79680000  0.15799000  1.0 0.0597144204
C  C204  1  0.47200000  0.70320000  0.65799000  1.0 0.0597144204
C  C205  1  0.08100000  0.18140000  0.36413000  1.0 -0.1585489609
C  C206  1  0.91900000  0.31860000  0.86413000  1.0 -0.1585489609
C  C207  1  0.58100000  0.81860000  0.13587000  1.0 -0.1585489609
C  C208  1  0.41900000  0.68140000  0.63587000  1.0 -0.1585489609
C  C209  1  0.03330000  0.15990000  0.38681000  1.0 0.0597144204
C  C210  1  0.96670000  0.34010000  0.88681000  1.0 0.0597144204
C  C211  1  0.53330000  0.84010000  0.11319000  1.0 0.0597144204
C  C212  1  0.46670000  0.65990000  0.61319000  1.0 0.0597144204
C  C213  1  0.08500000  0.13800000  0.41178000  1.0 0.3589745186
C  C214  1  0.91500000  0.36200000  0.91178000  1.0 0.3589745186
C  C215  1  0.58500000  0.86200000  0.08822000  1.0 0.3589745186
C  C216  1  0.41500000  0.63800000  0.58822000  1.0 0.3589745186
C  C217  1  0.96610000  0.26930000  0.25972000  1.0 0.0383027065
C  C218  1  0.03390000  0.23070000  0.75972000  1.0 0.0383027065
C  C219  1  0.46610000  0.73070000  0.24028000  1.0 0.0383027065
C  C220  1  0.53390000  0.76930000  0.74028000  1.0 0.0383027065
C  C221  1  0.00530000  0.26500000  0.23128000  1.0 -0.239873399
C  C222  1  0.99470000  0.23500000  0.73128000  1.0 -0.239873399
C  C223  1  0.50530000  0.73500000  0.26872000  1.0 -0.239873399
C  C224  1  0.49470000  0.76500000  0.76872000  1.0 -0.239873399
C  C225  1  0.92350000  0.18990000  0.25965000  1.0 -0.0095699061
C  C226  1  0.07650000  0.31010000  0.75965000  1.0 -0.0159719861
C  C227  1  0.42350000  0.81010000  0.24035000  1.0 -0.0159719861
C  C228  1  0.57650000  0.68990000  0.74035000  1.0 -0.0159719861
C  C229  1  0.96170000  0.18360000  0.23138000  1.0 -0.1998360061
C  C230  1  0.03830000  0.31640000  0.73138000  1.0 -0.1998360061
C  C231  1  0.46170000  0.81640000  0.26862000  1.0 -0.1998360061
C  C232  1  0.53830000  0.68360000  0.76862000  1.0 -0.1998360061
C  C233  1  0.00200000  0.22250000  0.21735000  1.0 -0.0310133602
C  C234  1  0.99800000  0.27750000  0.71735000  1.0 -0.0310133602
C  C235  1  0.50200000  0.77750000  0.28265000  1.0 -0.0310133602
C  C236  1  0.49800000  0.72250000  0.78265000  1.0 -0.0310133602
C  C237  1  0.03660000  0.21780000  0.18634000  1.0 0.2628180928
C  C238  1  0.96340000  0.28220000  0.68634000  1.0 0.2628180928
C  C239  1  0.53660000  0.78220000  0.31366000  1.0 0.2628180928
C  C240  1  0.46340000  0.71780000  0.81366000  1.0 0.2628180928
C  C241  1  0.10150000  0.04130000  0.13469000  1.0 0.0509002669
C  C242  1  0.89850000  0.45870000  0.63469000  1.0 0.0509002669
C  C243  1  0.60150000  0.95870000  0.36531000  1.0 0.0509002669
C  C244  1  0.39850000  0.54130000  0.86531000  1.0 0.0509002669
C  C245  1  0.08720000  0.08420000  0.14938000  1.0 -0.2308959026
C  C246  1  0.91280000  0.41580000  0.64938000  1.0 -0.2308959026
C  C247  1  0.58720000  0.91580000  0.35062000  1.0 -0.2308959026
C  C248  1  0.41280000  0.58420000  0.85062000  1.0 -0.2308959026
C  C249  1  0.10960000  0.07780000  0.08971000  1.0 0.0509002669
C  C250  1  0.89040000  0.42220000  0.58971000  1.0 0.0509002669
C  C251  1  0.60960000  0.92220000  0.41029000  1.0 0.0509002669
C  C252  1  0.39040000  0.57780000  0.91029000  1.0 0.0509002669
C  C253  1  0.09730000  0.12200000  0.10244000  1.0 -0.2089797013
C  C254  1  0.90270000  0.37800000  0.60244000  1.0 -0.2089797013
C  C255  1  0.59730000  0.87800000  0.39756000  1.0 -0.2089797013
C  C256  1  0.40270000  0.62200000  0.89756000  1.0 -0.2089797013
C  C257  1  0.08630000  0.12580000  0.13266000  1.0 0.0116127304
C  C258  1  0.91370000  0.37420000  0.63266000  1.0 0.0116127304
C  C259  1  0.58630000  0.87420000  0.36734000  1.0 0.0116127304
C  C260  1  0.41370000  0.62580000  0.86734000  1.0 0.0116127304
C  C261  1  0.07330000  0.17330000  0.14681000  1.0 0.239031317
C  C262  1  0.92670000  0.32670000  0.64681000  1.0 0.239031317
C  C263  1  0.57330000  0.82670000  0.35319000  1.0 0.239031317
C  C264  1  0.42670000  0.67330000  0.85319000  1.0 0.239031317
C  C265  1  0.13220000  0.33880000  0.08218000  1.0 -0.0095699061
C  C266  1  0.86780000  0.16120000  0.58218000  1.0 -0.0095699061
C  C267  1  0.63220000  0.66120000  0.41782000  1.0 -0.0095699061
C  C268  1  0.36780000  0.83880000  0.91782000  1.0 -0.0095699061
C  C269  1  0.11730000  0.29610000  0.09676000  1.0 -0.2308959026
C  C270  1  0.88270000  0.20390000  0.59676000  1.0 -0.2308959026
C  C271  1  0.61730000  0.70390000  0.40324000  1.0 -0.2308959026
C  C272  1  0.38270000  0.79610000  0.90324000  1.0 -0.2308959026
C  C273  1  0.09220000  0.38240000  0.12322000  1.0 -0.0159719861
C  C274  1  0.90780000  0.11760000  0.62322000  1.0 -0.0095699061
C  C275  1  0.59220000  0.61760000  0.37678000  1.0 -0.0095699061
C  C276  1  0.40780000  0.88240000  0.87678000  1.0 -0.0095699061
C  C277  1  0.07690000  0.34180000  0.13937000  1.0 -0.239873399
C  C278  1  0.92310000  0.15820000  0.63937000  1.0 -0.239873399
C  C279  1  0.57690000  0.65820000  0.36063000  1.0 -0.239873399
C  C280  1  0.42310000  0.84180000  0.86063000  1.0 -0.239873399
C  C281  1  0.08960000  0.29760000  0.12642000  1.0 -0.0385223794
C  C282  1  0.91040000  0.20240000  0.62642000  1.0 -0.0385223794
C  C283  1  0.58960000  0.70240000  0.37358000  1.0 -0.0385223794
C  C284  1  0.41040000  0.79760000  0.87358000  1.0 -0.0385223794
C  C285  1  0.07540000  0.25320000  0.14329000  1.0 0.1970139783
C  C286  1  0.92460000  0.24680000  0.64329000  1.0 0.1970139783
C  C287  1  0.57540000  0.74680000  0.35671000  1.0 0.1970139783
C  C288  1  0.42460000  0.75320000  0.85671000  1.0 0.1970139783
C  C289  1  0.68720000  0.24610000  0.65470000  1.0 0.0383027065
C  C290  1  0.68720000  0.74610000  0.84530000  1.0 0.0383027065
C  C291  1  0.68820000  0.19680000  0.65810000  1.0 -0.1083744887
C  C292  1  0.68820000  0.69680000  0.84190000  1.0 -0.1083744887
C  C293  1  0.66110000  0.16730000  0.63490000  1.0 0.0383027065
C  C294  1  0.66110000  0.66730000  0.86510000  1.0 0.0383027065
C  C295  1  0.64090000  0.18750000  0.60750000  1.0 -0.0095699061
C  C296  1  0.64090000  0.68750000  0.89250000  1.0 -0.0095699061
C  C297  1  0.64190000  0.23660000  0.60380000  1.0 -0.0310133602
C  C298  1  0.64190000  0.73660000  0.89620000  1.0 -0.0310133602
C  C299  1  0.66400000  0.26630000  0.62760000  1.0 0.0222057356
C  C300  1  0.66400000  0.76630000  0.87240000  1.0 0.0222057356
C  C301  1  0.66300000  0.31620000  0.62450000  1.0 0.0222057356
C  C302  1  0.66300000  0.81620000  0.87550000  1.0 0.0222057356
C  C303  1  0.64700000  0.33680000  0.59690000  1.0 -0.1083744887
C  C304  1  0.64700000  0.83680000  0.90310000  1.0 -0.1083744887
C  C305  1  0.63800000  0.38580000  0.59380000  1.0 -0.0695279023
C  C306  1  0.63800000  0.88580000  0.90620000  1.0 -0.0695279023
C  C307  1  0.65400000  0.41520000  0.61820000  1.0 -0.054519517
C  C308  1  0.65400000  0.91520000  0.88180000  1.0 -0.0552318111
C  C309  1  0.66700000  0.39490000  0.64590000  1.0 -0.1217390389
C  C310  1  0.66700000  0.89490000  0.85410000  1.0 -0.1217390389
C  C311  1  0.67900000  0.34520000  0.64890000  1.0 0.0383027065
C  C312  1  0.67900000  0.84520000  0.85110000  1.0 0.0383027065
C  C313  1  0.70000000  0.32450000  0.67650000  1.0 0.0116127304
C  C314  1  0.70000000  0.82450000  0.82350000  1.0 0.0116127304
C  C315  1  0.71800000  0.35290000  0.70150000  1.0 -0.0159719861
C  C316  1  0.71800000  0.85290000  0.79850000  1.0 -0.0159719861
C  C317  1  0.74420000  0.33200000  0.72800000  1.0 0.026261614
C  C318  1  0.74420000  0.83200000  0.77200000  1.0 0.026261614
C  C319  1  0.75570000  0.28260000  0.73010000  1.0 0.026261614
C  C320  1  0.75570000  0.78260000  0.76990000  1.0 0.026261614
C  C321  1  0.73670000  0.25430000  0.70560000  1.0 -0.0017954433
C  C322  1  0.73670000  0.75430000  0.79440000  1.0 -0.0017954433
C  C323  1  0.70900000  0.27520000  0.67890000  1.0 0.0222057356
C  C324  1  0.70900000  0.77520000  0.82110000  1.0 0.0222057356
C  C325  1  0.67080000  0.08480000  0.66100000  1.0 0.2491135246
C  C326  1  0.67080000  0.58480000  0.83900000  1.0 0.2491135246
C  C327  1  0.67280000  0.03320000  0.65400000  1.0 -0.1083744887
C  C328  1  0.67280000  0.53320000  0.84600000  1.0 -0.1083744887
C  C329  1  0.67500000  0.99170000  0.67570000  1.0 0.0383027065
C  C330  1  0.67500000  0.49170000  0.82430000  1.0 0.0383027065
C  C331  1  0.58600000  0.98300000  0.69140000  1.0 -0.1585489609
C  C332  1  0.58600000  0.48300000  0.80860000  1.0 -0.1585489609
C  C333  1  0.58300000  0.95360000  0.71760000  1.0 -0.1695224016
C  C334  1  0.58300000  0.45360000  0.78240000  1.0 -0.1695224016
C  C335  1  0.49500000  0.93650000  0.73040000  1.0 -0.1585489609
C  C336  1  0.49500000  0.43650000  0.76960000  1.0 -0.1585489609
C  C337  1  0.49000000  0.90710000  0.75570000  1.0 -0.1368201228
C  C338  1  0.49000000  0.40710000  0.74430000  1.0 -0.1368201228
C  C339  1  0.40400000  0.90000000  0.77270000  1.0 -0.4034327321
C  C340  1  0.40400000  0.40000000  0.72730000  1.0 -0.4034327321
C  C341  1  0.69500000  0.81050000  0.82690000  1.0 0.026261614
C  C342  1  0.69500000  0.31050000  0.67310000  1.0 0.026261614
C  C343  1  0.72300000  0.83090000  0.80010000  1.0 -0.0385223794
C  C344  1  0.72300000  0.33090000  0.69990000  1.0 -0.0385223794
C  C345  1  0.75000000  0.80240000  0.77600000  1.0 0.0703267412
C  C346  1  0.75000000  0.30240000  0.72400000  1.0 0.0703267412
C  C347  1  0.75100000  0.75290000  0.77890000  1.0 -0.0897139718
C  C348  1  0.75100000  0.25290000  0.72110000  1.0 -0.0897139718
C  C349  1  0.72400000  0.73170000  0.80500000  1.0 -0.0999693197
C  C350  1  0.72400000  0.23170000  0.69500000  1.0 -0.0999693197
C  C351  1  0.69700000  0.76030000  0.82890000  1.0 0.0509002669
C  C352  1  0.69700000  0.26030000  0.67110000  1.0 0.0509002669
C  C353  1  0.67300000  0.73890000  0.85600000  1.0 0.0222057356
C  C354  1  0.67300000  0.23890000  0.64400000  1.0 0.0222057356
C  C355  1  0.67300000  0.68900000  0.85920000  1.0 0.0026484452
C  C356  1  0.67300000  0.18900000  0.64080000  1.0 0.0026484452
C  C357  1  0.64800000  0.66780000  0.88570000  1.0 -0.0095699061
C  C358  1  0.64800000  0.16780000  0.61430000  1.0 -0.0095699061
C  C359  1  0.62770000  0.69600000  0.91020000  1.0 -0.0999693197
C  C360  1  0.62770000  0.19600000  0.58980000  1.0 -0.0999693197
C  C361  1  0.62800000  0.74560000  0.90750000  1.0 0.0116127304
C  C362  1  0.62800000  0.24560000  0.59250000  1.0 0.0116127304
C  C363  1  0.65400000  0.76740000  0.88060000  1.0 0.0116127304
C  C364  1  0.65400000  0.26740000  0.61940000  1.0 0.0116127304
C  C365  1  0.65400000  0.81860000  0.87890000  1.0 0.0383027065
C  C366  1  0.65400000  0.31860000  0.62110000  1.0 0.0383027065
C  C367  1  0.63800000  0.84770000  0.90390000  1.0 -0.0897139718
C  C368  1  0.63800000  0.34770000  0.59610000  1.0 -0.0897139718
C  C369  1  0.64300000  0.89720000  0.90250000  1.0 -0.0695279023
C  C370  1  0.64300000  0.39720000  0.59750000  1.0 -0.0695279023
C  C371  1  0.64900000  0.91930000  0.87460000  1.0 -0.0552318111
C  C372  1  0.64900000  0.41930000  0.62540000  1.0 -0.0552318111
C  C373  1  0.67100000  0.89070000  0.85010000  1.0 -0.1279063675
C  C374  1  0.67100000  0.39070000  0.64990000  1.0 -0.1279063675
C  C375  1  0.66900000  0.84000000  0.85120000  1.0 0.026261614
C  C376  1  0.66900000  0.34000000  0.64880000  1.0 0.026261614
C  C377  1  0.82300000  0.87400000  0.74690000  1.0 0.0703267412
C  C378  1  0.82300000  0.37400000  0.75310000  1.0 0.0703267412
C  C379  1  0.86700000  0.88360000  0.71950000  1.0 -0.2481174671
C  C380  1  0.86700000  0.38360000  0.78050000  1.0 -0.2481174671
C  C381  1  0.93200000  0.91910000  0.71550000  1.0 -0.0999693197
C  C382  1  0.93200000  0.41910000  0.78450000  1.0 -0.0999693197
C  C383  1  0.96000000  0.93190000  0.68450000  1.0 -0.0310133602
C  C384  1  0.96000000  0.43190000  0.81550000  1.0 -0.0310133602
C  C385  1  0.04400000  0.96380000  0.68180000  1.0 -0.0779087531
C  C386  1  0.04400000  0.46380000  0.81820000  1.0 -0.0779087531
C  C387  1  0.12900000  0.95440000  0.70080000  1.0 -0.1083744887
C  C388  1  0.12900000  0.45440000  0.79920000  1.0 -0.1083744887
C  C389  1  0.20400000  0.99330000  0.69890000  1.0 -0.1368201228
C  C390  1  0.20400000  0.49330000  0.80110000  1.0 -0.1368201228
C  C391  1  0.29900000  0.97900000  0.71230000  1.0 -0.4220674314
C  C392  1  0.29900000  0.47900000  0.78770000  1.0 -0.4220674314
C  C393  1  0.74600000  0.01570000  0.67240000  1.0 -0.0385223794
C  C394  1  0.74600000  0.51570000  0.82760000  1.0 -0.0385223794
C  C395  1  0.74600000  0.96070000  0.67620000  1.0 -0.0095699061
C  C396  1  0.74600000  0.46070000  0.82380000  1.0 -0.0095699061
C  C397  1  0.81100000  0.93850000  0.69260000  1.0 -0.2308959026
C  C398  1  0.81100000  0.43850000  0.80740000  1.0 -0.2308959026
C  C399  1  0.89700000  0.93800000  0.70440000  1.0 -0.0695279023
C  C400  1  0.89700000  0.43800000  0.79560000  1.0 -0.0695279023
C  C401  1  0.98700000  0.92400000  0.70280000  1.0 -0.0695279023
C  C402  1  0.98700000  0.42400000  0.79720000  1.0 -0.0695279023
C  C403  1  0.07200000  0.93300000  0.69130000  1.0 -0.0999693197
C  C404  1  0.07200000  0.43300000  0.80870000  1.0 -0.0999693197
C  C405  1  0.31280000  0.25390000  0.15470000  1.0 0.0383027065
C  C406  1  0.31280000  0.75390000  0.34530000  1.0 0.0383027065
C  C407  1  0.31180000  0.30320000  0.15810000  1.0 -0.1083744887
C  C408  1  0.31180000  0.80320000  0.34190000  1.0 -0.1083744887
C  C409  1  0.33890000  0.33270000  0.13490000  1.0 0.0383027065
C  C410  1  0.33890000  0.83270000  0.36510000  1.0 0.0383027065
C  C411  1  0.35910000  0.31250000  0.10750000  1.0 -0.0095699061
C  C412  1  0.35910000  0.81250000  0.39250000  1.0 -0.0095699061
C  C413  1  0.35810000  0.26340000  0.10380000  1.0 -0.0310133602
C  C414  1  0.35810000  0.76340000  0.39620000  1.0 -0.0310133602
C  C415  1  0.33600000  0.23370000  0.12760000  1.0 0.0222057356
C  C416  1  0.33600000  0.73370000  0.37240000  1.0 0.0222057356
C  C417  1  0.33700000  0.18380000  0.12450000  1.0 0.0222057356
C  C418  1  0.33700000  0.68380000  0.37550000  1.0 0.0222057356
C  C419  1  0.35300000  0.16320000  0.09690000  1.0 -0.1083744887
C  C420  1  0.35300000  0.66320000  0.40310000  1.0 -0.1083744887
C  C421  1  0.36200000  0.11420000  0.09380000  1.0 -0.0695279023
C  C422  1  0.36200000  0.61420000  0.40620000  1.0 -0.0695279023
C  C423  1  0.34600000  0.08480000  0.11820000  1.0 -0.054519517
C  C424  1  0.34600000  0.58480000  0.38180000  1.0 -0.054519517
C  C425  1  0.33300000  0.10510000  0.14590000  1.0 -0.1217390389
C  C426  1  0.33300000  0.60510000  0.35410000  1.0 -0.1217390389
C  C427  1  0.32100000  0.15480000  0.14890000  1.0 0.0383027065
C  C428  1  0.32100000  0.65480000  0.35110000  1.0 0.0383027065
C  C429  1  0.30000000  0.17550000  0.17650000  1.0 0.0116127304
C  C430  1  0.30000000  0.67550000  0.32350000  1.0 0.0116127304
C  C431  1  0.28200000  0.14710000  0.20150000  1.0 -0.0159719861
C  C432  1  0.28200000  0.64710000  0.29850000  1.0 -0.0159719861
C  C433  1  0.25580000  0.16800000  0.22800000  1.0 0.026261614
C  C434  1  0.25580000  0.66800000  0.27200000  1.0 0.026261614
C  C435  1  0.24430000  0.21740000  0.23010000  1.0 0.026261614
C  C436  1  0.24430000  0.71740000  0.26990000  1.0 0.026261614
C  C437  1  0.26330000  0.24570000  0.20560000  1.0 -0.0017954433
C  C438  1  0.26330000  0.74570000  0.29440000  1.0 -0.0017954433
C  C439  1  0.29100000  0.22480000  0.17890000  1.0 0.0222057356
C  C440  1  0.29100000  0.72480000  0.32110000  1.0 0.0222057356
C  C441  1  0.32920000  0.41520000  0.16100000  1.0 0.2491135246
C  C442  1  0.32920000  0.91520000  0.33900000  1.0 0.2491135246
C  C443  1  0.32720000  0.46680000  0.15400000  1.0 -0.1083744887
C  C444  1  0.32720000  0.96680000  0.34600000  1.0 -0.1083744887
C  C445  1  0.32500000  0.50830000  0.17570000  1.0 0.0383027065
C  C446  1  0.32500000  0.00830000  0.32430000  1.0 0.0383027065
C  C447  1  0.41400000  0.51700000  0.19140000  1.0 -0.1585489609
C  C448  1  0.41400000  0.01700000  0.30860000  1.0 -0.1585489609
C  C449  1  0.41700000  0.54640000  0.21760000  1.0 -0.1695224016
C  C450  1  0.41700000  0.04640000  0.28240000  1.0 -0.1695224016
C  C451  1  0.50500000  0.56350000  0.23040000  1.0 -0.1585489609
C  C452  1  0.50500000  0.06350000  0.26960000  1.0 -0.1585489609
C  C453  1  0.51000000  0.59290000  0.25570000  1.0 -0.1368201228
C  C454  1  0.51000000  0.09290000  0.24430000  1.0 -0.1368201228
C  C455  1  0.59600000  0.60000000  0.27270000  1.0 -0.4034327321
C  C456  1  0.59600000  0.10000000  0.22730000  1.0 -0.4034327321
C  C457  1  0.30500000  0.68950000  0.32690000  1.0 0.026261614
C  C458  1  0.30500000  0.18950000  0.17310000  1.0 0.026261614
C  C459  1  0.27700000  0.66910000  0.30010000  1.0 -0.0385223794
C  C460  1  0.27700000  0.16910000  0.19990000  1.0 -0.0385223794
C  C461  1  0.25000000  0.69760000  0.27600000  1.0 0.0703267412
C  C462  1  0.25000000  0.19760000  0.22400000  1.0 0.0703267412
C  C463  1  0.24900000  0.74710000  0.27890000  1.0 -0.0897139718
C  C464  1  0.24900000  0.24710000  0.22110000  1.0 -0.0897139718
C  C465  1  0.27600000  0.76830000  0.30500000  1.0 -0.0999693197
C  C466  1  0.27600000  0.26830000  0.19500000  1.0 -0.0999693197
C  C467  1  0.30300000  0.73970000  0.32890000  1.0 0.0509002669
C  C468  1  0.30300000  0.23970000  0.17110000  1.0 0.0509002669
C  C469  1  0.32700000  0.76110000  0.35600000  1.0 0.0222057356
C  C470  1  0.32700000  0.26110000  0.14400000  1.0 0.0222057356
C  C471  1  0.32700000  0.81100000  0.35920000  1.0 0.0026484452
C  C472  1  0.32700000  0.31100000  0.14080000  1.0 0.0026484452
C  C473  1  0.35200000  0.83220000  0.38570000  1.0 -0.0095699061
C  C474  1  0.35200000  0.33220000  0.11430000  1.0 -0.0095699061
C  C475  1  0.37230000  0.80400000  0.41020000  1.0 -0.0999693197
C  C476  1  0.37230000  0.30400000  0.08980000  1.0 -0.0999693197
C  C477  1  0.37200000  0.75440000  0.40750000  1.0 0.0116127304
C  C478  1  0.37200000  0.25440000  0.09250000  1.0 0.0116127304
C  C479  1  0.34600000  0.73260000  0.38060000  1.0 0.0116127304
C  C480  1  0.34600000  0.23260000  0.11940000  1.0 0.0116127304
C  C481  1  0.34600000  0.68140000  0.37890000  1.0 0.0383027065
C  C482  1  0.34600000  0.18140000  0.12110000  1.0 0.0383027065
C  C483  1  0.36200000  0.65230000  0.40390000  1.0 -0.0897139718
C  C484  1  0.36200000  0.15230000  0.09610000  1.0 -0.0897139718
C  C485  1  0.35700000  0.60280000  0.40250000  1.0 -0.0695279023
C  C486  1  0.35700000  0.10280000  0.09750000  1.0 -0.0695279023
C  C487  1  0.35100000  0.58070000  0.37460000  1.0 -0.0552318111
C  C488  1  0.35100000  0.08070000  0.12540000  1.0 -0.0552318111
C  C489  1  0.32900000  0.60930000  0.35010000  1.0 -0.1279063675
C  C490  1  0.32900000  0.10930000  0.14990000  1.0 -0.1279063675
C  C491  1  0.33100000  0.66000000  0.35120000  1.0 0.026261614
C  C492  1  0.33100000  0.16000000  0.14880000  1.0 0.026261614
C  C493  1  0.17700000  0.62600000  0.24690000  1.0 0.0703267412
C  C494  1  0.17700000  0.12600000  0.25310000  1.0 0.0703267412
C  C495  1  0.13300000  0.61640000  0.21950000  1.0 -0.2481174671
C  C496  1  0.13300000  0.11640000  0.28050000  1.0 -0.2481174671
C  C497  1  0.06800000  0.58090000  0.21550000  1.0 -0.0999693197
C  C498  1  0.06800000  0.08090000  0.28450000  1.0 -0.0999693197
C  C499  1  0.04000000  0.56810000  0.18450000  1.0 -0.0310133602
C  C500  1  0.04000000  0.06810000  0.31550000  1.0 -0.0310133602
C  C501  1  0.95600000  0.53620000  0.18180000  1.0 -0.0779087531
C  C502  1  0.95600000  0.03620000  0.31820000  1.0 -0.0779087531
C  C503  1  0.87100000  0.54560000  0.20080000  1.0 -0.1083744887
C  C504  1  0.87100000  0.04560000  0.29920000  1.0 -0.1083744887
C  C505  1  0.79600000  0.50670000  0.19890000  1.0 -0.1368201228
C  C506  1  0.79600000  0.00670000  0.30110000  1.0 -0.1368201228
C  C507  1  0.70100000  0.52100000  0.21230000  1.0 -0.4220674314
C  C508  1  0.70100000  0.02100000  0.28770000  1.0 -0.4220674314
C  C509  1  0.25400000  0.48430000  0.17240000  1.0 -0.0385223794
C  C510  1  0.25400000  0.98430000  0.32760000  1.0 -0.0385223794
C  C511  1  0.25400000  0.53930000  0.17620000  1.0 -0.0095699061
C  C512  1  0.25400000  0.03930000  0.32380000  1.0 -0.0095699061
C  C513  1  0.18900000  0.56150000  0.19260000  1.0 -0.2308959026
C  C514  1  0.18900000  0.06150000  0.30740000  1.0 -0.2308959026
C  C515  1  0.10300000  0.56200000  0.20440000  1.0 -0.0695279023
C  C516  1  0.10300000  0.06200000  0.29560000  1.0 -0.0695279023
C  C517  1  0.01300000  0.57600000  0.20280000  1.0 -0.0695279023
C  C518  1  0.01300000  0.07600000  0.29720000  1.0 -0.0695279023
C  C519  1  0.92800000  0.56700000  0.19130000  1.0 -0.0999693197
C  C520  1  0.92800000  0.06700000  0.30870000  1.0 -0.0999693197
C  C521  1  0.18720000  0.75390000  0.84530000  1.0 0.0383027065
C  C522  1  0.18720000  0.25390000  0.65470000  1.0 0.0383027065
C  C523  1  0.18820000  0.80320000  0.84190000  1.0 -0.1083744887
C  C524  1  0.18820000  0.30320000  0.65810000  1.0 -0.1083744887
C  C525  1  0.16110000  0.83270000  0.86510000  1.0 0.0383027065
C  C526  1  0.16110000  0.33270000  0.63490000  1.0 0.0383027065
C  C527  1  0.14090000  0.81250000  0.89250000  1.0 -0.0095699061
C  C528  1  0.14090000  0.31250000  0.60750000  1.0 -0.0095699061
C  C529  1  0.14190000  0.76340000  0.89620000  1.0 -0.0310133602
C  C530  1  0.14190000  0.26340000  0.60380000  1.0 -0.0310133602
C  C531  1  0.16400000  0.73370000  0.87240000  1.0 0.0222057356
C  C532  1  0.16400000  0.23370000  0.62760000  1.0 0.0222057356
C  C533  1  0.16300000  0.68380000  0.87550000  1.0 0.0222057356
C  C534  1  0.16300000  0.18380000  0.62450000  1.0 0.0222057356
C  C535  1  0.14700000  0.66320000  0.90310000  1.0 -0.1083744887
C  C536  1  0.14700000  0.16320000  0.59690000  1.0 -0.1083744887
C  C537  1  0.13800000  0.61420000  0.90620000  1.0 -0.0695279023
C  C538  1  0.13800000  0.11420000  0.59380000  1.0 -0.0695279023
C  C539  1  0.15400000  0.58480000  0.88180000  1.0 -0.0552318111
C  C540  1  0.15400000  0.08480000  0.61820000  1.0 -0.054519517
C  C541  1  0.16700000  0.60510000  0.85410000  1.0 -0.1217390389
C  C542  1  0.16700000  0.10510000  0.64590000  1.0 -0.1217390389
C  C543  1  0.17900000  0.65480000  0.85110000  1.0 0.0383027065
C  C544  1  0.17900000  0.15480000  0.64890000  1.0 0.0383027065
C  C545  1  0.20000000  0.67550000  0.82350000  1.0 0.0116127304
C  C546  1  0.20000000  0.17550000  0.67650000  1.0 0.0116127304
C  C547  1  0.21800000  0.64710000  0.79850000  1.0 -0.0159719861
C  C548  1  0.21800000  0.14710000  0.70150000  1.0 -0.0159719861
C  C549  1  0.24420000  0.66800000  0.77200000  1.0 0.026261614
C  C550  1  0.24420000  0.16800000  0.72800000  1.0 0.026261614
C  C551  1  0.25570000  0.71740000  0.76990000  1.0 0.026261614
C  C552  1  0.25570000  0.21740000  0.73010000  1.0 0.026261614
C  C553  1  0.23670000  0.74570000  0.79440000  1.0 -0.0017954433
C  C554  1  0.23670000  0.24570000  0.70560000  1.0 -0.0017954433
C  C555  1  0.20900000  0.72480000  0.82110000  1.0 0.0222057356
C  C556  1  0.20900000  0.22480000  0.67890000  1.0 0.0222057356
C  C557  1  0.17080000  0.91520000  0.83900000  1.0 0.2491135246
C  C558  1  0.17080000  0.41520000  0.66100000  1.0 0.2491135246
C  C559  1  0.17280000  0.96680000  0.84600000  1.0 -0.1083744887
C  C560  1  0.17280000  0.46680000  0.65400000  1.0 -0.1083744887
C  C561  1  0.17500000  0.00830000  0.82430000  1.0 0.0383027065
C  C562  1  0.17500000  0.50830000  0.67570000  1.0 0.0383027065
C  C563  1  0.08600000  0.01700000  0.80860000  1.0 -0.1585489609
C  C564  1  0.08600000  0.51700000  0.69140000  1.0 -0.1585489609
C  C565  1  0.08300000  0.04640000  0.78240000  1.0 -0.1695224016
C  C566  1  0.08300000  0.54640000  0.71760000  1.0 -0.1695224016
C  C567  1  0.99500000  0.06350000  0.76960000  1.0 -0.1585489609
C  C568  1  0.99500000  0.56350000  0.73040000  1.0 -0.1585489609
C  C569  1  0.99000000  0.09290000  0.74430000  1.0 -0.1368201228
C  C570  1  0.99000000  0.59290000  0.75570000  1.0 -0.1368201228
C  C571  1  0.90400000  0.10000000  0.72730000  1.0 -0.4034327321
C  C572  1  0.90400000  0.60000000  0.77270000  1.0 -0.4034327321
C  C573  1  0.19500000  0.18950000  0.67310000  1.0 0.026261614
C  C574  1  0.19500000  0.68950000  0.82690000  1.0 0.026261614
C  C575  1  0.22300000  0.16910000  0.69990000  1.0 -0.0385223794
C  C576  1  0.22300000  0.66910000  0.80010000  1.0 -0.0385223794
C  C577  1  0.25000000  0.19760000  0.72400000  1.0 0.0703267412
C  C578  1  0.25000000  0.69760000  0.77600000  1.0 0.0703267412
C  C579  1  0.25100000  0.24710000  0.72110000  1.0 -0.0897139718
C  C580  1  0.25100000  0.74710000  0.77890000  1.0 -0.0897139718
C  C581  1  0.22400000  0.26830000  0.69500000  1.0 -0.0999693197
C  C582  1  0.22400000  0.76830000  0.80500000  1.0 -0.0999693197
C  C583  1  0.19700000  0.23970000  0.67110000  1.0 0.0509002669
C  C584  1  0.19700000  0.73970000  0.82890000  1.0 0.0509002669
C  C585  1  0.17300000  0.26110000  0.64400000  1.0 0.0222057356
C  C586  1  0.17300000  0.76110000  0.85600000  1.0 0.0222057356
C  C587  1  0.17300000  0.31100000  0.64080000  1.0 0.0026484452
C  C588  1  0.17300000  0.81100000  0.85920000  1.0 0.0026484452
C  C589  1  0.14800000  0.33220000  0.61430000  1.0 -0.0095699061
C  C590  1  0.14800000  0.83220000  0.88570000  1.0 -0.0095699061
C  C591  1  0.12770000  0.30400000  0.58980000  1.0 -0.0999693197
C  C592  1  0.12770000  0.80400000  0.91020000  1.0 -0.0999693197
C  C593  1  0.12800000  0.25440000  0.59250000  1.0 0.0116127304
C  C594  1  0.12800000  0.75440000  0.90750000  1.0 0.0116127304
C  C595  1  0.15400000  0.23260000  0.61940000  1.0 0.0116127304
C  C596  1  0.15400000  0.73260000  0.88060000  1.0 0.0116127304
C  C597  1  0.15400000  0.18140000  0.62110000  1.0 0.0383027065
C  C598  1  0.15400000  0.68140000  0.87890000  1.0 0.0383027065
C  C599  1  0.13800000  0.15230000  0.59610000  1.0 -0.0897139718
C  C600  1  0.13800000  0.65230000  0.90390000  1.0 -0.0897139718
C  C601  1  0.14300000  0.10280000  0.59750000  1.0 -0.0695279023
C  C602  1  0.14300000  0.60280000  0.90250000  1.0 -0.0695279023
C  C603  1  0.14900000  0.08070000  0.62540000  1.0 -0.0552318111
C  C604  1  0.14900000  0.58070000  0.87460000  1.0 -0.0552318111
C  C605  1  0.17100000  0.10930000  0.64990000  1.0 -0.1279063675
C  C606  1  0.17100000  0.60930000  0.85010000  1.0 -0.1279063675
C  C607  1  0.16900000  0.16000000  0.64880000  1.0 0.026261614
C  C608  1  0.16900000  0.66000000  0.85120000  1.0 0.026261614
C  C609  1  0.32300000  0.12600000  0.75310000  1.0 0.0703267412
C  C610  1  0.32300000  0.62600000  0.74690000  1.0 0.0703267412
C  C611  1  0.36700000  0.11640000  0.78050000  1.0 -0.2481174671
C  C612  1  0.36700000  0.61640000  0.71950000  1.0 -0.2481174671
C  C613  1  0.43200000  0.08090000  0.78450000  1.0 -0.0999693197
C  C614  1  0.43200000  0.58090000  0.71550000  1.0 -0.0999693197
C  C615  1  0.46000000  0.06810000  0.81550000  1.0 -0.0310133602
C  C616  1  0.46000000  0.56810000  0.68450000  1.0 -0.0310133602
C  C617  1  0.54400000  0.03620000  0.81820000  1.0 -0.0779087531
C  C618  1  0.54400000  0.53620000  0.68180000  1.0 -0.0779087531
C  C619  1  0.62900000  0.04560000  0.79920000  1.0 -0.1083744887
C  C620  1  0.62900000  0.54560000  0.70080000  1.0 -0.1083744887
C  C621  1  0.70400000  0.00670000  0.80110000  1.0 -0.1368201228
C  C622  1  0.70400000  0.50670000  0.69890000  1.0 -0.1368201228
C  C623  1  0.79900000  0.02100000  0.78770000  1.0 -0.4220674314
C  C624  1  0.79900000  0.52100000  0.71230000  1.0 -0.4220674314
C  C625  1  0.24600000  0.98430000  0.82760000  1.0 -0.0385223794
C  C626  1  0.24600000  0.48430000  0.67240000  1.0 -0.0385223794
C  C627  1  0.24600000  0.03930000  0.82380000  1.0 -0.0095699061
C  C628  1  0.24600000  0.53930000  0.67620000  1.0 -0.0095699061
C  C629  1  0.31100000  0.06150000  0.80740000  1.0 -0.2308959026
C  C630  1  0.31100000  0.56150000  0.69260000  1.0 -0.2308959026
C  C631  1  0.39700000  0.06200000  0.79560000  1.0 -0.0695279023
C  C632  1  0.39700000  0.56200000  0.70440000  1.0 -0.0695279023
C  C633  1  0.48700000  0.07600000  0.79720000  1.0 -0.0695279023
C  C634  1  0.48700000  0.57600000  0.70280000  1.0 -0.0695279023
C  C635  1  0.57200000  0.06700000  0.80870000  1.0 -0.0999693197
C  C636  1  0.57200000  0.56700000  0.69130000  1.0 -0.0999693197
C  C637  1  0.81280000  0.74610000  0.34530000  1.0 0.0383027065
C  C638  1  0.81280000  0.24610000  0.15470000  1.0 0.0383027065
C  C639  1  0.81180000  0.69680000  0.34190000  1.0 -0.1083744887
C  C640  1  0.81180000  0.19680000  0.15810000  1.0 -0.1083744887
C  C641  1  0.83890000  0.66730000  0.36510000  1.0 0.0383027065
C  C642  1  0.83890000  0.16730000  0.13490000  1.0 0.0383027065
C  C643  1  0.85910000  0.68750000  0.39250000  1.0 -0.0095699061
C  C644  1  0.85910000  0.18750000  0.10750000  1.0 -0.0095699061
C  C645  1  0.85810000  0.73660000  0.39620000  1.0 -0.0310133602
C  C646  1  0.85810000  0.23660000  0.10380000  1.0 -0.0310133602
C  C647  1  0.83600000  0.76630000  0.37240000  1.0 0.0222057356
C  C648  1  0.83600000  0.26630000  0.12760000  1.0 0.0222057356
C  C649  1  0.83700000  0.81620000  0.37550000  1.0 0.0222057356
C  C650  1  0.83700000  0.31620000  0.12450000  1.0 0.0222057356
C  C651  1  0.85300000  0.83680000  0.40310000  1.0 -0.1083744887
C  C652  1  0.85300000  0.33680000  0.09690000  1.0 -0.1083744887
C  C653  1  0.86200000  0.88580000  0.40620000  1.0 -0.0695279023
C  C654  1  0.86200000  0.38580000  0.09380000  1.0 -0.0695279023
C  C655  1  0.84600000  0.91520000  0.38180000  1.0 -0.054519517
C  C656  1  0.84600000  0.41520000  0.11820000  1.0 -0.054519517
C  C657  1  0.83300000  0.89490000  0.35410000  1.0 -0.1217390389
C  C658  1  0.83300000  0.39490000  0.14590000  1.0 -0.1217390389
C  C659  1  0.82100000  0.84520000  0.35110000  1.0 0.0383027065
C  C660  1  0.82100000  0.34520000  0.14890000  1.0 0.0383027065
C  C661  1  0.80000000  0.82450000  0.32350000  1.0 0.0116127304
C  C662  1  0.80000000  0.32450000  0.17650000  1.0 0.0116127304
C  C663  1  0.78200000  0.85290000  0.29850000  1.0 -0.0159719861
C  C664  1  0.78200000  0.35290000  0.20150000  1.0 -0.0159719861
C  C665  1  0.75580000  0.83200000  0.27200000  1.0 0.026261614
C  C666  1  0.75580000  0.33200000  0.22800000  1.0 0.026261614
C  C667  1  0.74430000  0.78260000  0.26990000  1.0 0.026261614
C  C668  1  0.74430000  0.28260000  0.23010000  1.0 0.026261614
C  C669  1  0.76330000  0.75430000  0.29440000  1.0 -0.0017954433
C  C670  1  0.76330000  0.25430000  0.20560000  1.0 -0.0017954433
C  C671  1  0.79100000  0.77520000  0.32110000  1.0 0.0222057356
C  C672  1  0.79100000  0.27520000  0.17890000  1.0 0.0222057356
C  C673  1  0.82920000  0.58480000  0.33900000  1.0 0.2491135246
C  C674  1  0.82920000  0.08480000  0.16100000  1.0 0.2491135246
C  C675  1  0.82720000  0.53320000  0.34600000  1.0 -0.1083744887
C  C676  1  0.82720000  0.03320000  0.15400000  1.0 -0.1083744887
C  C677  1  0.82500000  0.49170000  0.32430000  1.0 0.0383027065
C  C678  1  0.82500000  0.99170000  0.17570000  1.0 0.0383027065
C  C679  1  0.91400000  0.48300000  0.30860000  1.0 -0.1585489609
C  C680  1  0.91400000  0.98300000  0.19140000  1.0 -0.1585489609
C  C681  1  0.91700000  0.45360000  0.28240000  1.0 -0.1695224016
C  C682  1  0.91700000  0.95360000  0.21760000  1.0 -0.1695224016
C  C683  1  0.00500000  0.43650000  0.26960000  1.0 -0.1585489609
C  C684  1  0.00500000  0.93650000  0.23040000  1.0 -0.1585489609
C  C685  1  0.01000000  0.40710000  0.24430000  1.0 -0.1368201228
C  C686  1  0.01000000  0.90710000  0.25570000  1.0 -0.1368201228
C  C687  1  0.09600000  0.40000000  0.22730000  1.0 -0.4034327321
C  C688  1  0.09600000  0.90000000  0.27270000  1.0 -0.4034327321
C  C689  1  0.80500000  0.31050000  0.17310000  1.0 0.026261614
C  C690  1  0.80500000  0.81050000  0.32690000  1.0 0.026261614
C  C691  1  0.77700000  0.33090000  0.19990000  1.0 -0.0385223794
C  C692  1  0.77700000  0.83090000  0.30010000  1.0 -0.0385223794
C  C693  1  0.75000000  0.30240000  0.22400000  1.0 0.0703267412
C  C694  1  0.75000000  0.80240000  0.27600000  1.0 0.0703267412
C  C695  1  0.74900000  0.25290000  0.22110000  1.0 -0.0897139718
C  C696  1  0.74900000  0.75290000  0.27890000  1.0 -0.0897139718
C  C697  1  0.77600000  0.23170000  0.19500000  1.0 -0.0897139718
C  C698  1  0.77600000  0.73170000  0.30500000  1.0 -0.0999693197
C  C699  1  0.80300000  0.26030000  0.17110000  1.0 0.0509002669
C  C700  1  0.80300000  0.76030000  0.32890000  1.0 0.0509002669
C  C701  1  0.82700000  0.23890000  0.14400000  1.0 0.0222057356
C  C702  1  0.82700000  0.73890000  0.35600000  1.0 0.0222057356
C  C703  1  0.82700000  0.18900000  0.14080000  1.0 0.0026484452
C  C704  1  0.82700000  0.68900000  0.35920000  1.0 0.0026484452
C  C705  1  0.85200000  0.16780000  0.11430000  1.0 -0.0095699061
C  C706  1  0.85200000  0.66780000  0.38570000  1.0 -0.0095699061
C  C707  1  0.87230000  0.19600000  0.08980000  1.0 -0.0999693197
C  C708  1  0.87230000  0.69600000  0.41020000  1.0 -0.0999693197
C  C709  1  0.87200000  0.24560000  0.09250000  1.0 0.0116127304
C  C710  1  0.87200000  0.74560000  0.40750000  1.0 0.0116127304
C  C711  1  0.84600000  0.26740000  0.11940000  1.0 0.0116127304
C  C712  1  0.84600000  0.76740000  0.38060000  1.0 0.0116127304
C  C713  1  0.84600000  0.31860000  0.12110000  1.0 0.0383027065
C  C714  1  0.84600000  0.81860000  0.37890000  1.0 0.0383027065
C  C715  1  0.86200000  0.34770000  0.09610000  1.0 -0.0897139718
C  C716  1  0.86200000  0.84770000  0.40390000  1.0 -0.0897139718
C  C717  1  0.85700000  0.39720000  0.09750000  1.0 -0.0695279023
C  C718  1  0.85700000  0.89720000  0.40250000  1.0 -0.0695279023
C  C719  1  0.85100000  0.41930000  0.12540000  1.0 -0.054519517
C  C720  1  0.85100000  0.91930000  0.37460000  1.0 -0.0552318111
C  C721  1  0.82900000  0.39070000  0.14990000  1.0 -0.1279063675
C  C722  1  0.82900000  0.89070000  0.35010000  1.0 -0.1279063675
C  C723  1  0.83100000  0.34000000  0.14880000  1.0 0.026261614
C  C724  1  0.83100000  0.84000000  0.35120000  1.0 0.026261614
C  C725  1  0.67700000  0.37400000  0.25310000  1.0 0.0703267412
C  C726  1  0.67700000  0.87400000  0.24690000  1.0 0.0703267412
C  C727  1  0.63300000  0.38360000  0.28050000  1.0 -0.2481174671
C  C728  1  0.63300000  0.88360000  0.21950000  1.0 -0.2481174671
C  C729  1  0.56800000  0.41910000  0.28450000  1.0 -0.0999693197
C  C730  1  0.56800000  0.91910000  0.21550000  1.0 -0.0999693197
C  C731  1  0.54000000  0.43190000  0.31550000  1.0 -0.0310133602
C  C732  1  0.54000000  0.93190000  0.18450000  1.0 -0.0310133602
C  C733  1  0.45600000  0.46380000  0.31820000  1.0 -0.0779087531
C  C734  1  0.45600000  0.96380000  0.18180000  1.0 -0.0779087531
C  C735  1  0.37100000  0.45440000  0.29920000  1.0 -0.1083744887
C  C736  1  0.37100000  0.95440000  0.20080000  1.0 -0.1083744887
C  C737  1  0.29600000  0.49330000  0.30110000  1.0 -0.1368201228
C  C738  1  0.29600000  0.99330000  0.19890000  1.0 -0.1368201228
C  C739  1  0.20100000  0.47900000  0.28770000  1.0 -0.4220674314
C  C740  1  0.20100000  0.97900000  0.21230000  1.0 -0.4220674314
C  C741  1  0.75400000  0.51570000  0.32760000  1.0 -0.0385223794
C  C742  1  0.75400000  0.01570000  0.17240000  1.0 -0.0385223794
C  C743  1  0.75400000  0.46070000  0.32380000  1.0 -0.0095699061
C  C744  1  0.75400000  0.96070000  0.17620000  1.0 -0.0095699061
C  C745  1  0.68900000  0.43850000  0.30740000  1.0 -0.2308959026
C  C746  1  0.68900000  0.93850000  0.19260000  1.0 -0.2308959026
C  C747  1  0.60300000  0.43800000  0.29560000  1.0 -0.0695279023
C  C748  1  0.60300000  0.93800000  0.20440000  1.0 -0.0695279023
C  C749  1  0.51300000  0.42400000  0.29720000  1.0 -0.0695279023
C  C750  1  0.51300000  0.92400000  0.20280000  1.0 -0.0695279023
C  C751  1  0.42800000  0.43300000  0.30870000  1.0 -0.0999693197
C  C752  1  0.42800000  0.93300000  0.19130000  1.0 -0.0999693197
I  I1  1  0.07314000  0.00974000  0.39885000  1.0 -0.4293927901
I  I2  1  0.92686000  0.49026000  0.89885000  1.0 -0.4293927901
I  I3  1  0.57314000  0.99026000  0.10115000  1.0 -0.4293927901
I  I4  1  0.42686000  0.50974000  0.60115000  1.0 -0.4293927901
I  I5  1  0.28193000  0.99062000  0.53548000  1.0 -0.4599932522
I  I6  1  0.71807000  0.50938000  0.03548000  1.0 -0.4599932522
I  I7  1  0.78193000  0.00938000  0.96452000  1.0 -0.4599932522
I  I8  1  0.21807000  0.49062000  0.46452000  1.0 -0.4599932522
I  I9  1  0.31041000  0.80195000  0.69430000  1.0 -0.477456724
I  I10  1  0.68959000  0.69805000  0.19430000  1.0 -0.477456724
I  I11  1  0.81041000  0.19805000  0.80570000  1.0 -0.477456724
I  I12  1  0.18959000  0.30195000  0.30570000  1.0 -0.477456724
I  I13  1  0.33633000  0.93805000  0.43859000  1.0 -0.4220674314
I  I14  1  0.66367000  0.56195000  0.93859000  1.0 -0.4220674314
I  I15  1  0.83633000  0.06195000  0.06141000  1.0 -0.4220674314
I  I16  1  0.16367000  0.43805000  0.56141000  1.0 -0.4220674314
I  I17  1  0.27347000  0.92404000  0.62546000  1.0 -0.4680705421
I  I18  1  0.72653000  0.57596000  0.12546000  1.0 -0.4680705421
I  I19  1  0.77347000  0.07596000  0.87454000  1.0 -0.4680705421
I  I20  1  0.22653000  0.42404000  0.37454000  1.0 -0.4680705421
I  I21  1  0.14545000  0.67112000  0.67377000  1.0 -0.4531104468
I  I22  1  0.85455000  0.82888000  0.17377000  1.0 -0.4531104468
I  I23  1  0.64545000  0.32888000  0.82623000  1.0 -0.4531104468
I  I24  1  0.35455000  0.17112000  0.32623000  1.0 -0.4531104468
I  I25  1  0.92686000  0.99026000  0.60115000  1.0 -0.4293927901
I  I26  1  0.07314000  0.50974000  0.10115000  1.0 -0.4293927901
I  I27  1  0.42686000  0.00974000  0.89885000  1.0 -0.4293927901
I  I28  1  0.57314000  0.49026000  0.39885000  1.0 -0.4293927901
I  I29  1  0.71807000  0.00938000  0.46452000  1.0 -0.4599932522
I  I30  1  0.28193000  0.49062000  0.96452000  1.0 -0.4599932522
I  I31  1  0.21807000  0.99062000  0.03548000  1.0 -0.4599932522
I  I32  1  0.78193000  0.50938000  0.53548000  1.0 -0.4599932522
I  I33  1  0.68959000  0.19805000  0.30570000  1.0 -0.477456724
I  I34  1  0.31041000  0.30195000  0.80570000  1.0 -0.477456724
I  I35  1  0.18959000  0.80195000  0.19430000  1.0 -0.477456724
I  I36  1  0.81041000  0.69805000  0.69430000  1.0 -0.477456724
I  I37  1  0.66367000  0.06195000  0.56141000  1.0 -0.4220674314
I  I38  1  0.33633000  0.43805000  0.06141000  1.0 -0.4220674314
I  I39  1  0.16367000  0.93805000  0.93859000  1.0 -0.4220674314
I  I40  1  0.83633000  0.56195000  0.43859000  1.0 -0.4220674314
I  I41  1  0.72653000  0.07596000  0.37454000  1.0 -0.4680705421
I  I42  1  0.27347000  0.42404000  0.87454000  1.0 -0.4680705421
I  I43  1  0.22653000  0.92404000  0.12546000  1.0 -0.4680705421
I  I44  1  0.77347000  0.57596000  0.62546000  1.0 -0.4680705421
I  I45  1  0.85455000  0.32888000  0.32623000  1.0 -0.4531104468
I  I46  1  0.14545000  0.17112000  0.82623000  1.0 -0.4531104468
I  I47  1  0.35455000  0.67112000  0.17377000  1.0 -0.4531104468
I  I48  1  0.64545000  0.82888000  0.67377000  1.0 -0.4531104468
N  N1  1  0.49090000  0.94380000  0.57890000  1.0 -0.1816324686
N  N2  1  0.50910000  0.55620000  0.07890000  1.0 -0.1816324686
N  N3  1  0.99090000  0.05620000  0.92110000  1.0 -0.1816324686
N  N4  1  0.00910000  0.44380000  0.42110000  1.0 -0.1816324686
N  N5  1  0.08260000  0.93300000  0.46685000  1.0 -0.1816324686
N  N6  1  0.91740000  0.56700000  0.96685000  1.0 -0.1816324686
N  N7  1  0.58260000  0.06700000  0.03315000  1.0 -0.1816324686
N  N8  1  0.41740000  0.43300000  0.53315000  1.0 -0.1816324686
N  N9  1  0.06870000  0.79630000  0.65848000  1.0 -0.1998360061
N  N10  1  0.93130000  0.70370000  0.15848000  1.0 -0.1998360061
N  N11  1  0.56870000  0.20370000  0.84152000  1.0 -0.1998360061
N  N12  1  0.43130000  0.29630000  0.34152000  1.0 -0.1998360061
N  N13  1  0.82610000  0.90670000  0.54361000  1.0 -0.372758975
N  N14  1  0.17390000  0.59330000  0.04361000  1.0 -0.372758975
N  N15  1  0.32610000  0.09330000  0.95639000  1.0 -0.372758975
N  N16  1  0.67390000  0.40670000  0.45639000  1.0 -0.372758975
N  N17  1  0.96840000  0.87280000  0.56445000  1.0 -0.379016273
N  N18  1  0.03160000  0.62720000  0.06445000  1.0 -0.379016273
N  N19  1  0.46840000  0.12720000  0.93555000  1.0 -0.379016273
N  N20  1  0.53160000  0.37280000  0.43555000  1.0 -0.379016273
N  N21  1  0.82020000  0.87120000  0.59110000  1.0 -0.379016273
N  N22  1  0.17980000  0.62880000  0.09110000  1.0 -0.379016273
N  N23  1  0.32020000  0.12880000  0.90890000  1.0 -0.379016273
N  N24  1  0.67980000  0.37120000  0.40890000  1.0 -0.379016273
N  N25  1  0.07420000  0.76790000  0.72697000  1.0 -0.1816324686
N  N26  1  0.92580000  0.73210000  0.22697000  1.0 -0.1816324686
N  N27  1  0.57420000  0.23210000  0.77303000  1.0 -0.1816324686
N  N28  1  0.42580000  0.26790000  0.27303000  1.0 -0.1816324686
N  N29  1  0.88750000  0.96240000  0.89428000  1.0 -0.1695224016
N  N30  1  0.11250000  0.53760000  0.39428000  1.0 -0.1695224016
N  N31  1  0.38750000  0.03760000  0.60572000  1.0 -0.1695224016
N  N32  1  0.61250000  0.46240000  0.10572000  1.0 -0.1695224016
N  N33  1  0.87970000  0.61860000  0.90513000  1.0 -0.1585489609
N  N34  1  0.12030000  0.88140000  0.40513000  1.0 -0.1585489609
N  N35  1  0.37970000  0.38140000  0.59487000  1.0 -0.1585489609
N  N36  1  0.62030000  0.11860000  0.09487000  1.0 -0.1585489609
N  N37  1  0.95340000  0.82600000  0.82478000  1.0 -0.3158556313
N  N38  1  0.04660000  0.67400000  0.32478000  1.0 -0.3158556313
N  N39  1  0.45340000  0.17400000  0.67522000  1.0 -0.3158556313
N  N40  1  0.54660000  0.32600000  0.17522000  1.0 -0.3158556313
N  N41  1  0.91230000  0.78840000  0.87009000  1.0 -0.3158556313
N  N42  1  0.08770000  0.71160000  0.37009000  1.0 -0.3158556313
N  N43  1  0.41230000  0.21160000  0.62991000  1.0 -0.3158556313
N  N44  1  0.58770000  0.28840000  0.12991000  1.0 -0.3158556313
N  N45  1  0.95030000  0.74160000  0.82814000  1.0 -0.3134066515
N  N46  1  0.04970000  0.75840000  0.32814000  1.0 -0.3134066515
N  N47  1  0.45030000  0.25840000  0.67186000  1.0 -0.3134066515
N  N48  1  0.54970000  0.24160000  0.17186000  1.0 -0.3134066515
N  N49  1  0.50910000  0.05620000  0.42110000  1.0 -0.1816324686
N  N50  1  0.49090000  0.44380000  0.92110000  1.0 -0.1816324686
N  N51  1  0.00910000  0.94380000  0.07890000  1.0 -0.1816324686
N  N52  1  0.99090000  0.55620000  0.57890000  1.0 -0.1816324686
N  N53  1  0.91740000  0.06700000  0.53315000  1.0 -0.1816324686
N  N54  1  0.08260000  0.43300000  0.03315000  1.0 -0.1816324686
N  N55  1  0.41740000  0.93300000  0.96685000  1.0 -0.1816324686
N  N56  1  0.58260000  0.56700000  0.46685000  1.0 -0.1816324686
N  N57  1  0.93130000  0.20370000  0.34152000  1.0 -0.1998360061
N  N58  1  0.06870000  0.29630000  0.84152000  1.0 -0.1998360061
N  N59  1  0.43130000  0.79630000  0.15848000  1.0 -0.1998360061
N  N60  1  0.56870000  0.70370000  0.65848000  1.0 -0.1998360061
N  N61  1  0.17390000  0.09330000  0.45639000  1.0 -0.372758975
N  N62  1  0.82610000  0.40670000  0.95639000  1.0 -0.372758975
N  N63  1  0.67390000  0.90670000  0.04361000  1.0 -0.372758975
N  N64  1  0.32610000  0.59330000  0.54361000  1.0 -0.372758975
N  N65  1  0.03160000  0.12720000  0.43555000  1.0 -0.379016273
N  N66  1  0.96840000  0.37280000  0.93555000  1.0 -0.379016273
N  N67  1  0.53160000  0.87280000  0.06445000  1.0 -0.379016273
N  N68  1  0.46840000  0.62720000  0.56445000  1.0 -0.379016273
N  N69  1  0.17980000  0.12880000  0.40890000  1.0 -0.379016273
N  N70  1  0.82020000  0.37120000  0.90890000  1.0 -0.379016273
N  N71  1  0.67980000  0.87120000  0.09110000  1.0 -0.379016273
N  N72  1  0.32020000  0.62880000  0.59110000  1.0 -0.379016273
N  N73  1  0.92580000  0.23210000  0.27303000  1.0 -0.1816324686
N  N74  1  0.07420000  0.26790000  0.77303000  1.0 -0.1816324686
N  N75  1  0.42580000  0.76790000  0.22697000  1.0 -0.1816324686
N  N76  1  0.57420000  0.73210000  0.72697000  1.0 -0.1816324686
N  N77  1  0.11250000  0.03760000  0.10572000  1.0 -0.1695224016
N  N78  1  0.88750000  0.46240000  0.60572000  1.0 -0.1695224016
N  N79  1  0.61250000  0.96240000  0.39428000  1.0 -0.1695224016
N  N80  1  0.38750000  0.53760000  0.89428000  1.0 -0.1695224016
N  N81  1  0.12030000  0.38140000  0.09487000  1.0 -0.1585489609
N  N82  1  0.87970000  0.11860000  0.59487000  1.0 -0.1585489609
N  N83  1  0.62030000  0.61860000  0.40513000  1.0 -0.1585489609
N  N84  1  0.37970000  0.88140000  0.90513000  1.0 -0.1585489609
N  N85  1  0.04660000  0.17400000  0.17522000  1.0 -0.3158556313
N  N86  1  0.95340000  0.32600000  0.67522000  1.0 -0.3158556313
N  N87  1  0.54660000  0.82600000  0.32478000  1.0 -0.3158556313
N  N88  1  0.45340000  0.67400000  0.82478000  1.0 -0.3158556313
N  N89  1  0.08770000  0.21160000  0.12991000  1.0 -0.3158556313
N  N90  1  0.91230000  0.28840000  0.62991000  1.0 -0.3158556313
N  N91  1  0.58770000  0.78840000  0.37009000  1.0 -0.3158556313
N  N92  1  0.41230000  0.71160000  0.87009000  1.0 -0.3158556313
N  N93  1  0.04970000  0.25840000  0.17186000  1.0 -0.3134066515
N  N94  1  0.95030000  0.24160000  0.67186000  1.0 -0.3134066515
N  N95  1  0.54970000  0.74160000  0.32814000  1.0 -0.3134066515
N  N96  1  0.45030000  0.75840000  0.82814000  1.0 -0.3134066515
N  N97  1  0.66280000  0.11700000  0.63740000  1.0 -0.239873399
N  N98  1  0.66280000  0.61700000  0.86260000  1.0 -0.239873399
N  N99  1  0.78210000  0.82570000  0.74940000  1.0 -0.1816324686
N  N100  1  0.78210000  0.32570000  0.75060000  1.0 -0.1816324686
N  N101  1  0.33720000  0.38300000  0.13740000  1.0 -0.239873399
N  N102  1  0.33720000  0.88300000  0.36260000  1.0 -0.239873399
N  N103  1  0.21790000  0.67430000  0.24940000  1.0 -0.1816324686
N  N104  1  0.21790000  0.17430000  0.25060000  1.0 -0.1816324686
N  N105  1  0.16280000  0.88300000  0.86260000  1.0 -0.239873399
N  N106  1  0.16280000  0.38300000  0.63740000  1.0 -0.239873399
N  N107  1  0.28210000  0.17430000  0.75060000  1.0 -0.1816324686
N  N108  1  0.28210000  0.67430000  0.74940000  1.0 -0.1816324686
N  N109  1  0.83720000  0.61700000  0.36260000  1.0 -0.239873399
N  N110  1  0.83720000  0.11700000  0.13740000  1.0 -0.239873399
N  N111  1  0.71790000  0.32570000  0.25060000  1.0 -0.1816324686
N  N112  1  0.71790000  0.82570000  0.24940000  1.0 -0.1816324686
O  O1  1  0.67220000  0.10130000  0.68660000  1.0 -0.4531104468
O  O2  1  0.67220000  0.60130000  0.81340000  1.0 -0.4531104468
O  O3  1  0.83400000  0.90340000  0.76700000  1.0 -0.379016273
O  O4  1  0.83400000  0.40340000  0.73300000  1.0 -0.379016273
O  O5  1  0.32780000  0.39870000  0.18660000  1.0 -0.4531104468
O  O6  1  0.32780000  0.89870000  0.31340000  1.0 -0.4531104468
O  O7  1  0.16600000  0.59660000  0.26700000  1.0 -0.379016273
O  O8  1  0.16600000  0.09660000  0.23300000  1.0 -0.379016273
O  O9  1  0.17220000  0.89870000  0.81340000  1.0 -0.4531104468
O  O10  1  0.17220000  0.39870000  0.68660000  1.0 -0.4531104468
O  O11  1  0.33400000  0.09660000  0.73300000  1.0 -0.379016273
O  O12  1  0.33400000  0.59660000  0.76700000  1.0 -0.379016273
O  O13  1  0.82780000  0.60130000  0.31340000  1.0 -0.4531104468
O  O14  1  0.82780000  0.10130000  0.18660000  1.0 -0.4531104468
O  O15  1  0.66600000  0.40340000  0.23300000  1.0 -0.379016273
O  O16  1  0.66600000  0.90340000  0.26700000  1.0 -0.379016273
