# DDEC6 charges by PACMAN v1.1 (https://github.com/mtap-research/PACMAN-charge/)
data_SOJDEB_ASR_pacman
_symmetry_space_group_name_H-M   'P 1'
_cell_length_a   11.39660000
_cell_length_b   11.47870000
_cell_length_c   16.87750000
_cell_angle_alpha   90.00000000
_cell_angle_beta   90.00000000
_cell_angle_gamma   90.00000000
_symmetry_Int_Tables_number   1
_chemical_formula_structural   Cr(C8N5)2
_chemical_formula_sum   'Cr4 C64 N40'
_cell_volume   2207.88336747
_cell_formula_units_Z   4
loop_
 _symmetry_equiv_pos_site_id
 _symmetry_equiv_pos_as_xyz
  1  'x, y, z'
loop_
 _atom_site_type_symbol
 _atom_site_label
 _atom_site_symmetry_multiplicity
 _atom_site_fract_x
 _atom_site_fract_y
 _atom_site_fract_z
 _atom_site_occupancy
 _atom_site_charge
Cr  Cr1  1  0.00000000  0.50000000  0.50000000  1.0 1.2392639899
Cr  Cr2  1  0.00000000  0.00000000  0.00000000  1.0 1.2696976447
Cr  Cr3  1  0.50000000  0.00000000  0.50000000  1.0 1.2392639899
Cr  Cr4  1  0.50000000  0.50000000  0.00000000  1.0 1.2392639899
C  C1  1  0.77160000  0.60380000  0.41520000  1.0 0.3761238218
C  C2  1  0.22840000  0.89620000  0.91520000  1.0 0.3733903948
C  C3  1  0.72840000  0.10380000  0.58480000  1.0 0.3761238218
C  C4  1  0.27160000  0.39620000  0.08480000  1.0 0.3761238218
C  C5  1  0.22840000  0.39620000  0.58480000  1.0 0.3761238218
C  C6  1  0.77160000  0.10380000  0.08480000  1.0 0.3761238218
C  C7  1  0.27160000  0.89620000  0.41520000  1.0 0.3733903948
C  C8  1  0.72840000  0.60380000  0.91520000  1.0 0.3733903948
C  C9  1  0.63420000  0.75860000  0.40970000  1.0 0.3326302142
C  C10  1  0.36580000  0.74140000  0.90970000  1.0 0.3326302142
C  C11  1  0.86580000  0.25860000  0.59030000  1.0 0.3326302142
C  C12  1  0.13420000  0.24140000  0.09030000  1.0 0.3326302142
C  C13  1  0.36580000  0.24140000  0.59030000  1.0 0.3326302142
C  C14  1  0.63420000  0.25860000  0.09030000  1.0 0.3326302142
C  C15  1  0.13420000  0.74140000  0.40970000  1.0 0.3326302142
C  C16  1  0.86580000  0.75860000  0.90970000  1.0 0.3326302142
C  C17  1  0.70600000  0.51250000  0.26990000  1.0 0.2377636908
C  C18  1  0.29400000  0.98750000  0.76990000  1.0 0.2377636908
C  C19  1  0.79400000  0.01250000  0.73010000  1.0 0.2377636908
C  C20  1  0.20600000  0.48750000  0.23010000  1.0 0.2377636908
C  C21  1  0.29400000  0.48750000  0.73010000  1.0 0.2377636908
C  C22  1  0.70600000  0.01250000  0.23010000  1.0 0.2377636908
C  C23  1  0.20600000  0.98750000  0.26990000  1.0 0.2377636908
C  C24  1  0.79400000  0.51250000  0.76990000  1.0 0.2377636908
C  C25  1  0.54810000  0.61790000  0.16890000  1.0 0.3761238218
C  C26  1  0.45190000  0.88210000  0.66890000  1.0 0.3761238218
C  C27  1  0.95190000  0.11790000  0.83110000  1.0 0.3761238218
C  C28  1  0.04810000  0.38210000  0.33110000  1.0 0.3761238218
C  C29  1  0.45190000  0.38210000  0.83110000  1.0 0.3761238218
C  C30  1  0.54810000  0.11790000  0.33110000  1.0 0.3761238218
C  C31  1  0.04810000  0.88210000  0.16890000  1.0 0.3761238218
C  C32  1  0.95190000  0.61790000  0.66890000  1.0 0.3761238218
C  C33  1  0.49980000  0.76960000  0.26220000  1.0 0.2616135338
C  C34  1  0.50020000  0.73040000  0.76220000  1.0 0.2616135338
C  C35  1  0.00020000  0.26960000  0.73780000  1.0 0.2616135338
C  C36  1  0.99980000  0.23040000  0.23780000  1.0 0.2616135338
C  C37  1  0.50020000  0.23040000  0.73780000  1.0 0.2616135338
C  C38  1  0.49980000  0.26960000  0.23780000  1.0 0.2616135338
C  C39  1  0.99980000  0.73040000  0.26220000  1.0 0.2616135338
C  C40  1  0.00020000  0.76960000  0.76220000  1.0 0.2616135338
C  C41  1  0.68220000  0.65980000  0.37190000  1.0 -0.161762624
C  C42  1  0.31780000  0.84020000  0.87190000  1.0 -0.161762624
C  C43  1  0.81780000  0.15980000  0.62810000  1.0 -0.161762624
C  C44  1  0.18220000  0.34020000  0.12810000  1.0 -0.161762624
C  C45  1  0.31780000  0.34020000  0.62810000  1.0 -0.161762624
C  C46  1  0.68220000  0.15980000  0.12810000  1.0 -0.161762624
C  C47  1  0.18220000  0.84020000  0.37190000  1.0 -0.161762624
C  C48  1  0.81780000  0.65980000  0.87190000  1.0 -0.161762624
C  C49  1  0.64910000  0.61970000  0.29670000  1.0 0.1028766353
C  C50  1  0.35090000  0.88030000  0.79670000  1.0 0.1028766353
C  C51  1  0.85090000  0.11970000  0.70330000  1.0 0.1028766353
C  C52  1  0.14910000  0.38030000  0.20330000  1.0 0.1028766353
C  C53  1  0.35090000  0.38030000  0.70330000  1.0 0.1028766353
C  C54  1  0.64910000  0.11970000  0.20330000  1.0 0.1028766353
C  C55  1  0.14910000  0.88030000  0.29670000  1.0 0.1028766353
C  C56  1  0.85090000  0.61970000  0.79670000  1.0 0.1028766353
C  C57  1  0.56670000  0.66720000  0.24530000  1.0 -0.1146073804
C  C58  1  0.43330000  0.83280000  0.74530000  1.0 -0.1146073804
C  C59  1  0.93330000  0.16720000  0.75470000  1.0 -0.1158981091
C  C60  1  0.06670000  0.33280000  0.25470000  1.0 -0.1146073804
C  C61  1  0.43330000  0.33280000  0.75470000  1.0 -0.1146073804
C  C62  1  0.56670000  0.16720000  0.25470000  1.0 -0.1146073804
C  C63  1  0.06670000  0.83280000  0.24530000  1.0 -0.1158981091
C  C64  1  0.93330000  0.66720000  0.74530000  1.0 -0.1146073804
N  N1  1  0.84540000  0.56150000  0.45150000  1.0 -0.4429360664
N  N2  1  0.15460000  0.93850000  0.95150000  1.0 -0.4479507233
N  N3  1  0.65460000  0.06150000  0.54850000  1.0 -0.4429360664
N  N4  1  0.34540000  0.43850000  0.04850000  1.0 -0.4429360664
N  N5  1  0.15460000  0.43850000  0.54850000  1.0 -0.4479507233
N  N6  1  0.84540000  0.06150000  0.04850000  1.0 -0.4479507233
N  N7  1  0.34540000  0.93850000  0.45150000  1.0 -0.4429360664
N  N8  1  0.65460000  0.56150000  0.95150000  1.0 -0.4429360664
N  N9  1  0.59830000  0.83770000  0.44460000  1.0 -0.4479507233
N  N10  1  0.40170000  0.66230000  0.94460000  1.0 -0.4479507233
N  N11  1  0.90170000  0.33770000  0.55540000  1.0 -0.4479507233
N  N12  1  0.09830000  0.16230000  0.05540000  1.0 -0.4479507233
N  N13  1  0.40170000  0.16230000  0.55540000  1.0 -0.4479507233
N  N14  1  0.59830000  0.33770000  0.05540000  1.0 -0.4479507233
N  N15  1  0.09830000  0.66230000  0.44460000  1.0 -0.4479507233
N  N16  1  0.90170000  0.83770000  0.94460000  1.0 -0.4479507233
N  N17  1  0.74840000  0.42780000  0.24950000  1.0 -0.3602249763
N  N18  1  0.25160000  0.07220000  0.74950000  1.0 -0.3602249763
N  N19  1  0.75160000  0.92780000  0.75050000  1.0 -0.3602249763
N  N20  1  0.24840000  0.57220000  0.25050000  1.0 -0.3602249763
N  N21  1  0.25160000  0.57220000  0.75050000  1.0 -0.3602249763
N  N22  1  0.74840000  0.92780000  0.25050000  1.0 -0.3602249763
N  N23  1  0.24840000  0.07220000  0.24950000  1.0 -0.3602249763
N  N24  1  0.75160000  0.42780000  0.74950000  1.0 -0.3602249763
N  N25  1  0.53330000  0.58230000  0.10677000  1.0 -0.4330736688
N  N26  1  0.46670000  0.91770000  0.60677000  1.0 -0.4330736688
N  N27  1  0.96670000  0.08230000  0.89323000  1.0 -0.4330736688
N  N28  1  0.03330000  0.41770000  0.39323000  1.0 -0.4330736688
N  N29  1  0.46670000  0.41770000  0.89323000  1.0 -0.4330736688
N  N30  1  0.53330000  0.08230000  0.39323000  1.0 -0.4330736688
N  N31  1  0.03330000  0.91770000  0.10677000  1.0 -0.4330736688
N  N32  1  0.96670000  0.58230000  0.60677000  1.0 -0.4330736688
N  N33  1  0.44380000  0.85040000  0.27360000  1.0 -0.3470474398
N  N34  1  0.55620000  0.64960000  0.77360000  1.0 -0.3470474398
N  N35  1  0.05620000  0.35040000  0.72640000  1.0 -0.3449420547
N  N36  1  0.94380000  0.14960000  0.22640000  1.0 -0.3470474398
N  N37  1  0.55620000  0.14960000  0.72640000  1.0 -0.3470474398
N  N38  1  0.44380000  0.35040000  0.22640000  1.0 -0.3470474398
N  N39  1  0.94380000  0.64960000  0.27360000  1.0 -0.3470474398
N  N40  1  0.05620000  0.85040000  0.77360000  1.0 -0.3470474398
