# DDEC6 charges by PACMAN v1.1 (https://github.com/mtap-research/PACMAN-charge/)
data_SOKXIB_ASR_pacman
_symmetry_space_group_name_H-M   'P 1'
_cell_length_a   18.24800000
_cell_length_b   18.24800000
_cell_length_c   47.11300000
_cell_angle_alpha   90.00000000
_cell_angle_beta   90.00000000
_cell_angle_gamma   120.00000000
_symmetry_Int_Tables_number   1
_chemical_formula_structural   CoCuB18H23C15O4
_chemical_formula_sum   'Co12 Cu12 B216 H276 C180 O48'
_cell_volume   13586.32301668
_cell_formula_units_Z   12
loop_
 _symmetry_equiv_pos_site_id
 _symmetry_equiv_pos_as_xyz
  1  'x, y, z'
loop_
 _atom_site_type_symbol
 _atom_site_label
 _atom_site_symmetry_multiplicity
 _atom_site_fract_x
 _atom_site_fract_y
 _atom_site_fract_z
 _atom_site_occupancy
 _atom_site_charge
Co  Co1  1  0.20570000  0.79430000  0.25000000  1.0 -0.1129893146
Co  Co2  1  0.20570000  0.41140000  0.25000000  1.0 -0.1129893146
Co  Co3  1  0.58860000  0.79430000  0.25000000  1.0 -0.1129893146
Co  Co4  1  0.79430000  0.20570000  0.75000000  1.0 -0.1129893146
Co  Co5  1  0.79430000  0.58860000  0.75000000  1.0 -0.1129893146
Co  Co6  1  0.41140000  0.20570000  0.75000000  1.0 -0.1129893146
Co  Co7  1  0.15700000  0.84300000  0.25000000  1.0 -0.0405490377
Co  Co8  1  0.15700000  0.31400000  0.25000000  1.0 -0.0405490377
Co  Co9  1  0.68600000  0.84300000  0.25000000  1.0 -0.0405490377
Co  Co10  1  0.84300000  0.15700000  0.75000000  1.0 -0.0405490377
Co  Co11  1  0.84300000  0.68600000  0.75000000  1.0 -0.0307520435
Co  Co12  1  0.31400000  0.15700000  0.75000000  1.0 -0.0405490377
Cu  Cu1  1  0.52520000  0.05090000  0.47730000  1.0 1.0410919869
Cu  Cu2  1  0.94910000  0.47430000  0.47730000  1.0 1.0410919869
Cu  Cu3  1  0.52570000  0.47480000  0.47730000  1.0 1.0410919869
Cu  Cu4  1  0.94910000  0.47480000  0.02270000  1.0 1.0410919869
Cu  Cu5  1  0.52570000  0.05090000  0.02270000  1.0 1.0410919869
Cu  Cu6  1  0.52520000  0.47430000  0.02270000  1.0 1.0410919869
Cu  Cu7  1  0.47480000  0.94910000  0.52270000  1.0 1.0410919869
Cu  Cu8  1  0.05090000  0.52570000  0.52270000  1.0 1.0339226627
Cu  Cu9  1  0.47430000  0.52520000  0.52270000  1.0 1.0410919869
Cu  Cu10  1  0.05090000  0.52520000  0.97730000  1.0 1.0410919869
Cu  Cu11  1  0.47430000  0.94910000  0.97730000  1.0 1.0410919869
Cu  Cu12  1  0.47480000  0.52570000  0.97730000  1.0 1.0339226627
B  B1  1  0.20230000  0.78690000  0.33080000  1.0 -0.0307520435
B  B2  1  0.21310000  0.41540000  0.33080000  1.0 -0.0307520435
B  B3  1  0.58460000  0.79770000  0.33080000  1.0 -0.0307520435
B  B4  1  0.21310000  0.79770000  0.16920000  1.0 -0.0307520435
B  B5  1  0.58460000  0.78690000  0.16920000  1.0 -0.0307520435
B  B6  1  0.20230000  0.41540000  0.16920000  1.0 -0.0307520435
B  B7  1  0.79770000  0.21310000  0.66920000  1.0 -0.0307520435
B  B8  1  0.78690000  0.58460000  0.66920000  1.0 -0.0307520435
B  B9  1  0.41540000  0.20230000  0.66920000  1.0 -0.0307520435
B  B10  1  0.78690000  0.20230000  0.83080000  1.0 -0.0307520435
B  B11  1  0.41540000  0.21310000  0.83080000  1.0 -0.0307520435
B  B12  1  0.79770000  0.58460000  0.83080000  1.0 -0.0307520435
B  B13  1  0.28270000  0.87120000  0.31150000  1.0 -0.0307520435
B  B14  1  0.12880000  0.41150000  0.31150000  1.0 -0.0307520435
B  B15  1  0.58850000  0.71730000  0.31150000  1.0 -0.0307520435
B  B16  1  0.12880000  0.71730000  0.18850000  1.0 -0.0307520435
B  B17  1  0.58850000  0.87120000  0.18850000  1.0 -0.0307520435
B  B18  1  0.28270000  0.41150000  0.18850000  1.0 -0.0307520435
B  B19  1  0.71730000  0.12880000  0.68850000  1.0 -0.0307520435
B  B20  1  0.87120000  0.58850000  0.68850000  1.0 -0.0307520435
B  B21  1  0.41150000  0.28270000  0.68850000  1.0 -0.0307520435
B  B22  1  0.87120000  0.28270000  0.81150000  1.0 -0.0307520435
B  B23  1  0.41150000  0.12880000  0.81150000  1.0 -0.0307520435
B  B24  1  0.71730000  0.58850000  0.81150000  1.0 -0.0307520435
B  B25  1  0.17940000  0.85470000  0.31070000  1.0 -0.0307520435
B  B26  1  0.14530000  0.32470000  0.31070000  1.0 -0.0307520435
B  B27  1  0.67530000  0.82060000  0.31070000  1.0 -0.0307520435
B  B28  1  0.14530000  0.82060000  0.18930000  1.0 -0.0307520435
B  B29  1  0.67530000  0.85470000  0.18930000  1.0 -0.0307520435
B  B30  1  0.17940000  0.32470000  0.18930000  1.0 -0.0307520435
B  B31  1  0.82060000  0.14530000  0.68930000  1.0 -0.0207024182
B  B32  1  0.85470000  0.67530000  0.68930000  1.0 -0.0307520435
B  B33  1  0.32470000  0.17940000  0.68930000  1.0 -0.0207024182
B  B34  1  0.85470000  0.17940000  0.81070000  1.0 -0.0207024182
B  B35  1  0.32470000  0.14530000  0.81070000  1.0 -0.0207024182
B  B36  1  0.82060000  0.67530000  0.81070000  1.0 -0.0207024182
B  B37  1  0.10750000  0.74540000  0.31100000  1.0 -0.0307520435
B  B38  1  0.25460000  0.36210000  0.31100000  1.0 -0.0207024182
B  B39  1  0.63790000  0.89250000  0.31100000  1.0 -0.0307520435
B  B40  1  0.25460000  0.89250000  0.18900000  1.0 -0.0307520435
B  B41  1  0.63790000  0.74540000  0.18900000  1.0 -0.0307520435
B  B42  1  0.10750000  0.36210000  0.18900000  1.0 -0.0307520435
B  B43  1  0.89250000  0.25460000  0.68900000  1.0 -0.0207024182
B  B44  1  0.74540000  0.63790000  0.68900000  1.0 -0.0207024182
B  B45  1  0.36210000  0.10750000  0.68900000  1.0 -0.0207024182
B  B46  1  0.74540000  0.10750000  0.81100000  1.0 -0.0207024182
B  B47  1  0.36210000  0.25460000  0.81100000  1.0 -0.0207024182
B  B48  1  0.89250000  0.63790000  0.81100000  1.0 -0.0207024182
B  B49  1  0.16940000  0.69880000  0.31000000  1.0 -0.0497360603
B  B50  1  0.30120000  0.47060000  0.31000000  1.0 -0.0497360603
B  B51  1  0.52940000  0.83060000  0.31000000  1.0 -0.0497360603
B  B52  1  0.30120000  0.83060000  0.19000000  1.0 -0.0497360603
B  B53  1  0.52940000  0.69880000  0.19000000  1.0 -0.0497360603
B  B54  1  0.16940000  0.47060000  0.19000000  1.0 -0.0497360603
B  B55  1  0.83060000  0.30120000  0.69000000  1.0 -0.0497360603
B  B56  1  0.69880000  0.52940000  0.69000000  1.0 -0.0497360603
B  B57  1  0.47060000  0.16940000  0.69000000  1.0 -0.0497360603
B  B58  1  0.69880000  0.16940000  0.81000000  1.0 -0.0497360603
B  B59  1  0.47060000  0.30120000  0.81000000  1.0 -0.0497360603
B  B60  1  0.83060000  0.52940000  0.81000000  1.0 -0.0497360603
B  B61  1  0.27630000  0.77200000  0.31210000  1.0 -0.1032030629
B  B62  1  0.22800000  0.50430000  0.31210000  1.0 -0.1032030629
B  B63  1  0.49570000  0.72370000  0.31210000  1.0 -0.1032030629
B  B64  1  0.22800000  0.72370000  0.18790000  1.0 -0.1032030629
B  B65  1  0.49570000  0.77200000  0.18790000  1.0 -0.1032030629
B  B66  1  0.27630000  0.50430000  0.18790000  1.0 -0.1032030629
B  B67  1  0.72370000  0.22800000  0.68790000  1.0 -0.1032030629
B  B68  1  0.77200000  0.49570000  0.68790000  1.0 -0.1032030629
B  B69  1  0.50430000  0.27630000  0.68790000  1.0 -0.1032030629
B  B70  1  0.77200000  0.27630000  0.81210000  1.0 -0.1032030629
B  B71  1  0.50430000  0.22800000  0.81210000  1.0 -0.1032030629
B  B72  1  0.72370000  0.49570000  0.81210000  1.0 -0.1032030629
B  B73  1  0.29470000  0.82790000  0.28040000  1.0 -0.0910874689
B  B74  1  0.17210000  0.46680000  0.28040000  1.0 -0.0910874689
B  B75  1  0.53320000  0.70530000  0.28040000  1.0 -0.0910874689
B  B76  1  0.17210000  0.70530000  0.21960000  1.0 -0.0910874689
B  B77  1  0.53320000  0.82790000  0.21960000  1.0 -0.0910874689
B  B78  1  0.29470000  0.46680000  0.21960000  1.0 -0.0910874689
B  B79  1  0.70530000  0.17210000  0.71960000  1.0 -0.0910874689
B  B80  1  0.82790000  0.53320000  0.71960000  1.0 -0.0910874689
B  B81  1  0.46680000  0.29470000  0.71960000  1.0 -0.0910874689
B  B82  1  0.82790000  0.29470000  0.78040000  1.0 -0.0910874689
B  B83  1  0.46680000  0.17210000  0.78040000  1.0 -0.0910874689
B  B84  1  0.70530000  0.53320000  0.78040000  1.0 -0.0910874689
B  B85  1  0.23980000  0.88390000  0.28020000  1.0 0.0092251737
B  B86  1  0.11610000  0.35590000  0.28020000  1.0 0.0092251737
B  B87  1  0.64410000  0.76020000  0.28020000  1.0 0.0092251737
B  B88  1  0.11610000  0.76020000  0.21980000  1.0 0.0092251737
B  B89  1  0.64410000  0.88390000  0.21980000  1.0 0.0092251737
B  B90  1  0.23980000  0.35590000  0.21980000  1.0 0.0092251737
B  B91  1  0.76020000  0.11610000  0.71980000  1.0 0.0092251737
B  B92  1  0.88390000  0.64410000  0.71980000  1.0 0.0092251737
B  B93  1  0.35590000  0.23980000  0.71980000  1.0 0.0092251737
B  B94  1  0.88390000  0.23980000  0.78020000  1.0 0.0092251737
B  B95  1  0.35590000  0.11610000  0.78020000  1.0 0.0092251737
B  B96  1  0.76020000  0.64410000  0.78020000  1.0 0.0092251737
B  B97  1  0.13260000  0.80200000  0.27960000  1.0 0.0092251737
B  B98  1  0.19800000  0.33060000  0.27960000  1.0 0.0092251737
B  B99  1  0.66940000  0.86740000  0.27960000  1.0 0.0019479466
B  B100  1  0.19800000  0.86740000  0.22040000  1.0 0.0019479466
B  B101  1  0.66940000  0.80200000  0.22040000  1.0 0.0019479466
B  B102  1  0.13260000  0.33060000  0.22040000  1.0 0.0092251737
B  B103  1  0.86740000  0.19800000  0.72040000  1.0 0.0092251737
B  B104  1  0.80200000  0.66940000  0.72040000  1.0 0.0092251737
B  B105  1  0.33060000  0.13260000  0.72040000  1.0 0.0092251737
B  B106  1  0.80200000  0.13260000  0.77960000  1.0 0.0092251737
B  B107  1  0.33060000  0.19800000  0.77960000  1.0 0.0092251737
B  B108  1  0.86740000  0.66940000  0.77960000  1.0 0.0092251737
B  B109  1  0.17640000  0.83200000  0.33120000  1.0 -0.0001302643
B  B110  1  0.16800000  0.34440000  0.33120000  1.0 0.0019479466
B  B111  1  0.65560000  0.82360000  0.33120000  1.0 -0.0001302643
B  B112  1  0.16800000  0.82360000  0.16880000  1.0 -0.0001302643
B  B113  1  0.65560000  0.83200000  0.16880000  1.0 -0.0001302643
B  B114  1  0.17640000  0.34440000  0.16880000  1.0 0.0019479466
B  B115  1  0.82360000  0.16800000  0.66880000  1.0 0.0019479466
B  B116  1  0.83200000  0.65560000  0.66880000  1.0 0.0019479466
B  B117  1  0.34440000  0.17640000  0.66880000  1.0 0.0019479466
B  B118  1  0.83200000  0.17640000  0.83120000  1.0 0.0019479466
B  B119  1  0.34440000  0.16800000  0.83120000  1.0 0.0019479466
B  B120  1  0.82360000  0.65560000  0.83120000  1.0 0.0019479466
B  B121  1  0.25330000  0.91720000  0.31160000  1.0 -0.0307520435
B  B122  1  0.08280000  0.33610000  0.31160000  1.0 -0.0307520435
B  B123  1  0.66390000  0.74670000  0.31160000  1.0 -0.0307520435
B  B124  1  0.08280000  0.74670000  0.18840000  1.0 -0.0307520435
B  B125  1  0.66390000  0.91720000  0.18840000  1.0 -0.0307520435
B  B126  1  0.25330000  0.33610000  0.18840000  1.0 -0.0307520435
B  B127  1  0.74670000  0.08280000  0.68840000  1.0 -0.0207024182
B  B128  1  0.91720000  0.66390000  0.68840000  1.0 -0.0307520435
B  B129  1  0.33610000  0.25330000  0.68840000  1.0 -0.0207024182
B  B130  1  0.91720000  0.25330000  0.81160000  1.0 -0.0207024182
B  B131  1  0.33610000  0.08280000  0.81160000  1.0 -0.0207024182
B  B132  1  0.74670000  0.66390000  0.81160000  1.0 -0.0307520435
B  B133  1  0.15410000  0.90350000  0.31510000  1.0 -0.0307520435
B  B134  1  0.09650000  0.25060000  0.31510000  1.0 -0.0307520435
B  B135  1  0.74940000  0.84590000  0.31510000  1.0 -0.0307520435
B  B136  1  0.09650000  0.84590000  0.18490000  1.0 -0.0307520435
B  B137  1  0.74940000  0.90350000  0.18490000  1.0 -0.0307520435
B  B138  1  0.15410000  0.25060000  0.18490000  1.0 -0.0307520435
B  B139  1  0.84590000  0.09650000  0.68490000  1.0 -0.0307520435
B  B140  1  0.90350000  0.74940000  0.68490000  1.0 -0.0307520435
B  B141  1  0.25060000  0.15410000  0.68490000  1.0 -0.0307520435
B  B142  1  0.90350000  0.15410000  0.81510000  1.0 -0.0307520435
B  B143  1  0.25060000  0.09650000  0.81510000  1.0 -0.0307520435
B  B144  1  0.84590000  0.74940000  0.81510000  1.0 -0.0307520435
B  B145  1  0.07940000  0.79990000  0.31450000  1.0 0.0019479466
B  B146  1  0.20010000  0.27950000  0.31450000  1.0 0.0019479466
B  B147  1  0.72050000  0.92060000  0.31450000  1.0 0.0019479466
B  B148  1  0.20010000  0.92060000  0.18550000  1.0 0.0019479466
B  B149  1  0.72050000  0.79990000  0.18550000  1.0 0.0019479466
B  B150  1  0.07940000  0.27950000  0.18550000  1.0 0.0019479466
B  B151  1  0.92060000  0.20010000  0.68550000  1.0 0.0019479466
B  B152  1  0.79990000  0.72050000  0.68550000  1.0 0.0019479466
B  B153  1  0.27950000  0.07940000  0.68550000  1.0 0.0019479466
B  B154  1  0.79990000  0.07940000  0.81450000  1.0 0.0019479466
B  B155  1  0.27950000  0.20010000  0.81450000  1.0 0.0019479466
B  B156  1  0.92060000  0.72050000  0.81450000  1.0 0.0019479466
B  B157  1  0.13350000  0.74610000  0.30750000  1.0 -0.0405490377
B  B158  1  0.25390000  0.38740000  0.30750000  1.0 -0.0405490377
B  B159  1  0.61260000  0.86650000  0.30750000  1.0 -0.0497360603
B  B160  1  0.25390000  0.86650000  0.19250000  1.0 -0.0405490377
B  B161  1  0.61260000  0.74610000  0.19250000  1.0 -0.0405490377
B  B162  1  0.13350000  0.38740000  0.19250000  1.0 -0.0405490377
B  B163  1  0.86650000  0.25390000  0.69250000  1.0 -0.0405490377
B  B164  1  0.74610000  0.61260000  0.69250000  1.0 -0.0405490377
B  B165  1  0.38740000  0.13350000  0.69250000  1.0 -0.0405490377
B  B166  1  0.74610000  0.13350000  0.80750000  1.0 -0.0405490377
B  B167  1  0.38740000  0.25390000  0.80750000  1.0 -0.0405490377
B  B168  1  0.86650000  0.61260000  0.80750000  1.0 -0.0405490377
B  B169  1  0.24610000  0.81760000  0.30800000  1.0 -0.0405490377
B  B170  1  0.18240000  0.42850000  0.30800000  1.0 -0.0405490377
B  B171  1  0.57150000  0.75390000  0.30800000  1.0 -0.0405490377
B  B172  1  0.18240000  0.75390000  0.19200000  1.0 -0.0405490377
B  B173  1  0.57150000  0.81760000  0.19200000  1.0 -0.0405490377
B  B174  1  0.24610000  0.42850000  0.19200000  1.0 -0.0405490377
B  B175  1  0.75390000  0.18240000  0.69200000  1.0 -0.0405490377
B  B176  1  0.81760000  0.57150000  0.69200000  1.0 -0.0405490377
B  B177  1  0.42850000  0.24610000  0.69200000  1.0 -0.0307520435
B  B178  1  0.81760000  0.24610000  0.80800000  1.0 -0.0307520435
B  B179  1  0.42850000  0.18240000  0.80800000  1.0 -0.0307520435
B  B180  1  0.75390000  0.57150000  0.80800000  1.0 -0.0405490377
B  B181  1  0.26040000  0.88100000  0.27895000  1.0 -0.0207024182
B  B182  1  0.11900000  0.37940000  0.27895000  1.0 -0.0207024182
B  B183  1  0.62060000  0.73960000  0.27895000  1.0 -0.0207024182
B  B184  1  0.11900000  0.73960000  0.22105000  1.0 -0.0207024182
B  B185  1  0.62060000  0.88100000  0.22105000  1.0 -0.0207024182
B  B186  1  0.26040000  0.37940000  0.22105000  1.0 -0.0207024182
B  B187  1  0.73960000  0.11900000  0.72105000  1.0 -0.0207024182
B  B188  1  0.88100000  0.62060000  0.72105000  1.0 -0.0207024182
B  B189  1  0.37940000  0.26040000  0.72105000  1.0 -0.0207024182
B  B190  1  0.88100000  0.26040000  0.77895000  1.0 -0.0207024182
B  B191  1  0.37940000  0.11900000  0.77895000  1.0 -0.0207024182
B  B192  1  0.73960000  0.62060000  0.77895000  1.0 -0.0207024182
B  B193  1  0.20450000  0.93310000  0.28075000  1.0 -0.0910874689
B  B194  1  0.06690000  0.27140000  0.28075000  1.0 -0.0910874689
B  B195  1  0.72860000  0.79550000  0.28075000  1.0 -0.0910874689
B  B196  1  0.06690000  0.79550000  0.21925000  1.0 -0.0910874689
B  B197  1  0.72860000  0.93310000  0.21925000  1.0 -0.0910874689
B  B198  1  0.20450000  0.27140000  0.21925000  1.0 -0.0910874689
B  B199  1  0.79550000  0.06690000  0.71925000  1.0 -0.0910874689
B  B200  1  0.93310000  0.72860000  0.71925000  1.0 -0.0910874689
B  B201  1  0.27140000  0.20450000  0.71925000  1.0 -0.0910874689
B  B202  1  0.93310000  0.20450000  0.78075000  1.0 -0.0910874689
B  B203  1  0.27140000  0.06690000  0.78075000  1.0 -0.0910874689
B  B204  1  0.79550000  0.72860000  0.78075000  1.0 -0.0910874689
B  B205  1  0.09710000  0.86080000  0.28242000  1.0 -0.1129893146
B  B206  1  0.13920000  0.23630000  0.28242000  1.0 -0.1129893146
B  B207  1  0.76370000  0.90290000  0.28242000  1.0 -0.1129893146
B  B208  1  0.13920000  0.90290000  0.21758000  1.0 -0.1129893146
B  B209  1  0.76370000  0.86080000  0.21758000  1.0 -0.1202018046
B  B210  1  0.09710000  0.23630000  0.21758000  1.0 -0.1129893146
B  B211  1  0.90290000  0.13920000  0.71758000  1.0 -0.1129893146
B  B212  1  0.86080000  0.76370000  0.71758000  1.0 -0.1129893146
B  B213  1  0.23630000  0.09710000  0.71758000  1.0 -0.1129893146
B  B214  1  0.86080000  0.09710000  0.78242000  1.0 -0.1129893146
B  B215  1  0.23630000  0.13920000  0.78242000  1.0 -0.1129893146
B  B216  1  0.90290000  0.76370000  0.78242000  1.0 -0.1129893146
H  H1  1  0.23260000  0.77160000  0.49370000  1.0 0.2723072473
H  H2  1  0.22840000  0.46100000  0.49370000  1.0 0.2723072473
H  H3  1  0.53900000  0.76740000  0.49370000  1.0 0.2723072473
H  H4  1  0.22840000  0.76740000  0.00630000  1.0 0.2723072473
H  H5  1  0.53900000  0.77160000  0.00630000  1.0 0.2723072473
H  H6  1  0.23260000  0.46100000  0.00630000  1.0 0.2723072473
H  H7  1  0.76740000  0.22840000  0.50630000  1.0 0.2723072473
H  H8  1  0.77160000  0.53900000  0.50630000  1.0 0.2723072473
H  H9  1  0.46100000  0.23260000  0.50630000  1.0 0.2723072473
H  H10  1  0.77160000  0.23260000  0.99370000  1.0 0.2723072473
H  H11  1  0.46100000  0.22840000  0.99370000  1.0 0.2723072473
H  H12  1  0.76740000  0.53900000  0.99370000  1.0 0.2723072473
H  H13  1  0.31440000  0.90410000  0.42400000  1.0 0.3088377852
H  H14  1  0.09590000  0.41030000  0.42400000  1.0 0.3088377852
H  H15  1  0.58970000  0.68560000  0.42400000  1.0 0.3088377852
H  H16  1  0.09590000  0.68560000  0.07600000  1.0 0.3088377852
H  H17  1  0.58970000  0.90410000  0.07600000  1.0 0.3088377852
H  H18  1  0.31440000  0.41030000  0.07600000  1.0 0.3088377852
H  H19  1  0.68560000  0.09590000  0.57600000  1.0 0.3088377852
H  H20  1  0.90410000  0.58970000  0.57600000  1.0 0.3088377852
H  H21  1  0.41030000  0.31440000  0.57600000  1.0 0.3088377852
H  H22  1  0.90410000  0.31440000  0.92400000  1.0 0.3088377852
H  H23  1  0.41030000  0.09590000  0.92400000  1.0 0.3088377852
H  H24  1  0.68560000  0.58970000  0.92400000  1.0 0.3088377852
H  H25  1  0.10250000  0.68520000  0.42370000  1.0 0.3088377852
H  H26  1  0.31480000  0.41730000  0.42370000  1.0 0.3088377852
H  H27  1  0.58270000  0.89750000  0.42370000  1.0 0.3088377852
H  H28  1  0.31480000  0.89750000  0.07630000  1.0 0.3088377852
H  H29  1  0.58270000  0.68520000  0.07630000  1.0 0.3088377852
H  H30  1  0.10250000  0.41730000  0.07630000  1.0 0.3088377852
H  H31  1  0.89750000  0.31480000  0.57630000  1.0 0.3088377852
H  H32  1  0.68520000  0.58270000  0.57630000  1.0 0.3046864473
H  H33  1  0.41730000  0.10250000  0.57630000  1.0 0.3088377852
H  H34  1  0.68520000  0.10250000  0.92370000  1.0 0.3088377852
H  H35  1  0.41730000  0.31480000  0.92370000  1.0 0.3088377852
H  H36  1  0.89750000  0.58270000  0.92370000  1.0 0.3088377852
H  H37  1  0.33540000  0.92620000  0.32190000  1.0 -0.1129893146
H  H38  1  0.07380000  0.40920000  0.32190000  1.0 -0.1202018046
H  H39  1  0.59080000  0.66460000  0.32190000  1.0 -0.1202018046
H  H40  1  0.07380000  0.66460000  0.17810000  1.0 -0.1202018046
H  H41  1  0.59080000  0.92620000  0.17810000  1.0 -0.1202018046
H  H42  1  0.33540000  0.40920000  0.17810000  1.0 -0.1202018046
H  H43  1  0.66460000  0.07380000  0.67810000  1.0 -0.1202018046
H  H44  1  0.92620000  0.59080000  0.67810000  1.0 -0.1129893146
H  H45  1  0.40920000  0.33540000  0.67810000  1.0 -0.1129893146
H  H46  1  0.92620000  0.33540000  0.82190000  1.0 -0.1129893146
H  H47  1  0.40920000  0.07380000  0.82190000  1.0 -0.1129893146
H  H48  1  0.66460000  0.59080000  0.82190000  1.0 -0.1202018046
H  H49  1  0.16300000  0.89900000  0.32080000  1.0 -0.0709590421
H  H50  1  0.10100000  0.26400000  0.32080000  1.0 -0.0709590421
H  H51  1  0.73600000  0.83700000  0.32080000  1.0 -0.0709590421
H  H52  1  0.10100000  0.83700000  0.17920000  1.0 -0.0709590421
H  H53  1  0.73600000  0.89900000  0.17920000  1.0 -0.0709590421
H  H54  1  0.16300000  0.26400000  0.17920000  1.0 -0.0709590421
H  H55  1  0.83700000  0.10100000  0.67920000  1.0 -0.0709590421
H  H56  1  0.89900000  0.73600000  0.67920000  1.0 -0.0709590421
H  H57  1  0.26400000  0.16300000  0.67920000  1.0 -0.0590598488
H  H58  1  0.89900000  0.16300000  0.82080000  1.0 -0.0590598488
H  H59  1  0.26400000  0.10100000  0.82080000  1.0 -0.0709590421
H  H60  1  0.83700000  0.73600000  0.82080000  1.0 -0.0709590421
H  H61  1  0.04500000  0.71700000  0.32120000  1.0 -0.1401649214
H  H62  1  0.28300000  0.32800000  0.32120000  1.0 -0.1401649214
H  H63  1  0.67200000  0.95500000  0.32120000  1.0 -0.1401649214
H  H64  1  0.28300000  0.95500000  0.17880000  1.0 -0.1401649214
H  H65  1  0.67200000  0.71700000  0.17880000  1.0 -0.1401649214
H  H66  1  0.04500000  0.32800000  0.17880000  1.0 -0.1401649214
H  H67  1  0.95500000  0.28300000  0.67880000  1.0 -0.1401649214
H  H68  1  0.71700000  0.67200000  0.67880000  1.0 -0.1401649214
H  H69  1  0.32800000  0.04500000  0.67880000  1.0 -0.1401649214
H  H70  1  0.71700000  0.04500000  0.82120000  1.0 -0.1401649214
H  H71  1  0.32800000  0.28300000  0.82120000  1.0 -0.1401649214
H  H72  1  0.95500000  0.67200000  0.82120000  1.0 -0.1401649214
H  H73  1  0.14520000  0.63450000  0.31840000  1.0 -0.0207024182
H  H74  1  0.36550000  0.51070000  0.31840000  1.0 -0.0207024182
H  H75  1  0.48930000  0.85480000  0.31840000  1.0 -0.0207024182
H  H76  1  0.36550000  0.85480000  0.18160000  1.0 -0.0207024182
H  H77  1  0.48930000  0.63450000  0.18160000  1.0 -0.0207024182
H  H78  1  0.14520000  0.51070000  0.18160000  1.0 -0.0207024182
H  H79  1  0.85480000  0.36550000  0.68160000  1.0 -0.0207024182
H  H80  1  0.63450000  0.48930000  0.68160000  1.0 -0.0207024182
H  H81  1  0.51070000  0.14520000  0.68160000  1.0 -0.0207024182
H  H82  1  0.63450000  0.14520000  0.81840000  1.0 -0.0207024182
H  H83  1  0.51070000  0.36550000  0.81840000  1.0 -0.0207024182
H  H84  1  0.85480000  0.48930000  0.81840000  1.0 -0.0207024182
H  H85  1  0.32320000  0.76030000  0.32280000  1.0 0.0187884075
H  H86  1  0.23970000  0.56290000  0.32280000  1.0 0.0187884075
H  H87  1  0.43710000  0.67680000  0.32280000  1.0 0.0187884075
H  H88  1  0.23970000  0.67680000  0.17720000  1.0 0.0187884075
H  H89  1  0.43710000  0.76030000  0.17720000  1.0 0.0187884075
H  H90  1  0.32320000  0.56290000  0.17720000  1.0 0.0187884075
H  H91  1  0.67680000  0.23970000  0.67720000  1.0 0.0092251737
H  H92  1  0.76030000  0.43710000  0.67720000  1.0 0.0092251737
H  H93  1  0.56290000  0.32320000  0.67720000  1.0 0.0187884075
H  H94  1  0.76030000  0.32320000  0.82280000  1.0 0.0092251737
H  H95  1  0.56290000  0.23970000  0.82280000  1.0 0.0187884075
H  H96  1  0.67680000  0.43710000  0.82280000  1.0 0.0092251737
H  H97  1  0.35640000  0.85190000  0.26990000  1.0 0.0659661474
H  H98  1  0.14810000  0.50450000  0.26990000  1.0 0.0659661474
H  H99  1  0.49550000  0.64360000  0.26990000  1.0 0.0659661474
H  H100  1  0.14810000  0.64360000  0.23010000  1.0 0.0659661474
H  H101  1  0.49550000  0.85190000  0.23010000  1.0 0.0636878529
H  H102  1  0.35640000  0.50450000  0.23010000  1.0 0.0659661474
H  H103  1  0.64360000  0.14810000  0.73010000  1.0 0.0636878529
H  H104  1  0.85190000  0.49550000  0.73010000  1.0 0.0636878529
H  H105  1  0.50450000  0.35640000  0.73010000  1.0 0.0659661474
H  H106  1  0.85190000  0.35640000  0.76990000  1.0 0.0636878529
H  H107  1  0.50450000  0.14810000  0.76990000  1.0 0.0659661474
H  H108  1  0.64360000  0.49550000  0.76990000  1.0 0.0636878529
H  H109  1  0.26430000  0.94770000  0.27130000  1.0 -0.207810178
H  H110  1  0.05230000  0.31660000  0.27130000  1.0 -0.207810178
H  H111  1  0.68340000  0.73570000  0.27130000  1.0 -0.207810178
H  H112  1  0.05230000  0.73570000  0.22870000  1.0 -0.207810178
H  H113  1  0.68340000  0.94770000  0.22870000  1.0 -0.207810178
H  H114  1  0.26430000  0.31660000  0.22870000  1.0 -0.207810178
H  H115  1  0.73570000  0.05230000  0.72870000  1.0 -0.207810178
H  H116  1  0.94770000  0.68340000  0.72870000  1.0 -0.207810178
H  H117  1  0.31660000  0.26430000  0.72870000  1.0 -0.207810178
H  H118  1  0.94770000  0.26430000  0.77130000  1.0 -0.207810178
H  H119  1  0.31660000  0.05230000  0.77130000  1.0 -0.207810178
H  H120  1  0.73570000  0.68340000  0.77130000  1.0 -0.207810178
H  H121  1  0.08320000  0.80930000  0.26870000  1.0 -0.1459205068
H  H122  1  0.19070000  0.27390000  0.26870000  1.0 -0.1459205068
H  H123  1  0.72610000  0.91680000  0.26870000  1.0 -0.1459205068
H  H124  1  0.19070000  0.91680000  0.23130000  1.0 -0.1459205068
H  H125  1  0.72610000  0.80930000  0.23130000  1.0 -0.1459205068
H  H126  1  0.08320000  0.27390000  0.23130000  1.0 -0.1459205068
H  H127  1  0.91680000  0.19070000  0.73130000  1.0 -0.1459205068
H  H128  1  0.80930000  0.72610000  0.73130000  1.0 -0.1459205068
H  H129  1  0.27390000  0.08320000  0.73130000  1.0 -0.1401649214
H  H130  1  0.80930000  0.08320000  0.76870000  1.0 -0.1459205068
H  H131  1  0.27390000  0.19070000  0.76870000  1.0 -0.1401649214
H  H132  1  0.91680000  0.72610000  0.76870000  1.0 -0.1459205068
H  H133  1  0.07370000  0.65860000  0.27370000  1.0 0.188846795
H  H134  1  0.34140000  0.41510000  0.27370000  1.0 0.188846795
H  H135  1  0.58490000  0.92630000  0.27370000  1.0 0.188846795
H  H136  1  0.34140000  0.92630000  0.22630000  1.0 0.188846795
H  H137  1  0.58490000  0.65860000  0.22630000  1.0 0.188846795
H  H138  1  0.07370000  0.41510000  0.22630000  1.0 0.188846795
H  H139  1  0.92630000  0.34140000  0.72630000  1.0 0.188846795
H  H140  1  0.65860000  0.58490000  0.72630000  1.0 0.188846795
H  H141  1  0.41510000  0.07370000  0.72630000  1.0 0.188846795
H  H142  1  0.65860000  0.07370000  0.77370000  1.0 0.1839373314
H  H143  1  0.41510000  0.34140000  0.77370000  1.0 0.188846795
H  H144  1  0.92630000  0.58490000  0.77370000  1.0 0.188846795
H  H145  1  0.24840000  0.68980000  0.27520000  1.0 0.2360366685
H  H146  1  0.31020000  0.55860000  0.27520000  1.0 0.2360366685
H  H147  1  0.44140000  0.75160000  0.27520000  1.0 0.2360366685
H  H148  1  0.31020000  0.75160000  0.22480000  1.0 0.2360366685
H  H149  1  0.44140000  0.68980000  0.22480000  1.0 0.2360366685
H  H150  1  0.24840000  0.55860000  0.22480000  1.0 0.2360366685
H  H151  1  0.75160000  0.31020000  0.72480000  1.0 0.2309433834
H  H152  1  0.68980000  0.44140000  0.72480000  1.0 0.2309433834
H  H153  1  0.55860000  0.24840000  0.72480000  1.0 0.2309433834
H  H154  1  0.68980000  0.24840000  0.77520000  1.0 0.2309433834
H  H155  1  0.55860000  0.31020000  0.77520000  1.0 0.2309433834
H  H156  1  0.75160000  0.44140000  0.77520000  1.0 0.2309433834
H  H157  1  0.02640000  0.71930000  0.27680000  1.0 0.0305519955
H  H158  1  0.28070000  0.30710000  0.27680000  1.0 0.0305519955
H  H159  1  0.69290000  0.97360000  0.27680000  1.0 0.0305519955
H  H160  1  0.28070000  0.97360000  0.22320000  1.0 0.0305519955
H  H161  1  0.69290000  0.71930000  0.22320000  1.0 0.0305519955
H  H162  1  0.02640000  0.30710000  0.22320000  1.0 0.0305519955
H  H163  1  0.97360000  0.28070000  0.72320000  1.0 0.0305519955
H  H164  1  0.71930000  0.69290000  0.72320000  1.0 0.0305519955
H  H165  1  0.30710000  0.02640000  0.72320000  1.0 0.0305519955
H  H166  1  0.71930000  0.02640000  0.77680000  1.0 0.0305519955
H  H167  1  0.30710000  0.28070000  0.77680000  1.0 0.0305519955
H  H168  1  0.97360000  0.69290000  0.77680000  1.0 0.0305519955
H  H169  1  0.20920000  0.75000000  0.27280000  1.0 -0.1129893146
H  H170  1  0.25000000  0.45920000  0.27280000  1.0 -0.1129893146
H  H171  1  0.54080000  0.79080000  0.27280000  1.0 -0.1202018046
H  H172  1  0.25000000  0.79080000  0.22720000  1.0 -0.1129893146
H  H173  1  0.54080000  0.75000000  0.22720000  1.0 -0.1202018046
H  H174  1  0.20920000  0.45920000  0.22720000  1.0 -0.1129893146
H  H175  1  0.79080000  0.25000000  0.72720000  1.0 -0.1129893146
H  H176  1  0.75000000  0.54080000  0.72720000  1.0 -0.1202018046
H  H177  1  0.45920000  0.20920000  0.72720000  1.0 -0.1129893146
H  H178  1  0.75000000  0.20920000  0.77280000  1.0 -0.1129893146
H  H179  1  0.45920000  0.25000000  0.77280000  1.0 -0.1129893146
H  H180  1  0.79080000  0.54080000  0.77280000  1.0 -0.1129893146
H  H181  1  0.30770000  0.97010000  0.32220000  1.0 -0.1202018046
H  H182  1  0.02990000  0.33760000  0.32220000  1.0 -0.1202018046
H  H183  1  0.66240000  0.69230000  0.32220000  1.0 -0.1290581714
H  H184  1  0.02990000  0.69230000  0.17780000  1.0 -0.1202018046
H  H185  1  0.66240000  0.97010000  0.17780000  1.0 -0.1290581714
H  H186  1  0.30770000  0.33760000  0.17780000  1.0 -0.1202018046
H  H187  1  0.69230000  0.02990000  0.67780000  1.0 -0.1202018046
H  H188  1  0.97010000  0.66240000  0.67780000  1.0 -0.1202018046
H  H189  1  0.33760000  0.30770000  0.67780000  1.0 -0.1202018046
H  H190  1  0.97010000  0.30770000  0.82220000  1.0 -0.1202018046
H  H191  1  0.33760000  0.02990000  0.82220000  1.0 -0.1202018046
H  H192  1  0.69230000  0.66240000  0.82220000  1.0 -0.1202018046
H  H193  1  0.14410000  0.94770000  0.32810000  1.0 -0.1290581714
H  H194  1  0.05230000  0.19640000  0.32810000  1.0 -0.1290581714
H  H195  1  0.80360000  0.85590000  0.32810000  1.0 -0.1290581714
H  H196  1  0.05230000  0.85590000  0.17190000  1.0 -0.1290581714
H  H197  1  0.80360000  0.94770000  0.17190000  1.0 -0.1290581714
H  H198  1  0.14410000  0.19640000  0.17190000  1.0 -0.1290581714
H  H199  1  0.85590000  0.05230000  0.67190000  1.0 -0.1290581714
H  H200  1  0.94770000  0.80360000  0.67190000  1.0 -0.1290581714
H  H201  1  0.19640000  0.14410000  0.67190000  1.0 -0.1202018046
H  H202  1  0.94770000  0.14410000  0.82810000  1.0 -0.1290581714
H  H203  1  0.19640000  0.05230000  0.82810000  1.0 -0.1290581714
H  H204  1  0.85590000  0.80360000  0.82810000  1.0 -0.1202018046
H  H205  1  0.02090000  0.77420000  0.32700000  1.0 -0.079658649
H  H206  1  0.22580000  0.24670000  0.32700000  1.0 -0.079658649
H  H207  1  0.75330000  0.97910000  0.32700000  1.0 -0.079658649
H  H208  1  0.22580000  0.97910000  0.17300000  1.0 -0.079658649
H  H209  1  0.75330000  0.77420000  0.17300000  1.0 -0.079658649
H  H210  1  0.02090000  0.24670000  0.17300000  1.0 -0.079658649
H  H211  1  0.97910000  0.22580000  0.67300000  1.0 -0.079658649
H  H212  1  0.77420000  0.75330000  0.67300000  1.0 -0.079658649
H  H213  1  0.24670000  0.02090000  0.67300000  1.0 -0.079658649
H  H214  1  0.77420000  0.02090000  0.82700000  1.0 -0.079658649
H  H215  1  0.24670000  0.22580000  0.82700000  1.0 -0.079658649
H  H216  1  0.97910000  0.75330000  0.82700000  1.0 -0.079658649
H  H217  1  0.10750000  0.67890000  0.31280000  1.0 -0.1844382084
H  H218  1  0.32110000  0.42860000  0.31280000  1.0 -0.1844382084
H  H219  1  0.57140000  0.89250000  0.31280000  1.0 -0.1857185162
H  H220  1  0.32110000  0.89250000  0.18720000  1.0 -0.1844382084
H  H221  1  0.57140000  0.67890000  0.18720000  1.0 -0.1857185162
H  H222  1  0.10750000  0.42860000  0.18720000  1.0 -0.1844382084
H  H223  1  0.89250000  0.32110000  0.68720000  1.0 -0.1844382084
H  H224  1  0.67890000  0.57140000  0.68720000  1.0 -0.1857185162
H  H225  1  0.42860000  0.10750000  0.68720000  1.0 -0.1844382084
H  H226  1  0.67890000  0.10750000  0.81280000  1.0 -0.1844382084
H  H227  1  0.42860000  0.32110000  0.81280000  1.0 -0.1844382084
H  H228  1  0.89250000  0.57140000  0.81280000  1.0 -0.1857185162
H  H229  1  0.29360000  0.80120000  0.31510000  1.0 -0.1290581714
H  H230  1  0.19880000  0.49240000  0.31510000  1.0 -0.1290581714
H  H231  1  0.50760000  0.70640000  0.31510000  1.0 -0.1401649214
H  H232  1  0.19880000  0.70640000  0.18490000  1.0 -0.1290581714
H  H233  1  0.50760000  0.80120000  0.18490000  1.0 -0.1401649214
H  H234  1  0.29360000  0.49240000  0.18490000  1.0 -0.1290581714
H  H235  1  0.70640000  0.19880000  0.68490000  1.0 -0.1401649214
H  H236  1  0.80120000  0.50760000  0.68490000  1.0 -0.1401649214
H  H237  1  0.49240000  0.29360000  0.68490000  1.0 -0.1290581714
H  H238  1  0.80120000  0.29360000  0.81510000  1.0 -0.1290581714
H  H239  1  0.49240000  0.19880000  0.81510000  1.0 -0.1290581714
H  H240  1  0.70640000  0.50760000  0.81510000  1.0 -0.1401649214
H  H241  1  0.32100000  0.90800000  0.26750000  1.0 -0.1629785445
H  H242  1  0.09200000  0.41300000  0.26750000  1.0 -0.1629785445
H  H243  1  0.58700000  0.67900000  0.26750000  1.0 -0.1629785445
H  H244  1  0.09200000  0.67900000  0.23250000  1.0 -0.1629785445
H  H245  1  0.58700000  0.90800000  0.23250000  1.0 -0.1629785445
H  H246  1  0.32100000  0.41300000  0.23250000  1.0 -0.1629785445
H  H247  1  0.67900000  0.09200000  0.73250000  1.0 -0.1629785445
H  H248  1  0.90800000  0.58700000  0.73250000  1.0 -0.1629785445
H  H249  1  0.41300000  0.32100000  0.73250000  1.0 -0.1629785445
H  H250  1  0.90800000  0.32100000  0.76750000  1.0 -0.1629785445
H  H251  1  0.41300000  0.09200000  0.76750000  1.0 -0.1629785445
H  H252  1  0.67900000  0.58700000  0.76750000  1.0 -0.1629785445
H  H253  1  0.22830000  0.99620000  0.27140000  1.0 -0.0307520435
H  H254  1  0.00380000  0.23210000  0.27140000  1.0 -0.0307520435
H  H255  1  0.76790000  0.77170000  0.27140000  1.0 -0.0307520435
H  H256  1  0.00380000  0.77170000  0.22860000  1.0 -0.0307520435
H  H257  1  0.76790000  0.99620000  0.22860000  1.0 -0.0307520435
H  H258  1  0.22830000  0.23210000  0.22860000  1.0 -0.0307520435
H  H259  1  0.77170000  0.00380000  0.72860000  1.0 -0.0307520435
H  H260  1  0.99620000  0.76790000  0.72860000  1.0 -0.0307520435
H  H261  1  0.23210000  0.22830000  0.72860000  1.0 -0.0307520435
H  H262  1  0.99620000  0.22830000  0.77140000  1.0 -0.0307520435
H  H263  1  0.23210000  0.00380000  0.77140000  1.0 -0.0307520435
H  H264  1  0.77170000  0.76790000  0.77140000  1.0 -0.0307520435
H  H265  1  0.05030000  0.87590000  0.27370000  1.0 0.0187884075
H  H266  1  0.12410000  0.17440000  0.27370000  1.0 0.0187884075
H  H267  1  0.82560000  0.94970000  0.27370000  1.0 0.0187884075
H  H268  1  0.12410000  0.94970000  0.22630000  1.0 0.0187884075
H  H269  1  0.82560000  0.87590000  0.22630000  1.0 0.0187884075
H  H270  1  0.05030000  0.17440000  0.22630000  1.0 0.0187884075
H  H271  1  0.94970000  0.12410000  0.72630000  1.0 0.0187884075
H  H272  1  0.87590000  0.82560000  0.72630000  1.0 0.0187884075
H  H273  1  0.17440000  0.05030000  0.72630000  1.0 0.0187884075
H  H274  1  0.87590000  0.05030000  0.77370000  1.0 0.0187884075
H  H275  1  0.17440000  0.12410000  0.77370000  1.0 0.0187884075
H  H276  1  0.94970000  0.82560000  0.77370000  1.0 0.0187884075
C  C1  1  0.36130000  0.91080000  0.47780000  1.0 0.7208549434
C  C2  1  0.08920000  0.45050000  0.47780000  1.0 0.7208549434
C  C3  1  0.54950000  0.63870000  0.47780000  1.0 0.7208549434
C  C4  1  0.08920000  0.63870000  0.02220000  1.0 0.7208549434
C  C5  1  0.54950000  0.91080000  0.02220000  1.0 0.7208549434
C  C6  1  0.36130000  0.45050000  0.02220000  1.0 0.7208549434
C  C7  1  0.63870000  0.08920000  0.52220000  1.0 0.7208549434
C  C8  1  0.91080000  0.54950000  0.52220000  1.0 0.7208549434
C  C9  1  0.45050000  0.36130000  0.52220000  1.0 0.7208549434
C  C10  1  0.91080000  0.36130000  0.97780000  1.0 0.7208549434
C  C11  1  0.45050000  0.08920000  0.97780000  1.0 0.7208549434
C  C12  1  0.63870000  0.54950000  0.97780000  1.0 0.7208549434
C  C13  1  0.28310000  0.84660000  0.46090000  1.0 0.127456065
C  C14  1  0.15340000  0.43650000  0.46090000  1.0 0.127456065
C  C15  1  0.56350000  0.71690000  0.46090000  1.0 0.127456065
C  C16  1  0.15340000  0.71690000  0.03910000  1.0 0.127456065
C  C17  1  0.56350000  0.84660000  0.03910000  1.0 0.127456065
C  C18  1  0.28310000  0.43650000  0.03910000  1.0 0.127456065
C  C19  1  0.71690000  0.15340000  0.53910000  1.0 0.127456065
C  C20  1  0.84660000  0.56350000  0.53910000  1.0 0.127456065
C  C21  1  0.43650000  0.28310000  0.53910000  1.0 0.127456065
C  C22  1  0.84660000  0.28310000  0.96090000  1.0 0.127456065
C  C23  1  0.43650000  0.15340000  0.96090000  1.0 0.127456065
C  C24  1  0.71690000  0.56350000  0.96090000  1.0 0.127456065
C  C25  1  0.22480000  0.77900000  0.47470000  1.0 0.0092251737
C  C26  1  0.22100000  0.44580000  0.47470000  1.0 0.0092251737
C  C27  1  0.55420000  0.77520000  0.47470000  1.0 0.0092251737
C  C28  1  0.22100000  0.77520000  0.02530000  1.0 0.0092251737
C  C29  1  0.55420000  0.77900000  0.02530000  1.0 0.0092251737
C  C30  1  0.22480000  0.44580000  0.02530000  1.0 0.0092251737
C  C31  1  0.77520000  0.22100000  0.52530000  1.0 0.0092251737
C  C32  1  0.77900000  0.55420000  0.52530000  1.0 0.0092251737
C  C33  1  0.44580000  0.22480000  0.52530000  1.0 0.0092251737
C  C34  1  0.77900000  0.22480000  0.97470000  1.0 0.0092251737
C  C35  1  0.44580000  0.22100000  0.97470000  1.0 0.0092251737
C  C36  1  0.77520000  0.55420000  0.97470000  1.0 0.0092251737
C  C37  1  0.27370000  0.85660000  0.43360000  1.0 0.0305519955
C  C38  1  0.14340000  0.41710000  0.43360000  1.0 0.0305519955
C  C39  1  0.58290000  0.72630000  0.43360000  1.0 0.0305519955
C  C40  1  0.14340000  0.72630000  0.06640000  1.0 0.0305519955
C  C41  1  0.58290000  0.85660000  0.06640000  1.0 0.0305519955
C  C42  1  0.27370000  0.41710000  0.06640000  1.0 0.0305519955
C  C43  1  0.72630000  0.14340000  0.56640000  1.0 0.0305519955
C  C44  1  0.85660000  0.58290000  0.56640000  1.0 0.0305519955
C  C45  1  0.41710000  0.27370000  0.56640000  1.0 0.0305519955
C  C46  1  0.85660000  0.27370000  0.93360000  1.0 0.0305519955
C  C47  1  0.41710000  0.14340000  0.93360000  1.0 0.0305519955
C  C48  1  0.72630000  0.58290000  0.93360000  1.0 0.0305519955
C  C49  1  0.15530000  0.72170000  0.46130000  1.0 0.1530582745
C  C50  1  0.27830000  0.43360000  0.46130000  1.0 0.1530582745
C  C51  1  0.56640000  0.84470000  0.46130000  1.0 0.1530582745
C  C52  1  0.27830000  0.84470000  0.03870000  1.0 0.1530582745
C  C53  1  0.56640000  0.72170000  0.03870000  1.0 0.1530582745
C  C54  1  0.15530000  0.43360000  0.03870000  1.0 0.1530582745
C  C55  1  0.84470000  0.27830000  0.53870000  1.0 0.1530582745
C  C56  1  0.72170000  0.56640000  0.53870000  1.0 0.1530582745
C  C57  1  0.43360000  0.15530000  0.53870000  1.0 0.1530582745
C  C58  1  0.72170000  0.15530000  0.96130000  1.0 0.1530582745
C  C59  1  0.43360000  0.27830000  0.96130000  1.0 0.1530582745
C  C60  1  0.84470000  0.56640000  0.96130000  1.0 0.1530582745
C  C61  1  0.20500000  0.79780000  0.42000000  1.0 0.1971330143
C  C62  1  0.20220000  0.40720000  0.42000000  1.0 0.1971330143
C  C63  1  0.59280000  0.79500000  0.42000000  1.0 0.1971330143
C  C64  1  0.20220000  0.79500000  0.08000000  1.0 0.1971330143
C  C65  1  0.59280000  0.79780000  0.08000000  1.0 0.1971330143
C  C66  1  0.20500000  0.40720000  0.08000000  1.0 0.1971330143
C  C67  1  0.79500000  0.20220000  0.58000000  1.0 0.1971330143
C  C68  1  0.79780000  0.59280000  0.58000000  1.0 0.1971330143
C  C69  1  0.40720000  0.20500000  0.58000000  1.0 0.1971330143
C  C70  1  0.79780000  0.20500000  0.92000000  1.0 0.1971330143
C  C71  1  0.40720000  0.20220000  0.92000000  1.0 0.1971330143
C  C72  1  0.79500000  0.59280000  0.92000000  1.0 0.1971330143
C  C73  1  0.14750000  0.72840000  0.43360000  1.0 0.0092251737
C  C74  1  0.27160000  0.41910000  0.43360000  1.0 0.0092251737
C  C75  1  0.58090000  0.85250000  0.43360000  1.0 0.0092251737
C  C76  1  0.27160000  0.85250000  0.06640000  1.0 0.0092251737
C  C77  1  0.58090000  0.72840000  0.06640000  1.0 0.0092251737
C  C78  1  0.14750000  0.41910000  0.06640000  1.0 0.0092251737
C  C79  1  0.85250000  0.27160000  0.56640000  1.0 0.0092251737
C  C80  1  0.72840000  0.58090000  0.56640000  1.0 0.0092251737
C  C81  1  0.41910000  0.14750000  0.56640000  1.0 0.0092251737
C  C82  1  0.72840000  0.14750000  0.93360000  1.0 0.0092251737
C  C83  1  0.41910000  0.27160000  0.93360000  1.0 0.0092251737
C  C84  1  0.85250000  0.58090000  0.93360000  1.0 0.0092251737
C  C85  1  0.08910000  0.63640000  0.47580000  1.0 0.7134209999
C  C86  1  0.36360000  0.45270000  0.47580000  1.0 0.7208549434
C  C87  1  0.54730000  0.91090000  0.47580000  1.0 0.7208549434
C  C88  1  0.36360000  0.91090000  0.02420000  1.0 0.7134209999
C  C89  1  0.54730000  0.63640000  0.02420000  1.0 0.7208549434
C  C90  1  0.08910000  0.45270000  0.02420000  1.0 0.7134209999
C  C91  1  0.91090000  0.36360000  0.52420000  1.0 0.7134209999
C  C92  1  0.63640000  0.54730000  0.52420000  1.0 0.7134209999
C  C93  1  0.45270000  0.08910000  0.52420000  1.0 0.7134209999
C  C94  1  0.63640000  0.08910000  0.97580000  1.0 0.7134209999
C  C95  1  0.45270000  0.36360000  0.97580000  1.0 0.7208549434
C  C96  1  0.91090000  0.54730000  0.97580000  1.0 0.7134209999
C  C97  1  0.19840000  0.79880000  0.38990000  1.0 -0.1401649214
C  C98  1  0.20120000  0.39960000  0.38990000  1.0 -0.1401649214
C  C99  1  0.60040000  0.80160000  0.38990000  1.0 -0.1401649214
C  C100  1  0.20120000  0.80160000  0.11010000  1.0 -0.1401649214
C  C101  1  0.60040000  0.79880000  0.11010000  1.0 -0.1401649214
C  C102  1  0.19840000  0.39960000  0.11010000  1.0 -0.1401649214
C  C103  1  0.80160000  0.20120000  0.61010000  1.0 -0.1401649214
C  C104  1  0.79880000  0.60040000  0.61010000  1.0 -0.1401649214
C  C105  1  0.39960000  0.19840000  0.61010000  1.0 -0.1401649214
C  C106  1  0.79880000  0.19840000  0.88990000  1.0 -0.1401649214
C  C107  1  0.39960000  0.20120000  0.88990000  1.0 -0.1401649214
C  C108  1  0.80160000  0.60040000  0.88990000  1.0 -0.1401649214
C  C109  1  0.19960000  0.79240000  0.36360000  1.0 -0.0497360603
C  C110  1  0.20760000  0.40720000  0.36360000  1.0 -0.0405490377
C  C111  1  0.59280000  0.80040000  0.36360000  1.0 -0.0405490377
C  C112  1  0.20760000  0.80040000  0.13640000  1.0 -0.0405490377
C  C113  1  0.59280000  0.79240000  0.13640000  1.0 -0.0497360603
C  C114  1  0.19960000  0.40720000  0.13640000  1.0 -0.0405490377
C  C115  1  0.80040000  0.20760000  0.63640000  1.0 -0.0405490377
C  C116  1  0.79240000  0.59280000  0.63640000  1.0 -0.0405490377
C  C117  1  0.40720000  0.19960000  0.63640000  1.0 -0.0405490377
C  C118  1  0.79240000  0.19960000  0.86360000  1.0 -0.0405490377
C  C119  1  0.40720000  0.20760000  0.86360000  1.0 -0.0405490377
C  C120  1  0.80040000  0.59280000  0.86360000  1.0 -0.0405490377
C  C121  1  0.12850000  0.71480000  0.28270000  1.0 -0.0709590421
C  C122  1  0.28520000  0.41370000  0.28270000  1.0 -0.0709590421
C  C123  1  0.58630000  0.87150000  0.28270000  1.0 -0.0709590421
C  C124  1  0.28520000  0.87150000  0.21730000  1.0 -0.0709590421
C  C125  1  0.58630000  0.71480000  0.21730000  1.0 -0.0709590421
C  C126  1  0.12850000  0.41370000  0.21730000  1.0 -0.0709590421
C  C127  1  0.87150000  0.28520000  0.71730000  1.0 -0.079658649
C  C128  1  0.71480000  0.58630000  0.71730000  1.0 -0.079658649
C  C129  1  0.41370000  0.12850000  0.71730000  1.0 -0.079658649
C  C130  1  0.71480000  0.12850000  0.78270000  1.0 -0.079658649
C  C131  1  0.41370000  0.28520000  0.78270000  1.0 -0.079658649
C  C132  1  0.87150000  0.58630000  0.78270000  1.0 -0.079658649
C  C133  1  0.22910000  0.73360000  0.28390000  1.0 -0.0497360603
C  C134  1  0.26640000  0.49550000  0.28390000  1.0 -0.0497360603
C  C135  1  0.50450000  0.77090000  0.28390000  1.0 -0.0497360603
C  C136  1  0.26640000  0.77090000  0.21610000  1.0 -0.0497360603
C  C137  1  0.50450000  0.73360000  0.21610000  1.0 -0.0590598488
C  C138  1  0.22910000  0.49550000  0.21610000  1.0 -0.0497360603
C  C139  1  0.77090000  0.26640000  0.71610000  1.0 -0.0590598488
C  C140  1  0.73360000  0.50450000  0.71610000  1.0 -0.0590598488
C  C141  1  0.49550000  0.22910000  0.71610000  1.0 -0.0497360603
C  C142  1  0.73360000  0.22910000  0.78390000  1.0 -0.0590598488
C  C143  1  0.49550000  0.26640000  0.78390000  1.0 -0.0497360603
C  C144  1  0.77090000  0.50450000  0.78390000  1.0 -0.0590598488
C  C145  1  0.18840000  0.81510000  0.36300000  1.0 -0.0307520435
C  C146  1  0.18490000  0.37330000  0.36300000  1.0 -0.0307520435
C  C147  1  0.62670000  0.81160000  0.36300000  1.0 -0.0307520435
C  C148  1  0.18490000  0.81160000  0.13700000  1.0 -0.0307520435
C  C149  1  0.62670000  0.81510000  0.13700000  1.0 -0.0307520435
C  C150  1  0.18840000  0.37330000  0.13700000  1.0 -0.0307520435
C  C151  1  0.81160000  0.18490000  0.63700000  1.0 -0.0307520435
C  C152  1  0.81510000  0.62670000  0.63700000  1.0 -0.0307520435
C  C153  1  0.37330000  0.18840000  0.63700000  1.0 -0.0307520435
C  C154  1  0.81510000  0.18840000  0.86300000  1.0 -0.0405490377
C  C155  1  0.37330000  0.18490000  0.86300000  1.0 -0.0405490377
C  C156  1  0.81160000  0.62670000  0.86300000  1.0 -0.0307520435
C  C157  1  0.08720000  0.77140000  0.28442000  1.0 -0.079658649
C  C158  1  0.22860000  0.31580000  0.28442000  1.0 -0.079658649
C  C159  1  0.68420000  0.91280000  0.28442000  1.0 -0.079658649
C  C160  1  0.22860000  0.91280000  0.21558000  1.0 -0.079658649
C  C161  1  0.68420000  0.77140000  0.21558000  1.0 -0.079658649
C  C162  1  0.08720000  0.31580000  0.21558000  1.0 -0.079658649
C  C163  1  0.91280000  0.22860000  0.71558000  1.0 -0.079658649
C  C164  1  0.77140000  0.68420000  0.71558000  1.0 -0.079658649
C  C165  1  0.31580000  0.08720000  0.71558000  1.0 -0.079658649
C  C166  1  0.77140000  0.08720000  0.78442000  1.0 -0.079658649
C  C167  1  0.31580000  0.22860000  0.78442000  1.0 -0.079658649
C  C168  1  0.91280000  0.68420000  0.78442000  1.0 -0.079658649
C  C169  1  0.18970000  0.79150000  0.28323000  1.0 -0.011273113
C  C170  1  0.20850000  0.39820000  0.28323000  1.0 -0.011273113
C  C171  1  0.60180000  0.81030000  0.28323000  1.0 -0.011273113
C  C172  1  0.20850000  0.81030000  0.21677000  1.0 -0.011273113
C  C173  1  0.60180000  0.79150000  0.21677000  1.0 -0.011273113
C  C174  1  0.18970000  0.39820000  0.21677000  1.0 -0.011273113
C  C175  1  0.81030000  0.20850000  0.71677000  1.0 -0.011273113
C  C176  1  0.79150000  0.60180000  0.71677000  1.0 -0.011273113
C  C177  1  0.39820000  0.18970000  0.71677000  1.0 -0.011273113
C  C178  1  0.79150000  0.18970000  0.78323000  1.0 -0.011273113
C  C179  1  0.39820000  0.20850000  0.78323000  1.0 -0.011273113
C  C180  1  0.81030000  0.60180000  0.78323000  1.0 -0.011273113
O  O1  1  0.41670000  0.97960000  0.46300000  1.0 -0.3997618966
O  O2  1  0.02040000  0.43710000  0.46300000  1.0 -0.3997618966
O  O3  1  0.56290000  0.58330000  0.46300000  1.0 -0.3997618966
O  O4  1  0.02040000  0.58330000  0.03700000  1.0 -0.3997618966
O  O5  1  0.56290000  0.97960000  0.03700000  1.0 -0.3997618966
O  O6  1  0.41670000  0.43710000  0.03700000  1.0 -0.3997618966
O  O7  1  0.58330000  0.02040000  0.53700000  1.0 -0.3997618966
O  O8  1  0.97960000  0.56290000  0.53700000  1.0 -0.3997618966
O  O9  1  0.43710000  0.41670000  0.53700000  1.0 -0.3997618966
O  O10  1  0.97960000  0.41670000  0.96300000  1.0 -0.3997618966
O  O11  1  0.43710000  0.02040000  0.96300000  1.0 -0.3997618966
O  O12  1  0.58330000  0.56290000  0.96300000  1.0 -0.3997618966
O  O13  1  0.62630000  0.10870000  0.49580000  1.0 -0.3997618966
O  O14  1  0.89130000  0.51760000  0.49580000  1.0 -0.3997618966
O  O15  1  0.48240000  0.37370000  0.49580000  1.0 -0.3997618966
O  O16  1  0.89130000  0.37370000  0.00420000  1.0 -0.3997618966
O  O17  1  0.48240000  0.10870000  0.00420000  1.0 -0.3997618966
O  O18  1  0.62630000  0.51760000  0.00420000  1.0 -0.3997618966
O  O19  1  0.37370000  0.89130000  0.50420000  1.0 -0.3997618966
O  O20  1  0.10870000  0.48240000  0.50420000  1.0 -0.3997618966
O  O21  1  0.51760000  0.62630000  0.50420000  1.0 -0.3997618966
O  O22  1  0.10870000  0.62630000  0.99580000  1.0 -0.3997618966
O  O23  1  0.51760000  0.89130000  0.99580000  1.0 -0.3997618966
O  O24  1  0.37370000  0.48240000  0.99580000  1.0 -0.3997618966
O  O25  1  0.47950000  0.10400000  0.49680000  1.0 -0.3997618966
O  O26  1  0.89600000  0.37550000  0.49680000  1.0 -0.3997618966
O  O27  1  0.62450000  0.52050000  0.49680000  1.0 -0.3997618966
O  O28  1  0.89600000  0.52050000  0.00320000  1.0 -0.3997618966
O  O29  1  0.62450000  0.10400000  0.00320000  1.0 -0.3997618966
O  O30  1  0.47950000  0.37550000  0.00320000  1.0 -0.3997618966
O  O31  1  0.52050000  0.89600000  0.50320000  1.0 -0.3997618966
O  O32  1  0.10400000  0.62450000  0.50320000  1.0 -0.3997618966
O  O33  1  0.37550000  0.47950000  0.50320000  1.0 -0.3997618966
O  O34  1  0.10400000  0.47950000  0.99680000  1.0 -0.3997618966
O  O35  1  0.37550000  0.89600000  0.99680000  1.0 -0.3997618966
O  O36  1  0.52050000  0.62450000  0.99680000  1.0 -0.3997618966
O  O37  1  0.56390000  0.98420000  0.46290000  1.0 -0.3791895555
O  O38  1  0.01580000  0.57970000  0.46290000  1.0 -0.3791895555
O  O39  1  0.42030000  0.43610000  0.46290000  1.0 -0.3791895555
O  O40  1  0.01580000  0.43610000  0.03710000  1.0 -0.3791895555
O  O41  1  0.42030000  0.98420000  0.03710000  1.0 -0.3791895555
O  O42  1  0.56390000  0.57970000  0.03710000  1.0 -0.3791895555
O  O43  1  0.43610000  0.01580000  0.53710000  1.0 -0.3791895555
O  O44  1  0.98420000  0.42030000  0.53710000  1.0 -0.3791895555
O  O45  1  0.57970000  0.56390000  0.53710000  1.0 -0.3791895555
O  O46  1  0.98420000  0.56390000  0.96290000  1.0 -0.3791895555
O  O47  1  0.57970000  0.01580000  0.96290000  1.0 -0.3791895555
O  O48  1  0.43610000  0.42030000  0.96290000  1.0 -0.3791895555
