# DDEC6 charges by PACMAN v1.1 (https://github.com/mtap-research/PACMAN-charge/)
data_SOKXOH_ASR_pacman
_symmetry_space_group_name_H-M   'P 1'
_cell_length_a   38.32540000
_cell_length_b   38.32540000
_cell_length_c   38.32540000
_cell_angle_alpha   123.04400000
_cell_angle_beta   120.30600000
_cell_angle_gamma   87.14010000
_symmetry_Int_Tables_number   1
_chemical_formula_structural   Co3Cu6B72H98(C19O6)4
_chemical_formula_sum   'Co12 Cu24 B288 H392 C304 O96'
_cell_volume   38715.82590661
_cell_formula_units_Z   4
loop_
 _symmetry_equiv_pos_site_id
 _symmetry_equiv_pos_as_xyz
  1  'x, y, z'
loop_
 _atom_site_type_symbol
 _atom_site_label
 _atom_site_symmetry_multiplicity
 _atom_site_fract_x
 _atom_site_fract_y
 _atom_site_fract_z
 _atom_site_occupancy
 _atom_site_charge
Co  Co1  1  0.53066000  0.46055000  0.60471000  1.0 0.2068481073
Co  Co2  1  0.85584000  0.92595000  0.39529000  1.0 0.2068481073
Co  Co3  1  0.14416000  0.53945000  0.07011000  1.0 0.2068481073
Co  Co4  1  0.46934000  0.07405000  0.92989000  1.0 0.2068481073
Co  Co5  1  0.46934000  0.53945000  0.39529000  1.0 0.2068481073
Co  Co6  1  0.14416000  0.07405000  0.60471000  1.0 0.2068481073
Co  Co7  1  0.85584000  0.46055000  0.92989000  1.0 0.2068481073
Co  Co8  1  0.53066000  0.92595000  0.07011000  1.0 0.2068481073
Co  Co9  1  0.80382000  0.42383000  0.37999000  1.0 0.1541524893
Co  Co10  1  0.04384000  0.42383000  0.62001000  1.0 0.1541524893
Co  Co11  1  0.95616000  0.57617000  0.37999000  1.0 0.1541524893
Co  Co12  1  0.19618000  0.57617000  0.62001000  1.0 0.1541524893
Cu  Cu1  1  0.66065000  0.86148000  0.79917000  1.0 0.9501941
Cu  Cu2  1  0.06231000  0.86148000  0.20083000  1.0 0.9501941
Cu  Cu3  1  0.93769000  0.13852000  0.79917000  1.0 0.9501941
Cu  Cu4  1  0.33935000  0.13852000  0.20083000  1.0 0.9501941
Cu  Cu5  1  0.74337000  0.89675000  0.84662000  1.0 0.9903176968
Cu  Cu6  1  0.05013000  0.89675000  0.15338000  1.0 0.9903176968
Cu  Cu7  1  0.94987000  0.10325000  0.84662000  1.0 0.9903176968
Cu  Cu8  1  0.25663000  0.10325000  0.15338000  1.0 0.9903176968
Cu  Cu9  1  0.86854000  0.66715000  0.79861000  1.0 0.999975184
Cu  Cu10  1  0.86854000  0.06993000  0.20139000  1.0 0.999975184
Cu  Cu11  1  0.13146000  0.33285000  0.20139000  1.0 0.999975184
Cu  Cu12  1  0.13146000  0.93007000  0.79861000  1.0 0.999975184
Cu  Cu13  1  0.90026000  0.75240000  0.85214000  1.0 0.9615031426
Cu  Cu14  1  0.90026000  0.04812000  0.14786000  1.0 0.9615031426
Cu  Cu15  1  0.09974000  0.24760000  0.14786000  1.0 0.9615031426
Cu  Cu16  1  0.09974000  0.95188000  0.85214000  1.0 0.9615031426
Cu  Cu17  1  0.79778000  0.80036000  0.59814000  1.0 1.0329728071
Cu  Cu18  1  0.20222000  0.19964000  0.40186000  1.0 1.0329728071
Cu  Cu19  1  0.79778000  0.19964000  0.99742000  1.0 1.0329728071
Cu  Cu20  1  0.20222000  0.80036000  0.00258000  1.0 1.0329728071
Cu  Cu21  1  0.84367000  0.85461000  0.69828000  1.0 1.0329728071
Cu  Cu22  1  0.15633000  0.14539000  0.30172000  1.0 1.0329728071
Cu  Cu23  1  0.84367000  0.14539000  0.98906000  1.0 1.0329728071
Cu  Cu24  1  0.15633000  0.85461000  0.01094000  1.0 1.0329728071
B  B1  1  0.60900000  0.57560000  0.68840000  1.0 0.094349489
B  B2  1  0.88720000  0.92060000  0.31160000  1.0 0.094349489
B  B3  1  0.11280000  0.42440000  0.03340000  1.0 0.094349489
B  B4  1  0.39100000  0.07940000  0.96660000  1.0 0.094349489
B  B5  1  0.39100000  0.42440000  0.31160000  1.0 0.094349489
B  B6  1  0.11280000  0.07940000  0.68840000  1.0 0.094349489
B  B7  1  0.88720000  0.57560000  0.96660000  1.0 0.099662295
B  B8  1  0.60900000  0.92060000  0.03340000  1.0 0.094349489
B  B9  1  0.61940000  0.53960000  0.70460000  1.0 0.0019345185
B  B10  1  0.83500000  0.91480000  0.29540000  1.0 -0.0020332332
B  B11  1  0.16500000  0.46040000  0.07980000  1.0 -0.0020332332
B  B12  1  0.38060000  0.08520000  0.92020000  1.0 0.0019345185
B  B13  1  0.38060000  0.46040000  0.29540000  1.0 -0.0020332332
B  B14  1  0.16500000  0.08520000  0.70460000  1.0 0.0019345185
B  B15  1  0.83500000  0.53960000  0.92020000  1.0 0.0019345185
B  B16  1  0.61940000  0.91480000  0.07980000  1.0 -0.0020332332
B  B17  1  0.61690000  0.52730000  0.65260000  1.0 0.0185829793
B  B18  1  0.87470000  0.96430000  0.34740000  1.0 0.0185829793
B  B19  1  0.12530000  0.47270000  0.08960000  1.0 0.0185829793
B  B20  1  0.38310000  0.03570000  0.91040000  1.0 0.0185829793
B  B21  1  0.38310000  0.47270000  0.34740000  1.0 0.0185829793
B  B22  1  0.12530000  0.03570000  0.65260000  1.0 0.0185829793
B  B23  1  0.87470000  0.52730000  0.91040000  1.0 0.0185829793
B  B24  1  0.61690000  0.96430000  0.08960000  1.0 0.0185829793
B  B25  1  0.57710000  0.54400000  0.62270000  1.0 -0.01915978
B  B26  1  0.92130000  0.95440000  0.37730000  1.0 -0.01915978
B  B27  1  0.07870000  0.45600000  0.03310000  1.0 -0.01915978
B  B28  1  0.42290000  0.04560000  0.96690000  1.0 -0.01915978
B  B29  1  0.42290000  0.45600000  0.37730000  1.0 -0.01915978
B  B30  1  0.07870000  0.04560000  0.62270000  1.0 -0.01915978
B  B31  1  0.92130000  0.54400000  0.96690000  1.0 -0.01915978
B  B32  1  0.57710000  0.95440000  0.03310000  1.0 -0.01915978
B  B33  1  0.55400000  0.56770000  0.65650000  1.0 -0.0284149789
B  B34  1  0.91120000  0.89750000  0.34350000  1.0 -0.0284149789
B  B35  1  0.08880000  0.43230000  0.98630000  1.0 -0.0284149789
B  B36  1  0.44600000  0.10250000  0.01370000  1.0 -0.01915978
B  B37  1  0.44600000  0.43230000  0.34350000  1.0 -0.0284149789
B  B38  1  0.08880000  0.10250000  0.65650000  1.0 -0.01915978
B  B39  1  0.91120000  0.56770000  0.01370000  1.0 -0.01915978
B  B40  1  0.55400000  0.89750000  0.98630000  1.0 -0.0284149789
B  B41  1  0.57980000  0.56390000  0.70610000  1.0 -0.0110916377
B  B42  1  0.85780000  0.87370000  0.29390000  1.0 -0.0110916377
B  B43  1  0.14220000  0.43610000  0.01590000  1.0 -0.0110916377
B  B44  1  0.42020000  0.12630000  0.98410000  1.0 -0.0110916377
B  B45  1  0.42020000  0.43610000  0.29390000  1.0 -0.0110916377
B  B46  1  0.14220000  0.12630000  0.70610000  1.0 -0.0110916377
B  B47  1  0.85780000  0.56390000  0.98410000  1.0 -0.0110916377
B  B48  1  0.57980000  0.87370000  0.01590000  1.0 -0.0110916377
B  B49  1  0.57230000  0.50870000  0.68380000  1.0 -0.041345889
B  B50  1  0.82490000  0.88850000  0.31620000  1.0 -0.041345889
B  B51  1  0.17510000  0.49130000  0.06360000  1.0 -0.041345889
B  B52  1  0.42770000  0.11150000  0.93640000  1.0 -0.041345889
B  B53  1  0.42770000  0.49130000  0.31620000  1.0 -0.041345889
B  B54  1  0.17510000  0.11150000  0.68380000  1.0 -0.041345889
B  B55  1  0.82490000  0.50870000  0.93640000  1.0 -0.041345889
B  B56  1  0.57230000  0.88850000  0.06360000  1.0 -0.041345889
B  B57  1  0.53230000  0.52430000  0.65120000  1.0 -0.0488622574
B  B58  1  0.87310000  0.88110000  0.34880000  1.0 -0.0488622574
B  B59  1  0.12690000  0.47570000  0.00800000  1.0 -0.0488622574
B  B60  1  0.46770000  0.11890000  0.99200000  1.0 -0.0488622574
B  B61  1  0.46770000  0.47570000  0.34880000  1.0 -0.0488622574
B  B62  1  0.12690000  0.11890000  0.65120000  1.0 -0.0488622574
B  B63  1  0.87310000  0.52430000  0.99200000  1.0 -0.0488622574
B  B64  1  0.53230000  0.88110000  0.00800000  1.0 -0.0488622574
B  B65  1  0.52840000  0.51300000  0.59920000  1.0 -0.0686973805
B  B66  1  0.91380000  0.92920000  0.40080000  1.0 -0.0686973805
B  B67  1  0.08620000  0.48700000  0.01540000  1.0 -0.0686973805
B  B68  1  0.47160000  0.07080000  0.98460000  1.0 -0.0686973805
B  B69  1  0.47160000  0.48700000  0.40080000  1.0 -0.0686973805
B  B70  1  0.08620000  0.07080000  0.59920000  1.0 -0.0629035058
B  B71  1  0.91380000  0.51300000  0.98460000  1.0 -0.0686973805
B  B72  1  0.52840000  0.92920000  0.01540000  1.0 -0.0686973805
B  B73  1  0.53350000  0.40820000  0.60990000  1.0 -0.0488622574
B  B74  1  0.79830000  0.92360000  0.39010000  1.0 -0.0488622574
B  B75  1  0.20170000  0.59180000  0.12530000  1.0 -0.0488622574
B  B76  1  0.46650000  0.07640000  0.87470000  1.0 -0.041345889
B  B77  1  0.46650000  0.59180000  0.39010000  1.0 -0.0488622574
B  B78  1  0.20170000  0.07640000  0.60990000  1.0 -0.0488622574
B  B79  1  0.79830000  0.40820000  0.87470000  1.0 -0.0488622574
B  B80  1  0.53350000  0.92360000  0.12530000  1.0 -0.0488622574
B  B81  1  0.49361000  0.42911000  0.61010000  1.0 -0.0488622574
B  B82  1  0.81901000  0.88351000  0.38990000  1.0 -0.0488622574
B  B83  1  0.18099000  0.57089000  0.06450000  1.0 -0.0488622574
B  B84  1  0.50639000  0.11649000  0.93550000  1.0 -0.0488622574
B  B85  1  0.50639000  0.57089000  0.38990000  1.0 -0.0488622574
B  B86  1  0.18099000  0.11649000  0.61010000  1.0 -0.0488622574
B  B87  1  0.81901000  0.42911000  0.93550000  1.0 -0.0488622574
B  B88  1  0.49361000  0.88351000  0.06450000  1.0 -0.0488622574
B  B89  1  0.46650000  0.43400000  0.56310000  1.0 -0.041345889
B  B90  1  0.87090000  0.90340000  0.43690000  1.0 -0.0488622574
B  B91  1  0.12910000  0.56600000  0.03250000  1.0 -0.0488622574
B  B92  1  0.53350000  0.09660000  0.96750000  1.0 -0.041345889
B  B93  1  0.53350000  0.56600000  0.43690000  1.0 -0.0488622574
B  B94  1  0.12910000  0.09660000  0.56310000  1.0 -0.041345889
B  B95  1  0.87090000  0.43400000  0.96750000  1.0 -0.041345889
B  B96  1  0.46650000  0.90340000  0.03250000  1.0 -0.0488622574
B  B97  1  0.44110000  0.38180000  0.50510000  1.0 -0.01915978
B  B98  1  0.87670000  0.93600000  0.49490000  1.0 -0.01915978
B  B99  1  0.12330000  0.61820000  0.05930000  1.0 -0.01915978
B  B100  1  0.55890000  0.06400000  0.94070000  1.0 -0.01915978
B  B101  1  0.55890000  0.61820000  0.49490000  1.0 -0.01915978
B  B102  1  0.12330000  0.06400000  0.50510000  1.0 -0.01915978
B  B103  1  0.87670000  0.38180000  0.94070000  1.0 -0.01915978
B  B104  1  0.44110000  0.93600000  0.05930000  1.0 -0.01915978
B  B105  1  0.44440000  0.39040000  0.55680000  1.0 -0.0110916377
B  B106  1  0.83360000  0.88760000  0.44320000  1.0 -0.0110916377
B  B107  1  0.16640000  0.60960000  0.05400000  1.0 -0.0110916377
B  B108  1  0.55560000  0.11240000  0.94600000  1.0 -0.0110916377
B  B109  1  0.55560000  0.60960000  0.44320000  1.0 -0.0110916377
B  B110  1  0.16640000  0.11240000  0.55680000  1.0 -0.0110916377
B  B111  1  0.83360000  0.39040000  0.94600000  1.0 -0.0110916377
B  B112  1  0.44440000  0.88760000  0.05400000  1.0 -0.01915978
B  B113  1  0.48620000  0.37400000  0.58520000  1.0 -0.0110916377
B  B114  1  0.78880000  0.90100000  0.41480000  1.0 -0.01915978
B  B115  1  0.21120000  0.62600000  0.11220000  1.0 -0.01915978
B  B116  1  0.51380000  0.09900000  0.88780000  1.0 -0.0110916377
B  B117  1  0.51380000  0.62600000  0.41480000  1.0 -0.01915978
B  B118  1  0.21120000  0.09900000  0.58520000  1.0 -0.0110916377
B  B119  1  0.78880000  0.37400000  0.88780000  1.0 -0.0110916377
B  B120  1  0.48620000  0.90100000  0.11220000  1.0 -0.01915978
B  B121  1  0.50840000  0.35510000  0.55150000  1.0 0.0113625484
B  B122  1  0.80360000  0.95690000  0.44850000  1.0 0.0113625484
B  B123  1  0.19640000  0.64490000  0.15330000  1.0 0.0113625484
B  B124  1  0.49160000  0.04310000  0.84670000  1.0 0.0113625484
B  B125  1  0.49160000  0.64490000  0.44850000  1.0 0.0113625484
B  B126  1  0.19640000  0.04310000  0.55150000  1.0 0.0113625484
B  B127  1  0.80360000  0.35510000  0.84670000  1.0 0.0113625484
B  B128  1  0.50840000  0.95690000  0.15330000  1.0 0.0113625484
B  B129  1  0.48130000  0.36110000  0.50260000  1.0 0.0113625484
B  B130  1  0.85850000  0.97870000  0.49740000  1.0 0.0113625484
B  B131  1  0.14150000  0.63890000  0.12020000  1.0 0.0113625484
B  B132  1  0.51870000  0.02130000  0.87980000  1.0 0.0113625484
B  B133  1  0.51870000  0.63890000  0.49740000  1.0 0.0113625484
B  B134  1  0.14150000  0.02130000  0.50260000  1.0 0.0113625484
B  B135  1  0.85850000  0.36110000  0.87980000  1.0 0.0113625484
B  B136  1  0.48130000  0.97870000  0.12020000  1.0 0.0113625484
B  B137  1  0.45300000  0.34340000  0.51780000  1.0 0.099662295
B  B138  1  0.82560000  0.93520000  0.48220000  1.0 0.099662295
B  B139  1  0.17440000  0.65660000  0.10960000  1.0 0.099662295
B  B140  1  0.54700000  0.06480000  0.89040000  1.0 0.099662295
B  B141  1  0.54700000  0.65660000  0.48220000  1.0 0.099662295
B  B142  1  0.17440000  0.06480000  0.51780000  1.0 0.099662295
B  B143  1  0.82560000  0.34340000  0.89040000  1.0 0.099662295
B  B144  1  0.45300000  0.93520000  0.10960000  1.0 0.099662295
B  B145  1  0.80780000  0.52910000  0.48690000  1.0 0.1192287086
B  B146  1  0.04220000  0.32090000  0.51310000  1.0 0.1192287086
B  B147  1  0.95780000  0.47090000  0.27870000  1.0 0.1192287086
B  B148  1  0.19220000  0.67910000  0.72130000  1.0 0.1192287086
B  B149  1  0.19220000  0.47090000  0.51310000  1.0 0.1192287086
B  B150  1  0.95780000  0.67910000  0.48690000  1.0 0.1192287086
B  B151  1  0.04220000  0.52910000  0.72130000  1.0 0.1192287086
B  B152  1  0.80780000  0.32090000  0.27870000  1.0 0.1192287086
B  B153  1  0.84910000  0.50600000  0.49610000  1.0 -0.0488622574
B  B154  1  0.00990000  0.35300000  0.50390000  1.0 -0.0488622574
B  B155  1  0.99010000  0.49400000  0.34310000  1.0 -0.0488622574
B  B156  1  0.15090000  0.64700000  0.65690000  1.0 -0.0488622574
B  B157  1  0.15090000  0.49400000  0.50390000  1.0 -0.0488622574
B  B158  1  0.99010000  0.64700000  0.49610000  1.0 -0.0488622574
B  B159  1  0.00990000  0.50600000  0.65690000  1.0 -0.0488622574
B  B160  1  0.84910000  0.35300000  0.34310000  1.0 -0.0488622574
B  B161  1  0.83790000  0.53090000  0.46580000  1.0 -0.0284149789
B  B162  1  0.06510000  0.37210000  0.53420000  1.0 -0.0284149789
B  B163  1  0.93490000  0.46910000  0.30700000  1.0 -0.0284149789
B  B164  1  0.16210000  0.62790000  0.69300000  1.0 -0.0284149789
B  B165  1  0.16210000  0.46910000  0.53420000  1.0 -0.0284149789
B  B166  1  0.93490000  0.62790000  0.46580000  1.0 -0.0284149789
B  B167  1  0.06510000  0.53090000  0.69300000  1.0 -0.0284149789
B  B168  1  0.83790000  0.37210000  0.30700000  1.0 -0.0284149789
B  B169  1  0.78200000  0.51600000  0.42720000  1.0 -0.0110916377
B  B170  1  0.08880000  0.35480000  0.57280000  1.0 -0.0020332332
B  B171  1  0.91120000  0.48400000  0.26600000  1.0 -0.0110916377
B  B172  1  0.21800000  0.64520000  0.73400000  1.0 -0.0020332332
B  B173  1  0.21800000  0.48400000  0.57280000  1.0 -0.0020332332
B  B174  1  0.91120000  0.64520000  0.42720000  1.0 -0.0110916377
B  B175  1  0.08880000  0.51600000  0.73400000  1.0 -0.0020332332
B  B176  1  0.78200000  0.35480000  0.26600000  1.0 -0.0110916377
B  B177  1  0.75870000  0.48840000  0.43870000  1.0 0.0019345185
B  B178  1  0.04970000  0.32000000  0.56130000  1.0 0.0019345185
B  B179  1  0.95030000  0.51160000  0.27030000  1.0 0.0019345185
B  B180  1  0.24130000  0.68000000  0.72970000  1.0 0.0019345185
B  B181  1  0.24130000  0.51160000  0.56130000  1.0 0.0019345185
B  B182  1  0.95030000  0.68000000  0.43870000  1.0 0.0019345185
B  B183  1  0.04970000  0.48840000  0.72970000  1.0 0.0019345185
B  B184  1  0.75870000  0.32000000  0.27030000  1.0 0.0019345185
B  B185  1  0.80110000  0.47960000  0.47870000  1.0 -0.01915978
B  B186  1  0.00090000  0.32240000  0.52130000  1.0 -0.01915978
B  B187  1  0.99910000  0.52040000  0.32150000  1.0 -0.01915978
B  B188  1  0.19890000  0.67760000  0.67850000  1.0 -0.01915978
B  B189  1  0.19890000  0.52040000  0.52130000  1.0 -0.01915978
B  B190  1  0.99910000  0.67760000  0.47870000  1.0 -0.01915978
B  B191  1  0.00090000  0.47960000  0.67850000  1.0 -0.01915978
B  B192  1  0.80110000  0.32240000  0.32150000  1.0 -0.01915978
B  B193  1  0.77190000  0.44020000  0.41350000  1.0 -0.0284149789
B  B194  1  0.02670000  0.35840000  0.58650000  1.0 -0.0284149789
B  B195  1  0.97330000  0.55980000  0.33170000  1.0 -0.0284149789
B  B196  1  0.22810000  0.64160000  0.66830000  1.0 -0.0284149789
B  B197  1  0.22810000  0.55980000  0.58650000  1.0 -0.0284149789
B  B198  1  0.97330000  0.64160000  0.41350000  1.0 -0.0284149789
B  B199  1  0.02670000  0.44020000  0.66830000  1.0 -0.0284149789
B  B200  1  0.77190000  0.35840000  0.33170000  1.0 -0.0284149789
B  B201  1  0.76030000  0.45950000  0.37760000  1.0 -0.0488622574
B  B202  1  0.08190000  0.38270000  0.62240000  1.0 -0.041345889
B  B203  1  0.91810000  0.54050000  0.30080000  1.0 -0.0488622574
B  B204  1  0.23970000  0.61730000  0.69920000  1.0 -0.041345889
B  B205  1  0.23970000  0.54050000  0.62240000  1.0 -0.041345889
B  B206  1  0.91810000  0.61730000  0.37760000  1.0 -0.0488622574
B  B207  1  0.08190000  0.45950000  0.69920000  1.0 -0.041345889
B  B208  1  0.76030000  0.38270000  0.30080000  1.0 -0.0488622574
B  B209  1  0.80890000  0.48770000  0.40060000  1.0 -0.0284149789
B  B210  1  0.08710000  0.40830000  0.59940000  1.0 -0.0284149789
B  B211  1  0.91290000  0.51230000  0.32120000  1.0 -0.0284149789
B  B212  1  0.19110000  0.59170000  0.67880000  1.0 -0.0284149789
B  B213  1  0.19110000  0.51230000  0.59940000  1.0 -0.0284149789
B  B214  1  0.91290000  0.59170000  0.40060000  1.0 -0.0284149789
B  B215  1  0.08710000  0.48770000  0.67880000  1.0 -0.0284149789
B  B216  1  0.80890000  0.40830000  0.32120000  1.0 -0.0284149789
B  B217  1  0.80270000  0.52830000  0.48440000  1.0 0.1192287086
B  B218  1  0.04390000  0.31830000  0.51560000  1.0 0.1192287086
B  B219  1  0.95610000  0.47170000  0.27440000  1.0 0.1192287086
B  B220  1  0.19730000  0.68170000  0.72560000  1.0 0.1192287086
B  B221  1  0.19730000  0.47170000  0.51560000  1.0 0.1192287086
B  B222  1  0.95610000  0.68170000  0.48440000  1.0 0.1192287086
B  B223  1  0.04390000  0.52830000  0.72560000  1.0 0.1192287086
B  B224  1  0.80270000  0.31830000  0.27440000  1.0 0.1192287086
B  B225  1  0.84900000  0.52290000  0.48650000  1.0 -0.0284149789
B  B226  1  0.03640000  0.36250000  0.51350000  1.0 -0.0284149789
B  B227  1  0.96360000  0.47710000  0.32610000  1.0 -0.0284149789
B  B228  1  0.15100000  0.63750000  0.67390000  1.0 -0.0284149789
B  B229  1  0.15100000  0.47710000  0.51350000  1.0 -0.0284149789
B  B230  1  0.96360000  0.63750000  0.48650000  1.0 -0.0284149789
B  B231  1  0.03640000  0.52290000  0.67390000  1.0 -0.0284149789
B  B232  1  0.84900000  0.36250000  0.32610000  1.0 -0.0284149789
B  B233  1  0.80830000  0.52750000  0.44180000  1.0 -0.0284149789
B  B234  1  0.08570000  0.36650000  0.55820000  1.0 -0.0284149789
B  B235  1  0.91430000  0.47250000  0.28080000  1.0 -0.0284149789
B  B236  1  0.19170000  0.63350000  0.71920000  1.0 -0.0284149789
B  B237  1  0.19170000  0.47250000  0.55820000  1.0 -0.0284149789
B  B238  1  0.91430000  0.63350000  0.44180000  1.0 -0.0284149789
B  B239  1  0.08570000  0.52750000  0.71920000  1.0 -0.0284149789
B  B240  1  0.80830000  0.36650000  0.28080000  1.0 -0.0284149789
B  B241  1  0.75980000  0.49900000  0.42140000  1.0 0.0019345185
B  B242  1  0.07760000  0.33840000  0.57860000  1.0 0.0019345185
B  B243  1  0.92240000  0.50100000  0.26080000  1.0 0.0019345185
B  B244  1  0.24020000  0.66160000  0.73920000  1.0 0.0019345185
B  B245  1  0.24020000  0.50100000  0.57860000  1.0 0.0019345185
B  B246  1  0.92240000  0.66160000  0.42140000  1.0 0.0019345185
B  B247  1  0.07760000  0.49900000  0.73920000  1.0 0.0019345185
B  B248  1  0.75980000  0.33840000  0.26080000  1.0 0.0019345185
B  B249  1  0.77120000  0.47660000  0.45440000  1.0 -0.0110916377
B  B250  1  0.02220000  0.31680000  0.54560000  1.0 -0.0110916377
B  B251  1  0.97780000  0.52340000  0.29460000  1.0 -0.0110916377
B  B252  1  0.22880000  0.68320000  0.70540000  1.0 -0.0110916377
B  B253  1  0.22880000  0.52340000  0.54560000  1.0 -0.0110916377
B  B254  1  0.97780000  0.68320000  0.45440000  1.0 -0.0110916377
B  B255  1  0.02220000  0.47660000  0.70540000  1.0 -0.0110916377
B  B256  1  0.77120000  0.31680000  0.29460000  1.0 -0.0110916377
B  B257  1  0.82630000  0.49150000  0.49480000  1.0 -0.0284149789
B  B258  1  0.99670000  0.33150000  0.50520000  1.0 -0.0284149789
B  B259  1  0.00330000  0.50850000  0.33480000  1.0 -0.0284149789
B  B260  1  0.17370000  0.66850000  0.66520000  1.0 -0.0284149789
B  B261  1  0.17370000  0.50850000  0.50520000  1.0 -0.0284149789
B  B262  1  0.00330000  0.66850000  0.49480000  1.0 -0.0284149789
B  B263  1  0.99670000  0.49150000  0.66520000  1.0 -0.0284149789
B  B264  1  0.82630000  0.33150000  0.33480000  1.0 -0.0284149789
B  B265  1  0.79760000  0.43830000  0.43810000  1.0 -0.0284149789
B  B266  1  0.00020000  0.35950000  0.56190000  1.0 -0.0284149789
B  B267  1  0.99980000  0.56170000  0.35930000  1.0 -0.0284149789
B  B268  1  0.20240000  0.64050000  0.64070000  1.0 -0.0284149789
B  B269  1  0.20240000  0.56170000  0.56190000  1.0 -0.0284149789
B  B270  1  0.99980000  0.64050000  0.43810000  1.0 -0.0284149789
B  B271  1  0.00020000  0.43830000  0.64070000  1.0 -0.0284149789
B  B272  1  0.79760000  0.35950000  0.35930000  1.0 -0.0284149789
B  B273  1  0.75760000  0.44370000  0.39270000  1.0 -0.041345889
B  B274  1  0.05100000  0.36490000  0.60730000  1.0 -0.041345889
B  B275  1  0.94900000  0.55630000  0.31390000  1.0 -0.041345889
B  B276  1  0.24240000  0.63510000  0.68610000  1.0 -0.041345889
B  B277  1  0.24240000  0.55630000  0.60730000  1.0 -0.041345889
B  B278  1  0.94900000  0.63510000  0.39270000  1.0 -0.041345889
B  B279  1  0.05100000  0.44370000  0.68610000  1.0 -0.041345889
B  B280  1  0.75760000  0.36490000  0.31390000  1.0 -0.041345889
B  B281  1  0.77920000  0.47490000  0.38390000  1.0 -0.0284149789
B  B282  1  0.09100000  0.39530000  0.61610000  1.0 -0.01915978
B  B283  1  0.90900000  0.52510000  0.30430000  1.0 -0.0284149789
B  B284  1  0.22080000  0.60470000  0.69570000  1.0 -0.01915978
B  B285  1  0.22080000  0.52510000  0.61610000  1.0 -0.01915978
B  B286  1  0.90900000  0.60470000  0.38390000  1.0 -0.0284149789
B  B287  1  0.09100000  0.47490000  0.69570000  1.0 -0.01915978
B  B288  1  0.77920000  0.39530000  0.30430000  1.0 -0.0284149789
H  H1  1  0.66210000  0.73510000  0.76880000  1.0 0.2823907529
H  H2  1  0.96630000  0.89330000  0.23120000  1.0 0.2823907529
H  H3  1  0.03370000  0.26490000  0.92700000  1.0 0.2823907529
H  H4  1  0.33790000  0.10670000  0.07300000  1.0 0.2823907529
H  H5  1  0.33790000  0.26490000  0.23120000  1.0 0.2823907529
H  H6  1  0.03370000  0.10670000  0.76880000  1.0 0.2823907529
H  H7  1  0.96630000  0.73510000  0.07300000  1.0 0.2823907529
H  H8  1  0.66210000  0.89330000  0.92700000  1.0 0.2823907529
H  H9  1  0.74900000  0.66250000  0.77650000  1.0 0.2716330905
H  H10  1  0.88600000  0.97250000  0.22350000  1.0 0.2716330905
H  H11  1  0.11400000  0.33750000  0.08650000  1.0 0.2716330905
H  H12  1  0.25100000  0.02750000  0.91350000  1.0 0.2716330905
H  H13  1  0.25100000  0.33750000  0.22350000  1.0 0.2716330905
H  H14  1  0.11400000  0.02750000  0.77650000  1.0 0.2716330905
H  H15  1  0.88600000  0.66250000  0.91350000  1.0 0.2716330905
H  H16  1  0.74900000  0.97250000  0.08650000  1.0 0.2716330905
H  H17  1  0.78670000  0.78730000  0.82700000  1.0 0.261312468
H  H18  1  0.96030000  0.95970000  0.17300000  1.0 0.261312468
H  H19  1  0.03970000  0.21270000  0.99940000  1.0 0.261312468
H  H20  1  0.21330000  0.04030000  0.00060000  1.0 0.261312468
H  H21  1  0.21330000  0.21270000  0.17300000  1.0 0.261312468
H  H22  1  0.03970000  0.04030000  0.82700000  1.0 0.261312468
H  H23  1  0.96030000  0.78730000  0.00060000  1.0 0.261312468
H  H24  1  0.78670000  0.95970000  0.99940000  1.0 0.261312468
H  H25  1  0.60660000  0.46040000  0.64700000  1.0 0.099662295
H  H26  1  0.81340000  0.95960000  0.35300000  1.0 0.099662295
H  H27  1  0.18660000  0.53960000  0.14620000  1.0 0.099662295
H  H28  1  0.39340000  0.04040000  0.85380000  1.0 0.099662295
H  H29  1  0.39340000  0.53960000  0.35300000  1.0 0.099662295
H  H30  1  0.18660000  0.04040000  0.64700000  1.0 0.099662295
H  H31  1  0.81340000  0.46040000  0.85380000  1.0 0.099662295
H  H32  1  0.60660000  0.95960000  0.14620000  1.0 0.099662295
H  H33  1  0.56290000  0.46730000  0.56400000  1.0 0.0679536362
H  H34  1  0.90330000  0.99890000  0.43600000  1.0 0.0644977485
H  H35  1  0.09670000  0.53270000  0.09560000  1.0 0.0679536362
H  H36  1  0.43710000  0.00110000  0.90440000  1.0 0.0679536362
H  H37  1  0.43710000  0.53270000  0.43600000  1.0 0.0679536362
H  H38  1  0.09670000  0.00110000  0.56400000  1.0 0.0679536362
H  H39  1  0.90330000  0.46730000  0.90440000  1.0 0.0679536362
H  H40  1  0.56290000  0.99890000  0.09560000  1.0 0.0679536362
H  H41  1  0.55590000  0.40160000  0.55870000  1.0 0.0679536362
H  H42  1  0.84290000  0.99720000  0.44130000  1.0 0.0679536362
H  H43  1  0.15710000  0.59840000  0.15430000  1.0 0.0679536362
H  H44  1  0.44410000  0.00280000  0.84570000  1.0 0.0679536362
H  H45  1  0.44410000  0.59840000  0.44130000  1.0 0.0679536362
H  H46  1  0.15710000  0.00280000  0.55870000  1.0 0.0679536362
H  H47  1  0.84290000  0.40160000  0.84570000  1.0 0.0679536362
H  H48  1  0.55590000  0.99720000  0.15430000  1.0 0.0679536362
H  H49  1  0.48710000  0.42760000  0.50790000  1.0 0.1113492291
H  H50  1  0.91970000  0.97920000  0.49210000  1.0 0.1113492291
H  H51  1  0.08030000  0.57240000  0.05950000  1.0 0.1113492291
H  H52  1  0.51290000  0.02080000  0.94050000  1.0 0.1113492291
H  H53  1  0.51290000  0.57240000  0.49210000  1.0 0.1113492291
H  H54  1  0.08030000  0.02080000  0.50790000  1.0 0.1113492291
H  H55  1  0.91970000  0.42760000  0.94050000  1.0 0.1113492291
H  H56  1  0.48710000  0.97920000  0.05950000  1.0 0.1113492291
H  H57  1  0.32640000  0.22950000  0.43370000  1.0 0.2716330905
H  H58  1  0.79580000  0.89270000  0.56630000  1.0 0.2716330905
H  H59  1  0.20420000  0.77050000  0.09690000  1.0 0.2716330905
H  H60  1  0.67360000  0.10730000  0.90310000  1.0 0.2716330905
H  H61  1  0.67360000  0.77050000  0.56630000  1.0 0.2716330905
H  H62  1  0.20420000  0.10730000  0.43370000  1.0 0.2716330905
H  H63  1  0.79580000  0.22950000  0.90310000  1.0 0.2716330905
H  H64  1  0.32640000  0.89270000  0.09690000  1.0 0.2716330905
H  H65  1  0.25320000  0.14170000  0.27930000  1.0 0.261312468
H  H66  1  0.86240000  0.97390000  0.72070000  1.0 0.261312468
H  H67  1  0.13760000  0.85830000  0.11150000  1.0 0.261312468
H  H68  1  0.74680000  0.02610000  0.88850000  1.0 0.261312468
H  H69  1  0.74680000  0.85830000  0.72070000  1.0 0.261312468
H  H70  1  0.13760000  0.02610000  0.27930000  1.0 0.261312468
H  H71  1  0.86240000  0.14170000  0.88850000  1.0 0.261312468
H  H72  1  0.25320000  0.97390000  0.11150000  1.0 0.261312468
H  H73  1  0.37530000  0.20700000  0.35310000  1.0 0.2716330905
H  H74  1  0.85390000  0.02220000  0.64690000  1.0 0.2716330905
H  H75  1  0.14610000  0.79300000  0.16830000  1.0 0.2716330905
H  H76  1  0.62470000  0.97780000  0.83170000  1.0 0.2716330905
H  H77  1  0.62470000  0.79300000  0.64690000  1.0 0.2716330905
H  H78  1  0.14610000  0.97780000  0.35310000  1.0 0.2716330905
H  H79  1  0.85390000  0.20700000  0.83170000  1.0 0.2716330905
H  H80  1  0.37530000  0.02220000  0.16830000  1.0 0.2716330905
H  H81  1  0.83450000  0.62900000  0.65110000  1.0 0.2880723719
H  H82  1  0.97790000  0.18340000  0.34890000  1.0 0.2880723719
H  H83  1  0.02210000  0.37100000  0.20550000  1.0 0.2880723719
H  H84  1  0.16550000  0.81660000  0.79450000  1.0 0.2880723719
H  H85  1  0.16550000  0.37100000  0.34890000  1.0 0.2880723719
H  H86  1  0.02210000  0.81660000  0.65110000  1.0 0.2880723719
H  H87  1  0.97790000  0.62900000  0.79450000  1.0 0.2880723719
H  H88  1  0.83450000  0.18340000  0.20550000  1.0 0.2880723719
H  H89  1  0.80770000  0.68260000  0.57930000  1.0 0.2880723719
H  H90  1  0.10330000  0.22840000  0.42070000  1.0 0.2880723719
H  H91  1  0.89670000  0.31740000  0.12510000  1.0 0.2880723719
H  H92  1  0.19230000  0.77160000  0.87490000  1.0 0.2880723719
H  H93  1  0.19230000  0.31740000  0.42070000  1.0 0.2880723719
H  H94  1  0.89670000  0.77160000  0.57930000  1.0 0.2880723719
H  H95  1  0.10330000  0.68260000  0.87490000  1.0 0.2880723719
H  H96  1  0.80770000  0.22840000  0.12510000  1.0 0.2880723719
H  H97  1  0.85130000  0.76070000  0.72580000  1.0 0.261312468
H  H98  1  0.03490000  0.12550000  0.27420000  1.0 0.261312468
H  H99  1  0.96510000  0.23930000  0.09060000  1.0 0.261312468
H  H100  1  0.14870000  0.87450000  0.90940000  1.0 0.261312468
H  H101  1  0.14870000  0.23930000  0.27420000  1.0 0.261312468
H  H102  1  0.96510000  0.87450000  0.72580000  1.0 0.261312468
H  H103  1  0.03490000  0.76070000  0.90940000  1.0 0.261312468
H  H104  1  0.85130000  0.12550000  0.09060000  1.0 0.261312468
H  H105  1  0.84150000  0.42970000  0.46160000  1.0 -0.1004418612
H  H106  1  0.96810000  0.37990000  0.53840000  1.0 -0.1004418612
H  H107  1  0.03190000  0.57030000  0.41180000  1.0 -0.1004418612
H  H108  1  0.15850000  0.62010000  0.58820000  1.0 -0.1004418612
H  H109  1  0.15850000  0.57030000  0.53840000  1.0 -0.1004418612
H  H110  1  0.03190000  0.62010000  0.46160000  1.0 -0.1004418612
H  H111  1  0.96810000  0.42970000  0.58820000  1.0 -0.1004418612
H  H112  1  0.84150000  0.37990000  0.41180000  1.0 -0.1004418612
H  H113  1  0.87720000  0.48130000  0.44450000  1.0 -0.0873117875
H  H114  1  0.03680000  0.43270000  0.55550000  1.0 -0.0873117875
H  H115  1  0.96320000  0.51870000  0.39590000  1.0 -0.0873117875
H  H116  1  0.12280000  0.56730000  0.60410000  1.0 -0.0873117875
H  H117  1  0.12280000  0.51870000  0.55550000  1.0 -0.0873117875
H  H118  1  0.96320000  0.56730000  0.44450000  1.0 -0.0873117875
H  H119  1  0.03680000  0.48130000  0.60410000  1.0 -0.0873117875
H  H120  1  0.87720000  0.43270000  0.39590000  1.0 -0.0873117875
H  H121  1  0.65020000  0.54840000  0.73960000  1.0 -0.1709011922
H  H122  1  0.80880000  0.91060000  0.26040000  1.0 -0.179517331
H  H123  1  0.19120000  0.45160000  0.10180000  1.0 -0.179517331
H  H124  1  0.34980000  0.08940000  0.89820000  1.0 -0.1709011922
H  H125  1  0.34980000  0.45160000  0.26040000  1.0 -0.1709011922
H  H126  1  0.19120000  0.08940000  0.73960000  1.0 -0.1709011922
H  H127  1  0.80880000  0.54840000  0.89820000  1.0 -0.1709011922
H  H128  1  0.65020000  0.91060000  0.10180000  1.0 -0.179517331
H  H129  1  0.64580000  0.52700000  0.65200000  1.0 -0.1877061589
H  H130  1  0.87500000  0.99380000  0.34800000  1.0 -0.1877061589
H  H131  1  0.12500000  0.47300000  0.11880000  1.0 -0.1877061589
H  H132  1  0.35420000  0.00620000  0.88120000  1.0 -0.179517331
H  H133  1  0.35420000  0.47300000  0.34800000  1.0 -0.1877061589
H  H134  1  0.12500000  0.00620000  0.65200000  1.0 -0.1877061589
H  H135  1  0.87500000  0.52700000  0.88120000  1.0 -0.1877061589
H  H136  1  0.64580000  0.99380000  0.11880000  1.0 -0.1877061589
H  H137  1  0.57950000  0.55550000  0.60240000  1.0 -0.1290048524
H  H138  1  0.95310000  0.97710000  0.39760000  1.0 -0.1290048524
H  H139  1  0.04690000  0.44450000  0.02400000  1.0 -0.1290048524
H  H140  1  0.42050000  0.02290000  0.97600000  1.0 -0.1290048524
H  H141  1  0.42050000  0.44450000  0.39760000  1.0 -0.1290048524
H  H142  1  0.04690000  0.02290000  0.60240000  1.0 -0.1290048524
H  H143  1  0.95310000  0.55550000  0.97600000  1.0 -0.1290048524
H  H144  1  0.57950000  0.97710000  0.02400000  1.0 -0.1290048524
H  H145  1  0.54060000  0.59520000  0.65980000  1.0 -0.1505232638
H  H146  1  0.93540000  0.88080000  0.34020000  1.0 -0.1505232638
H  H147  1  0.06460000  0.40480000  0.94540000  1.0 -0.1398367808
H  H148  1  0.45940000  0.11920000  0.05460000  1.0 -0.1505232638
H  H149  1  0.45940000  0.40480000  0.34020000  1.0 -0.1505232638
H  H150  1  0.06460000  0.11920000  0.65980000  1.0 -0.1398367808
H  H151  1  0.93540000  0.59520000  0.05460000  1.0 -0.1505232638
H  H152  1  0.54060000  0.88080000  0.94540000  1.0 -0.1505232638
H  H153  1  0.58290000  0.58930000  0.74220000  1.0 -0.1571401608
H  H154  1  0.84710000  0.84070000  0.25780000  1.0 -0.1571401608
H  H155  1  0.15290000  0.41070000  0.99360000  1.0 -0.1571401608
H  H156  1  0.41710000  0.15930000  0.00640000  1.0 -0.1571401608
H  H157  1  0.41710000  0.41070000  0.25780000  1.0 -0.1571401608
H  H158  1  0.15290000  0.15930000  0.74220000  1.0 -0.1571401608
H  H159  1  0.84710000  0.58930000  0.00640000  1.0 -0.1571401608
H  H160  1  0.58290000  0.84070000  0.99360000  1.0 -0.1571401608
H  H161  1  0.57190000  0.49890000  0.70640000  1.0 -0.1505232638
H  H162  1  0.79250000  0.86550000  0.29360000  1.0 -0.1505232638
H  H163  1  0.20750000  0.50110000  0.07300000  1.0 -0.1505232638
H  H164  1  0.42810000  0.13450000  0.92700000  1.0 -0.1398367808
H  H165  1  0.42810000  0.50110000  0.29360000  1.0 -0.1505232638
H  H166  1  0.20750000  0.13450000  0.70640000  1.0 -0.1398367808
H  H167  1  0.79250000  0.49890000  0.92700000  1.0 -0.1398367808
H  H168  1  0.57190000  0.86550000  0.07300000  1.0 -0.1505232638
H  H169  1  0.50290000  0.52360000  0.65070000  1.0 -0.1290048524
H  H170  1  0.87290000  0.85220000  0.34930000  1.0 -0.1290048524
H  H171  1  0.12710000  0.47640000  0.97930000  1.0 -0.1290048524
H  H172  1  0.49710000  0.14780000  0.02070000  1.0 -0.1290048524
H  H173  1  0.49710000  0.47640000  0.34930000  1.0 -0.1290048524
H  H174  1  0.12710000  0.14780000  0.65070000  1.0 -0.1290048524
H  H175  1  0.87290000  0.52360000  0.02070000  1.0 -0.1290048524
H  H176  1  0.50290000  0.85220000  0.97930000  1.0 -0.1290048524
H  H177  1  0.49830000  0.50550000  0.56440000  1.0 -0.1290048524
H  H178  1  0.94110000  0.93390000  0.43560000  1.0 -0.1290048524
H  H179  1  0.05890000  0.49450000  0.99280000  1.0 -0.1290048524
H  H180  1  0.50170000  0.06610000  0.00720000  1.0 -0.1290048524
H  H181  1  0.50170000  0.49450000  0.43560000  1.0 -0.1290048524
H  H182  1  0.05890000  0.06610000  0.56440000  1.0 -0.1290048524
H  H183  1  0.94110000  0.50550000  0.00720000  1.0 -0.1290048524
H  H184  1  0.49830000  0.93390000  0.99280000  1.0 -0.1290048524
H  H185  1  0.56390000  0.41580000  0.64450000  1.0 -0.1571401608
H  H186  1  0.77130000  0.91940000  0.35550000  1.0 -0.1571401608
H  H187  1  0.22870000  0.58420000  0.14810000  1.0 -0.1571401608
H  H188  1  0.43610000  0.08060000  0.85190000  1.0 -0.1571401608
H  H189  1  0.43610000  0.58420000  0.35550000  1.0 -0.1571401608
H  H190  1  0.22870000  0.08060000  0.64450000  1.0 -0.1571401608
H  H191  1  0.77130000  0.41580000  0.85190000  1.0 -0.1571401608
H  H192  1  0.56390000  0.91940000  0.14810000  1.0 -0.1571401608
H  H193  1  0.49700000  0.45240000  0.64680000  1.0 -0.1290048524
H  H194  1  0.80560000  0.85020000  0.35320000  1.0 -0.1290048524
H  H195  1  0.19440000  0.54760000  0.04460000  1.0 -0.1290048524
H  H196  1  0.50300000  0.14980000  0.95540000  1.0 -0.1206879224
H  H197  1  0.50300000  0.54760000  0.35320000  1.0 -0.1290048524
H  H198  1  0.19440000  0.14980000  0.64680000  1.0 -0.1290048524
H  H199  1  0.80560000  0.45240000  0.95540000  1.0 -0.1290048524
H  H200  1  0.49700000  0.85020000  0.04460000  1.0 -0.1290048524
H  H201  1  0.45100000  0.46030000  0.56710000  1.0 -0.1290048524
H  H202  1  0.89320000  0.88390000  0.43290000  1.0 -0.1290048524
H  H203  1  0.10680000  0.53970000  0.99070000  1.0 -0.1290048524
H  H204  1  0.54900000  0.11610000  0.00930000  1.0 -0.1290048524
H  H205  1  0.54900000  0.53970000  0.43290000  1.0 -0.1290048524
H  H206  1  0.10680000  0.11610000  0.56710000  1.0 -0.1290048524
H  H207  1  0.89320000  0.46030000  0.00930000  1.0 -0.1290048524
H  H208  1  0.45100000  0.88390000  0.99070000  1.0 -0.1290048524
H  H209  1  0.41000000  0.37310000  0.47050000  1.0 -0.1571401608
H  H210  1  0.90260000  0.93950000  0.52950000  1.0 -0.1571401608
H  H211  1  0.09740000  0.62690000  0.03690000  1.0 -0.1571401608
H  H212  1  0.59000000  0.06050000  0.96310000  1.0 -0.1571401608
H  H213  1  0.59000000  0.62690000  0.52950000  1.0 -0.1571401608
H  H214  1  0.09740000  0.06050000  0.47050000  1.0 -0.1571401608
H  H215  1  0.90260000  0.37310000  0.96310000  1.0 -0.1571401608
H  H216  1  0.41000000  0.93950000  0.03690000  1.0 -0.1571401608
H  H217  1  0.41570000  0.38780000  0.55730000  1.0 -0.1571401608
H  H218  1  0.83050000  0.85840000  0.44270000  1.0 -0.1571401608
H  H219  1  0.16950000  0.61220000  0.02790000  1.0 -0.1571401608
H  H220  1  0.58430000  0.14160000  0.97210000  1.0 -0.1505232638
H  H221  1  0.58430000  0.61220000  0.44270000  1.0 -0.1571401608
H  H222  1  0.16950000  0.14160000  0.55730000  1.0 -0.1505232638
H  H223  1  0.83050000  0.38780000  0.97210000  1.0 -0.1505232638
H  H224  1  0.41570000  0.85840000  0.02790000  1.0 -0.1571401608
H  H225  1  0.48560000  0.36040000  0.60440000  1.0 -0.1505232638
H  H226  1  0.75600000  0.88120000  0.39560000  1.0 -0.1505232638
H  H227  1  0.24400000  0.63960000  0.12520000  1.0 -0.1505232638
H  H228  1  0.51440000  0.11880000  0.87480000  1.0 -0.1505232638
H  H229  1  0.51440000  0.63960000  0.39560000  1.0 -0.1505232638
H  H230  1  0.24400000  0.11880000  0.60440000  1.0 -0.1505232638
H  H231  1  0.75600000  0.36040000  0.87480000  1.0 -0.1505232638
H  H232  1  0.48560000  0.88120000  0.12520000  1.0 -0.1505232638
H  H233  1  0.52310000  0.32830000  0.54740000  1.0 -0.179517331
H  H234  1  0.78090000  0.97570000  0.45260000  1.0 -0.179517331
H  H235  1  0.21910000  0.67170000  0.19480000  1.0 -0.179517331
H  H236  1  0.47690000  0.02430000  0.80520000  1.0 -0.1709011922
H  H237  1  0.47690000  0.67170000  0.45260000  1.0 -0.179517331
H  H238  1  0.21910000  0.02430000  0.54740000  1.0 -0.1709011922
H  H239  1  0.78090000  0.32830000  0.80520000  1.0 -0.1709011922
H  H240  1  0.52310000  0.97570000  0.19480000  1.0 -0.179517331
H  H241  1  0.47860000  0.33860000  0.46620000  1.0 -0.1877061589
H  H242  1  0.87240000  0.01240000  0.53380000  1.0 -0.1877061589
H  H243  1  0.12760000  0.66140000  0.14000000  1.0 -0.1877061589
H  H244  1  0.52140000  0.98760000  0.86000000  1.0 -0.1877061589
H  H245  1  0.52140000  0.66140000  0.53380000  1.0 -0.1877061589
H  H246  1  0.12760000  0.98760000  0.46620000  1.0 -0.1877061589
H  H247  1  0.87240000  0.33860000  0.86000000  1.0 -0.1877061589
H  H248  1  0.47860000  0.01240000  0.14000000  1.0 -0.1877061589
H  H249  1  0.87950000  0.52060000  0.53410000  1.0 -0.1398367808
H  H250  1  0.98650000  0.34540000  0.46590000  1.0 -0.1398367808
H  H251  1  0.01350000  0.47940000  0.35890000  1.0 -0.1398367808
H  H252  1  0.12050000  0.65460000  0.64110000  1.0 -0.1398367808
H  H253  1  0.12050000  0.47940000  0.46590000  1.0 -0.1398367808
H  H254  1  0.01350000  0.65460000  0.53410000  1.0 -0.1398367808
H  H255  1  0.98650000  0.52060000  0.64110000  1.0 -0.1398367808
H  H256  1  0.87950000  0.34540000  0.35890000  1.0 -0.1398367808
H  H257  1  0.86000000  0.56240000  0.48360000  1.0 -0.1290048524
H  H258  1  0.07880000  0.37640000  0.51640000  1.0 -0.1290048524
H  H259  1  0.92120000  0.43760000  0.29760000  1.0 -0.1290048524
H  H260  1  0.14000000  0.62360000  0.70240000  1.0 -0.1290048524
H  H261  1  0.14000000  0.43760000  0.51640000  1.0 -0.1290048524
H  H262  1  0.92120000  0.62360000  0.48360000  1.0 -0.1290048524
H  H263  1  0.07880000  0.56240000  0.70240000  1.0 -0.1290048524
H  H264  1  0.86000000  0.37640000  0.29760000  1.0 -0.1290048524
H  H265  1  0.76540000  0.53780000  0.41820000  1.0 -0.1097875904
H  H266  1  0.11960000  0.34720000  0.58180000  1.0 -0.1097875904
H  H267  1  0.88040000  0.46220000  0.22760000  1.0 -0.1097875904
H  H268  1  0.23460000  0.65280000  0.77240000  1.0 -0.1097875904
H  H269  1  0.23460000  0.46220000  0.58180000  1.0 -0.1097875904
H  H270  1  0.88040000  0.65280000  0.41820000  1.0 -0.1097875904
H  H271  1  0.11960000  0.53780000  0.77240000  1.0 -0.1097875904
H  H272  1  0.76540000  0.34720000  0.22760000  1.0 -0.1097875904
H  H273  1  0.72960000  0.49150000  0.43910000  1.0 -0.1206879224
H  H274  1  0.05240000  0.29050000  0.56090000  1.0 -0.1206879224
H  H275  1  0.94760000  0.50850000  0.23810000  1.0 -0.1206879224
H  H276  1  0.27040000  0.70950000  0.76190000  1.0 -0.1206879224
H  H277  1  0.27040000  0.50850000  0.56090000  1.0 -0.1206879224
H  H278  1  0.94760000  0.70950000  0.43910000  1.0 -0.1206879224
H  H279  1  0.05240000  0.49150000  0.76190000  1.0 -0.1206879224
H  H280  1  0.72960000  0.29050000  0.23810000  1.0 -0.1206879224
H  H281  1  0.79890000  0.47590000  0.50460000  1.0 -0.1206879224
H  H282  1  0.97130000  0.29430000  0.49540000  1.0 -0.1206879224
H  H283  1  0.02870000  0.52410000  0.32300000  1.0 -0.1206879224
H  H284  1  0.20110000  0.70570000  0.67700000  1.0 -0.1206879224
H  H285  1  0.20110000  0.52410000  0.49540000  1.0 -0.1206879224
H  H286  1  0.02870000  0.70570000  0.50460000  1.0 -0.1206879224
H  H287  1  0.97130000  0.47590000  0.67700000  1.0 -0.1206879224
H  H288  1  0.79890000  0.29430000  0.32300000  1.0 -0.1206879224
H  H289  1  0.74720000  0.41050000  0.39510000  1.0 -0.179517331
H  H290  1  0.01540000  0.35210000  0.60490000  1.0 -0.179517331
H  H291  1  0.98460000  0.58950000  0.33670000  1.0 -0.179517331
H  H292  1  0.25280000  0.64790000  0.66330000  1.0 -0.179517331
H  H293  1  0.25280000  0.58950000  0.60490000  1.0 -0.179517331
H  H294  1  0.98460000  0.64790000  0.39510000  1.0 -0.179517331
H  H295  1  0.01540000  0.41050000  0.66330000  1.0 -0.179517331
H  H296  1  0.74720000  0.35210000  0.33670000  1.0 -0.179517331
H  H297  1  0.73200000  0.44470000  0.33810000  1.0 -0.1398367808
H  H298  1  0.10660000  0.39390000  0.66190000  1.0 -0.1290048524
H  H299  1  0.89340000  0.55530000  0.28730000  1.0 -0.1398367808
H  H300  1  0.26800000  0.60610000  0.71270000  1.0 -0.1290048524
H  H301  1  0.26800000  0.55530000  0.66190000  1.0 -0.1290048524
H  H302  1  0.89340000  0.60610000  0.33810000  1.0 -0.1398367808
H  H303  1  0.10660000  0.44470000  0.71270000  1.0 -0.1290048524
H  H304  1  0.73200000  0.39390000  0.28730000  1.0 -0.1398367808
H  H305  1  0.81200000  0.49200000  0.37560000  1.0 -0.1004418612
H  H306  1  0.11640000  0.43640000  0.62440000  1.0 -0.1004418612
H  H307  1  0.88360000  0.50800000  0.32000000  1.0 -0.1004418612
H  H308  1  0.18800000  0.56360000  0.68000000  1.0 -0.1004418612
H  H309  1  0.18800000  0.50800000  0.62440000  1.0 -0.1004418612
H  H310  1  0.88360000  0.56360000  0.37560000  1.0 -0.1004418612
H  H311  1  0.11640000  0.49200000  0.68000000  1.0 -0.1004418612
H  H312  1  0.81200000  0.43640000  0.32000000  1.0 -0.1004418612
H  H313  1  0.88040000  0.54940000  0.51780000  1.0 -0.1505232638
H  H314  1  0.03160000  0.36260000  0.48220000  1.0 -0.1505232638
H  H315  1  0.96840000  0.45060000  0.33100000  1.0 -0.1505232638
H  H316  1  0.11960000  0.63740000  0.66900000  1.0 -0.1505232638
H  H317  1  0.11960000  0.45060000  0.48220000  1.0 -0.1505232638
H  H318  1  0.96840000  0.63740000  0.51780000  1.0 -0.1505232638
H  H319  1  0.03160000  0.54940000  0.66900000  1.0 -0.1505232638
H  H320  1  0.88040000  0.36260000  0.33100000  1.0 -0.1505232638
H  H321  1  0.81230000  0.55710000  0.44340000  1.0 -0.1206879224
H  H322  1  0.11370000  0.36890000  0.55660000  1.0 -0.1206879224
H  H323  1  0.88630000  0.44290000  0.25520000  1.0 -0.1206879224
H  H324  1  0.18770000  0.63110000  0.74480000  1.0 -0.1206879224
H  H325  1  0.18770000  0.44290000  0.55660000  1.0 -0.1206879224
H  H326  1  0.88630000  0.63110000  0.44340000  1.0 -0.1206879224
H  H327  1  0.11370000  0.55710000  0.74480000  1.0 -0.1206879224
H  H328  1  0.81230000  0.36890000  0.25520000  1.0 -0.1206879224
H  H329  1  0.73070000  0.50950000  0.40920000  1.0 -0.1097875904
H  H330  1  0.10030000  0.32150000  0.59080000  1.0 -0.1097875904
H  H331  1  0.89970000  0.49050000  0.22120000  1.0 -0.1097875904
H  H332  1  0.26930000  0.67850000  0.77880000  1.0 -0.1097875904
H  H333  1  0.26930000  0.49050000  0.59080000  1.0 -0.1097875904
H  H334  1  0.89970000  0.67850000  0.40920000  1.0 -0.1097875904
H  H335  1  0.10030000  0.50950000  0.77880000  1.0 -0.1097875904
H  H336  1  0.73070000  0.32150000  0.22120000  1.0 -0.1097875904
H  H337  1  0.74960000  0.47230000  0.46430000  1.0 -0.1097875904
H  H338  1  0.00800000  0.28530000  0.53570000  1.0 -0.1097875904
H  H339  1  0.99200000  0.52770000  0.27730000  1.0 -0.1097875904
H  H340  1  0.25040000  0.71470000  0.72270000  1.0 -0.1097875904
H  H341  1  0.25040000  0.52770000  0.53570000  1.0 -0.1097875904
H  H342  1  0.99200000  0.71470000  0.46430000  1.0 -0.1097875904
H  H343  1  0.00800000  0.47230000  0.72270000  1.0 -0.1097875904
H  H344  1  0.74960000  0.28530000  0.27730000  1.0 -0.1097875904
H  H345  1  0.84280000  0.49760000  0.53240000  1.0 -0.1398367808
H  H346  1  0.96520000  0.31040000  0.46760000  1.0 -0.1290048524
H  H347  1  0.03480000  0.50240000  0.34520000  1.0 -0.1398367808
H  H348  1  0.15720000  0.68960000  0.65480000  1.0 -0.1290048524
H  H349  1  0.15720000  0.50240000  0.46760000  1.0 -0.1398367808
H  H350  1  0.03480000  0.68960000  0.53240000  1.0 -0.1398367808
H  H351  1  0.96520000  0.49760000  0.65480000  1.0 -0.1290048524
H  H352  1  0.84280000  0.31040000  0.34520000  1.0 -0.1398367808
H  H353  1  0.79400000  0.40960000  0.43840000  1.0 -0.1004418612
H  H354  1  0.97120000  0.35560000  0.56160000  1.0 -0.1004418612
H  H355  1  0.02880000  0.59040000  0.38440000  1.0 -0.1004418612
H  H356  1  0.20600000  0.64440000  0.61560000  1.0 -0.1004418612
H  H357  1  0.20600000  0.59040000  0.56160000  1.0 -0.1004418612
H  H358  1  0.02880000  0.64440000  0.43840000  1.0 -0.1004418612
H  H359  1  0.97120000  0.40960000  0.61560000  1.0 -0.1004418612
H  H360  1  0.79400000  0.35560000  0.38440000  1.0 -0.1004418612
H  H361  1  0.72610000  0.41730000  0.36120000  1.0 -0.1398367808
H  H362  1  0.05610000  0.36490000  0.63880000  1.0 -0.1398367808
H  H363  1  0.94390000  0.58270000  0.30880000  1.0 -0.1398367808
H  H364  1  0.27390000  0.63510000  0.69120000  1.0 -0.1398367808
H  H365  1  0.27390000  0.58270000  0.63880000  1.0 -0.1398367808
H  H366  1  0.94390000  0.63510000  0.36120000  1.0 -0.1398367808
H  H367  1  0.05610000  0.41730000  0.69120000  1.0 -0.1398367808
H  H368  1  0.72610000  0.36490000  0.30880000  1.0 -0.1398367808
H  H369  1  0.76300000  0.47050000  0.34730000  1.0 -0.1709011922
H  H370  1  0.12320000  0.41570000  0.65270000  1.0 -0.1709011922
H  H371  1  0.87680000  0.52950000  0.29250000  1.0 -0.1709011922
H  H372  1  0.23700000  0.58430000  0.70750000  1.0 -0.1709011922
H  H373  1  0.23700000  0.52950000  0.65270000  1.0 -0.1709011922
H  H374  1  0.87680000  0.58430000  0.34730000  1.0 -0.1709011922
H  H375  1  0.12320000  0.47050000  0.70750000  1.0 -0.1709011922
H  H376  1  0.76300000  0.41570000  0.29250000  1.0 -0.1709011922
H  H377  1  0.85440000  0.49320000  0.41580000  1.0 -0.1290048524
H  H378  1  0.07740000  0.43860000  0.58420000  1.0 -0.1290048524
H  H379  1  0.92260000  0.50680000  0.36120000  1.0 -0.1290048524
H  H380  1  0.14560000  0.56140000  0.63880000  1.0 -0.1290048524
H  H381  1  0.14560000  0.50680000  0.58420000  1.0 -0.1290048524
H  H382  1  0.92260000  0.56140000  0.41580000  1.0 -0.1290048524
H  H383  1  0.07740000  0.49320000  0.63880000  1.0 -0.1290048524
H  H384  1  0.85440000  0.43860000  0.36120000  1.0 -0.1290048524
H  H385  1  0.87150000  0.45750000  0.46960000  1.0 -0.0629035058
H  H386  1  0.98790000  0.40190000  0.53040000  1.0 -0.0629035058
H  H387  1  0.01210000  0.54250000  0.41400000  1.0 -0.0629035058
H  H388  1  0.12850000  0.59810000  0.58600000  1.0 -0.0629035058
H  H389  1  0.12850000  0.54250000  0.53040000  1.0 -0.0629035058
H  H390  1  0.01210000  0.59810000  0.46960000  1.0 -0.0629035058
H  H391  1  0.98790000  0.45750000  0.58600000  1.0 -0.0629035058
H  H392  1  0.87150000  0.40190000  0.41400000  1.0 -0.0629035058
C  C1  1  0.30840000  0.14960000  0.25760000  1.0 0.7006079351
C  C2  1  0.89200000  0.05080000  0.74240000  1.0 0.7006079351
C  C3  1  0.10800000  0.85040000  0.15880000  1.0 0.7006079351
C  C4  1  0.69160000  0.94920000  0.84120000  1.0 0.7006079351
C  C5  1  0.69160000  0.85040000  0.74240000  1.0 0.7006079351
C  C6  1  0.10800000  0.94920000  0.25760000  1.0 0.7006079351
C  C7  1  0.89200000  0.14960000  0.84120000  1.0 0.7006079351
C  C8  1  0.30840000  0.05080000  0.15880000  1.0 0.7006079351
C  C9  1  0.71420000  0.80780000  0.80720000  1.0 0.7006079351
C  C10  1  0.00060000  0.90700000  0.19280000  1.0 0.7006079351
C  C11  1  0.99940000  0.19220000  0.90640000  1.0 0.7006079351
C  C12  1  0.28580000  0.09300000  0.09360000  1.0 0.7006079351
C  C13  1  0.28580000  0.19220000  0.19280000  1.0 0.7006079351
C  C14  1  0.99940000  0.09300000  0.80720000  1.0 0.7006079351
C  C15  1  0.00060000  0.80780000  0.09360000  1.0 0.7006079351
C  C16  1  0.71420000  0.90700000  0.90640000  1.0 0.7006079351
C  C17  1  0.72380000  0.76650000  0.79830000  1.0 0.1192287086
C  C18  1  0.96820000  0.92550000  0.20170000  1.0 0.1192287086
C  C19  1  0.03180000  0.23350000  0.95730000  1.0 0.1192287086
C  C20  1  0.27620000  0.07450000  0.04270000  1.0 0.1192287086
C  C21  1  0.27620000  0.23350000  0.20170000  1.0 0.1192287086
C  C22  1  0.03180000  0.07450000  0.79830000  1.0 0.1192287086
C  C23  1  0.96820000  0.76650000  0.04270000  1.0 0.1192287086
C  C24  1  0.72380000  0.92550000  0.95730000  1.0 0.1192287086
C  C25  1  0.68927000  0.73217000  0.77630000  1.0 0.0113625484
C  C26  1  0.95587000  0.91297000  0.22370000  1.0 0.0113625484
C  C27  1  0.04413000  0.26783000  0.95710000  1.0 0.0113625484
C  C28  1  0.31073000  0.08703000  0.04290000  1.0 0.0113625484
C  C29  1  0.31073000  0.26783000  0.22370000  1.0 0.0113625484
C  C30  1  0.04413000  0.08703000  0.77630000  1.0 0.0113625484
C  C31  1  0.95587000  0.73217000  0.04290000  1.0 0.0113625484
C  C32  1  0.68927000  0.91297000  0.95710000  1.0 0.0113625484
C  C33  1  0.70000000  0.69090000  0.76610000  1.0 0.1872314402
C  C34  1  0.92480000  0.93390000  0.23390000  1.0 0.1872314402
C  C35  1  0.07520000  0.30910000  0.00910000  1.0 0.1872314402
C  C36  1  0.30000000  0.06610000  0.99090000  1.0 0.1872314402
C  C37  1  0.30000000  0.30910000  0.23390000  1.0 0.1872314402
C  C38  1  0.07520000  0.06610000  0.76610000  1.0 0.1872314402
C  C39  1  0.92480000  0.69090000  0.99090000  1.0 0.1872314402
C  C40  1  0.70000000  0.93390000  0.00910000  1.0 0.1872314402
C  C41  1  0.74170000  0.68770000  0.77960000  1.0 0.0185829793
C  C42  1  0.90810000  0.96210000  0.22040000  1.0 0.0185829793
C  C43  1  0.09190000  0.31230000  0.05400000  1.0 0.0185829793
C  C44  1  0.25830000  0.03790000  0.94600000  1.0 0.0185829793
C  C45  1  0.25830000  0.31230000  0.22040000  1.0 0.0185829793
C  C46  1  0.09190000  0.03790000  0.77960000  1.0 0.0185829793
C  C47  1  0.90810000  0.68770000  0.94600000  1.0 0.0185829793
C  C48  1  0.74170000  0.96210000  0.05400000  1.0 0.0185829793
C  C49  1  0.77020000  0.72230000  0.79710000  1.0 0.1329844682
C  C50  1  0.92520000  0.97310000  0.20290000  1.0 0.1329844682
C  C51  1  0.07480000  0.27770000  0.04790000  1.0 0.1329844682
C  C52  1  0.22980000  0.02690000  0.95210000  1.0 0.1329844682
C  C53  1  0.22980000  0.27770000  0.20290000  1.0 0.1329844682
C  C54  1  0.07480000  0.02690000  0.79710000  1.0 0.1329844682
C  C55  1  0.92520000  0.72230000  0.95210000  1.0 0.1329844682
C  C56  1  0.77020000  0.97310000  0.04790000  1.0 0.1329844682
C  C57  1  0.76402000  0.76292000  0.81030000  1.0 0.0019345185
C  C58  1  0.95262000  0.95372000  0.18970000  1.0 0.0019345185
C  C59  1  0.04738000  0.23708000  0.00110000  1.0 0.0019345185
C  C60  1  0.23598000  0.04628000  0.99890000  1.0 0.0019345185
C  C61  1  0.23598000  0.23708000  0.18970000  1.0 0.0019345185
C  C62  1  0.04738000  0.04628000  0.81030000  1.0 0.0019345185
C  C63  1  0.95262000  0.76292000  0.99890000  1.0 0.0019345185
C  C64  1  0.76402000  0.95372000  0.00110000  1.0 0.0019345185
C  C65  1  0.81740000  0.72390000  0.81310000  1.0 0.7006079351
C  C66  1  0.91080000  0.00430000  0.18690000  1.0 0.7006079351
C  C67  1  0.08920000  0.27610000  0.09350000  1.0 0.7006079351
C  C68  1  0.18260000  0.99570000  0.90650000  1.0 0.7006079351
C  C69  1  0.18260000  0.27610000  0.18690000  1.0 0.7006079351
C  C70  1  0.08920000  0.99570000  0.81310000  1.0 0.7006079351
C  C71  1  0.91080000  0.72390000  0.90650000  1.0 0.7006079351
C  C72  1  0.81740000  0.00430000  0.09350000  1.0 0.7006079351
C  C73  1  0.66560000  0.65300000  0.74260000  1.0 -0.1206879224
C  C74  1  0.91040000  0.92300000  0.25740000  1.0 -0.1206879224
C  C75  1  0.08960000  0.34700000  0.01260000  1.0 -0.1206879224
C  C76  1  0.33440000  0.07700000  0.98740000  1.0 -0.1206879224
C  C77  1  0.33440000  0.34700000  0.25740000  1.0 -0.1206879224
C  C78  1  0.08960000  0.07700000  0.74260000  1.0 -0.1206879224
C  C79  1  0.91040000  0.65300000  0.98740000  1.0 -0.1206879224
C  C80  1  0.66560000  0.92300000  0.01260000  1.0 -0.1206879224
C  C81  1  0.64140000  0.62080000  0.72240000  1.0 -0.1206879224
C  C82  1  0.89840000  0.91900000  0.27760000  1.0 -0.1290048524
C  C83  1  0.10160000  0.37920000  0.02060000  1.0 -0.1290048524
C  C84  1  0.35860000  0.08100000  0.97940000  1.0 -0.1206879224
C  C85  1  0.35860000  0.37920000  0.27760000  1.0 -0.1290048524
C  C86  1  0.10160000  0.08100000  0.72240000  1.0 -0.1206879224
C  C87  1  0.89840000  0.62080000  0.97940000  1.0 -0.1206879224
C  C88  1  0.64140000  0.91900000  0.02060000  1.0 -0.1290048524
C  C89  1  0.59250000  0.48720000  0.64890000  1.0 -0.1877061589
C  C90  1  0.83830000  0.94360000  0.35110000  1.0 -0.1877061589
C  C91  1  0.16170000  0.51280000  0.10530000  1.0 -0.1877061589
C  C92  1  0.40750000  0.05640000  0.89470000  1.0 -0.1877061589
C  C93  1  0.40750000  0.51280000  0.35110000  1.0 -0.1877061589
C  C94  1  0.16170000  0.05640000  0.64890000  1.0 -0.1877061589
C  C95  1  0.83830000  0.48720000  0.89470000  1.0 -0.1877061589
C  C96  1  0.59250000  0.94360000  0.10530000  1.0 -0.1877061589
C  C97  1  0.56718000  0.49158000  0.60120000  1.0 -0.179517331
C  C98  1  0.89038000  0.96598000  0.39880000  1.0 -0.179517331
C  C99  1  0.10962000  0.50842000  0.07560000  1.0 -0.179517331
C  C100  1  0.43282000  0.03402000  0.92440000  1.0 -0.179517331
C  C101  1  0.43282000  0.50842000  0.39880000  1.0 -0.179517331
C  C102  1  0.10962000  0.03402000  0.60120000  1.0 -0.179517331
C  C103  1  0.89038000  0.49158000  0.92440000  1.0 -0.179517331
C  C104  1  0.56718000  0.96598000  0.07560000  1.0 -0.179517331
C  C105  1  0.52670000  0.39970000  0.55840000  1.0 -0.1877061589
C  C106  1  0.84130000  0.96830000  0.44160000  1.0 -0.1877061589
C  C107  1  0.15870000  0.60030000  0.12700000  1.0 -0.1877061589
C  C108  1  0.47330000  0.03170000  0.87300000  1.0 -0.1877061589
C  C109  1  0.47330000  0.60030000  0.44160000  1.0 -0.1877061589
C  C110  1  0.15870000  0.03170000  0.55840000  1.0 -0.1877061589
C  C111  1  0.84130000  0.39970000  0.87300000  1.0 -0.1877061589
C  C112  1  0.52670000  0.96830000  0.12700000  1.0 -0.1877061589
C  C113  1  0.48770000  0.41530000  0.52880000  1.0 -0.1877061589
C  C114  1  0.88650000  0.95890000  0.47120000  1.0 -0.1877061589
C  C115  1  0.11350000  0.58470000  0.07240000  1.0 -0.1877061589
C  C116  1  0.51230000  0.04110000  0.92760000  1.0 -0.1877061589
C  C117  1  0.51230000  0.58470000  0.47120000  1.0 -0.1877061589
C  C118  1  0.11350000  0.04110000  0.52880000  1.0 -0.1877061589
C  C119  1  0.88650000  0.41530000  0.92760000  1.0 -0.1877061589
C  C120  1  0.48770000  0.95890000  0.07240000  1.0 -0.1877061589
C  C121  1  0.41980000  0.30050000  0.48070000  1.0 -0.179517331
C  C122  1  0.81980000  0.93910000  0.51930000  1.0 -0.1709011922
C  C123  1  0.18020000  0.69950000  0.11930000  1.0 -0.179517331
C  C124  1  0.58020000  0.06090000  0.88070000  1.0 -0.1709011922
C  C125  1  0.58020000  0.69950000  0.51930000  1.0 -0.1709011922
C  C126  1  0.18020000  0.06090000  0.48070000  1.0 -0.179517331
C  C127  1  0.81980000  0.30050000  0.88070000  1.0 -0.1709011922
C  C128  1  0.41980000  0.93910000  0.11930000  1.0 -0.179517331
C  C129  1  0.39440000  0.26500000  0.44700000  1.0 -0.1097875904
C  C130  1  0.81800000  0.94740000  0.55300000  1.0 -0.1097875904
C  C131  1  0.18200000  0.73500000  0.12940000  1.0 -0.1097875904
C  C132  1  0.60560000  0.05260000  0.87060000  1.0 -0.1097875904
C  C133  1  0.60560000  0.73500000  0.55300000  1.0 -0.1097875904
C  C134  1  0.18200000  0.05260000  0.44700000  1.0 -0.1097875904
C  C135  1  0.81800000  0.26500000  0.87060000  1.0 -0.1097875904
C  C136  1  0.39440000  0.94740000  0.12940000  1.0 -0.1097875904
C  C137  1  0.35570000  0.22480000  0.39910000  1.0 0.1811757317
C  C138  1  0.82570000  0.95660000  0.60090000  1.0 0.1811757317
C  C139  1  0.17430000  0.77520000  0.13090000  1.0 0.1811757317
C  C140  1  0.64430000  0.04340000  0.86910000  1.0 0.1811757317
C  C141  1  0.64430000  0.77520000  0.60090000  1.0 0.1811757317
C  C142  1  0.17430000  0.04340000  0.39910000  1.0 0.1811757317
C  C143  1  0.82570000  0.22480000  0.86910000  1.0 0.1811757317
C  C144  1  0.35570000  0.95660000  0.13090000  1.0 0.1811757317
C  C145  1  0.32278000  0.21548000  0.40210000  1.0 0.0370333174
C  C146  1  0.81338000  0.92068000  0.59790000  1.0 0.0370333174
C  C147  1  0.18662000  0.78452000  0.10730000  1.0 0.0370333174
C  C148  1  0.67722000  0.07932000  0.89270000  1.0 0.0370333174
C  C149  1  0.67722000  0.78452000  0.59790000  1.0 0.0370333174
C  C150  1  0.18662000  0.07932000  0.40210000  1.0 0.0370333174
C  C151  1  0.81338000  0.21548000  0.89270000  1.0 0.0370333174
C  C152  1  0.32278000  0.92068000  0.10730000  1.0 0.0370333174
C  C153  1  0.28460000  0.18460000  0.35620000  1.0 0.0824186859
C  C154  1  0.82840000  0.92840000  0.64380000  1.0 0.0824186859
C  C155  1  0.17160000  0.81540000  0.10000000  1.0 0.0824186859
C  C156  1  0.71540000  0.07160000  0.90000000  1.0 0.0824186859
C  C157  1  0.71540000  0.81540000  0.64380000  1.0 0.0824186859
C  C158  1  0.17160000  0.07160000  0.35620000  1.0 0.0824186859
C  C159  1  0.82840000  0.18460000  0.90000000  1.0 0.0824186859
C  C160  1  0.28460000  0.92840000  0.10000000  1.0 0.0824186859
C  C161  1  0.27969000  0.16259000  0.31010000  1.0 0.0370333174
C  C162  1  0.85249000  0.96959000  0.68990000  1.0 0.0370333174
C  C163  1  0.14751000  0.83741000  0.11710000  1.0 0.0370333174
C  C164  1  0.72031000  0.03041000  0.88290000  1.0 0.0370333174
C  C165  1  0.72031000  0.83741000  0.68990000  1.0 0.0370333174
C  C166  1  0.14751000  0.03041000  0.31010000  1.0 0.0370333174
C  C167  1  0.85249000  0.16259000  0.88290000  1.0 0.0370333174
C  C168  1  0.27969000  0.96959000  0.11710000  1.0 0.0370333174
C  C169  1  0.31532000  0.17172000  0.30920000  1.0 0.1192287086
C  C170  1  0.86252000  0.00612000  0.69080000  1.0 0.1192287086
C  C171  1  0.13748000  0.82828000  0.14360000  1.0 0.1192287086
C  C172  1  0.68468000  0.99388000  0.85640000  1.0 0.1192287086
C  C173  1  0.68468000  0.82828000  0.69080000  1.0 0.1192287086
C  C174  1  0.13748000  0.99388000  0.30920000  1.0 0.1192287086
C  C175  1  0.86252000  0.17172000  0.85640000  1.0 0.1192287086
C  C176  1  0.31532000  0.00612000  0.14360000  1.0 0.1192287086
C  C177  1  0.35135000  0.20145000  0.35310000  1.0 0.0370333174
C  C178  1  0.84835000  0.99825000  0.64690000  1.0 0.0370333174
C  C179  1  0.15165000  0.79855000  0.14990000  1.0 0.0370333174
C  C180  1  0.64865000  0.00175000  0.85010000  1.0 0.0370333174
C  C181  1  0.64865000  0.79855000  0.64690000  1.0 0.0370333174
C  C182  1  0.15165000  0.00175000  0.35310000  1.0 0.0370333174
C  C183  1  0.84835000  0.20145000  0.85010000  1.0 0.0370333174
C  C184  1  0.35135000  0.99825000  0.14990000  1.0 0.0370333174
C  C185  1  0.86120000  0.70130000  0.74590000  1.0 0.7178753559
C  C186  1  0.95540000  0.11530000  0.25410000  1.0 0.7178753559
C  C187  1  0.04460000  0.29870000  0.15990000  1.0 0.7178753559
C  C188  1  0.13880000  0.88470000  0.84010000  1.0 0.7178753559
C  C189  1  0.13880000  0.29870000  0.25410000  1.0 0.7178753559
C  C190  1  0.04460000  0.88470000  0.74590000  1.0 0.7178753559
C  C191  1  0.95540000  0.70130000  0.84010000  1.0 0.7178753559
C  C192  1  0.86120000  0.11530000  0.15990000  1.0 0.7178753559
C  C193  1  0.84460000  0.69640000  0.69660000  1.0 0.099662295
C  C194  1  0.99980000  0.14800000  0.30340000  1.0 0.099662295
C  C195  1  0.00020000  0.30360000  0.14820000  1.0 0.094349489
C  C196  1  0.15540000  0.85200000  0.85180000  1.0 0.099662295
C  C197  1  0.15540000  0.30360000  0.30340000  1.0 0.099662295
C  C198  1  0.00020000  0.85200000  0.69660000  1.0 0.094349489
C  C199  1  0.99980000  0.69640000  0.85180000  1.0 0.099662295
C  C200  1  0.84460000  0.14800000  0.14820000  1.0 0.099662295
C  C201  1  0.83330000  0.65390000  0.65120000  1.0 -0.0758511062
C  C202  1  0.00270000  0.18210000  0.34880000  1.0 -0.0758511062
C  C203  1  0.99730000  0.34610000  0.17940000  1.0 -0.0758511062
C  C204  1  0.16670000  0.81790000  0.82060000  1.0 -0.0686973805
C  C205  1  0.16670000  0.34610000  0.34880000  1.0 -0.0758511062
C  C206  1  0.99730000  0.81790000  0.65120000  1.0 -0.0686973805
C  C207  1  0.00270000  0.65390000  0.82060000  1.0 -0.0686973805
C  C208  1  0.83330000  0.18210000  0.17940000  1.0 -0.0758511062
C  C209  1  0.82130000  0.64960000  0.60950000  1.0 0.1329844682
C  C210  1  0.04010000  0.21180000  0.39050000  1.0 0.1329844682
C  C211  1  0.95990000  0.35040000  0.17170000  1.0 0.1329844682
C  C212  1  0.17870000  0.78820000  0.82830000  1.0 0.1353004427
C  C213  1  0.17870000  0.35040000  0.39050000  1.0 0.1329844682
C  C214  1  0.95990000  0.78820000  0.60950000  1.0 0.1329844682
C  C215  1  0.04010000  0.64960000  0.82830000  1.0 0.1353004427
C  C216  1  0.82130000  0.21180000  0.17170000  1.0 0.1329844682
C  C217  1  0.81720000  0.68480000  0.60880000  1.0 0.0019345185
C  C218  1  0.07600000  0.20840000  0.39120000  1.0 0.0019345185
C  C219  1  0.92400000  0.31520000  0.13240000  1.0 -0.0020332332
C  C220  1  0.18280000  0.79160000  0.86760000  1.0 0.0019345185
C  C221  1  0.18280000  0.31520000  0.39120000  1.0 0.0019345185
C  C222  1  0.92400000  0.79160000  0.60880000  1.0 0.0019345185
C  C223  1  0.07600000  0.68480000  0.86760000  1.0 0.0019345185
C  C224  1  0.81720000  0.20840000  0.13240000  1.0 -0.0020332332
C  C225  1  0.82760000  0.72370000  0.65290000  1.0 0.094349489
C  C226  1  0.07080000  0.17470000  0.34710000  1.0 0.094349489
C  C227  1  0.92920000  0.27630000  0.10390000  1.0 0.094349489
C  C228  1  0.17240000  0.82530000  0.89610000  1.0 0.094349489
C  C229  1  0.17240000  0.27630000  0.34710000  1.0 0.094349489
C  C230  1  0.92920000  0.82530000  0.65290000  1.0 0.094349489
C  C231  1  0.07080000  0.72370000  0.89610000  1.0 0.094349489
C  C232  1  0.82760000  0.17470000  0.10390000  1.0 0.094349489
C  C233  1  0.84250000  0.73200000  0.69630000  1.0 0.0370333174
C  C234  1  0.03570000  0.14620000  0.30370000  1.0 0.0370333174
C  C235  1  0.96430000  0.26800000  0.11050000  1.0 0.0370333174
C  C236  1  0.15750000  0.85380000  0.88950000  1.0 0.0370333174
C  C237  1  0.15750000  0.26800000  0.30370000  1.0 0.0370333174
C  C238  1  0.96430000  0.85380000  0.69630000  1.0 0.0370333174
C  C239  1  0.03570000  0.73200000  0.88950000  1.0 0.0370333174
C  C240  1  0.84250000  0.14620000  0.11050000  1.0 0.0370333174
C  C241  1  0.82340000  0.75970000  0.64790000  1.0 0.7063589637
C  C242  1  0.11180000  0.17550000  0.35210000  1.0 0.7063589637
C  C243  1  0.88820000  0.24030000  0.06370000  1.0 0.7063589637
C  C244  1  0.17660000  0.82450000  0.93630000  1.0 0.7063589637
C  C245  1  0.17660000  0.24030000  0.35210000  1.0 0.7063589637
C  C246  1  0.88820000  0.82450000  0.64790000  1.0 0.7063589637
C  C247  1  0.11180000  0.75970000  0.93630000  1.0 0.7063589637
C  C248  1  0.82340000  0.17550000  0.06370000  1.0 0.7063589637
C  C249  1  0.81230000  0.60640000  0.56710000  1.0 -0.179517331
C  C250  1  0.03930000  0.24520000  0.43290000  1.0 -0.179517331
C  C251  1  0.96070000  0.39360000  0.20590000  1.0 -0.179517331
C  C252  1  0.18770000  0.75480000  0.79410000  1.0 -0.179517331
C  C253  1  0.18770000  0.39360000  0.43290000  1.0 -0.179517331
C  C254  1  0.96070000  0.75480000  0.56710000  1.0 -0.179517331
C  C255  1  0.03930000  0.60640000  0.79410000  1.0 -0.179517331
C  C256  1  0.81230000  0.24520000  0.20590000  1.0 -0.179517331
C  C257  1  0.80680000  0.57260000  0.53060000  1.0 -0.1097875904
C  C258  1  0.04200000  0.27620000  0.46940000  1.0 -0.1097875904
C  C259  1  0.95800000  0.42740000  0.23420000  1.0 -0.1097875904
C  C260  1  0.19320000  0.72380000  0.76580000  1.0 -0.1097875904
C  C261  1  0.19320000  0.42740000  0.46940000  1.0 -0.1097875904
C  C262  1  0.95800000  0.72380000  0.53060000  1.0 -0.1097875904
C  C263  1  0.04200000  0.57260000  0.76580000  1.0 -0.1097875904
C  C264  1  0.80680000  0.27620000  0.23420000  1.0 -0.1097875904
C  C265  1  0.24570000  0.17330000  0.35100000  1.0 0.6921419744
C  C266  1  0.82230000  0.89470000  0.64900000  1.0 0.6921419744
C  C267  1  0.17770000  0.82670000  0.07240000  1.0 0.6921419744
C  C268  1  0.75430000  0.10530000  0.92760000  1.0 0.6921419744
C  C269  1  0.75430000  0.82670000  0.64900000  1.0 0.6921419744
C  C270  1  0.17770000  0.10530000  0.35100000  1.0 0.6921419744
C  C271  1  0.82230000  0.17330000  0.92760000  1.0 0.6921419744
C  C272  1  0.24570000  0.89470000  0.07240000  1.0 0.6921419744
C  C273  1  0.82640000  0.45140000  0.45160000  1.0 -0.0488622574
C  C274  1  0.99980000  0.37480000  0.54840000  1.0 -0.041345889
C  C275  1  0.00020000  0.54860000  0.37500000  1.0 -0.0488622574
C  C276  1  0.17360000  0.62520000  0.62500000  1.0 -0.041345889
C  C277  1  0.17360000  0.54860000  0.54840000  1.0 -0.041345889
C  C278  1  0.00020000  0.62520000  0.45160000  1.0 -0.0488622574
C  C279  1  0.99980000  0.45140000  0.62500000  1.0 -0.041345889
C  C280  1  0.82640000  0.37480000  0.37500000  1.0 -0.0488622574
C  C281  1  0.84680000  0.48160000  0.44200000  1.0 -0.0284149789
C  C282  1  0.03960000  0.40480000  0.55800000  1.0 -0.01915978
C  C283  1  0.96040000  0.51840000  0.36520000  1.0 -0.0284149789
C  C284  1  0.15320000  0.59520000  0.63480000  1.0 -0.01915978
C  C285  1  0.15320000  0.51840000  0.55800000  1.0 -0.01915978
C  C286  1  0.96040000  0.59520000  0.44200000  1.0 -0.0284149789
C  C287  1  0.03960000  0.48160000  0.63480000  1.0 -0.01915978
C  C288  1  0.84680000  0.40480000  0.36520000  1.0 -0.0284149789
C  C289  1  0.83240000  0.48840000  0.42500000  1.0 -0.0284149789
C  C290  1  0.06340000  0.40740000  0.57500000  1.0 -0.0284149789
C  C291  1  0.93660000  0.51160000  0.34400000  1.0 -0.0284149789
C  C292  1  0.16760000  0.59260000  0.65600000  1.0 -0.0284149789
C  C293  1  0.16760000  0.51160000  0.57500000  1.0 -0.0284149789
C  C294  1  0.93660000  0.59260000  0.42500000  1.0 -0.0284149789
C  C295  1  0.06340000  0.48840000  0.65600000  1.0 -0.0284149789
C  C296  1  0.83240000  0.40740000  0.34400000  1.0 -0.0284149789
C  C297  1  0.84240000  0.46760000  0.45620000  1.0 -0.0488622574
C  C298  1  0.01140000  0.38620000  0.54380000  1.0 -0.0488622574
C  C299  1  0.98860000  0.53240000  0.37480000  1.0 -0.0488622574
C  C300  1  0.15760000  0.61380000  0.62520000  1.0 -0.0488622574
C  C301  1  0.15760000  0.53240000  0.54380000  1.0 -0.0488622574
C  C302  1  0.98860000  0.61380000  0.45620000  1.0 -0.0488622574
C  C303  1  0.01140000  0.46760000  0.62520000  1.0 -0.0488622574
C  C304  1  0.84240000  0.38620000  0.37480000  1.0 -0.0488622574
O  O1  1  0.34058000  0.15668000  0.26050000  1.0 -0.3552149887
O  O2  1  0.89618000  0.08008000  0.73950000  1.0 -0.3552149887
O  O3  1  0.10382000  0.84332000  0.18390000  1.0 -0.3552149887
O  O4  1  0.65942000  0.91992000  0.81610000  1.0 -0.3552149887
O  O5  1  0.65942000  0.84332000  0.73950000  1.0 -0.3548402841
O  O6  1  0.10382000  0.91992000  0.26050000  1.0 -0.3548402841
O  O7  1  0.89618000  0.15668000  0.81610000  1.0 -0.3552149887
O  O8  1  0.34058000  0.08008000  0.18390000  1.0 -0.3552149887
O  O9  1  0.27138000  0.12514000  0.21996000  1.0 -0.3811397334
O  O10  1  0.90518000  0.05142000  0.78004000  1.0 -0.3811397334
O  O11  1  0.09482000  0.87486000  0.14624000  1.0 -0.3811397334
O  O12  1  0.72862000  0.94858000  0.85376000  1.0 -0.3811397334
O  O13  1  0.72862000  0.87486000  0.78004000  1.0 -0.3811397334
O  O14  1  0.09482000  0.94858000  0.21996000  1.0 -0.3811397334
O  O15  1  0.90518000  0.12514000  0.85376000  1.0 -0.3811397334
O  O16  1  0.27138000  0.05142000  0.14624000  1.0 -0.3811397334
O  O17  1  0.67494000  0.80759000  0.79105000  1.0 -0.4011983181
O  O18  1  0.01654000  0.88389000  0.20895000  1.0 -0.4011983181
O  O19  1  0.98346000  0.19241000  0.86735000  1.0 -0.4011983181
O  O20  1  0.32506000  0.11611000  0.13265000  1.0 -0.4011983181
O  O21  1  0.32506000  0.19241000  0.20895000  1.0 -0.4011983181
O  O22  1  0.98346000  0.11611000  0.79105000  1.0 -0.4011983181
O  O23  1  0.01654000  0.80759000  0.13265000  1.0 -0.4011983181
O  O24  1  0.67494000  0.88389000  0.86735000  1.0 -0.4011983181
O  O25  1  0.74617000  0.83990000  0.83163000  1.0 -0.4011983181
O  O26  1  0.00827000  0.91454000  0.16837000  1.0 -0.4011983181
O  O27  1  0.99173000  0.16010000  0.90627000  1.0 -0.4011983181
O  O28  1  0.25383000  0.08546000  0.09373000  1.0 -0.4011983181
O  O29  1  0.25383000  0.16010000  0.16837000  1.0 -0.4011983181
O  O30  1  0.99173000  0.08546000  0.83163000  1.0 -0.4011983181
O  O31  1  0.00827000  0.83990000  0.09373000  1.0 -0.4011983181
O  O32  1  0.74617000  0.91454000  0.90627000  1.0 -0.4011983181
O  O33  1  0.81567000  0.68160000  0.79173000  1.0 -0.4312084782
O  O34  1  0.88987000  0.02394000  0.20827000  1.0 -0.4312084782
O  O35  1  0.11013000  0.31840000  0.13407000  1.0 -0.4312084782
O  O36  1  0.18433000  0.97606000  0.86593000  1.0 -0.4312084782
O  O37  1  0.18433000  0.31840000  0.20827000  1.0 -0.4312084782
O  O38  1  0.11013000  0.97606000  0.79173000  1.0 -0.4312084782
O  O39  1  0.88987000  0.68160000  0.86593000  1.0 -0.4312084782
O  O40  1  0.81567000  0.02394000  0.13407000  1.0 -0.4312084782
O  O41  1  0.84747000  0.75422000  0.83915000  1.0 -0.2626061346
O  O42  1  0.91507000  0.00832000  0.16085000  1.0 -0.2626061346
O  O43  1  0.08493000  0.24578000  0.09325000  1.0 -0.2626061346
O  O44  1  0.15253000  0.99168000  0.90675000  1.0 -0.2626061346
O  O45  1  0.15253000  0.24578000  0.16085000  1.0 -0.2626061346
O  O46  1  0.08493000  0.99168000  0.83915000  1.0 -0.2626061346
O  O47  1  0.91507000  0.75422000  0.90675000  1.0 -0.2626061346
O  O48  1  0.84747000  0.00832000  0.09325000  1.0 -0.2626061346
O  O49  1  0.85290000  0.66641000  0.74191000  1.0 -0.4167322422
O  O50  1  0.92450000  0.11099000  0.25809000  1.0 -0.4167322422
O  O51  1  0.07550000  0.33359000  0.18649000  1.0 -0.4167322422
O  O52  1  0.14710000  0.88901000  0.81351000  1.0 -0.4167322422
O  O53  1  0.14710000  0.33359000  0.25809000  1.0 -0.4167322422
O  O54  1  0.07550000  0.88901000  0.74191000  1.0 -0.4167322422
O  O55  1  0.92450000  0.66641000  0.81351000  1.0 -0.4167322422
O  O56  1  0.85290000  0.11099000  0.18649000  1.0 -0.4167322422
O  O57  1  0.87903000  0.73855000  0.78630000  1.0 -0.3811397334
O  O58  1  0.95225000  0.09273000  0.21370000  1.0 -0.3811397334
O  O59  1  0.04775000  0.26145000  0.14048000  1.0 -0.3811397334
O  O60  1  0.12097000  0.90727000  0.85952000  1.0 -0.3811397334
O  O61  1  0.12097000  0.26145000  0.21370000  1.0 -0.3811397334
O  O62  1  0.04775000  0.90727000  0.78630000  1.0 -0.3811397334
O  O63  1  0.95225000  0.73855000  0.85952000  1.0 -0.3811397334
O  O64  1  0.87903000  0.09273000  0.14048000  1.0 -0.3811397334
O  O65  1  0.80576000  0.75761000  0.60785000  1.0 -0.3811397334
O  O66  1  0.14976000  0.19791000  0.39215000  1.0 -0.3811397334
O  O67  1  0.85024000  0.24239000  0.04815000  1.0 -0.3811397334
O  O68  1  0.19424000  0.80209000  0.95185000  1.0 -0.3811397334
O  O69  1  0.19424000  0.24239000  0.39215000  1.0 -0.3811397334
O  O70  1  0.85024000  0.80209000  0.60785000  1.0 -0.3811397334
O  O71  1  0.14976000  0.75761000  0.95185000  1.0 -0.3811397334
O  O72  1  0.80576000  0.19791000  0.04815000  1.0 -0.3811397334
O  O73  1  0.84407000  0.80109000  0.69438000  1.0 -0.4513474758
O  O74  1  0.10671000  0.14969000  0.30562000  1.0 -0.4513474758
O  O75  1  0.89329000  0.19891000  0.04298000  1.0 -0.4513474758
O  O76  1  0.15593000  0.85031000  0.95702000  1.0 -0.4513474758
O  O77  1  0.15593000  0.19891000  0.30562000  1.0 -0.4513474758
O  O78  1  0.89329000  0.85031000  0.69438000  1.0 -0.4513474758
O  O79  1  0.10671000  0.80109000  0.95702000  1.0 -0.4513474758
O  O80  1  0.84407000  0.14969000  0.04298000  1.0 -0.4513474758
O  O81  1  0.25138000  0.19595000  0.39731000  1.0 -0.4312084782
O  O82  1  0.79864000  0.85407000  0.60269000  1.0 -0.4312084782
O  O83  1  0.20136000  0.80405000  0.05543000  1.0 -0.4312084782
O  O84  1  0.74862000  0.14593000  0.94457000  1.0 -0.4312084782
O  O85  1  0.74862000  0.80405000  0.60269000  1.0 -0.4312084782
O  O86  1  0.20136000  0.14593000  0.39731000  1.0 -0.4312084782
O  O87  1  0.79864000  0.19595000  0.94457000  1.0 -0.4312084782
O  O88  1  0.25138000  0.85407000  0.05543000  1.0 -0.4312084782
O  O89  1  0.21054000  0.14925000  0.31071000  1.0 -0.3338140453
O  O90  1  0.83854000  0.89983000  0.68929000  1.0 -0.3338140453
O  O91  1  0.16146000  0.85075000  0.06129000  1.0 -0.3338140453
O  O92  1  0.78946000  0.10017000  0.93871000  1.0 -0.3338140453
O  O93  1  0.78946000  0.85075000  0.68929000  1.0 -0.3338140453
O  O94  1  0.16146000  0.10017000  0.31071000  1.0 -0.3338140453
O  O95  1  0.83854000  0.14925000  0.93871000  1.0 -0.3338140453
O  O96  1  0.21054000  0.89983000  0.06129000  1.0 -0.3338140453
