# DDEC6 charges by PACMAN v1.1 (https://github.com/mtap-research/PACMAN-charge/)
data_SOLMOX_ion_pacman
_symmetry_space_group_name_H-M   'P 1'
_cell_length_a   30.46430000
_cell_length_b   30.46430000
_cell_length_c   10.08410000
_cell_angle_alpha   90.00000000
_cell_angle_beta   90.00000000
_cell_angle_gamma   120.00000000
_symmetry_Int_Tables_number   1
_chemical_formula_structural   Cd14H33C90(ClO18)4
_chemical_formula_sum   'Cd28 H66 C180 Cl8 O144'
_cell_volume   8104.94705896
_cell_formula_units_Z   2
loop_
 _symmetry_equiv_pos_site_id
 _symmetry_equiv_pos_as_xyz
  1  'x, y, z'
loop_
 _atom_site_type_symbol
 _atom_site_label
 _atom_site_symmetry_multiplicity
 _atom_site_fract_x
 _atom_site_fract_y
 _atom_site_fract_z
 _atom_site_occupancy
 _atom_site_charge
Cd  Cd1  1  0.18680000  0.36543000  0.02480000  1.0 0.5566236715
Cd  Cd2  1  0.63457000  0.82137000  0.02480000  1.0 0.5566236715
Cd  Cd3  1  0.17863000  0.81320000  0.02480000  1.0 0.5566236715
Cd  Cd4  1  0.81320000  0.63457000  0.97520000  1.0 0.5513785223
Cd  Cd5  1  0.36543000  0.17863000  0.97520000  1.0 0.5566236715
Cd  Cd6  1  0.82137000  0.18680000  0.97520000  1.0 0.5566236715
Cd  Cd7  1  0.89359000  0.19996000  0.69489000  1.0 0.5388617853
Cd  Cd8  1  0.80004000  0.69363000  0.69489000  1.0 0.5388617853
Cd  Cd9  1  0.30637000  0.10641000  0.69489000  1.0 0.5388617853
Cd  Cd10  1  0.10641000  0.80004000  0.30511000  1.0 0.5388617853
Cd  Cd11  1  0.19996000  0.30637000  0.30511000  1.0 0.5388617853
Cd  Cd12  1  0.69363000  0.89359000  0.30511000  1.0 0.5388617853
Cd  Cd13  1  0.33333333  0.66666667  0.51250000  1.0 0.4661598693
Cd  Cd14  1  0.66666667  0.33333333  0.48750000  1.0 0.4661598693
Cd  Cd15  1  0.16450000  0.36535000  0.03870000  1.0 0.5793068701
Cd  Cd16  1  0.63465000  0.79915000  0.03870000  1.0 0.5793068701
Cd  Cd17  1  0.20085000  0.83550000  0.03870000  1.0 0.5793068701
Cd  Cd18  1  0.83550000  0.63465000  0.96130000  1.0 0.5793068701
Cd  Cd19  1  0.36535000  0.20085000  0.96130000  1.0 0.5793068701
Cd  Cd20  1  0.79915000  0.16450000  0.96130000  1.0 0.5793068701
Cd  Cd21  1  0.89246000  0.16468000  0.69465000  1.0 0.5793068701
Cd  Cd22  1  0.83532000  0.72778000  0.69465000  1.0 0.5793068701
Cd  Cd23  1  0.27222000  0.10754000  0.69465000  1.0 0.5793068701
Cd  Cd24  1  0.10754000  0.83532000  0.30535000  1.0 0.5793068701
Cd  Cd25  1  0.16468000  0.27222000  0.30535000  1.0 0.5793068701
Cd  Cd26  1  0.72778000  0.89246000  0.30535000  1.0 0.5793068701
Cd  Cd27  1  0.33333333  0.66666667  0.43300000  1.0 0.5862481336
Cd  Cd28  1  0.66666667  0.33333333  0.56700000  1.0 0.5793068701
H  H1  1  0.90010000  0.19150000  0.21250000  1.0 0.1379100882
H  H2  1  0.80850000  0.70860000  0.21250000  1.0 0.1379100882
H  H3  1  0.29140000  0.09990000  0.21250000  1.0 0.1379100882
H  H4  1  0.09990000  0.80850000  0.78750000  1.0 0.1379100882
H  H5  1  0.19150000  0.29140000  0.78750000  1.0 0.1379100882
H  H6  1  0.70860000  0.90010000  0.78750000  1.0 0.1379100882
H  H7  1  0.02600000  0.22580000  0.99900000  1.0 0.1278938424
H  H8  1  0.77420000  0.80020000  0.99900000  1.0 0.1278938424
H  H9  1  0.19980000  0.97400000  0.99900000  1.0 0.1278938424
H  H10  1  0.97400000  0.77420000  0.00100000  1.0 0.1278938424
H  H11  1  0.22580000  0.19980000  0.00100000  1.0 0.1278938424
H  H12  1  0.80020000  0.02600000  0.00100000  1.0 0.1278938424
H  H13  1  0.03370000  0.23640000  0.39990000  1.0 0.1037190969
H  H14  1  0.76360000  0.79730000  0.39990000  1.0 0.1037190969
H  H15  1  0.20270000  0.96630000  0.39990000  1.0 0.1037190969
H  H16  1  0.96630000  0.76360000  0.60010000  1.0 0.1037190969
H  H17  1  0.23640000  0.20270000  0.60010000  1.0 0.1037190969
H  H18  1  0.79730000  0.03370000  0.60010000  1.0 0.1037190969
H  H19  1  0.23190000  0.50470000  0.72220000  1.0 0.14739482
H  H20  1  0.49530000  0.72720000  0.72220000  1.0 0.14739482
H  H21  1  0.27280000  0.76810000  0.72220000  1.0 0.14739482
H  H22  1  0.76810000  0.49530000  0.27780000  1.0 0.14739482
H  H23  1  0.50470000  0.27280000  0.27780000  1.0 0.14739482
H  H24  1  0.72720000  0.23190000  0.27780000  1.0 0.14739482
H  H25  1  0.24140000  0.50820000  0.33740000  1.0 0.110586386
H  H26  1  0.49180000  0.73320000  0.33740000  1.0 0.110586386
H  H27  1  0.26680000  0.75860000  0.33740000  1.0 0.110586386
H  H28  1  0.75860000  0.49180000  0.66260000  1.0 0.110586386
H  H29  1  0.50820000  0.26680000  0.66260000  1.0 0.110586386
H  H30  1  0.73320000  0.24140000  0.66260000  1.0 0.110586386
H  H31  1  0.19010000  0.37260000  0.53720000  1.0 0.1199465412
H  H32  1  0.62740000  0.81750000  0.53720000  1.0 0.1199465412
H  H33  1  0.18250000  0.80990000  0.53720000  1.0 0.1199465412
H  H34  1  0.80990000  0.62740000  0.46280000  1.0 0.1199465412
H  H35  1  0.37260000  0.18250000  0.46280000  1.0 0.1199465412
H  H36  1  0.81750000  0.19010000  0.46280000  1.0 0.1199465412
H  H37  1  0.26440000  0.49740000  0.33600000  1.0 0.1199465412
H  H38  1  0.50260000  0.76700000  0.33600000  1.0 0.1199465412
H  H39  1  0.23300000  0.73560000  0.33600000  1.0 0.1199465412
H  H40  1  0.73560000  0.50260000  0.66400000  1.0 0.1199465412
H  H41  1  0.49740000  0.23300000  0.66400000  1.0 0.1199465412
H  H42  1  0.76700000  0.26440000  0.66400000  1.0 0.1199465412
H  H43  1  0.19850000  0.36980000  0.55990000  1.0 0.110586386
H  H44  1  0.63020000  0.82870000  0.55990000  1.0 0.110586386
H  H45  1  0.17130000  0.80150000  0.55990000  1.0 0.110586386
H  H46  1  0.80150000  0.63020000  0.44010000  1.0 0.110586386
H  H47  1  0.36980000  0.17130000  0.44010000  1.0 0.110586386
H  H48  1  0.82870000  0.19850000  0.44010000  1.0 0.110586386
H  H49  1  0.89340000  0.20080000  0.22580000  1.0 0.110586386
H  H50  1  0.79920000  0.69260000  0.22580000  1.0 0.110586386
H  H51  1  0.30740000  0.10660000  0.22580000  1.0 0.110586386
H  H52  1  0.10660000  0.79920000  0.77420000  1.0 0.110586386
H  H53  1  0.20080000  0.30740000  0.77420000  1.0 0.110586386
H  H54  1  0.69260000  0.89340000  0.77420000  1.0 0.110586386
H  H55  1  0.01910000  0.28860000  0.00740000  1.0 0.1199465412
H  H56  1  0.71140000  0.73050000  0.00740000  1.0 0.1199465412
H  H57  1  0.26950000  0.98090000  0.00740000  1.0 0.1199465412
H  H58  1  0.98090000  0.71140000  0.99260000  1.0 0.1199465412
H  H59  1  0.28860000  0.26950000  0.99260000  1.0 0.1199465412
H  H60  1  0.73050000  0.01910000  0.99260000  1.0 0.1199465412
H  H61  1  0.03260000  0.25740000  0.39100000  1.0 0.1199465412
H  H62  1  0.74260000  0.77520000  0.39100000  1.0 0.1199465412
H  H63  1  0.22480000  0.96740000  0.39100000  1.0 0.1199465412
H  H64  1  0.96740000  0.74260000  0.60900000  1.0 0.1199465412
H  H65  1  0.25740000  0.22480000  0.60900000  1.0 0.1199465412
H  H66  1  0.77520000  0.03260000  0.60900000  1.0 0.1199465412
C  C1  1  0.93740000  0.20190000  0.45730000  1.0 0.3464030365
C  C2  1  0.79810000  0.73550000  0.45730000  1.0 0.3464030365
C  C3  1  0.26450000  0.06260000  0.45730000  1.0 0.3464030365
C  C4  1  0.06260000  0.79810000  0.54270000  1.0 0.3464030365
C  C5  1  0.20190000  0.26450000  0.54270000  1.0 0.3464030365
C  C6  1  0.73550000  0.93740000  0.54270000  1.0 0.3464030365
C  C7  1  0.96320000  0.21320000  0.32540000  1.0 0.0291889604
C  C8  1  0.78680000  0.75000000  0.32540000  1.0 0.0291889604
C  C9  1  0.25000000  0.03680000  0.32540000  1.0 0.0291889604
C  C10  1  0.03680000  0.78680000  0.67460000  1.0 0.0291889604
C  C11  1  0.21320000  0.25000000  0.67460000  1.0 0.0291889604
C  C12  1  0.75000000  0.96320000  0.67460000  1.0 0.0291889604
C  C13  1  0.93530000  0.20220000  0.20890000  1.0 -0.0011242289
C  C14  1  0.79780000  0.73310000  0.20890000  1.0 -0.0011242289
C  C15  1  0.26690000  0.06470000  0.20890000  1.0 -0.0011242289
C  C16  1  0.06470000  0.79780000  0.79110000  1.0 -0.0011242289
C  C17  1  0.20220000  0.26690000  0.79110000  1.0 -0.0011242289
C  C18  1  0.73310000  0.93530000  0.79110000  1.0 -0.0011242289
C  C19  1  0.95870000  0.20690000  0.08730000  1.0 -0.0184355805
C  C20  1  0.79310000  0.75180000  0.08730000  1.0 -0.0184355805
C  C21  1  0.24820000  0.04130000  0.08730000  1.0 -0.0184355805
C  C22  1  0.04130000  0.79310000  0.91270000  1.0 -0.0184355805
C  C23  1  0.20690000  0.24820000  0.91270000  1.0 -0.0184355805
C  C24  1  0.75180000  0.95870000  0.91270000  1.0 -0.0184355805
C  C25  1  0.01000000  0.22260000  0.08210000  1.0 -0.1266908022
C  C26  1  0.77740000  0.78740000  0.08210000  1.0 -0.1266908022
C  C27  1  0.21260000  0.99000000  0.08210000  1.0 -0.1266908022
C  C28  1  0.99000000  0.77740000  0.91790000  1.0 -0.1266908022
C  C29  1  0.22260000  0.21260000  0.91790000  1.0 -0.1266908022
C  C30  1  0.78740000  0.01000000  0.91790000  1.0 -0.1266908022
C  C31  1  0.03800000  0.23360000  0.19860000  1.0 -0.0184355805
C  C32  1  0.76640000  0.80440000  0.19860000  1.0 -0.0184355805
C  C33  1  0.19560000  0.96200000  0.19860000  1.0 -0.0184355805
C  C34  1  0.96200000  0.76640000  0.80140000  1.0 -0.0184355805
C  C35  1  0.23360000  0.19560000  0.80140000  1.0 -0.0184355805
C  C36  1  0.80440000  0.03800000  0.80140000  1.0 -0.0184355805
C  C37  1  0.01460000  0.22890000  0.32020000  1.0 -0.0458175028
C  C38  1  0.77110000  0.78570000  0.32020000  1.0 -0.0458175028
C  C39  1  0.21430000  0.98540000  0.32020000  1.0 -0.0458175028
C  C40  1  0.98540000  0.77110000  0.67980000  1.0 -0.0458175028
C  C41  1  0.22890000  0.21430000  0.67980000  1.0 -0.0458175028
C  C42  1  0.78570000  0.01460000  0.67980000  1.0 -0.0458175028
C  C43  1  0.09420000  0.25570000  0.18480000  1.0 0.1278938424
C  C44  1  0.74430000  0.83850000  0.18480000  1.0 0.1278938424
C  C45  1  0.16150000  0.90580000  0.18480000  1.0 0.1278938424
C  C46  1  0.90580000  0.74430000  0.81520000  1.0 0.1278938424
C  C47  1  0.25570000  0.16150000  0.81520000  1.0 0.1278938424
C  C48  1  0.83850000  0.09420000  0.81520000  1.0 0.1278938424
C  C49  1  0.92900000  0.18930000  0.95900000  1.0 0.3464030365
C  C50  1  0.81070000  0.73970000  0.95900000  1.0 0.3464030365
C  C51  1  0.26030000  0.07100000  0.95900000  1.0 0.3464030365
C  C52  1  0.07100000  0.81070000  0.04100000  1.0 0.3464030365
C  C53  1  0.18930000  0.26030000  0.04100000  1.0 0.3464030365
C  C54  1  0.73970000  0.92900000  0.04100000  1.0 0.3464030365
C  C55  1  0.27590000  0.56780000  0.52610000  1.0 0.511147215
C  C56  1  0.43220000  0.70810000  0.52610000  1.0 0.511147215
C  C57  1  0.29190000  0.72410000  0.52610000  1.0 0.511147215
C  C58  1  0.72410000  0.43220000  0.47390000  1.0 0.511147215
C  C59  1  0.56780000  0.29190000  0.47390000  1.0 0.511147215
C  C60  1  0.70810000  0.27590000  0.47390000  1.0 0.511147215
C  C61  1  0.25130000  0.50930000  0.52720000  1.0 0.0097717668
C  C62  1  0.49070000  0.74200000  0.52720000  1.0 0.0097717668
C  C63  1  0.25800000  0.74870000  0.52720000  1.0 0.0097717668
C  C64  1  0.74870000  0.49070000  0.47280000  1.0 0.0097717668
C  C65  1  0.50930000  0.25800000  0.47280000  1.0 0.0097717668
C  C66  1  0.74200000  0.25130000  0.47280000  1.0 0.0097717668
C  C67  1  0.21210000  0.43350000  0.66020000  1.0 0.0008734113
C  C68  1  0.56650000  0.77860000  0.66020000  1.0 0.0008734113
C  C69  1  0.22140000  0.78790000  0.66020000  1.0 0.0008734113
C  C70  1  0.78790000  0.56650000  0.33980000  1.0 0.0008734113
C  C71  1  0.43350000  0.22140000  0.33980000  1.0 0.0008734113
C  C72  1  0.77860000  0.21210000  0.33980000  1.0 0.0008734113
C  C73  1  0.23180000  0.48550000  0.64800000  1.0 -0.1523567203
C  C74  1  0.51450000  0.74630000  0.64800000  1.0 -0.1583395337
C  C75  1  0.25370000  0.76820000  0.64800000  1.0 -0.1583395337
C  C76  1  0.76820000  0.51450000  0.35200000  1.0 -0.1523567203
C  C77  1  0.48550000  0.25370000  0.35200000  1.0 -0.1523567203
C  C78  1  0.74630000  0.23180000  0.35200000  1.0 -0.1523567203
C  C79  1  0.23610000  0.48920000  0.41600000  1.0 -0.0311872978
C  C80  1  0.51080000  0.74690000  0.41600000  1.0 -0.0311872978
C  C81  1  0.25310000  0.76390000  0.41600000  1.0 -0.0311872978
C  C82  1  0.76390000  0.51080000  0.58400000  1.0 -0.0311872978
C  C83  1  0.48920000  0.25310000  0.58400000  1.0 -0.0311872978
C  C84  1  0.74690000  0.23610000  0.58400000  1.0 -0.0311872978
C  C85  1  0.21020000  0.43530000  0.41860000  1.0 0.0576613921
C  C86  1  0.56470000  0.77490000  0.41860000  1.0 0.0576613921
C  C87  1  0.22510000  0.78980000  0.41860000  1.0 0.0576613921
C  C88  1  0.78980000  0.56470000  0.58140000  1.0 0.0576613921
C  C89  1  0.43530000  0.22510000  0.58140000  1.0 0.0576613921
C  C90  1  0.77490000  0.21020000  0.58140000  1.0 0.0576613921
C  C91  1  0.20210000  0.40800000  0.53900000  1.0 -0.1356694956
C  C92  1  0.59200000  0.79410000  0.53900000  1.0 -0.1356694956
C  C93  1  0.20590000  0.79790000  0.53900000  1.0 -0.1356694956
C  C94  1  0.79790000  0.59200000  0.46100000  1.0 -0.1356694956
C  C95  1  0.40800000  0.20590000  0.46100000  1.0 -0.1356694956
C  C96  1  0.79410000  0.20210000  0.46100000  1.0 -0.1356694956
C  C97  1  0.19660000  0.40960000  0.28800000  1.0 0.2704089423
C  C98  1  0.59040000  0.78700000  0.28800000  1.0 0.2704089423
C  C99  1  0.21300000  0.80340000  0.28800000  1.0 0.2704089423
C  C100  1  0.80340000  0.59040000  0.71200000  1.0 0.2704089423
C  C101  1  0.40960000  0.21300000  0.71200000  1.0 0.2704089423
C  C102  1  0.78700000  0.19660000  0.71200000  1.0 0.2704089423
C  C103  1  0.19380000  0.40820000  0.78760000  1.0 0.483358417
C  C104  1  0.59180000  0.78560000  0.78760000  1.0 0.483358417
C  C105  1  0.21440000  0.80620000  0.78760000  1.0 0.483358417
C  C106  1  0.80620000  0.59180000  0.21240000  1.0 0.483358417
C  C107  1  0.40820000  0.21440000  0.21240000  1.0 0.483358417
C  C108  1  0.78560000  0.19380000  0.21240000  1.0 0.483358417
C  C109  1  0.25110000  0.48110000  0.41860000  1.0 -0.0053462527
C  C110  1  0.51890000  0.77000000  0.41860000  1.0 -0.0053462527
C  C111  1  0.23000000  0.74890000  0.41860000  1.0 -0.0053462527
C  C112  1  0.74890000  0.51890000  0.58140000  1.0 -0.0053462527
C  C113  1  0.48110000  0.23000000  0.58140000  1.0 -0.0053462527
C  C114  1  0.77000000  0.25110000  0.58140000  1.0 -0.0053462527
C  C115  1  0.23150000  0.42910000  0.43080000  1.0 0.0727151821
C  C116  1  0.57090000  0.80240000  0.43080000  1.0 0.0727151821
C  C117  1  0.19760000  0.76850000  0.43080000  1.0 0.0727151821
C  C118  1  0.76850000  0.57090000  0.56920000  1.0 0.0727151821
C  C119  1  0.42910000  0.19760000  0.56920000  1.0 0.0727151821
C  C120  1  0.80240000  0.23150000  0.56920000  1.0 0.0727151821
C  C121  1  0.21200000  0.40530000  0.55160000  1.0 -0.1266908022
C  C122  1  0.59470000  0.80670000  0.55160000  1.0 -0.1266908022
C  C123  1  0.19330000  0.78800000  0.55160000  1.0 -0.1266908022
C  C124  1  0.78800000  0.59470000  0.44840000  1.0 -0.1266908022
C  C125  1  0.40530000  0.19330000  0.44840000  1.0 -0.1266908022
C  C126  1  0.80670000  0.21200000  0.44840000  1.0 -0.1266908022
C  C127  1  0.92920000  0.22030000  0.21860000  1.0 -0.0184355805
C  C128  1  0.77970000  0.70890000  0.21860000  1.0 -0.0184355805
C  C129  1  0.29110000  0.07080000  0.21860000  1.0 -0.0184355805
C  C130  1  0.07080000  0.77970000  0.78140000  1.0 -0.0184355805
C  C131  1  0.22030000  0.29110000  0.78140000  1.0 -0.0184355805
C  C132  1  0.70890000  0.92920000  0.78140000  1.0 -0.0184355805
C  C133  1  0.95150000  0.24390000  0.09940000  1.0 -0.0311872978
C  C134  1  0.75610000  0.70760000  0.09940000  1.0 -0.0311872978
C  C135  1  0.29240000  0.04850000  0.09940000  1.0 -0.0311872978
C  C136  1  0.04850000  0.75610000  0.90060000  1.0 -0.0311872978
C  C137  1  0.24390000  0.29240000  0.90060000  1.0 -0.0311872978
C  C138  1  0.70760000  0.95150000  0.90060000  1.0 -0.0311872978
C  C139  1  0.00390000  0.27250000  0.08890000  1.0 -0.0775920541
C  C140  1  0.72750000  0.73140000  0.08890000  1.0 -0.0775920541
C  C141  1  0.26860000  0.99610000  0.08890000  1.0 -0.0775920541
C  C142  1  0.99610000  0.72750000  0.91110000  1.0 -0.0775920541
C  C143  1  0.27250000  0.26860000  0.91110000  1.0 -0.0775920541
C  C144  1  0.73140000  0.00390000  0.91110000  1.0 -0.0775920541
C  C145  1  0.03420000  0.27750000  0.19750000  1.0 -0.0184355805
C  C146  1  0.72250000  0.75670000  0.19750000  1.0 -0.0184355805
C  C147  1  0.24330000  0.96580000  0.19750000  1.0 -0.0184355805
C  C148  1  0.96580000  0.72250000  0.80250000  1.0 -0.0184355805
C  C149  1  0.27750000  0.24330000  0.80250000  1.0 -0.0184355805
C  C150  1  0.75670000  0.03420000  0.80250000  1.0 -0.0184355805
C  C151  1  0.01190000  0.25390000  0.31670000  1.0 -0.0432682786
C  C152  1  0.74610000  0.75800000  0.31670000  1.0 -0.0432682786
C  C153  1  0.24200000  0.98810000  0.31670000  1.0 -0.0432682786
C  C154  1  0.98810000  0.74610000  0.68330000  1.0 -0.0432682786
C  C155  1  0.25390000  0.24200000  0.68330000  1.0 -0.0432682786
C  C156  1  0.75800000  0.01190000  0.68330000  1.0 -0.0432682786
C  C157  1  0.08980000  0.30860000  0.18850000  1.0 0.1379100882
C  C158  1  0.69140000  0.78120000  0.18850000  1.0 0.1379100882
C  C159  1  0.21880000  0.91020000  0.18850000  1.0 0.1379100882
C  C160  1  0.91020000  0.69140000  0.81150000  1.0 0.1379100882
C  C161  1  0.30860000  0.21880000  0.81150000  1.0 0.1379100882
C  C162  1  0.78120000  0.08980000  0.81150000  1.0 0.1379100882
C  C163  1  0.91950000  0.23160000  0.97590000  1.0 0.2535764317
C  C164  1  0.76840000  0.68790000  0.97590000  1.0 0.2535764317
C  C165  1  0.31210000  0.08050000  0.97590000  1.0 0.2535764317
C  C166  1  0.08050000  0.76840000  0.02410000  1.0 0.2535764317
C  C167  1  0.23160000  0.31210000  0.02410000  1.0 0.2535764317
C  C168  1  0.68790000  0.91950000  0.02410000  1.0 0.2535764317
C  C169  1  0.22840000  0.39430000  0.30770000  1.0 0.2141060869
C  C170  1  0.60570000  0.83410000  0.30770000  1.0 0.2141060869
C  C171  1  0.16590000  0.77160000  0.30770000  1.0 0.2141060869
C  C172  1  0.77160000  0.60570000  0.69230000  1.0 0.2141060869
C  C173  1  0.39430000  0.16590000  0.69230000  1.0 0.2141060869
C  C174  1  0.83410000  0.22840000  0.69230000  1.0 0.2141060869
C  C175  1  0.95950000  0.22530000  0.32720000  1.0 0.0097717668
C  C176  1  0.77470000  0.73420000  0.32720000  1.0 0.0097717668
C  C177  1  0.26580000  0.04050000  0.32720000  1.0 0.0097717668
C  C178  1  0.04050000  0.77470000  0.67280000  1.0 0.0097717668
C  C179  1  0.22530000  0.26580000  0.67280000  1.0 0.0097717668
C  C180  1  0.73420000  0.95950000  0.67280000  1.0 0.0097717668
Cl  Cl1  1  0.33230000  0.41060000  0.17000000  1.0 -0.2135130217
Cl  Cl2  1  0.58940000  0.92170000  0.17000000  1.0 -0.2135130217
Cl  Cl3  1  0.07830000  0.66770000  0.17000000  1.0 -0.2135130217
Cl  Cl4  1  0.66770000  0.58940000  0.83000000  1.0 -0.2135130217
Cl  Cl5  1  0.41060000  0.07830000  0.83000000  1.0 -0.2200323346
Cl  Cl6  1  0.92170000  0.33230000  0.83000000  1.0 -0.2135130217
Cl  Cl7  1  0.33333333  0.66666667  0.00100000  1.0 -0.2497540672
Cl  Cl8  1  0.66666667  0.33333333  0.99900000  1.0 -0.2497540672
O  O1  1  0.09000000  0.19800000  0.31000000  1.0 -0.4780118376
O  O2  1  0.80200000  0.89200000  0.31000000  1.0 -0.4780118376
O  O3  1  0.10800000  0.91000000  0.31000000  1.0 -0.4780118376
O  O4  1  0.91000000  0.80200000  0.69000000  1.0 -0.4780118376
O  O5  1  0.19800000  0.10800000  0.69000000  1.0 -0.4780118376
O  O6  1  0.89200000  0.09000000  0.69000000  1.0 -0.4780118376
O  O7  1  0.09200000  0.37030000  0.06860000  1.0 -0.404006805
O  O8  1  0.62970000  0.72170000  0.06860000  1.0 -0.404006805
O  O9  1  0.27830000  0.90800000  0.06860000  1.0 -0.404006805
O  O10  1  0.90800000  0.62970000  0.93140000  1.0 -0.4050319155
O  O11  1  0.37030000  0.27830000  0.93140000  1.0 -0.4050319155
O  O12  1  0.72170000  0.09200000  0.93140000  1.0 -0.4050319155
O  O13  1  0.95010000  0.19490000  0.85710000  1.0 -0.1820004195
O  O14  1  0.80510000  0.75520000  0.85710000  1.0 -0.1820004195
O  O15  1  0.24480000  0.04990000  0.85710000  1.0 -0.1820004195
O  O16  1  0.04990000  0.80510000  0.14290000  1.0 -0.1820004195
O  O17  1  0.19490000  0.24480000  0.14290000  1.0 -0.1820004195
O  O18  1  0.75520000  0.95010000  0.14290000  1.0 -0.1820004195
O  O19  1  0.96590000  0.20630000  0.55500000  1.0 -0.1523567203
O  O20  1  0.79370000  0.75960000  0.55500000  1.0 -0.1523567203
O  O21  1  0.24040000  0.03410000  0.55500000  1.0 -0.1523567203
O  O22  1  0.03410000  0.79370000  0.44500000  1.0 -0.1523567203
O  O23  1  0.20630000  0.24040000  0.44500000  1.0 -0.1523567203
O  O24  1  0.75960000  0.96590000  0.44500000  1.0 -0.1523567203
O  O25  1  0.89340000  0.19320000  0.46250000  1.0 -0.2200323346
O  O26  1  0.80680000  0.70020000  0.46250000  1.0 -0.2200323346
O  O27  1  0.29980000  0.10660000  0.46250000  1.0 -0.2200323346
O  O28  1  0.10660000  0.80680000  0.53750000  1.0 -0.2200323346
O  O29  1  0.19320000  0.29980000  0.53750000  1.0 -0.2200323346
O  O30  1  0.70020000  0.89340000  0.53750000  1.0 -0.2200323346
O  O31  1  0.11930000  0.25420000  0.28830000  1.0 -0.0311872978
O  O32  1  0.74580000  0.86510000  0.28830000  1.0 -0.0311872978
O  O33  1  0.13490000  0.88070000  0.28830000  1.0 -0.0311872978
O  O34  1  0.88070000  0.74580000  0.71170000  1.0 -0.0311872978
O  O35  1  0.25420000  0.13490000  0.71170000  1.0 -0.0311872978
O  O36  1  0.86510000  0.11930000  0.71170000  1.0 -0.0311872978
O  O37  1  0.11660000  0.28060000  0.07530000  1.0 -0.1872812023
O  O38  1  0.71940000  0.83600000  0.07530000  1.0 -0.1872812023
O  O39  1  0.16400000  0.88340000  0.07530000  1.0 -0.1872812023
O  O40  1  0.88340000  0.71940000  0.92470000  1.0 -0.1872812023
O  O41  1  0.28060000  0.16400000  0.92470000  1.0 -0.1872812023
O  O42  1  0.83600000  0.11660000  0.92470000  1.0 -0.1872812023
O  O43  1  0.88330000  0.16280000  0.96130000  1.0 -0.2432384898
O  O44  1  0.83720000  0.72050000  0.96130000  1.0 -0.2432384898
O  O45  1  0.27950000  0.11670000  0.96130000  1.0 -0.2432384898
O  O46  1  0.11670000  0.83720000  0.03870000  1.0 -0.2432384898
O  O47  1  0.16280000  0.27950000  0.03870000  1.0 -0.2432384898
O  O48  1  0.72050000  0.88330000  0.03870000  1.0 -0.2432384898
O  O49  1  0.27560000  0.59170000  0.62490000  1.0 -0.4641749521
O  O50  1  0.40830000  0.68390000  0.62490000  1.0 -0.4641749521
O  O51  1  0.31610000  0.72440000  0.62490000  1.0 -0.4641749521
O  O52  1  0.72440000  0.40830000  0.37510000  1.0 -0.4641749521
O  O53  1  0.59170000  0.31610000  0.37510000  1.0 -0.4641749521
O  O54  1  0.68390000  0.27560000  0.37510000  1.0 -0.4641749521
O  O55  1  0.29990000  0.58810000  0.41640000  1.0 -0.4702846666
O  O56  1  0.41190000  0.71180000  0.41640000  1.0 -0.4702846666
O  O57  1  0.28820000  0.70010000  0.41640000  1.0 -0.4702846666
O  O58  1  0.70010000  0.41190000  0.58360000  1.0 -0.4702846666
O  O59  1  0.58810000  0.28820000  0.58360000  1.0 -0.4702846666
O  O60  1  0.71180000  0.29990000  0.58360000  1.0 -0.4702846666
O  O61  1  0.20380000  0.43620000  0.89190000  1.0 -0.4702846666
O  O62  1  0.56380000  0.76760000  0.89190000  1.0 -0.4702846666
O  O63  1  0.23240000  0.79620000  0.89190000  1.0 -0.4702846666
O  O64  1  0.79620000  0.56380000  0.10810000  1.0 -0.4702846666
O  O65  1  0.43620000  0.23240000  0.10810000  1.0 -0.4702846666
O  O66  1  0.76760000  0.20380000  0.10810000  1.0 -0.4702846666
O  O67  1  0.16840000  0.36100000  0.79570000  1.0 -0.4857606947
O  O68  1  0.63900000  0.80740000  0.79570000  1.0 -0.4857606947
O  O69  1  0.19260000  0.83160000  0.79570000  1.0 -0.4857606947
O  O70  1  0.83160000  0.63900000  0.20430000  1.0 -0.4857606947
O  O71  1  0.36100000  0.19260000  0.20430000  1.0 -0.4857606947
O  O72  1  0.80740000  0.16840000  0.20430000  1.0 -0.4857606947
O  O73  1  0.17110000  0.36370000  0.28910000  1.0 -0.1687016795
O  O74  1  0.63630000  0.80740000  0.28910000  1.0 -0.1687016795
O  O75  1  0.19260000  0.82890000  0.28910000  1.0 -0.1687016795
O  O76  1  0.82890000  0.63630000  0.71090000  1.0 -0.1687016795
O  O77  1  0.36370000  0.19260000  0.71090000  1.0 -0.1687016795
O  O78  1  0.80740000  0.17110000  0.71090000  1.0 -0.1687016795
O  O79  1  0.21070000  0.43130000  0.18570000  1.0 -0.1005112148
O  O80  1  0.56870000  0.77940000  0.18570000  1.0 -0.1005112148
O  O81  1  0.22060000  0.78930000  0.18570000  1.0 -0.1005112148
O  O82  1  0.78930000  0.56870000  0.81430000  1.0 -0.1005112148
O  O83  1  0.43130000  0.22060000  0.81430000  1.0 -0.1005112148
O  O84  1  0.77940000  0.21070000  0.81430000  1.0 -0.1005112148
O  O85  1  0.26960000  0.37510000  0.98200000  1.0 -0.1687016795
O  O86  1  0.62490000  0.89450000  0.98200000  1.0 -0.1687016795
O  O87  1  0.10550000  0.73040000  0.98200000  1.0 -0.1687016795
O  O88  1  0.73040000  0.62490000  0.01800000  1.0 -0.1687016795
O  O89  1  0.37510000  0.10550000  0.01800000  1.0 -0.1687016795
O  O90  1  0.89450000  0.26960000  0.01800000  1.0 -0.1687016795
O  O91  1  0.89150000  0.28270000  0.67900000  1.0 -0.2872604688
O  O92  1  0.71730000  0.60880000  0.67900000  1.0 -0.2872604688
O  O93  1  0.39120000  0.10850000  0.67900000  1.0 -0.2872604688
O  O94  1  0.10850000  0.71730000  0.32100000  1.0 -0.2872604688
O  O95  1  0.28270000  0.39120000  0.32100000  1.0 -0.2872604688
O  O96  1  0.60880000  0.89150000  0.32100000  1.0 -0.2872604688
O  O97  1  0.22990000  0.35980000  0.31830000  1.0 -0.1190098832
O  O98  1  0.64020000  0.87010000  0.31830000  1.0 -0.1190098832
O  O99  1  0.12990000  0.77010000  0.31830000  1.0 -0.1190098832
O  O100  1  0.77010000  0.64020000  0.68170000  1.0 -0.1190098832
O  O101  1  0.35980000  0.12990000  0.68170000  1.0 -0.1190098832
O  O102  1  0.87010000  0.22990000  0.68170000  1.0 -0.1190098832
O  O103  1  0.22580000  0.41440000  0.19870000  1.0 -0.0678579842
O  O104  1  0.58560000  0.81140000  0.19870000  1.0 -0.0678579842
O  O105  1  0.18860000  0.77420000  0.19870000  1.0 -0.0678579842
O  O106  1  0.77420000  0.58560000  0.80130000  1.0 -0.0678579842
O  O107  1  0.41440000  0.18860000  0.80130000  1.0 -0.0678579842
O  O108  1  0.81140000  0.22580000  0.80130000  1.0 -0.0678579842
O  O109  1  0.96390000  0.22310000  0.56300000  1.0 -0.1583395337
O  O110  1  0.77690000  0.74080000  0.56300000  1.0 -0.1583395337
O  O111  1  0.25920000  0.03610000  0.56300000  1.0 -0.1583395337
O  O112  1  0.03610000  0.77690000  0.43700000  1.0 -0.1583395337
O  O113  1  0.22310000  0.25920000  0.43700000  1.0 -0.1583395337
O  O114  1  0.74080000  0.96390000  0.43700000  1.0 -0.1583395337
O  O115  1  0.88950000  0.16240000  0.46230000  1.0 -0.2606465578
O  O116  1  0.83760000  0.72710000  0.46230000  1.0 -0.2606465578
O  O117  1  0.27290000  0.11050000  0.46230000  1.0 -0.2606465578
O  O118  1  0.11050000  0.83760000  0.53770000  1.0 -0.2606465578
O  O119  1  0.16240000  0.27290000  0.53770000  1.0 -0.2606465578
O  O120  1  0.72710000  0.88950000  0.53770000  1.0 -0.2606465578
O  O121  1  0.11790000  0.30950000  0.27980000  1.0 -0.2013836537
O  O122  1  0.69050000  0.80840000  0.27980000  1.0 -0.2013836537
O  O123  1  0.19160000  0.88210000  0.27980000  1.0 -0.2013836537
O  O124  1  0.88210000  0.69050000  0.72020000  1.0 -0.2013836537
O  O125  1  0.30950000  0.19160000  0.72020000  1.0 -0.2013836537
O  O126  1  0.80840000  0.11790000  0.72020000  1.0 -0.2013836537
O  O127  1  0.10630000  0.33333333  0.08090000  1.0 -0.0775920541
O  O128  1  0.66666667  0.77297000  0.08090000  1.0 -0.0775920541
O  O129  1  0.22703000  0.89370000  0.08090000  1.0 -0.0775920541
O  O130  1  0.89370000  0.66666667  0.91910000  1.0 -0.0775920541
O  O131  1  0.33333333  0.22703000  0.91910000  1.0 -0.0775920541
O  O132  1  0.77297000  0.10630000  0.91910000  1.0 -0.0775920541
O  O133  1  0.94230000  0.23400000  0.87190000  1.0 -0.1523567203
O  O134  1  0.76600000  0.70830000  0.87190000  1.0 -0.1523567203
O  O135  1  0.29170000  0.05770000  0.87190000  1.0 -0.1523567203
O  O136  1  0.05770000  0.76600000  0.12810000  1.0 -0.1523567203
O  O137  1  0.23400000  0.29170000  0.12810000  1.0 -0.1523567203
O  O138  1  0.70830000  0.94230000  0.12810000  1.0 -0.1523567203
O  O139  1  0.87840000  0.22930000  0.98690000  1.0 -0.1005112148
O  O140  1  0.77070000  0.64910000  0.98690000  1.0 -0.1005112148
O  O141  1  0.35090000  0.12160000  0.98690000  1.0 -0.1005112148
O  O142  1  0.12160000  0.77070000  0.01310000  1.0 -0.1005112148
O  O143  1  0.22930000  0.35090000  0.01310000  1.0 -0.1005112148
O  O144  1  0.64910000  0.87840000  0.01310000  1.0 -0.1005112148
