# DDEC6 charges by PACMAN v1.1 (https://github.com/mtap-research/PACMAN-charge/)
data_SONTUL_FSR_pacman
_symmetry_space_group_name_H-M   'P 1'
_cell_length_a   18.60000000
_cell_length_b   18.60000000
_cell_length_c   18.60000000
_cell_angle_alpha   60.00000000
_cell_angle_beta   60.00000000
_cell_angle_gamma   60.00000000
_symmetry_Int_Tables_number   1
_chemical_formula_structural   Cu12SiH24W12(C9O13)8
_chemical_formula_sum   'Cu12 Si1 H24 W12 C72 O104'
_cell_volume   4550.13031356
_cell_formula_units_Z   1
loop_
 _symmetry_equiv_pos_site_id
 _symmetry_equiv_pos_as_xyz
  1  'x, y, z'
loop_
 _atom_site_type_symbol
 _atom_site_label
 _atom_site_symmetry_multiplicity
 _atom_site_fract_x
 _atom_site_fract_y
 _atom_site_fract_z
 _atom_site_occupancy
 _atom_site_charge
Cu  Cu1  1  0.50000000  0.92972000  0.07028000  1.0 0.9193382663
Cu  Cu2  1  0.50000000  0.92972000  0.50000000  1.0 0.9193382663
Cu  Cu3  1  0.50000000  0.07028000  0.92972000  1.0 0.9193382663
Cu  Cu4  1  0.07028000  0.50000000  0.92972000  1.0 0.9193382663
Cu  Cu5  1  0.92972000  0.50000000  0.50000000  1.0 0.9193382663
Cu  Cu6  1  0.50000000  0.07028000  0.50000000  1.0 0.9193382663
Cu  Cu7  1  0.92972000  0.50000000  0.07028000  1.0 0.9193382663
Cu  Cu8  1  0.07028000  0.50000000  0.50000000  1.0 0.9193382663
Cu  Cu9  1  0.92972000  0.07028000  0.50000000  1.0 0.9193382663
Cu  Cu10  1  0.50000000  0.50000000  0.92972000  1.0 0.9193382663
Cu  Cu11  1  0.50000000  0.50000000  0.07028000  1.0 0.9193382663
Cu  Cu12  1  0.07028000  0.92972000  0.50000000  1.0 0.9193382663
Si  Si1  1  0.00000000  0.00000000  0.00000000  1.0 1.41951184
H  H1  1  0.53510000  0.22710000  0.01070000  1.0 0.1439791213
H  H2  1  0.77290000  0.98930000  0.46490000  1.0 0.1439791213
H  H3  1  0.22710000  0.01070000  0.22710000  1.0 0.1439791213
H  H4  1  0.01070000  0.53510000  0.22710000  1.0 0.1439791213
H  H5  1  0.22710000  0.53510000  0.22710000  1.0 0.1439791213
H  H6  1  0.46490000  0.77290000  0.77290000  1.0 0.1439791213
H  H7  1  0.77290000  0.77290000  0.98930000  1.0 0.1439791213
H  H8  1  0.98930000  0.77290000  0.77290000  1.0 0.1439791213
H  H9  1  0.01070000  0.22710000  0.53510000  1.0 0.1439791213
H  H10  1  0.53510000  0.01070000  0.22710000  1.0 0.1439791213
H  H11  1  0.77290000  0.46490000  0.98930000  1.0 0.1439791213
H  H12  1  0.77290000  0.77290000  0.46490000  1.0 0.1439791213
H  H13  1  0.22710000  0.22710000  0.53510000  1.0 0.1439791213
H  H14  1  0.46490000  0.98930000  0.77290000  1.0 0.1439791213
H  H15  1  0.22710000  0.22710000  0.01070000  1.0 0.1439791213
H  H16  1  0.98930000  0.46490000  0.77290000  1.0 0.1439791213
H  H17  1  0.22710000  0.01070000  0.53510000  1.0 0.1439791213
H  H18  1  0.46490000  0.77290000  0.98930000  1.0 0.1439791213
H  H19  1  0.77290000  0.46490000  0.77290000  1.0 0.1439791213
H  H20  1  0.77290000  0.98930000  0.77290000  1.0 0.1439791213
H  H21  1  0.22710000  0.53510000  0.01070000  1.0 0.1439791213
H  H22  1  0.98930000  0.77290000  0.46490000  1.0 0.1439791213
H  H23  1  0.53510000  0.22710000  0.22710000  1.0 0.1439791213
H  H24  1  0.01070000  0.22710000  0.22710000  1.0 0.1439791213
W  W1  1  0.00000000  0.18958000  0.81042000  1.0 2.3772726707
W  W2  1  0.00000000  0.18958000  0.00000000  1.0 2.3772726707
W  W3  1  0.00000000  0.81042000  0.18958000  1.0 2.3772726707
W  W4  1  0.81042000  0.00000000  0.18958000  1.0 2.3772726707
W  W5  1  0.18958000  0.00000000  0.00000000  1.0 2.3772726707
W  W6  1  0.00000000  0.81042000  0.00000000  1.0 2.3772726707
W  W7  1  0.18958000  0.00000000  0.81042000  1.0 2.3772726707
W  W8  1  0.81042000  0.00000000  0.00000000  1.0 2.3772726707
W  W9  1  0.18958000  0.81042000  0.00000000  1.0 2.3772726707
W  W10  1  0.00000000  0.00000000  0.18958000  1.0 2.3772726707
W  W11  1  0.00000000  0.00000000  0.81042000  1.0 2.3772726707
W  W12  1  0.81042000  0.18958000  0.00000000  1.0 2.3772726707
C  C1  1  0.52686000  0.06810000  0.06810000  1.0 0.5911297552
C  C2  1  0.66306000  0.93190000  0.47314000  1.0 0.5911297552
C  C3  1  0.33694000  0.06810000  0.06810000  1.0 0.5911297552
C  C4  1  0.06810000  0.52686000  0.06810000  1.0 0.5911297552
C  C5  1  0.06810000  0.52686000  0.33694000  1.0 0.5911297552
C  C6  1  0.47314000  0.93190000  0.66306000  1.0 0.5911297552
C  C7  1  0.66306000  0.93190000  0.93190000  1.0 0.5911297552
C  C8  1  0.93190000  0.66306000  0.93190000  1.0 0.5911297552
C  C9  1  0.06810000  0.33694000  0.52686000  1.0 0.5911297552
C  C10  1  0.52686000  0.06810000  0.33694000  1.0 0.5911297552
C  C11  1  0.93190000  0.47314000  0.93190000  1.0 0.5911297552
C  C12  1  0.93190000  0.66306000  0.47314000  1.0 0.5911297552
C  C13  1  0.33694000  0.06810000  0.52686000  1.0 0.5911297552
C  C14  1  0.47314000  0.93190000  0.93190000  1.0 0.5911297552
C  C15  1  0.06810000  0.33694000  0.06810000  1.0 0.5911297552
C  C16  1  0.93190000  0.47314000  0.66306000  1.0 0.5911297552
C  C17  1  0.06810000  0.06810000  0.52686000  1.0 0.5911297552
C  C18  1  0.47314000  0.66306000  0.93190000  1.0 0.5911297552
C  C19  1  0.66306000  0.47314000  0.93190000  1.0 0.5911297552
C  C20  1  0.93190000  0.93190000  0.66306000  1.0 0.5911297552
C  C21  1  0.33694000  0.52686000  0.06810000  1.0 0.5911297552
C  C22  1  0.93190000  0.93190000  0.47314000  1.0 0.5911297552
C  C23  1  0.52686000  0.33694000  0.06810000  1.0 0.5911297552
C  C24  1  0.06810000  0.06810000  0.33694000  1.0 0.5911297552
C  C25  1  0.53460000  0.19840000  0.06860000  1.0 -0.0827794443
C  C26  1  0.80160000  0.93140000  0.46540000  1.0 -0.0827794443
C  C27  1  0.19840000  0.06860000  0.19840000  1.0 -0.0827794443
C  C28  1  0.06860000  0.53460000  0.19840000  1.0 -0.0827794443
C  C29  1  0.19840000  0.53460000  0.19840000  1.0 -0.0827794443
C  C30  1  0.46540000  0.80160000  0.80160000  1.0 -0.0827794443
C  C31  1  0.80160000  0.80160000  0.93140000  1.0 -0.0827794443
C  C32  1  0.93140000  0.80160000  0.80160000  1.0 -0.0853260902
C  C33  1  0.06860000  0.19840000  0.53460000  1.0 -0.0827794443
C  C34  1  0.53460000  0.06860000  0.19840000  1.0 -0.0827794443
C  C35  1  0.80160000  0.46540000  0.93140000  1.0 -0.0827794443
C  C36  1  0.80160000  0.80160000  0.46540000  1.0 -0.0827794443
C  C37  1  0.19840000  0.19840000  0.53460000  1.0 -0.0827794443
C  C38  1  0.46540000  0.93140000  0.80160000  1.0 -0.0827794443
C  C39  1  0.19840000  0.19840000  0.06860000  1.0 -0.0827794443
C  C40  1  0.93140000  0.46540000  0.80160000  1.0 -0.0853260902
C  C41  1  0.19840000  0.06860000  0.53460000  1.0 -0.0827794443
C  C42  1  0.46540000  0.80160000  0.93140000  1.0 -0.0827794443
C  C43  1  0.80160000  0.46540000  0.80160000  1.0 -0.0853260902
C  C44  1  0.80160000  0.93140000  0.80160000  1.0 -0.0853260902
C  C45  1  0.19840000  0.53460000  0.06860000  1.0 -0.0827794443
C  C46  1  0.93140000  0.80160000  0.46540000  1.0 -0.0827794443
C  C47  1  0.53460000  0.19840000  0.19840000  1.0 -0.0827794443
C  C48  1  0.06860000  0.19840000  0.19840000  1.0 -0.0827794443
C  C49  1  0.53420000  0.11180000  0.11180000  1.0 -0.0090853824
C  C50  1  0.75780000  0.88820000  0.46580000  1.0 -0.0090853824
C  C51  1  0.24220000  0.11180000  0.11180000  1.0 -0.0090853824
C  C52  1  0.11180000  0.53420000  0.11180000  1.0 -0.0090853824
C  C53  1  0.11180000  0.53420000  0.24220000  1.0 -0.0090853824
C  C54  1  0.46580000  0.88820000  0.75780000  1.0 -0.0090853824
C  C55  1  0.75780000  0.88820000  0.88820000  1.0 -0.0090853824
C  C56  1  0.88820000  0.75780000  0.88820000  1.0 -0.0090853824
C  C57  1  0.11180000  0.24220000  0.53420000  1.0 -0.0090853824
C  C58  1  0.53420000  0.11180000  0.24220000  1.0 -0.0090853824
C  C59  1  0.88820000  0.46580000  0.88820000  1.0 -0.0090853824
C  C60  1  0.88820000  0.75780000  0.46580000  1.0 -0.0090853824
C  C61  1  0.24220000  0.11180000  0.53420000  1.0 -0.0090853824
C  C62  1  0.46580000  0.88820000  0.88820000  1.0 -0.0090853824
C  C63  1  0.11180000  0.24220000  0.11180000  1.0 -0.0090853824
C  C64  1  0.88820000  0.46580000  0.75780000  1.0 -0.0090853824
C  C65  1  0.11180000  0.11180000  0.53420000  1.0 -0.0090853824
C  C66  1  0.46580000  0.75780000  0.88820000  1.0 -0.0090853824
C  C67  1  0.75780000  0.46580000  0.88820000  1.0 -0.0090853824
C  C68  1  0.88820000  0.88820000  0.75780000  1.0 -0.0090853824
C  C69  1  0.24220000  0.53420000  0.11180000  1.0 -0.0090853824
C  C70  1  0.88820000  0.88820000  0.46580000  1.0 -0.0090853824
C  C71  1  0.53420000  0.24220000  0.11180000  1.0 -0.0090853824
C  C72  1  0.11180000  0.11180000  0.24220000  1.0 -0.0090853824
O  O1  1  0.52127000  0.99199000  0.11277000  1.0 -0.5135479592
O  O2  1  0.62603000  0.88723000  0.47873000  1.0 -0.5135479592
O  O3  1  0.37397000  0.11277000  0.99199000  1.0 -0.5135479592
O  O4  1  0.11277000  0.52127000  0.99199000  1.0 -0.5135479592
O  O5  1  0.99199000  0.52127000  0.37397000  1.0 -0.5135479592
O  O6  1  0.47873000  0.00801000  0.62603000  1.0 -0.5135479592
O  O7  1  0.62603000  0.00801000  0.88723000  1.0 -0.5135479592
O  O8  1  0.88723000  0.62603000  0.00801000  1.0 -0.5135479592
O  O9  1  0.11277000  0.37397000  0.52127000  1.0 -0.5135479592
O  O10  1  0.52127000  0.11277000  0.37397000  1.0 -0.5135479592
O  O11  1  0.00801000  0.47873000  0.88723000  1.0 -0.5135479592
O  O12  1  0.00801000  0.62603000  0.47873000  1.0 -0.5135479592
O  O13  1  0.37397000  0.99199000  0.52127000  1.0 -0.5135479592
O  O14  1  0.47873000  0.88723000  0.00801000  1.0 -0.5135479592
O  O15  1  0.99199000  0.37397000  0.11277000  1.0 -0.5135479592
O  O16  1  0.88723000  0.47873000  0.62603000  1.0 -0.5135479592
O  O17  1  0.99199000  0.11277000  0.52127000  1.0 -0.5135479592
O  O18  1  0.47873000  0.62603000  0.88723000  1.0 -0.5135479592
O  O19  1  0.62603000  0.47873000  0.00801000  1.0 -0.5135479592
O  O20  1  0.00801000  0.88723000  0.62603000  1.0 -0.5135479592
O  O21  1  0.37397000  0.52127000  0.11277000  1.0 -0.5135479592
O  O22  1  0.88723000  0.00801000  0.47873000  1.0 -0.5135479592
O  O23  1  0.52127000  0.37397000  0.99199000  1.0 -0.5135479592
O  O24  1  0.11277000  0.99199000  0.37397000  1.0 -0.5135479592
O  O25  1  0.47873000  0.00801000  0.88723000  1.0 -0.5135479592
O  O26  1  0.37397000  0.11277000  0.52127000  1.0 -0.5135479592
O  O27  1  0.62603000  0.88723000  0.00801000  1.0 -0.5135479592
O  O28  1  0.88723000  0.47873000  0.00801000  1.0 -0.5135479592
O  O29  1  0.00801000  0.47873000  0.62603000  1.0 -0.5135479592
O  O30  1  0.52127000  0.99199000  0.37397000  1.0 -0.5135479592
O  O31  1  0.37397000  0.99199000  0.11277000  1.0 -0.5135479592
O  O32  1  0.11277000  0.37397000  0.99199000  1.0 -0.5135479592
O  O33  1  0.88723000  0.62603000  0.47873000  1.0 -0.5135479592
O  O34  1  0.47873000  0.88723000  0.62603000  1.0 -0.5135479592
O  O35  1  0.99199000  0.52127000  0.11277000  1.0 -0.5135479592
O  O36  1  0.99199000  0.37397000  0.52127000  1.0 -0.5135479592
O  O37  1  0.62603000  0.00801000  0.47873000  1.0 -0.5135479592
O  O38  1  0.52127000  0.11277000  0.99199000  1.0 -0.5135479592
O  O39  1  0.00801000  0.62603000  0.88723000  1.0 -0.5135479592
O  O40  1  0.11277000  0.52127000  0.37397000  1.0 -0.5135479592
O  O41  1  0.00801000  0.88723000  0.47873000  1.0 -0.5135479592
O  O42  1  0.52127000  0.37397000  0.11277000  1.0 -0.5135479592
O  O43  1  0.37397000  0.52127000  0.99199000  1.0 -0.5135479592
O  O44  1  0.99199000  0.11277000  0.37397000  1.0 -0.5135479592
O  O45  1  0.62603000  0.47873000  0.88723000  1.0 -0.5135479592
O  O46  1  0.11277000  0.99199000  0.52127000  1.0 -0.5135479592
O  O47  1  0.47873000  0.62603000  0.00801000  1.0 -0.5135479592
O  O48  1  0.88723000  0.00801000  0.62603000  1.0 -0.5135479592
O  O49  1  0.50000000  0.81180000  0.18820000  1.0 -0.0827794443
O  O50  1  0.50000000  0.81180000  0.50000000  1.0 -0.0827794443
O  O51  1  0.50000000  0.18820000  0.81180000  1.0 -0.0827794443
O  O52  1  0.18820000  0.50000000  0.81180000  1.0 -0.0827794443
O  O53  1  0.81180000  0.50000000  0.50000000  1.0 -0.0827794443
O  O54  1  0.50000000  0.18820000  0.50000000  1.0 -0.0827794443
O  O55  1  0.81180000  0.50000000  0.18820000  1.0 -0.0827794443
O  O56  1  0.18820000  0.50000000  0.50000000  1.0 -0.0827794443
O  O57  1  0.81180000  0.18820000  0.50000000  1.0 -0.0827794443
O  O58  1  0.50000000  0.50000000  0.81180000  1.0 -0.0827794443
O  O59  1  0.50000000  0.50000000  0.18820000  1.0 -0.0827794443
O  O60  1  0.18820000  0.81180000  0.50000000  1.0 -0.0827794443
O  O61  1  0.97900000  0.12020000  0.78060000  1.0 -0.8090606181
O  O62  1  0.87980000  0.21940000  0.02100000  1.0 -0.8090606181
O  O63  1  0.12020000  0.78060000  0.12020000  1.0 -0.8090606181
O  O64  1  0.78060000  0.97900000  0.12020000  1.0 -0.8090606181
O  O65  1  0.12020000  0.97900000  0.12020000  1.0 -0.8090606181
O  O66  1  0.02100000  0.87980000  0.87980000  1.0 -0.8090606181
O  O67  1  0.87980000  0.87980000  0.21940000  1.0 -0.8090606181
O  O68  1  0.21940000  0.87980000  0.87980000  1.0 -0.8090606181
O  O69  1  0.78060000  0.12020000  0.97900000  1.0 -0.8090606181
O  O70  1  0.97900000  0.78060000  0.12020000  1.0 -0.8090606181
O  O71  1  0.87980000  0.02100000  0.21940000  1.0 -0.8090606181
O  O72  1  0.87980000  0.87980000  0.02100000  1.0 -0.8090606181
O  O73  1  0.12020000  0.12020000  0.97900000  1.0 -0.8090606181
O  O74  1  0.02100000  0.21940000  0.87980000  1.0 -0.8090606181
O  O75  1  0.12020000  0.12020000  0.78060000  1.0 -0.8090606181
O  O76  1  0.21940000  0.02100000  0.87980000  1.0 -0.8090606181
O  O77  1  0.12020000  0.78060000  0.97900000  1.0 -0.8090606181
O  O78  1  0.02100000  0.87980000  0.21940000  1.0 -0.8090606181
O  O79  1  0.87980000  0.02100000  0.87980000  1.0 -0.8090606181
O  O80  1  0.87980000  0.21940000  0.87980000  1.0 -0.8090606181
O  O81  1  0.12020000  0.97900000  0.78060000  1.0 -0.8090606181
O  O82  1  0.21940000  0.87980000  0.02100000  1.0 -0.8090606181
O  O83  1  0.97900000  0.12020000  0.12020000  1.0 -0.8090606181
O  O84  1  0.78060000  0.12020000  0.12020000  1.0 -0.8090606181
O  O85  1  0.00000000  0.27960000  0.72040000  1.0 -0.5935862311
O  O86  1  0.00000000  0.27960000  0.00000000  1.0 -0.5935862311
O  O87  1  0.00000000  0.72040000  0.27960000  1.0 -0.5935862311
O  O88  1  0.72040000  0.00000000  0.27960000  1.0 -0.5935862311
O  O89  1  0.27960000  0.00000000  0.00000000  1.0 -0.5935862311
O  O90  1  0.00000000  0.72040000  0.00000000  1.0 -0.5935862311
O  O91  1  0.27960000  0.00000000  0.72040000  1.0 -0.5935862311
O  O92  1  0.72040000  0.00000000  0.00000000  1.0 -0.5935862311
O  O93  1  0.27960000  0.72040000  0.00000000  1.0 -0.5935862311
O  O94  1  0.00000000  0.00000000  0.27960000  1.0 -0.5935862311
O  O95  1  0.00000000  0.00000000  0.72040000  1.0 -0.5935862311
O  O96  1  0.72040000  0.27960000  0.00000000  1.0 -0.5935862311
O  O97  1  0.96390000  0.10830000  0.96390000  1.0 -0.5277960894
O  O98  1  0.03610000  0.03610000  0.03610000  1.0 -0.5277960894
O  O99  1  0.96390000  0.96390000  0.10830000  1.0 -0.5277960894
O  O100  1  0.10830000  0.96390000  0.96390000  1.0 -0.5277960894
O  O101  1  0.03610000  0.89170000  0.03610000  1.0 -0.5277960894
O  O102  1  0.03610000  0.03610000  0.89170000  1.0 -0.5277960894
O  O103  1  0.96390000  0.96390000  0.96390000  1.0 -0.5277960894
O  O104  1  0.89170000  0.03610000  0.03610000  1.0 -0.5277960894
