# DDEC6 charges by PACMAN v1.1 (https://github.com/mtap-research/PACMAN-charge/)
data_SONVAT_FSR_pacman
_symmetry_space_group_name_H-M   'P 1'
_cell_length_a   18.61030000
_cell_length_b   18.61030000
_cell_length_c   18.61030000
_cell_angle_alpha   60.00000000
_cell_angle_beta   60.00000000
_cell_angle_gamma   60.00000000
_symmetry_Int_Tables_number   1
_chemical_formula_structural   Cu12GeH24W12(C9O13)8
_chemical_formula_sum   'Cu12 Ge1 H24 W12 C72 O104'
_cell_volume   4557.69358773
_cell_formula_units_Z   1
loop_
 _symmetry_equiv_pos_site_id
 _symmetry_equiv_pos_as_xyz
  1  'x, y, z'
loop_
 _atom_site_type_symbol
 _atom_site_label
 _atom_site_symmetry_multiplicity
 _atom_site_fract_x
 _atom_site_fract_y
 _atom_site_fract_z
 _atom_site_occupancy
 _atom_site_charge
Cu  Cu1  1  0.50000000  0.92960000  0.07040000  1.0 0.9306659892
Cu  Cu2  1  0.50000000  0.92960000  0.50000000  1.0 0.9306659892
Cu  Cu3  1  0.92960000  0.50000000  0.50000000  1.0 0.9306659892
Cu  Cu4  1  0.92960000  0.50000000  0.07040000  1.0 0.9306659892
Cu  Cu5  1  0.50000000  0.07040000  0.92960000  1.0 0.9306659892
Cu  Cu6  1  0.50000000  0.07040000  0.50000000  1.0 0.9306659892
Cu  Cu7  1  0.07040000  0.50000000  0.50000000  1.0 0.9306659892
Cu  Cu8  1  0.07040000  0.50000000  0.92960000  1.0 0.9306659892
Cu  Cu9  1  0.92960000  0.07040000  0.50000000  1.0 0.9306659892
Cu  Cu10  1  0.50000000  0.50000000  0.07040000  1.0 0.9306659892
Cu  Cu11  1  0.07040000  0.92960000  0.50000000  1.0 0.9306659892
Cu  Cu12  1  0.50000000  0.50000000  0.92960000  1.0 0.9306659892
Ge  Ge1  1  0.00000000  0.00000000  0.00000000  1.0 1.3811756168
H  H1  1  0.77240000  0.77240000  0.98940000  1.0 0.1433980261
H  H2  1  0.53420000  0.01060000  0.22760000  1.0 0.1433980261
H  H3  1  0.77240000  0.77240000  0.46580000  1.0 0.1433980261
H  H4  1  0.01060000  0.53420000  0.22760000  1.0 0.1433980261
H  H5  1  0.46580000  0.98940000  0.77240000  1.0 0.1433980261
H  H6  1  0.22760000  0.22760000  0.53420000  1.0 0.1433980261
H  H7  1  0.98940000  0.46580000  0.77240000  1.0 0.1433980261
H  H8  1  0.22760000  0.22760000  0.01060000  1.0 0.1433980261
H  H9  1  0.98940000  0.77240000  0.77240000  1.0 0.1433980261
H  H10  1  0.53420000  0.22760000  0.01060000  1.0 0.1433980261
H  H11  1  0.77240000  0.98940000  0.46580000  1.0 0.1433980261
H  H12  1  0.22760000  0.53420000  0.22760000  1.0 0.1433980261
H  H13  1  0.46580000  0.77240000  0.77240000  1.0 0.1433980261
H  H14  1  0.01060000  0.22760000  0.53420000  1.0 0.1433980261
H  H15  1  0.77240000  0.46580000  0.98940000  1.0 0.1433980261
H  H16  1  0.22760000  0.01060000  0.22760000  1.0 0.1433980261
H  H17  1  0.77240000  0.98940000  0.77240000  1.0 0.1433980261
H  H18  1  0.01060000  0.22760000  0.22760000  1.0 0.1433980261
H  H19  1  0.53420000  0.22760000  0.22760000  1.0 0.1433980261
H  H20  1  0.22760000  0.01060000  0.53420000  1.0 0.1433980261
H  H21  1  0.22760000  0.53420000  0.01060000  1.0 0.1433980261
H  H22  1  0.46580000  0.77240000  0.98940000  1.0 0.1433980261
H  H23  1  0.98940000  0.77240000  0.46580000  1.0 0.1433980261
H  H24  1  0.77240000  0.46580000  0.77240000  1.0 0.1433980261
W  W1  1  0.19002000  0.80998000  0.00000000  1.0 2.366328219
W  W2  1  0.00000000  0.00000000  0.80998000  1.0 2.366328219
W  W3  1  0.80998000  0.19002000  0.00000000  1.0 2.366328219
W  W4  1  0.00000000  0.00000000  0.19002000  1.0 2.366328219
W  W5  1  0.00000000  0.19002000  0.80998000  1.0 2.366328219
W  W6  1  0.00000000  0.19002000  0.00000000  1.0 2.366328219
W  W7  1  0.19002000  0.00000000  0.00000000  1.0 2.366328219
W  W8  1  0.19002000  0.00000000  0.80998000  1.0 2.366328219
W  W9  1  0.00000000  0.80998000  0.19002000  1.0 2.366328219
W  W10  1  0.00000000  0.80998000  0.00000000  1.0 2.366328219
W  W11  1  0.80998000  0.00000000  0.00000000  1.0 2.366328219
W  W12  1  0.80998000  0.00000000  0.19002000  1.0 2.366328219
C  C1  1  0.80130000  0.80130000  0.93190000  1.0 -0.0742056248
C  C2  1  0.53450000  0.06810000  0.19870000  1.0 -0.0742056248
C  C3  1  0.80130000  0.80130000  0.46550000  1.0 -0.0742056248
C  C4  1  0.06810000  0.53450000  0.19870000  1.0 -0.0742056248
C  C5  1  0.46550000  0.93190000  0.80130000  1.0 -0.0742056248
C  C6  1  0.19870000  0.19870000  0.53450000  1.0 -0.0742056248
C  C7  1  0.93190000  0.46550000  0.80130000  1.0 -0.0742056248
C  C8  1  0.19870000  0.19870000  0.06810000  1.0 -0.0742056248
C  C9  1  0.93190000  0.80130000  0.80130000  1.0 -0.0742056248
C  C10  1  0.53450000  0.19870000  0.06810000  1.0 -0.0742056248
C  C11  1  0.80130000  0.93190000  0.46550000  1.0 -0.0742056248
C  C12  1  0.19870000  0.53450000  0.19870000  1.0 -0.0742056248
C  C13  1  0.46550000  0.80130000  0.80130000  1.0 -0.0742056248
C  C14  1  0.06810000  0.19870000  0.53450000  1.0 -0.0742056248
C  C15  1  0.80130000  0.46550000  0.93190000  1.0 -0.0742056248
C  C16  1  0.19870000  0.06810000  0.19870000  1.0 -0.0742056248
C  C17  1  0.80130000  0.93190000  0.80130000  1.0 -0.0742056248
C  C18  1  0.06810000  0.19870000  0.19870000  1.0 -0.0742056248
C  C19  1  0.53450000  0.19870000  0.19870000  1.0 -0.0742056248
C  C20  1  0.19870000  0.06810000  0.53450000  1.0 -0.0742056248
C  C21  1  0.19870000  0.53450000  0.06810000  1.0 -0.0742056248
C  C22  1  0.46550000  0.80130000  0.93190000  1.0 -0.0742056248
C  C23  1  0.93190000  0.80130000  0.46550000  1.0 -0.0742056248
C  C24  1  0.80130000  0.46550000  0.80130000  1.0 -0.0742056248
C  C25  1  0.66380000  0.93140000  0.93140000  1.0 0.590349239
C  C26  1  0.52660000  0.06860000  0.33620000  1.0 0.590349239
C  C27  1  0.93140000  0.66380000  0.47340000  1.0 0.590349239
C  C28  1  0.06860000  0.52660000  0.06860000  1.0 0.590349239
C  C29  1  0.47340000  0.93140000  0.93140000  1.0 0.590349239
C  C30  1  0.33620000  0.06860000  0.52660000  1.0 0.590349239
C  C31  1  0.93140000  0.47340000  0.66380000  1.0 0.590349239
C  C32  1  0.06860000  0.33620000  0.06860000  1.0 0.590349239
C  C33  1  0.93140000  0.66380000  0.93140000  1.0 0.590349239
C  C34  1  0.52660000  0.06860000  0.06860000  1.0 0.590349239
C  C35  1  0.66380000  0.93140000  0.47340000  1.0 0.590349239
C  C36  1  0.06860000  0.52660000  0.33620000  1.0 0.590349239
C  C37  1  0.47340000  0.93140000  0.66380000  1.0 0.590349239
C  C38  1  0.06860000  0.33620000  0.52660000  1.0 0.590349239
C  C39  1  0.93140000  0.47340000  0.93140000  1.0 0.590349239
C  C40  1  0.33620000  0.06860000  0.06860000  1.0 0.590349239
C  C41  1  0.93140000  0.93140000  0.66380000  1.0 0.590349239
C  C42  1  0.06860000  0.06860000  0.33620000  1.0 0.590349239
C  C43  1  0.52660000  0.33620000  0.06860000  1.0 0.590349239
C  C44  1  0.06860000  0.06860000  0.52660000  1.0 0.590349239
C  C45  1  0.33620000  0.52660000  0.06860000  1.0 0.590349239
C  C46  1  0.47340000  0.66380000  0.93140000  1.0 0.590349239
C  C47  1  0.93140000  0.93140000  0.47340000  1.0 0.590349239
C  C48  1  0.66380000  0.47340000  0.93140000  1.0 0.590349239
C  C49  1  0.75770000  0.88850000  0.88850000  1.0 -0.022188937
C  C50  1  0.53470000  0.11150000  0.24230000  1.0 -0.022188937
C  C51  1  0.88850000  0.75770000  0.46530000  1.0 -0.022188937
C  C52  1  0.11150000  0.53470000  0.11150000  1.0 -0.022188937
C  C53  1  0.46530000  0.88850000  0.88850000  1.0 -0.022188937
C  C54  1  0.24230000  0.11150000  0.53470000  1.0 -0.022188937
C  C55  1  0.88850000  0.46530000  0.75770000  1.0 -0.022188937
C  C56  1  0.11150000  0.24230000  0.11150000  1.0 -0.022188937
C  C57  1  0.88850000  0.75770000  0.88850000  1.0 -0.022188937
C  C58  1  0.53470000  0.11150000  0.11150000  1.0 -0.022188937
C  C59  1  0.75770000  0.88850000  0.46530000  1.0 -0.022188937
C  C60  1  0.11150000  0.53470000  0.24230000  1.0 -0.022188937
C  C61  1  0.46530000  0.88850000  0.75770000  1.0 -0.022188937
C  C62  1  0.11150000  0.24230000  0.53470000  1.0 -0.022188937
C  C63  1  0.88850000  0.46530000  0.88850000  1.0 -0.022188937
C  C64  1  0.24230000  0.11150000  0.11150000  1.0 -0.022188937
C  C65  1  0.88850000  0.88850000  0.75770000  1.0 -0.022188937
C  C66  1  0.11150000  0.11150000  0.24230000  1.0 -0.022188937
C  C67  1  0.53470000  0.24230000  0.11150000  1.0 -0.022188937
C  C68  1  0.11150000  0.11150000  0.53470000  1.0 -0.022188937
C  C69  1  0.24230000  0.53470000  0.11150000  1.0 -0.022188937
C  C70  1  0.46530000  0.75770000  0.88850000  1.0 -0.022188937
C  C71  1  0.88850000  0.88850000  0.46530000  1.0 -0.022188937
C  C72  1  0.75770000  0.46530000  0.88850000  1.0 -0.022188937
O  O1  1  0.50000000  0.81220000  0.18780000  1.0 -0.1010852485
O  O2  1  0.50000000  0.81220000  0.50000000  1.0 -0.1010852485
O  O3  1  0.81220000  0.50000000  0.50000000  1.0 -0.1010852485
O  O4  1  0.81220000  0.50000000  0.18780000  1.0 -0.1010852485
O  O5  1  0.50000000  0.18780000  0.81220000  1.0 -0.1010852485
O  O6  1  0.50000000  0.18780000  0.50000000  1.0 -0.1010852485
O  O7  1  0.18780000  0.50000000  0.50000000  1.0 -0.1010852485
O  O8  1  0.18780000  0.50000000  0.81220000  1.0 -0.1010852485
O  O9  1  0.81220000  0.18780000  0.50000000  1.0 -0.1010852485
O  O10  1  0.50000000  0.50000000  0.18780000  1.0 -0.1010852485
O  O11  1  0.18780000  0.81220000  0.50000000  1.0 -0.1050535198
O  O12  1  0.50000000  0.50000000  0.81220000  1.0 -0.1010852485
O  O13  1  0.62600000  0.88700000  0.00760000  1.0 -0.5120189084
O  O14  1  0.52060000  0.99240000  0.37400000  1.0 -0.5120189084
O  O15  1  0.88700000  0.62600000  0.47940000  1.0 -0.5120189084
O  O16  1  0.99240000  0.52060000  0.11300000  1.0 -0.5120189084
O  O17  1  0.47940000  0.00760000  0.88700000  1.0 -0.5120189084
O  O18  1  0.37400000  0.11300000  0.52060000  1.0 -0.5120189084
O  O19  1  0.00760000  0.47940000  0.62600000  1.0 -0.5120189084
O  O20  1  0.11300000  0.37400000  0.99240000  1.0 -0.5120189084
O  O21  1  0.00760000  0.62600000  0.88700000  1.0 -0.5120189084
O  O22  1  0.52060000  0.11300000  0.99240000  1.0 -0.5120189084
O  O23  1  0.62600000  0.00760000  0.47940000  1.0 -0.5120189084
O  O24  1  0.11300000  0.52060000  0.37400000  1.0 -0.5120189084
O  O25  1  0.47940000  0.88700000  0.62600000  1.0 -0.5120189084
O  O26  1  0.99240000  0.37400000  0.52060000  1.0 -0.5120189084
O  O27  1  0.88700000  0.47940000  0.00760000  1.0 -0.5120189084
O  O28  1  0.37400000  0.99240000  0.11300000  1.0 -0.5120189084
O  O29  1  0.88700000  0.00760000  0.62600000  1.0 -0.5120189084
O  O30  1  0.99240000  0.11300000  0.37400000  1.0 -0.5120189084
O  O31  1  0.52060000  0.37400000  0.11300000  1.0 -0.5120189084
O  O32  1  0.11300000  0.99240000  0.52060000  1.0 -0.5120189084
O  O33  1  0.37400000  0.52060000  0.99240000  1.0 -0.5120189084
O  O34  1  0.47940000  0.62600000  0.00760000  1.0 -0.5120189084
O  O35  1  0.00760000  0.88700000  0.47940000  1.0 -0.5120189084
O  O36  1  0.62600000  0.47940000  0.88700000  1.0 -0.5120189084
O  O37  1  0.37400000  0.11300000  0.99240000  1.0 -0.5120189084
O  O38  1  0.47940000  0.00760000  0.62600000  1.0 -0.5120189084
O  O39  1  0.11300000  0.37400000  0.52060000  1.0 -0.5120189084
O  O40  1  0.00760000  0.47940000  0.88700000  1.0 -0.5120189084
O  O41  1  0.52060000  0.99240000  0.11300000  1.0 -0.5120189084
O  O42  1  0.62600000  0.88700000  0.47940000  1.0 -0.5120189084
O  O43  1  0.99240000  0.52060000  0.37400000  1.0 -0.5120189084
O  O44  1  0.88700000  0.62600000  0.00760000  1.0 -0.5120189084
O  O45  1  0.99240000  0.37400000  0.11300000  1.0 -0.5120189084
O  O46  1  0.47940000  0.88700000  0.00760000  1.0 -0.5120189084
O  O47  1  0.37400000  0.99240000  0.52060000  1.0 -0.5120189084
O  O48  1  0.88700000  0.47940000  0.62600000  1.0 -0.5120189084
O  O49  1  0.52060000  0.11300000  0.37400000  1.0 -0.5120189084
O  O50  1  0.00760000  0.62600000  0.47940000  1.0 -0.5120189084
O  O51  1  0.11300000  0.52060000  0.99240000  1.0 -0.5120189084
O  O52  1  0.62600000  0.00760000  0.88700000  1.0 -0.5120189084
O  O53  1  0.11300000  0.99240000  0.37400000  1.0 -0.5120189084
O  O54  1  0.00760000  0.88700000  0.62600000  1.0 -0.5120189084
O  O55  1  0.47940000  0.62600000  0.88700000  1.0 -0.5120189084
O  O56  1  0.88700000  0.00760000  0.47940000  1.0 -0.5120189084
O  O57  1  0.62600000  0.47940000  0.00760000  1.0 -0.5120189084
O  O58  1  0.52060000  0.37400000  0.99240000  1.0 -0.5120189084
O  O59  1  0.99240000  0.11300000  0.52060000  1.0 -0.5120189084
O  O60  1  0.37400000  0.52060000  0.11300000  1.0 -0.5120189084
O  O61  1  0.03820000  0.88540000  0.03820000  1.0 -0.5683351885
O  O62  1  0.96180000  0.96180000  0.96180000  1.0 -0.5683351885
O  O63  1  0.88540000  0.03820000  0.03820000  1.0 -0.5683351885
O  O64  1  0.96180000  0.96180000  0.11460000  1.0 -0.5683351885
O  O65  1  0.03820000  0.03820000  0.88540000  1.0 -0.5683351885
O  O66  1  0.96180000  0.11460000  0.96180000  1.0 -0.5683351885
O  O67  1  0.03820000  0.03820000  0.03820000  1.0 -0.5683351885
O  O68  1  0.11460000  0.96180000  0.96180000  1.0 -0.5683351885
O  O69  1  0.27960000  0.72040000  0.00000000  1.0 -0.5853129731
O  O70  1  0.00000000  0.00000000  0.72040000  1.0 -0.5853129731
O  O71  1  0.72040000  0.27960000  0.00000000  1.0 -0.5853129731
O  O72  1  0.00000000  0.00000000  0.27960000  1.0 -0.5853129731
O  O73  1  0.00000000  0.27960000  0.72040000  1.0 -0.5853129731
O  O74  1  0.00000000  0.27960000  0.00000000  1.0 -0.5853129731
O  O75  1  0.27960000  0.00000000  0.00000000  1.0 -0.5853129731
O  O76  1  0.27960000  0.00000000  0.72040000  1.0 -0.5853129731
O  O77  1  0.00000000  0.72040000  0.27960000  1.0 -0.5853129731
O  O78  1  0.00000000  0.72040000  0.00000000  1.0 -0.5853129731
O  O79  1  0.72040000  0.00000000  0.00000000  1.0 -0.5853129731
O  O80  1  0.72040000  0.00000000  0.27960000  1.0 -0.5853129731
O  O81  1  0.12060000  0.78120000  0.12060000  1.0 -0.7865514563
O  O82  1  0.02240000  0.87940000  0.87940000  1.0 -0.7865514563
O  O83  1  0.78120000  0.12060000  0.97760000  1.0 -0.7865514563
O  O84  1  0.87940000  0.02240000  0.21880000  1.0 -0.7865514563
O  O85  1  0.97760000  0.12060000  0.78120000  1.0 -0.7865514563
O  O86  1  0.87940000  0.21880000  0.02240000  1.0 -0.7865514563
O  O87  1  0.12060000  0.97760000  0.12060000  1.0 -0.7865514563
O  O88  1  0.21880000  0.87940000  0.87940000  1.0 -0.7865514563
O  O89  1  0.12060000  0.12060000  0.78120000  1.0 -0.7865514563
O  O90  1  0.02240000  0.21880000  0.87940000  1.0 -0.7865514563
O  O91  1  0.12060000  0.12060000  0.97760000  1.0 -0.7865514563
O  O92  1  0.21880000  0.02240000  0.87940000  1.0 -0.7865514563
O  O93  1  0.97760000  0.78120000  0.12060000  1.0 -0.7865514563
O  O94  1  0.87940000  0.87940000  0.02240000  1.0 -0.7865514563
O  O95  1  0.78120000  0.97760000  0.12060000  1.0 -0.7865514563
O  O96  1  0.87940000  0.87940000  0.21880000  1.0 -0.7865514563
O  O97  1  0.78120000  0.12060000  0.12060000  1.0 -0.7865514563
O  O98  1  0.87940000  0.21880000  0.87940000  1.0 -0.7865514563
O  O99  1  0.02240000  0.87940000  0.21880000  1.0 -0.7865514563
O  O100  1  0.21880000  0.87940000  0.02240000  1.0 -0.7865514563
O  O101  1  0.87940000  0.02240000  0.87940000  1.0 -0.7865514563
O  O102  1  0.97760000  0.12060000  0.12060000  1.0 -0.7865514563
O  O103  1  0.12060000  0.78120000  0.97760000  1.0 -0.7865514563
O  O104  1  0.12060000  0.97760000  0.78120000  1.0 -0.7865514563
