# DDEC6 charges by PACMAN v1.1 (https://github.com/mtap-research/PACMAN-charge/)
data_SONVEX_FSR_pacman
_symmetry_space_group_name_H-M   'P 1'
_cell_length_a   18.62150000
_cell_length_b   18.62150000
_cell_length_c   18.62150000
_cell_angle_alpha   60.00000000
_cell_angle_beta   60.00000000
_cell_angle_gamma   60.00000000
_symmetry_Int_Tables_number   1
_chemical_formula_structural   Cu12Mo12PH24(C9O13)8
_chemical_formula_sum   'Cu12 Mo12 P1 H24 C72 O104'
_cell_volume   4565.92723708
_cell_formula_units_Z   1
loop_
 _symmetry_equiv_pos_site_id
 _symmetry_equiv_pos_as_xyz
  1  'x, y, z'
loop_
 _atom_site_type_symbol
 _atom_site_label
 _atom_site_symmetry_multiplicity
 _atom_site_fract_x
 _atom_site_fract_y
 _atom_site_fract_z
 _atom_site_occupancy
 _atom_site_charge
Cu  Cu1  1  0.07015000  0.50000000  0.92985000  1.0 0.9117793255
Cu  Cu2  1  0.50000000  0.07015000  0.50000000  1.0 0.9117793255
Cu  Cu3  1  0.92985000  0.50000000  0.07015000  1.0 0.9117793255
Cu  Cu4  1  0.50000000  0.92985000  0.50000000  1.0 0.9117793255
Cu  Cu5  1  0.92985000  0.07015000  0.50000000  1.0 0.9117793255
Cu  Cu6  1  0.50000000  0.50000000  0.07015000  1.0 0.9117793255
Cu  Cu7  1  0.07015000  0.92985000  0.50000000  1.0 0.9117793255
Cu  Cu8  1  0.50000000  0.50000000  0.92985000  1.0 0.9117793255
Cu  Cu9  1  0.50000000  0.92985000  0.07015000  1.0 0.9117793255
Cu  Cu10  1  0.07015000  0.50000000  0.50000000  1.0 0.9117793255
Cu  Cu11  1  0.50000000  0.07015000  0.92985000  1.0 0.9117793255
Cu  Cu12  1  0.92985000  0.50000000  0.50000000  1.0 0.9117793255
Mo  Mo1  1  0.00000000  0.80950000  0.19050000  1.0 2.1663311799
Mo  Mo2  1  0.80950000  0.00000000  0.00000000  1.0 2.1663311799
Mo  Mo3  1  0.19050000  0.00000000  0.00000000  1.0 2.1663311799
Mo  Mo4  1  0.00000000  0.19050000  0.80950000  1.0 2.1649666044
Mo  Mo5  1  0.19050000  0.00000000  0.80950000  1.0 2.1663311799
Mo  Mo6  1  0.00000000  0.80950000  0.00000000  1.0 2.1663311799
Mo  Mo7  1  0.00000000  0.19050000  0.00000000  1.0 2.1649666044
Mo  Mo8  1  0.80950000  0.00000000  0.19050000  1.0 2.1663311799
Mo  Mo9  1  0.80950000  0.19050000  0.00000000  1.0 2.1663311799
Mo  Mo10  1  0.00000000  0.00000000  0.80950000  1.0 2.1649666044
Mo  Mo11  1  0.00000000  0.00000000  0.19050000  1.0 2.1663311799
Mo  Mo12  1  0.19050000  0.80950000  0.00000000  1.0 2.1663311799
P  P1  1  0.00000000  0.00000000  0.00000000  1.0 0.8057791803
H  H1  1  0.98870000  0.77230000  0.77230000  1.0 0.1489768333
H  H2  1  0.77230000  0.98870000  0.46670000  1.0 0.1489768333
H  H3  1  0.77230000  0.46670000  0.98870000  1.0 0.1489768333
H  H4  1  0.46670000  0.77230000  0.77230000  1.0 0.1489768333
H  H5  1  0.77230000  0.98870000  0.77230000  1.0 0.1489768333
H  H6  1  0.46670000  0.77230000  0.98870000  1.0 0.1489768333
H  H7  1  0.98870000  0.77230000  0.46670000  1.0 0.1489768333
H  H8  1  0.77230000  0.46670000  0.77230000  1.0 0.1489768333
H  H9  1  0.77230000  0.77230000  0.98870000  1.0 0.1489768333
H  H10  1  0.98870000  0.46670000  0.77230000  1.0 0.1489768333
H  H11  1  0.46670000  0.98870000  0.77230000  1.0 0.1489768333
H  H12  1  0.77230000  0.77230000  0.46670000  1.0 0.1489768333
H  H13  1  0.01130000  0.22770000  0.53330000  1.0 0.1489768333
H  H14  1  0.22770000  0.01130000  0.22770000  1.0 0.1489768333
H  H15  1  0.22770000  0.53330000  0.22770000  1.0 0.1489768333
H  H16  1  0.53330000  0.22770000  0.01130000  1.0 0.1489768333
H  H17  1  0.22770000  0.01130000  0.53330000  1.0 0.1489768333
H  H18  1  0.53330000  0.22770000  0.22770000  1.0 0.1489768333
H  H19  1  0.01130000  0.22770000  0.22770000  1.0 0.1489768333
H  H20  1  0.22770000  0.53330000  0.01130000  1.0 0.1489768333
H  H21  1  0.22770000  0.22770000  0.53330000  1.0 0.1489768333
H  H22  1  0.01130000  0.53330000  0.22770000  1.0 0.1489768333
H  H23  1  0.53330000  0.01130000  0.22770000  1.0 0.1489768333
H  H24  1  0.22770000  0.22770000  0.01130000  1.0 0.1489768333
C  C1  1  0.93090000  0.66334000  0.93090000  1.0 0.5905037163
C  C2  1  0.66334000  0.93090000  0.47486000  1.0 0.5905037163
C  C3  1  0.93090000  0.47486000  0.93090000  1.0 0.5905037163
C  C4  1  0.47486000  0.93090000  0.66334000  1.0 0.5905037163
C  C5  1  0.93090000  0.93090000  0.66334000  1.0 0.5905037163
C  C6  1  0.47486000  0.66334000  0.93090000  1.0 0.5905037163
C  C7  1  0.93090000  0.93090000  0.47486000  1.0 0.5905037163
C  C8  1  0.66334000  0.47486000  0.93090000  1.0 0.5905037163
C  C9  1  0.66334000  0.93090000  0.93090000  1.0 0.5905037163
C  C10  1  0.93090000  0.47486000  0.66334000  1.0 0.5905037163
C  C11  1  0.47486000  0.93090000  0.93090000  1.0 0.5905037163
C  C12  1  0.93090000  0.66334000  0.47486000  1.0 0.5905037163
C  C13  1  0.06910000  0.33666000  0.52514000  1.0 0.5905037163
C  C14  1  0.33666000  0.06910000  0.06910000  1.0 0.5905037163
C  C15  1  0.06910000  0.52514000  0.33666000  1.0 0.5905037163
C  C16  1  0.52514000  0.06910000  0.06910000  1.0 0.5905037163
C  C17  1  0.06910000  0.06910000  0.52514000  1.0 0.5905037163
C  C18  1  0.52514000  0.33666000  0.06910000  1.0 0.5905037163
C  C19  1  0.06910000  0.06910000  0.33666000  1.0 0.5905037163
C  C20  1  0.33666000  0.52514000  0.06910000  1.0 0.5905037163
C  C21  1  0.33666000  0.06910000  0.52514000  1.0 0.5905037163
C  C22  1  0.06910000  0.52514000  0.06910000  1.0 0.5905037163
C  C23  1  0.52514000  0.06910000  0.33666000  1.0 0.5905037163
C  C24  1  0.06910000  0.33666000  0.06910000  1.0 0.5905037163
C  C25  1  0.88730000  0.75792000  0.88730000  1.0 -0.0087088072
C  C26  1  0.75792000  0.88730000  0.46748000  1.0 -0.0087088072
C  C27  1  0.88730000  0.46748000  0.88730000  1.0 -0.0087088072
C  C28  1  0.46748000  0.88730000  0.75792000  1.0 -0.0087088072
C  C29  1  0.88730000  0.88730000  0.75792000  1.0 -0.0087088072
C  C30  1  0.46748000  0.75792000  0.88730000  1.0 -0.0087088072
C  C31  1  0.88730000  0.88730000  0.46748000  1.0 -0.0087088072
C  C32  1  0.75792000  0.46748000  0.88730000  1.0 -0.0087088072
C  C33  1  0.75792000  0.88730000  0.88730000  1.0 -0.0087088072
C  C34  1  0.88730000  0.46748000  0.75792000  1.0 -0.0087088072
C  C35  1  0.46748000  0.88730000  0.88730000  1.0 -0.0087088072
C  C36  1  0.88730000  0.75792000  0.46748000  1.0 -0.0087088072
C  C37  1  0.11270000  0.24208000  0.53252000  1.0 -0.0087088072
C  C38  1  0.24208000  0.11270000  0.11270000  1.0 -0.0087088072
C  C39  1  0.11270000  0.53252000  0.24208000  1.0 -0.0087088072
C  C40  1  0.53252000  0.11270000  0.11270000  1.0 -0.0087088072
C  C41  1  0.11270000  0.11270000  0.53252000  1.0 -0.0087088072
C  C42  1  0.53252000  0.24208000  0.11270000  1.0 -0.0087088072
C  C43  1  0.11270000  0.11270000  0.24208000  1.0 -0.0087088072
C  C44  1  0.24208000  0.53252000  0.11270000  1.0 -0.0087088072
C  C45  1  0.24208000  0.11270000  0.53252000  1.0 -0.0087088072
C  C46  1  0.11270000  0.53252000  0.11270000  1.0 -0.0087088072
C  C47  1  0.53252000  0.11270000  0.24208000  1.0 -0.0087088072
C  C48  1  0.11270000  0.24208000  0.11270000  1.0 -0.0087088072
C  C49  1  0.93086000  0.80100000  0.80100000  1.0 -0.0861274861
C  C50  1  0.80100000  0.93086000  0.46714000  1.0 -0.0861274861
C  C51  1  0.80100000  0.46714000  0.93086000  1.0 -0.0861274861
C  C52  1  0.46714000  0.80100000  0.80100000  1.0 -0.0861274861
C  C53  1  0.80100000  0.93086000  0.80100000  1.0 -0.0861274861
C  C54  1  0.46714000  0.80100000  0.93086000  1.0 -0.0861274861
C  C55  1  0.93086000  0.80100000  0.46714000  1.0 -0.0861274861
C  C56  1  0.80100000  0.46714000  0.80100000  1.0 -0.0861274861
C  C57  1  0.80100000  0.80100000  0.93086000  1.0 -0.0861274861
C  C58  1  0.93086000  0.46714000  0.80100000  1.0 -0.0861274861
C  C59  1  0.46714000  0.93086000  0.80100000  1.0 -0.0861274861
C  C60  1  0.80100000  0.80100000  0.46714000  1.0 -0.0843786832
C  C61  1  0.06914000  0.19900000  0.53286000  1.0 -0.0861274861
C  C62  1  0.19900000  0.06914000  0.19900000  1.0 -0.0861274861
C  C63  1  0.19900000  0.53286000  0.19900000  1.0 -0.0861274861
C  C64  1  0.53286000  0.19900000  0.06914000  1.0 -0.0861274861
C  C65  1  0.19900000  0.06914000  0.53286000  1.0 -0.0861274861
C  C66  1  0.53286000  0.19900000  0.19900000  1.0 -0.0861274861
C  C67  1  0.06914000  0.19900000  0.19900000  1.0 -0.0861274861
C  C68  1  0.19900000  0.53286000  0.06914000  1.0 -0.0861274861
C  C69  1  0.19900000  0.19900000  0.53286000  1.0 -0.0861274861
C  C70  1  0.06914000  0.53286000  0.19900000  1.0 -0.0861274861
C  C71  1  0.53286000  0.06914000  0.19900000  1.0 -0.0861274861
C  C72  1  0.19900000  0.19900000  0.06914000  1.0 -0.0861274861
O  O1  1  0.03400000  0.89800000  0.03400000  1.0 -0.2810529631
O  O2  1  0.89800000  0.03400000  0.03400000  1.0 -0.2810529631
O  O3  1  0.03400000  0.03400000  0.03400000  1.0 -0.2810529631
O  O4  1  0.03400000  0.03400000  0.89800000  1.0 -0.2810529631
O  O5  1  0.96600000  0.10200000  0.96600000  1.0 -0.2810529631
O  O6  1  0.10200000  0.96600000  0.96600000  1.0 -0.2810529631
O  O7  1  0.96600000  0.96600000  0.10200000  1.0 -0.2810529631
O  O8  1  0.96600000  0.96600000  0.96600000  1.0 -0.2810529631
O  O9  1  0.02010000  0.88030000  0.21930000  1.0 -0.7872793984
O  O10  1  0.88030000  0.02010000  0.88030000  1.0 -0.7872793984
O  O11  1  0.21930000  0.88030000  0.02010000  1.0 -0.7872793984
O  O12  1  0.88030000  0.21930000  0.88030000  1.0 -0.7872793984
O  O13  1  0.21930000  0.02010000  0.88030000  1.0 -0.7872793984
O  O14  1  0.88030000  0.88030000  0.02010000  1.0 -0.7872793984
O  O15  1  0.02010000  0.21930000  0.88030000  1.0 -0.7872793984
O  O16  1  0.88030000  0.88030000  0.21930000  1.0 -0.7872793984
O  O17  1  0.88030000  0.21930000  0.02010000  1.0 -0.7872793984
O  O18  1  0.02010000  0.88030000  0.88030000  1.0 -0.7872793984
O  O19  1  0.88030000  0.02010000  0.21930000  1.0 -0.7872793984
O  O20  1  0.21930000  0.88030000  0.88030000  1.0 -0.7872793984
O  O21  1  0.97990000  0.11970000  0.11970000  1.0 -0.7872793984
O  O22  1  0.11970000  0.97990000  0.78070000  1.0 -0.7872793984
O  O23  1  0.78070000  0.11970000  0.11970000  1.0 -0.7872793984
O  O24  1  0.11970000  0.78070000  0.97990000  1.0 -0.7872793984
O  O25  1  0.78070000  0.97990000  0.11970000  1.0 -0.7872793984
O  O26  1  0.11970000  0.11970000  0.78070000  1.0 -0.7872793984
O  O27  1  0.97990000  0.78070000  0.11970000  1.0 -0.7872793984
O  O28  1  0.11970000  0.11970000  0.97990000  1.0 -0.7872793984
O  O29  1  0.11970000  0.78070000  0.11970000  1.0 -0.7872793984
O  O30  1  0.97990000  0.11970000  0.78070000  1.0 -0.7872793984
O  O31  1  0.11970000  0.97990000  0.11970000  1.0 -0.7872793984
O  O32  1  0.78070000  0.11970000  0.97990000  1.0 -0.7872793984
O  O33  1  0.00000000  0.72140000  0.27860000  1.0 -0.5035530912
O  O34  1  0.72140000  0.00000000  0.00000000  1.0 -0.506823134
O  O35  1  0.27860000  0.00000000  0.00000000  1.0 -0.5035530912
O  O36  1  0.00000000  0.27860000  0.72140000  1.0 -0.5035530912
O  O37  1  0.27860000  0.00000000  0.72140000  1.0 -0.5035530912
O  O38  1  0.00000000  0.72140000  0.00000000  1.0 -0.5035530912
O  O39  1  0.00000000  0.27860000  0.00000000  1.0 -0.5035530912
O  O40  1  0.72140000  0.00000000  0.27860000  1.0 -0.5035530912
O  O41  1  0.72140000  0.27860000  0.00000000  1.0 -0.5035530912
O  O42  1  0.00000000  0.00000000  0.72140000  1.0 -0.506823134
O  O43  1  0.00000000  0.00000000  0.27860000  1.0 -0.506823134
O  O44  1  0.27860000  0.72140000  0.00000000  1.0 -0.5035530912
O  O45  1  0.18660000  0.50000000  0.81340000  1.0 -0.1391807471
O  O46  1  0.50000000  0.18660000  0.50000000  1.0 -0.1391807471
O  O47  1  0.81340000  0.50000000  0.18660000  1.0 -0.1391807471
O  O48  1  0.50000000  0.81340000  0.50000000  1.0 -0.1469570932
O  O49  1  0.81340000  0.18660000  0.50000000  1.0 -0.1469570932
O  O50  1  0.50000000  0.50000000  0.18660000  1.0 -0.1348182943
O  O51  1  0.18660000  0.81340000  0.50000000  1.0 -0.1391807471
O  O52  1  0.50000000  0.50000000  0.81340000  1.0 -0.1391807471
O  O53  1  0.50000000  0.81340000  0.18660000  1.0 -0.1391807471
O  O54  1  0.18660000  0.50000000  0.50000000  1.0 -0.1469570932
O  O55  1  0.50000000  0.18660000  0.81340000  1.0 -0.1391807471
O  O56  1  0.81340000  0.50000000  0.50000000  1.0 -0.1391807471
O  O57  1  0.00725000  0.62641000  0.88721000  1.0 -0.506823134
O  O58  1  0.62641000  0.00725000  0.47913000  1.0 -0.506823134
O  O59  1  0.88721000  0.47913000  0.00725000  1.0 -0.506823134
O  O60  1  0.47913000  0.88721000  0.62641000  1.0 -0.506823134
O  O61  1  0.88721000  0.00725000  0.62641000  1.0 -0.506823134
O  O62  1  0.47913000  0.62641000  0.00725000  1.0 -0.506823134
O  O63  1  0.00725000  0.88721000  0.47913000  1.0 -0.506823134
O  O64  1  0.62641000  0.47913000  0.88721000  1.0 -0.506823134
O  O65  1  0.62641000  0.88721000  0.00725000  1.0 -0.506823134
O  O66  1  0.00725000  0.47913000  0.62641000  1.0 -0.506823134
O  O67  1  0.47913000  0.00725000  0.88721000  1.0 -0.506823134
O  O68  1  0.88721000  0.62641000  0.47913000  1.0 -0.506823134
O  O69  1  0.99275000  0.37359000  0.52087000  1.0 -0.506823134
O  O70  1  0.37359000  0.99275000  0.11279000  1.0 -0.506823134
O  O71  1  0.11279000  0.52087000  0.37359000  1.0 -0.506823134
O  O72  1  0.52087000  0.11279000  0.99275000  1.0 -0.506823134
O  O73  1  0.11279000  0.99275000  0.52087000  1.0 -0.506823134
O  O74  1  0.52087000  0.37359000  0.11279000  1.0 -0.506823134
O  O75  1  0.99275000  0.11279000  0.37359000  1.0 -0.506823134
O  O76  1  0.37359000  0.52087000  0.99275000  1.0 -0.506823134
O  O77  1  0.37359000  0.11279000  0.52087000  1.0 -0.506823134
O  O78  1  0.99275000  0.52087000  0.11279000  1.0 -0.506823134
O  O79  1  0.52087000  0.99275000  0.37359000  1.0 -0.506823134
O  O80  1  0.11279000  0.37359000  0.99275000  1.0 -0.506823134
O  O81  1  0.99275000  0.37359000  0.11279000  1.0 -0.506823134
O  O82  1  0.37359000  0.99275000  0.52087000  1.0 -0.506823134
O  O83  1  0.11279000  0.52087000  0.99275000  1.0 -0.506823134
O  O84  1  0.52087000  0.11279000  0.37359000  1.0 -0.506823134
O  O85  1  0.11279000  0.99275000  0.37359000  1.0 -0.506823134
O  O86  1  0.52087000  0.37359000  0.99275000  1.0 -0.506823134
O  O87  1  0.99275000  0.11279000  0.52087000  1.0 -0.506823134
O  O88  1  0.37359000  0.52087000  0.11279000  1.0 -0.506823134
O  O89  1  0.37359000  0.11279000  0.99275000  1.0 -0.506823134
O  O90  1  0.99275000  0.52087000  0.37359000  1.0 -0.506823134
O  O91  1  0.52087000  0.99275000  0.11279000  1.0 -0.506823134
O  O92  1  0.11279000  0.37359000  0.52087000  1.0 -0.506823134
O  O93  1  0.00725000  0.62641000  0.47913000  1.0 -0.506823134
O  O94  1  0.62641000  0.00725000  0.88721000  1.0 -0.506823134
O  O95  1  0.88721000  0.47913000  0.62641000  1.0 -0.506823134
O  O96  1  0.47913000  0.88721000  0.00725000  1.0 -0.506823134
O  O97  1  0.88721000  0.00725000  0.47913000  1.0 -0.506823134
O  O98  1  0.47913000  0.62641000  0.88721000  1.0 -0.506823134
O  O99  1  0.00725000  0.88721000  0.62641000  1.0 -0.506823134
O  O100  1  0.62641000  0.47913000  0.00725000  1.0 -0.506823134
O  O101  1  0.62641000  0.88721000  0.47913000  1.0 -0.506823134
O  O102  1  0.00725000  0.47913000  0.88721000  1.0 -0.506823134
O  O103  1  0.47913000  0.00725000  0.62641000  1.0 -0.506823134
O  O104  1  0.88721000  0.62641000  0.00725000  1.0 -0.506823134
