# DDEC6 charges by PACMAN v1.1 (https://github.com/mtap-research/PACMAN-charge/)
data_SOSKAP_ASR_pacman
_symmetry_space_group_name_H-M   'P 1'
_cell_length_a   6.82640000
_cell_length_b   6.82640000
_cell_length_c   16.50830000
_cell_angle_alpha   90.00000000
_cell_angle_beta   90.00000000
_cell_angle_gamma   90.00000000
_symmetry_Int_Tables_number   1
_chemical_formula_structural   CuH2C4(SN)2
_chemical_formula_sum   'Cu4 H8 C16 S8 N8'
_cell_volume   769.28243766
_cell_formula_units_Z   4
loop_
 _symmetry_equiv_pos_site_id
 _symmetry_equiv_pos_as_xyz
  1  'x, y, z'
loop_
 _atom_site_type_symbol
 _atom_site_label
 _atom_site_symmetry_multiplicity
 _atom_site_fract_x
 _atom_site_fract_y
 _atom_site_fract_z
 _atom_site_occupancy
 _atom_site_charge
Cu  Cu1  1  0.99997000  0.00008000  0.24997000  1.0 0.5696801736
Cu  Cu2  1  0.00003000  0.99992000  0.75003000  1.0 0.5696801736
Cu  Cu3  1  0.50000000  0.00000000  0.00000000  1.0 0.3184741184
Cu  Cu4  1  0.00000000  0.50000000  0.50000000  1.0 0.3184741184
H  H1  1  0.99907000  0.33250000  0.12571000  1.0 0.1182918034
H  H2  1  0.33380000  0.00023000  0.37478000  1.0 0.1182918034
H  H3  1  0.00080000  0.66700000  0.12516000  1.0 0.1182918034
H  H4  1  0.66594000  0.00063000  0.37479000  1.0 0.1182918034
H  H5  1  0.00093000  0.66750000  0.87429000  1.0 0.1182918034
H  H6  1  0.66620000  0.99977000  0.62522000  1.0 0.1182918034
H  H7  1  0.99920000  0.33300000  0.87484000  1.0 0.1182918034
H  H8  1  0.33406000  0.99937000  0.62521000  1.0 0.1182918034
C  C1  1  0.00070000  0.39510000  0.31501000  1.0 0.1608170822
C  C2  1  0.99980000  0.60550000  0.31463000  1.0 0.1655875637
C  C3  1  0.39470000  0.99990000  0.18536000  1.0 0.1608170822
C  C4  1  0.99960000  0.39950000  0.17477000  1.0 0.0304062112
C  C5  1  0.40020000  0.00020000  0.32560000  1.0 0.0157767197
C  C6  1  0.60520000  0.00030000  0.18570000  1.0 0.1655875637
C  C7  1  0.00020000  0.60030000  0.17429000  1.0 0.0112503108
C  C8  1  0.59950000  0.00030000  0.32560000  1.0 0.0112503108
C  C9  1  0.99930000  0.60490000  0.68499000  1.0 0.1608170822
C  C10  1  0.00020000  0.39450000  0.68537000  1.0 0.1655875637
C  C11  1  0.60530000  0.00010000  0.81464000  1.0 0.1608170822
C  C12  1  0.00040000  0.60050000  0.82523000  1.0 0.0304062112
C  C13  1  0.59980000  0.99980000  0.67440000  1.0 0.0157767197
C  C14  1  0.39480000  0.99970000  0.81430000  1.0 0.1608170822
C  C15  1  0.99980000  0.39970000  0.82571000  1.0 0.0112503108
C  C16  1  0.40050000  0.99970000  0.67440000  1.0 0.0112503108
S  S1  1  0.73597000  0.99996000  0.09643000  1.0 -0.2977491325
S  S2  1  0.26414000  0.99999000  0.09631000  1.0 -0.2977491325
S  S3  1  0.00011000  0.73589000  0.40366000  1.0 -0.2977491325
S  S4  1  0.00000000  0.26414000  0.40362000  1.0 -0.2891212508
S  S5  1  0.26403000  0.00004000  0.90357000  1.0 -0.2977491325
S  S6  1  0.73586000  0.00001000  0.90369000  1.0 -0.2977491325
S  S7  1  0.99989000  0.26411000  0.59634000  1.0 -0.2977491325
S  S8  1  0.00000000  0.73586000  0.59638000  1.0 -0.2891212508
N  N1  1  0.99990000  0.70310000  0.24473000  1.0 -0.2228616469
N  N2  1  0.29600000  0.00020000  0.25558000  1.0 -0.2261685834
N  N3  1  0.70410000  0.99970000  0.25546000  1.0 -0.2261685834
N  N4  1  0.99990000  0.29670000  0.24422000  1.0 -0.2228616469
N  N5  1  0.00010000  0.29690000  0.75527000  1.0 -0.2228616469
N  N6  1  0.70400000  0.99980000  0.74442000  1.0 -0.2261685834
N  N7  1  0.29590000  0.00030000  0.74454000  1.0 -0.2261685834
N  N8  1  0.00010000  0.70330000  0.75578000  1.0 -0.2228616469
