# DDEC6 charges by PACMAN v1.1 (https://github.com/mtap-research/PACMAN-charge/)
data_SOVLEW_FSR_pacman
_symmetry_space_group_name_H-M   'P 1'
_cell_length_a   28.49680000
_cell_length_b   28.49680000
_cell_length_c   28.49680000
_cell_angle_alpha   121.30200000
_cell_angle_beta   121.30200000
_cell_angle_gamma   87.75870000
_symmetry_Int_Tables_number   1
_chemical_formula_structural   Cu6H24C78S20N20O43
_chemical_formula_sum   'Cu24 H96 C312 S80 N80 O172'
_cell_volume   16028.12798251
_cell_formula_units_Z   4
loop_
 _symmetry_equiv_pos_site_id
 _symmetry_equiv_pos_as_xyz
  1  'x, y, z'
loop_
 _atom_site_type_symbol
 _atom_site_label
 _atom_site_symmetry_multiplicity
 _atom_site_fract_x
 _atom_site_fract_y
 _atom_site_fract_z
 _atom_site_occupancy
 _atom_site_charge
Cu  Cu1  1  0.31418000  0.94909000  0.89895000  1.0 0.7871199465
Cu  Cu2  1  0.05014000  0.41523000  0.10105000  1.0 0.7871199465
Cu  Cu3  1  0.94909000  0.05014000  0.63491000  1.0 0.7871199465
Cu  Cu4  1  0.41523000  0.31418000  0.36509000  1.0 0.7871199465
Cu  Cu5  1  0.68582000  0.05091000  0.10105000  1.0 0.7871199465
Cu  Cu6  1  0.94986000  0.58477000  0.89895000  1.0 0.7871199465
Cu  Cu7  1  0.05091000  0.94986000  0.36509000  1.0 0.7871199465
Cu  Cu8  1  0.58477000  0.68582000  0.63491000  1.0 0.7871199465
Cu  Cu9  1  0.63208000  0.09584000  0.72792000  1.0 0.8405529103
Cu  Cu10  1  0.36792000  0.90416000  0.27208000  1.0 0.8405529103
Cu  Cu11  1  0.09584000  0.36792000  0.46376000  1.0 0.8405529103
Cu  Cu12  1  0.90416000  0.63208000  0.53624000  1.0 0.8405529103
Cu  Cu13  1  0.03741000  0.96109000  0.27296000  1.0 0.7763485453
Cu  Cu14  1  0.68813000  0.76445000  0.72704000  1.0 0.7763485453
Cu  Cu15  1  0.96109000  0.68813000  0.92368000  1.0 0.7763485453
Cu  Cu16  1  0.76445000  0.03741000  0.07632000  1.0 0.7763485453
Cu  Cu17  1  0.96259000  0.03891000  0.72704000  1.0 0.7763485453
Cu  Cu18  1  0.31187000  0.23555000  0.27296000  1.0 0.7763485453
Cu  Cu19  1  0.03891000  0.31187000  0.07632000  1.0 0.7763485453
Cu  Cu20  1  0.23555000  0.96259000  0.92368000  1.0 0.7763485453
Cu  Cu21  1  0.27590000  0.92643000  0.20233000  1.0 0.7403196684
Cu  Cu22  1  0.72410000  0.07357000  0.79767000  1.0 0.7403196684
Cu  Cu23  1  0.92643000  0.72410000  0.65053000  1.0 0.7403196684
Cu  Cu24  1  0.07357000  0.27590000  0.34947000  1.0 0.7403196684
H  H1  1  0.86840000  0.98120000  0.19640000  1.0 0.1400189312
H  H2  1  0.78480000  0.67200000  0.80360000  1.0 0.1400189312
H  H3  1  0.98120000  0.78480000  0.11280000  1.0 0.1400189312
H  H4  1  0.67200000  0.86840000  0.88720000  1.0 0.1400189312
H  H5  1  0.13160000  0.01880000  0.80360000  1.0 0.1400189312
H  H6  1  0.21520000  0.32800000  0.19640000  1.0 0.1400189312
H  H7  1  0.01880000  0.21520000  0.88720000  1.0 0.1400189312
H  H8  1  0.32800000  0.13160000  0.11280000  1.0 0.1400189312
H  H9  1  0.74880000  0.99760000  0.23640000  1.0 0.1304520651
H  H10  1  0.76120000  0.51240000  0.76360000  1.0 0.1304520651
H  H11  1  0.99760000  0.76120000  0.24880000  1.0 0.1304520651
H  H12  1  0.51240000  0.74880000  0.75120000  1.0 0.1304520651
H  H13  1  0.25120000  0.00240000  0.76360000  1.0 0.1304520651
H  H14  1  0.23880000  0.48760000  0.23640000  1.0 0.1304520651
H  H15  1  0.00240000  0.23880000  0.75120000  1.0 0.1304520651
H  H16  1  0.48760000  0.25120000  0.24880000  1.0 0.1304520651
H  H17  1  0.42920000  0.91230000  0.03790000  1.0 0.1304520651
H  H18  1  0.87440000  0.39130000  0.96210000  1.0 0.1304520651
H  H19  1  0.91230000  0.87440000  0.48310000  1.0 0.1304520651
H  H20  1  0.39130000  0.42920000  0.51690000  1.0 0.1304520651
H  H21  1  0.57080000  0.08770000  0.96210000  1.0 0.1304520651
H  H22  1  0.12560000  0.60870000  0.03790000  1.0 0.1304520651
H  H23  1  0.08770000  0.12560000  0.51690000  1.0 0.1304520651
H  H24  1  0.60870000  0.57080000  0.48310000  1.0 0.1304520651
H  H25  1  0.29990000  0.91170000  0.06000000  1.0 0.1400189312
H  H26  1  0.85170000  0.23990000  0.94000000  1.0 0.1400189312
H  H27  1  0.91170000  0.85170000  0.61180000  1.0 0.1400189312
H  H28  1  0.23990000  0.29990000  0.38820000  1.0 0.1400189312
H  H29  1  0.70010000  0.08830000  0.94000000  1.0 0.1400189312
H  H30  1  0.14830000  0.76010000  0.06000000  1.0 0.1400189312
H  H31  1  0.08830000  0.14830000  0.38820000  1.0 0.1400189312
H  H32  1  0.76010000  0.70010000  0.61180000  1.0 0.1400189312
H  H33  1  0.88760000  0.95480000  0.33140000  1.0 0.1304520651
H  H34  1  0.62340000  0.55620000  0.66860000  1.0 0.1304520651
H  H35  1  0.95480000  0.62340000  0.06720000  1.0 0.1304520651
H  H36  1  0.55620000  0.88760000  0.93280000  1.0 0.1304520651
H  H37  1  0.11240000  0.04520000  0.66860000  1.0 0.1304520651
H  H38  1  0.37660000  0.44380000  0.33140000  1.0 0.1304520651
H  H39  1  0.04520000  0.37660000  0.93280000  1.0 0.1304520651
H  H40  1  0.44380000  0.11240000  0.06720000  1.0 0.1304520651
H  H41  1  0.76410000  0.01720000  0.52350000  1.0 0.1400189312
H  H42  1  0.49370000  0.24060000  0.47650000  1.0 0.1400189312
H  H43  1  0.01720000  0.49370000  0.25310000  1.0 0.1400189312
H  H44  1  0.24060000  0.76410000  0.74690000  1.0 0.1400189312
H  H45  1  0.23590000  0.98280000  0.47650000  1.0 0.1400189312
H  H46  1  0.50630000  0.75940000  0.52350000  1.0 0.1400189312
H  H47  1  0.98280000  0.50630000  0.74690000  1.0 0.1400189312
H  H48  1  0.75940000  0.23590000  0.25310000  1.0 0.1400189312
H  H49  1  0.80270000  0.05870000  0.70140000  1.0 0.1400189312
H  H50  1  0.35730000  0.10130000  0.29860000  1.0 0.1400189312
H  H51  1  0.05870000  0.35730000  0.25600000  1.0 0.1400189312
H  H52  1  0.10130000  0.80270000  0.74400000  1.0 0.1400189312
H  H53  1  0.19730000  0.94130000  0.29860000  1.0 0.1400189312
H  H54  1  0.64270000  0.89870000  0.70140000  1.0 0.1400189312
H  H55  1  0.94130000  0.64270000  0.74400000  1.0 0.1400189312
H  H56  1  0.89870000  0.19730000  0.25600000  1.0 0.1400189312
H  H57  1  0.64030000  0.03540000  0.55690000  1.0 0.1304520651
H  H58  1  0.47850000  0.08340000  0.44310000  1.0 0.1304520651
H  H59  1  0.03540000  0.47850000  0.39510000  1.0 0.1304520651
H  H60  1  0.08340000  0.64030000  0.60490000  1.0 0.1304520651
H  H61  1  0.35970000  0.96460000  0.44310000  1.0 0.1304520651
H  H62  1  0.52150000  0.91660000  0.55690000  1.0 0.1304520651
H  H63  1  0.96460000  0.52150000  0.60490000  1.0 0.1304520651
H  H64  1  0.91660000  0.35970000  0.39510000  1.0 0.1304520651
H  H65  1  0.61500000  0.00100000  0.45300000  1.0 0.3065981968
H  H66  1  0.54800000  0.16200000  0.54700000  1.0 0.3065981968
H  H67  1  0.00100000  0.54800000  0.38600000  1.0 0.3065981968
H  H68  1  0.16200000  0.61500000  0.61400000  1.0 0.3065981968
H  H69  1  0.38500000  0.99900000  0.54700000  1.0 0.3065981968
H  H70  1  0.45200000  0.83800000  0.45300000  1.0 0.3065981968
H  H71  1  0.99900000  0.45200000  0.61400000  1.0 0.3065981968
H  H72  1  0.83800000  0.38500000  0.38600000  1.0 0.3065981968
H  H73  1  0.50880000  0.88870000  0.09650000  1.0 0.3065981968
H  H74  1  0.79220000  0.41230000  0.90350000  1.0 0.3065981968
H  H75  1  0.88870000  0.79220000  0.37990000  1.0 0.3065981968
H  H76  1  0.41230000  0.50880000  0.62010000  1.0 0.3065981968
H  H77  1  0.49120000  0.11130000  0.90350000  1.0 0.3065981968
H  H78  1  0.20780000  0.58770000  0.09650000  1.0 0.3065981968
H  H79  1  0.11130000  0.20780000  0.62010000  1.0 0.3065981968
H  H80  1  0.58770000  0.49120000  0.37990000  1.0 0.3065981968
H  H81  1  0.44940000  0.89340000  0.17780000  1.0 0.1304520651
H  H82  1  0.71560000  0.27160000  0.82220000  1.0 0.1304520651
H  H83  1  0.89340000  0.71560000  0.44400000  1.0 0.1304520651
H  H84  1  0.27160000  0.44940000  0.55600000  1.0 0.1304520651
H  H85  1  0.55060000  0.10660000  0.82220000  1.0 0.1304520651
H  H86  1  0.28440000  0.72840000  0.17780000  1.0 0.1304520651
H  H87  1  0.10660000  0.28440000  0.55600000  1.0 0.1304520651
H  H88  1  0.72840000  0.55060000  0.44400000  1.0 0.1304520651
H  H89  1  0.82940000  0.98170000  0.36730000  1.0 0.298899686
H  H90  1  0.61440000  0.46210000  0.63270000  1.0 0.298899686
H  H91  1  0.98170000  0.61440000  0.15230000  1.0 0.298899686
H  H92  1  0.46210000  0.82940000  0.84770000  1.0 0.298899686
H  H93  1  0.17060000  0.01830000  0.63270000  1.0 0.298899686
H  H94  1  0.38560000  0.53790000  0.36730000  1.0 0.298899686
H  H95  1  0.01830000  0.38560000  0.84770000  1.0 0.298899686
H  H96  1  0.53790000  0.17060000  0.15230000  1.0 0.298899686
C  C1  1  0.85363000  0.04206000  0.64069000  1.0 0.578727581
C  C2  1  0.40137000  0.21294000  0.35931000  1.0 0.578727581
C  C3  1  0.04206000  0.40137000  0.18843000  1.0 0.578727581
C  C4  1  0.21294000  0.85363000  0.81157000  1.0 0.578727581
C  C5  1  0.14637000  0.95794000  0.35931000  1.0 0.578727581
C  C6  1  0.59863000  0.78706000  0.64069000  1.0 0.578727581
C  C7  1  0.95794000  0.59863000  0.81157000  1.0 0.578727581
C  C8  1  0.78706000  0.14637000  0.18843000  1.0 0.578727581
C  C9  1  0.85499000  0.98029000  0.22038000  1.0 -0.1015682561
C  C10  1  0.75991000  0.63461000  0.77962000  1.0 -0.1015682561
C  C11  1  0.98029000  0.75991000  0.12530000  1.0 -0.1015682561
C  C12  1  0.63461000  0.85499000  0.87470000  1.0 -0.1089961914
C  C13  1  0.14501000  0.01971000  0.77962000  1.0 -0.1089961914
C  C14  1  0.24009000  0.36539000  0.22038000  1.0 -0.1015682561
C  C15  1  0.01971000  0.24009000  0.87470000  1.0 -0.1089961914
C  C16  1  0.36539000  0.14501000  0.12530000  1.0 -0.1015682561
C  C17  1  0.94367000  0.95853000  0.28216000  1.0 0.578727581
C  C18  1  0.67637000  0.66151000  0.71784000  1.0 0.578727581
C  C19  1  0.95853000  0.67637000  0.01486000  1.0 0.578727581
C  C20  1  0.66151000  0.94367000  0.98514000  1.0 0.578727581
C  C21  1  0.05633000  0.04147000  0.71784000  1.0 0.578727581
C  C22  1  0.32363000  0.33849000  0.28216000  1.0 0.578727581
C  C23  1  0.04147000  0.32363000  0.98514000  1.0 0.578727581
C  C24  1  0.33849000  0.05633000  0.01486000  1.0 0.578727581
C  C25  1  0.80396000  0.99228000  0.20970000  1.0 0.0078530822
C  C26  1  0.78258000  0.59426000  0.79030000  1.0 0.0078530822
C  C27  1  0.99228000  0.78258000  0.18832000  1.0 0.0078530822
C  C28  1  0.59426000  0.80396000  0.81168000  1.0 0.0078530822
C  C29  1  0.19604000  0.00772000  0.79030000  1.0 0.0078530822
C  C30  1  0.21742000  0.40574000  0.20970000  1.0 0.0078530822
C  C31  1  0.00772000  0.21742000  0.81168000  1.0 0.0078530822
C  C32  1  0.40574000  0.19604000  0.18832000  1.0 0.0078530822
C  C33  1  0.35933000  0.91325000  0.04066000  1.0 0.0185546523
C  C34  1  0.87259000  0.31867000  0.95934000  1.0 0.0185546523
C  C35  1  0.91325000  0.87259000  0.55392000  1.0 0.0185546523
C  C36  1  0.31867000  0.35933000  0.44608000  1.0 0.0185546523
C  C37  1  0.64067000  0.08675000  0.95934000  1.0 0.0185546523
C  C38  1  0.12741000  0.68133000  0.04066000  1.0 0.0185546523
C  C39  1  0.08675000  0.12741000  0.44608000  1.0 0.0185546523
C  C40  1  0.68133000  0.64067000  0.55392000  1.0 0.0185546523
C  C41  1  0.77287000  0.01070000  0.16361000  1.0 0.5863795794
C  C42  1  0.84709000  0.60926000  0.83639000  1.0 0.5863795794
C  C43  1  0.01070000  0.84709000  0.23783000  1.0 0.5863795794
C  C44  1  0.60926000  0.77287000  0.76217000  1.0 0.5863795794
C  C45  1  0.22713000  0.98930000  0.83639000  1.0 0.5863795794
C  C46  1  0.15291000  0.39074000  0.16361000  1.0 0.5863795794
C  C47  1  0.98930000  0.15291000  0.76217000  1.0 0.5863795794
C  C48  1  0.39074000  0.22713000  0.23783000  1.0 0.5863795794
C  C49  1  0.88626000  0.96691000  0.26627000  1.0 0.0078530822
C  C50  1  0.70064000  0.61999000  0.73373000  1.0 0.0078530822
C  C51  1  0.96691000  0.70064000  0.08065000  1.0 0.0078530822
C  C52  1  0.61999000  0.88626000  0.91935000  1.0 0.0078530822
C  C53  1  0.11374000  0.03309000  0.73373000  1.0 0.0078530822
C  C54  1  0.29936000  0.38001000  0.26627000  1.0 0.0078530822
C  C55  1  0.03309000  0.29936000  0.91935000  1.0 0.0078530822
C  C56  1  0.38001000  0.11374000  0.08065000  1.0 0.0078530822
C  C57  1  0.70261000  0.06459000  0.68288000  1.0 0.5717690314
C  C58  1  0.38171000  0.01973000  0.31712000  1.0 0.578727581
C  C59  1  0.06459000  0.38171000  0.36198000  1.0 0.578727581
C  C60  1  0.01973000  0.70261000  0.63802000  1.0 0.578727581
C  C61  1  0.29739000  0.93541000  0.31712000  1.0 0.578727581
C  C62  1  0.61829000  0.98027000  0.68288000  1.0 0.578727581
C  C63  1  0.93541000  0.61829000  0.63802000  1.0 0.578727581
C  C64  1  0.98027000  0.29739000  0.36198000  1.0 0.578727581
C  C65  1  0.78390000  0.98981000  0.24413000  1.0 -0.1726281139
C  C66  1  0.74568000  0.53977000  0.75587000  1.0 -0.1726281139
C  C67  1  0.98981000  0.74568000  0.20591000  1.0 -0.1726281139
C  C68  1  0.53977000  0.78390000  0.79409000  1.0 -0.1726281139
C  C69  1  0.21610000  0.01019000  0.75587000  1.0 -0.1726281139
C  C70  1  0.25432000  0.46023000  0.24413000  1.0 -0.1726281139
C  C71  1  0.01019000  0.25432000  0.79409000  1.0 -0.1726281139
C  C72  1  0.46023000  0.21610000  0.20591000  1.0 -0.1726281139
C  C73  1  0.41453000  0.90997000  0.06016000  1.0 -0.1984245338
C  C74  1  0.84981000  0.35437000  0.93984000  1.0 -0.1984245338
C  C75  1  0.90997000  0.84981000  0.49544000  1.0 -0.1984245338
C  C76  1  0.35437000  0.41453000  0.50456000  1.0 -0.1984245338
C  C77  1  0.58547000  0.09003000  0.93984000  1.0 -0.1984245338
C  C78  1  0.15019000  0.64563000  0.06016000  1.0 -0.1984245338
C  C79  1  0.09003000  0.15019000  0.50456000  1.0 -0.1984245338
C  C80  1  0.64563000  0.58547000  0.49544000  1.0 -0.1984245338
C  C81  1  0.33765000  0.90955000  0.07300000  1.0 -0.1089961914
C  C82  1  0.83655000  0.26465000  0.92700000  1.0 -0.1089961914
C  C83  1  0.90955000  0.83655000  0.57190000  1.0 -0.1089961914
C  C84  1  0.26465000  0.33765000  0.42810000  1.0 -0.1089961914
C  C85  1  0.66235000  0.09045000  0.92700000  1.0 -0.1089961914
C  C86  1  0.16345000  0.73535000  0.07300000  1.0 -0.1089961914
C  C87  1  0.09045000  0.16345000  0.42810000  1.0 -0.1089961914
C  C88  1  0.73535000  0.66235000  0.57190000  1.0 -0.1089961914
C  C89  1  0.79206000  0.03956000  0.61630000  1.0 0.0078530822
C  C90  1  0.42326000  0.17576000  0.38370000  1.0 0.0078530822
C  C91  1  0.03956000  0.42326000  0.24750000  1.0 0.0078530822
C  C92  1  0.17576000  0.79206000  0.75250000  1.0 0.0078530822
C  C93  1  0.20794000  0.96044000  0.38370000  1.0 0.0078530822
C  C94  1  0.57674000  0.82424000  0.61630000  1.0 0.0078530822
C  C95  1  0.96044000  0.57674000  0.75250000  1.0 0.0078530822
C  C96  1  0.82424000  0.20794000  0.24750000  1.0 0.0078530822
C  C97  1  0.86630000  0.96440000  0.30044000  1.0 -0.186691244
C  C98  1  0.66396000  0.56586000  0.69956000  1.0 -0.186691244
C  C99  1  0.96440000  0.66396000  0.09810000  1.0 -0.186691244
C  C100  1  0.56586000  0.86630000  0.90190000  1.0 -0.186691244
C  C101  1  0.13370000  0.03560000  0.69956000  1.0 -0.186691244
C  C102  1  0.33604000  0.43414000  0.30044000  1.0 -0.186691244
C  C103  1  0.03560000  0.33604000  0.90190000  1.0 -0.186691244
C  C104  1  0.43414000  0.13370000  0.09810000  1.0 -0.186691244
C  C105  1  0.75232000  0.02494000  0.55182000  1.0 -0.1726281139
C  C106  1  0.47312000  0.20050000  0.44818000  1.0 -0.1726281139
C  C107  1  0.02494000  0.47312000  0.27262000  1.0 -0.1726281139
C  C108  1  0.20050000  0.75232000  0.72738000  1.0 -0.1726281139
C  C109  1  0.24768000  0.97506000  0.44818000  1.0 -0.1726281139
C  C110  1  0.52688000  0.79950000  0.55182000  1.0 -0.1726281139
C  C111  1  0.97506000  0.52688000  0.72738000  1.0 -0.1726281139
C  C112  1  0.79950000  0.24768000  0.27262000  1.0 -0.1726281139
C  C113  1  0.69528000  0.02161000  0.52875000  1.0 0.2301463328
C  C114  1  0.49286000  0.16653000  0.47125000  1.0 0.2301463328
C  C115  1  0.02161000  0.49286000  0.32633000  1.0 0.2301463328
C  C116  1  0.16653000  0.69528000  0.67367000  1.0 0.2301463328
C  C117  1  0.30472000  0.97839000  0.47125000  1.0 0.2301463328
C  C118  1  0.50714000  0.83347000  0.52875000  1.0 0.2301463328
C  C119  1  0.97839000  0.50714000  0.67367000  1.0 0.2301463328
C  C120  1  0.83347000  0.30472000  0.32633000  1.0 0.2301463328
C  C121  1  0.37171000  0.90267000  0.12438000  1.0 0.0185546523
C  C122  1  0.77829000  0.24733000  0.87562000  1.0 0.0185546523
C  C123  1  0.90267000  0.77829000  0.53096000  1.0 0.0185546523
C  C124  1  0.24733000  0.37171000  0.46904000  1.0 0.0185546523
C  C125  1  0.62829000  0.09733000  0.87562000  1.0 0.0185546523
C  C126  1  0.22171000  0.75267000  0.12438000  1.0 0.0185546523
C  C127  1  0.09733000  0.22171000  0.46904000  1.0 0.0185546523
C  C128  1  0.75267000  0.62829000  0.53096000  1.0 0.0185546523
C  C129  1  0.77568000  0.05084000  0.65818000  1.0 -0.1089961914
C  C130  1  0.39266000  0.11750000  0.34182000  1.0 -0.1089961914
C  C131  1  0.05084000  0.39266000  0.27516000  1.0 -0.1089961914
C  C132  1  0.11750000  0.77568000  0.72484000  1.0 -0.1089961914
C  C133  1  0.22432000  0.94916000  0.34182000  1.0 -0.1089961914
C  C134  1  0.60734000  0.88250000  0.65818000  1.0 -0.1015682561
C  C135  1  0.94916000  0.60734000  0.72484000  1.0 -0.1089961914
C  C136  1  0.88250000  0.22432000  0.27516000  1.0 -0.1089961914
C  C137  1  0.34969000  0.90235000  0.16204000  1.0 0.578727581
C  C138  1  0.74031000  0.18765000  0.83796000  1.0 0.578727581
C  C139  1  0.90235000  0.74031000  0.55266000  1.0 0.578727581
C  C140  1  0.18765000  0.34969000  0.44734000  1.0 0.578727581
C  C141  1  0.65031000  0.09765000  0.83796000  1.0 0.578727581
C  C142  1  0.25969000  0.81235000  0.16204000  1.0 0.578727581
C  C143  1  0.09765000  0.25969000  0.44734000  1.0 0.578727581
C  C144  1  0.81235000  0.65031000  0.55266000  1.0 0.578727581
C  C145  1  0.71959000  0.05049000  0.63638000  1.0 0.0078530822
C  C146  1  0.41411000  0.08321000  0.36362000  1.0 0.0039258312
C  C147  1  0.05049000  0.41411000  0.33090000  1.0 0.0078530822
C  C148  1  0.08321000  0.71959000  0.66910000  1.0 0.0078530822
C  C149  1  0.28041000  0.94951000  0.36362000  1.0 0.0078530822
C  C150  1  0.58589000  0.91679000  0.63638000  1.0 0.0078530822
C  C151  1  0.94951000  0.58589000  0.66910000  1.0 0.0078530822
C  C152  1  0.91679000  0.28041000  0.33090000  1.0 0.0039258312
C  C153  1  0.67898000  0.03580000  0.57174000  1.0 -0.2161801205
C  C154  1  0.46406000  0.10724000  0.42826000  1.0 -0.2161801205
C  C155  1  0.03580000  0.46406000  0.35682000  1.0 -0.2161801205
C  C156  1  0.10724000  0.67898000  0.64318000  1.0 -0.2161801205
C  C157  1  0.32102000  0.96420000  0.42826000  1.0 -0.2161801205
C  C158  1  0.53594000  0.89276000  0.57174000  1.0 -0.2161801205
C  C159  1  0.96420000  0.53594000  0.64318000  1.0 -0.2161801205
C  C160  1  0.89276000  0.32102000  0.35682000  1.0 -0.2161801205
C  C161  1  0.55366000  0.92295000  0.19071000  1.0 0.5266514214
C  C162  1  0.73224000  0.36295000  0.80929000  1.0 0.5266514214
C  C163  1  0.92295000  0.73224000  0.36929000  1.0 0.5266514214
C  C164  1  0.36295000  0.55366000  0.63071000  1.0 0.5266514214
C  C165  1  0.44634000  0.07705000  0.80929000  1.0 0.5266514214
C  C166  1  0.26776000  0.63705000  0.19071000  1.0 0.5266514214
C  C167  1  0.07705000  0.26776000  0.63071000  1.0 0.5266514214
C  C168  1  0.63705000  0.44634000  0.36929000  1.0 0.5266514214
C  C169  1  0.44847000  0.90335000  0.11138000  1.0 0.2197215223
C  C170  1  0.79197000  0.33709000  0.88862000  1.0 0.2197215223
C  C171  1  0.90335000  0.79197000  0.45488000  1.0 0.2197215223
C  C172  1  0.33709000  0.44847000  0.54512000  1.0 0.2197215223
C  C173  1  0.55153000  0.09665000  0.88862000  1.0 0.2197215223
C  C174  1  0.20803000  0.66291000  0.11138000  1.0 0.2197215223
C  C175  1  0.09665000  0.20803000  0.54512000  1.0 0.2197215223
C  C176  1  0.66291000  0.55153000  0.45488000  1.0 0.2197215223
C  C177  1  0.65177000  0.94564000  0.25173000  1.0 0.5198597054
C  C178  1  0.69391000  0.40004000  0.74827000  1.0 0.5198597054
C  C179  1  0.94564000  0.69391000  0.29387000  1.0 0.5198597054
C  C180  1  0.40004000  0.65177000  0.70613000  1.0 0.5198597054
C  C181  1  0.34823000  0.05436000  0.74827000  1.0 0.5198597054
C  C182  1  0.30609000  0.59996000  0.25173000  1.0 0.5198597054
C  C183  1  0.05436000  0.30609000  0.70613000  1.0 0.5198597054
C  C184  1  0.59996000  0.34823000  0.29387000  1.0 0.5198597054
C  C185  1  0.42670000  0.89894000  0.14326000  1.0 -0.1771786073
C  C186  1  0.75568000  0.28344000  0.85674000  1.0 -0.1771786073
C  C187  1  0.89894000  0.75568000  0.47224000  1.0 -0.1771786073
C  C188  1  0.28344000  0.42670000  0.52776000  1.0 -0.1771786073
C  C189  1  0.57330000  0.10106000  0.85674000  1.0 -0.1771786073
C  C190  1  0.24432000  0.71656000  0.14326000  1.0 -0.1771786073
C  C191  1  0.10106000  0.24432000  0.52776000  1.0 -0.1771786073
C  C192  1  0.71656000  0.57330000  0.47224000  1.0 -0.1771786073
C  C193  1  0.59952000  0.95535000  0.29997000  1.0 0.5198597054
C  C194  1  0.65538000  0.29955000  0.70003000  1.0 0.5198597054
C  C195  1  0.95535000  0.65538000  0.35583000  1.0 0.5198597054
C  C196  1  0.29955000  0.59952000  0.64417000  1.0 0.5198597054
C  C197  1  0.40048000  0.04465000  0.70003000  1.0 0.5198597054
C  C198  1  0.34462000  0.70045000  0.29997000  1.0 0.5198597054
C  C199  1  0.04465000  0.34462000  0.64417000  1.0 0.5198597054
C  C200  1  0.70045000  0.40048000  0.35583000  1.0 0.5266514214
C  C201  1  0.81497000  0.97601000  0.28930000  1.0 0.2197215223
C  C202  1  0.68671000  0.52567000  0.71070000  1.0 0.2197215223
C  C203  1  0.97601000  0.68671000  0.16104000  1.0 0.2197215223
C  C204  1  0.52567000  0.81497000  0.83896000  1.0 0.2197215223
C  C205  1  0.18503000  0.02399000  0.71070000  1.0 0.2197215223
C  C206  1  0.31329000  0.47433000  0.28930000  1.0 0.2197215223
C  C207  1  0.02399000  0.31329000  0.83896000  1.0 0.2197215223
C  C208  1  0.47433000  0.18503000  0.16104000  1.0 0.2197215223
C  C209  1  0.32545000  0.92524000  0.98875000  1.0 0.5717690314
C  C210  1  0.93649000  0.33670000  0.01125000  1.0 0.5717690314
C  C211  1  0.92524000  0.93649000  0.59979000  1.0 0.5717690314
C  C212  1  0.33670000  0.32545000  0.40021000  1.0 0.5717690314
C  C213  1  0.67455000  0.07476000  0.01125000  1.0 0.5717690314
C  C214  1  0.06351000  0.66330000  0.98875000  1.0 0.5717690314
C  C215  1  0.07476000  0.06351000  0.40021000  1.0 0.5717690314
C  C216  1  0.66330000  0.67455000  0.59979000  1.0 0.5717690314
C  C217  1  0.65253000  0.98943000  0.41070000  1.0 0.5383112199
C  C218  1  0.57873000  0.24183000  0.58930000  1.0 0.5383112199
C  C219  1  0.98943000  0.57873000  0.33690000  1.0 0.5383112199
C  C220  1  0.24183000  0.65253000  0.66310000  1.0 0.5383112199
C  C221  1  0.34747000  0.01057000  0.58930000  1.0 0.5383112199
C  C222  1  0.42127000  0.75817000  0.41070000  1.0 0.5383112199
C  C223  1  0.01057000  0.42127000  0.66310000  1.0 0.5383112199
C  C224  1  0.75817000  0.34747000  0.33690000  1.0 0.5383112199
C  C225  1  0.70345000  0.97994000  0.36811000  1.0 0.5198597054
C  C226  1  0.61183000  0.33534000  0.63189000  1.0 0.5198597054
C  C227  1  0.97994000  0.61183000  0.27649000  1.0 0.5198597054
C  C228  1  0.33534000  0.70345000  0.72351000  1.0 0.5198597054
C  C229  1  0.29655000  0.02006000  0.63189000  1.0 0.5198597054
C  C230  1  0.38817000  0.66466000  0.36811000  1.0 0.5198597054
C  C231  1  0.02006000  0.38817000  0.72351000  1.0 0.5198597054
C  C232  1  0.66466000  0.29655000  0.27649000  1.0 0.5198597054
C  C233  1  0.74891000  0.97053000  0.31938000  1.0 0.5198597054
C  C234  1  0.65115000  0.42953000  0.68062000  1.0 0.5198597054
C  C235  1  0.97053000  0.65115000  0.22162000  1.0 0.5198597054
C  C236  1  0.42953000  0.74891000  0.77838000  1.0 0.5198597054
C  C237  1  0.25109000  0.02947000  0.68062000  1.0 0.5198597054
C  C238  1  0.34885000  0.57047000  0.31938000  1.0 0.5198597054
C  C239  1  0.02947000  0.34885000  0.77838000  1.0 0.5198597054
C  C240  1  0.57047000  0.25109000  0.22162000  1.0 0.5198597054
C  C241  1  0.31670000  0.86040000  0.74690000  1.0 -0.1174082932
C  C242  1  0.11350000  0.56980000  0.25310000  1.0 -0.1174082932
C  C243  1  0.86040000  0.11350000  0.54370000  1.0 -0.1089961914
C  C244  1  0.56980000  0.31670000  0.45630000  1.0 -0.1089961914
C  C245  1  0.68330000  0.13960000  0.25310000  1.0 -0.1089961914
C  C246  1  0.88650000  0.43020000  0.74690000  1.0 -0.1174082932
C  C247  1  0.13960000  0.88650000  0.45630000  1.0 -0.1174082932
C  C248  1  0.43020000  0.68330000  0.54370000  1.0 -0.1174082932
C  C249  1  0.58110000  0.22470000  0.73900000  1.0 -0.1089961914
C  C250  1  0.48570000  0.84210000  0.26100000  1.0 -0.1089961914
C  C251  1  0.22470000  0.48570000  0.64360000  1.0 -0.1089961914
C  C252  1  0.84210000  0.58110000  0.35640000  1.0 -0.1174082932
C  C253  1  0.41890000  0.77530000  0.26100000  1.0 -0.1174082932
C  C254  1  0.51430000  0.15790000  0.73900000  1.0 -0.1089961914
C  C255  1  0.77530000  0.51430000  0.35640000  1.0 -0.1174082932
C  C256  1  0.15790000  0.41890000  0.64360000  1.0 -0.1089961914
C  C257  1  0.38510000  0.96940000  0.82050000  1.0 -0.1280414405
C  C258  1  0.14890000  0.56460000  0.17950000  1.0 -0.1280414405
C  C259  1  0.96940000  0.14890000  0.58430000  1.0 -0.1280414405
C  C260  1  0.56460000  0.38510000  0.41570000  1.0 -0.1280414405
C  C261  1  0.61490000  0.03060000  0.17950000  1.0 -0.1280414405
C  C262  1  0.85110000  0.43540000  0.82050000  1.0 -0.1280414405
C  C263  1  0.03060000  0.85110000  0.41570000  1.0 -0.1280414405
C  C264  1  0.43540000  0.61490000  0.58430000  1.0 -0.1280414405
C  C265  1  0.57070000  0.21780000  0.70790000  1.0 -0.1089961914
C  C266  1  0.50990000  0.86280000  0.29210000  1.0 -0.1089961914
C  C267  1  0.21780000  0.50990000  0.64710000  1.0 -0.1089961914
C  C268  1  0.86280000  0.57070000  0.35290000  1.0 -0.1089961914
C  C269  1  0.42930000  0.78220000  0.29210000  1.0 -0.1089961914
C  C270  1  0.49010000  0.13720000  0.70790000  1.0 -0.1089961914
C  C271  1  0.78220000  0.49010000  0.35290000  1.0 -0.1089961914
C  C272  1  0.13720000  0.42930000  0.64710000  1.0 -0.1089961914
C  C273  1  0.42450000  0.93730000  0.83020000  1.0 -0.1609763539
C  C274  1  0.10710000  0.59430000  0.16980000  1.0 -0.1609763539
C  C275  1  0.93730000  0.10710000  0.51280000  1.0 -0.1609763539
C  C276  1  0.59430000  0.42450000  0.48720000  1.0 -0.1609763539
C  C277  1  0.57550000  0.06270000  0.16980000  1.0 -0.1609763539
C  C278  1  0.89290000  0.40570000  0.83020000  1.0 -0.1609763539
C  C279  1  0.06270000  0.89290000  0.48720000  1.0 -0.1609763539
C  C280  1  0.40570000  0.57550000  0.51280000  1.0 -0.1609763539
C  C281  1  0.45850000  0.98100000  0.88350000  1.0 -0.0789688925
C  C282  1  0.09750000  0.57500000  0.11650000  1.0 -0.0789688925
C  C283  1  0.98100000  0.09750000  0.52250000  1.0 -0.0789688925
C  C284  1  0.57500000  0.45850000  0.47750000  1.0 -0.0789688925
C  C285  1  0.54150000  0.01900000  0.11650000  1.0 -0.0789688925
C  C286  1  0.90250000  0.42500000  0.88350000  1.0 -0.0789688925
C  C287  1  0.01900000  0.90250000  0.47750000  1.0 -0.0789688925
C  C288  1  0.42500000  0.54150000  0.52250000  1.0 -0.0789688925
C  C289  1  0.47250000  0.97120000  0.98610000  1.0 0.162108644
C  C290  1  0.98510000  0.48640000  0.01390000  1.0 0.1701709092
C  C291  1  0.97120000  0.98510000  0.49870000  1.0 0.1701709092
C  C292  1  0.48640000  0.47250000  0.50130000  1.0 0.162108644
C  C293  1  0.52750000  0.02880000  0.01390000  1.0 0.1701709092
C  C294  1  0.01490000  0.51360000  0.98610000  1.0 0.162108644
C  C295  1  0.02880000  0.01490000  0.50130000  1.0 0.1701709092
C  C296  1  0.51360000  0.52750000  0.49870000  1.0 0.1701709092
C  C297  1  0.30490000  0.04640000  0.14770000  1.0 -0.0682863937
C  C298  1  0.89870000  0.15720000  0.85230000  1.0 -0.0682863937
C  C299  1  0.04640000  0.89870000  0.74150000  1.0 -0.0682863937
C  C300  1  0.15720000  0.30490000  0.25850000  1.0 -0.0682863937
C  C301  1  0.69510000  0.95360000  0.85230000  1.0 -0.0682863937
C  C302  1  0.10130000  0.84280000  0.14770000  1.0 -0.0682863937
C  C303  1  0.95360000  0.10130000  0.25850000  1.0 -0.0682863937
C  C304  1  0.84280000  0.69510000  0.74150000  1.0 -0.0789688925
C  C305  1  0.19810000  0.95920000  0.05070000  1.0 -0.1609763539
C  C306  1  0.90850000  0.14740000  0.94930000  1.0 -0.1609763539
C  C307  1  0.95920000  0.90850000  0.76110000  1.0 -0.1609763539
C  C308  1  0.14740000  0.19810000  0.23890000  1.0 -0.1609763539
C  C309  1  0.80190000  0.04080000  0.94930000  1.0 -0.1609763539
C  C310  1  0.09150000  0.85260000  0.05070000  1.0 -0.1609763539
C  C311  1  0.04080000  0.09150000  0.23890000  1.0 -0.1609763539
C  C312  1  0.85260000  0.80190000  0.76110000  1.0 -0.1609763539
S  S1  1  0.52736000  0.15662000  0.68398000  1.0 0.1246876857
S  S2  1  0.47264000  0.84338000  0.31602000  1.0 0.1304520651
S  S3  1  0.15662000  0.47264000  0.62926000  1.0 0.1304520651
S  S4  1  0.84338000  0.52736000  0.37074000  1.0 0.1304520651
S  S5  1  0.38120000  0.91056000  0.82196000  1.0 0.0813197191
S  S6  1  0.08860000  0.55924000  0.17804000  1.0 0.0813197191
S  S7  1  0.91056000  0.08860000  0.52936000  1.0 0.0813197191
S  S8  1  0.55924000  0.38120000  0.47064000  1.0 0.0813197191
S  S9  1  0.61880000  0.08944000  0.17804000  1.0 0.0813197191
S  S10  1  0.91140000  0.44076000  0.82196000  1.0 0.0813197191
S  S11  1  0.08944000  0.91140000  0.47064000  1.0 0.0813197191
S  S12  1  0.44076000  0.61880000  0.52936000  1.0 0.0813197191
S  S13  1  0.36070000  0.93530000  0.81620000  1.0 0.0998589003
S  S14  1  0.11910000  0.54450000  0.18380000  1.0 0.0998589003
S  S15  1  0.93530000  0.11910000  0.57460000  1.0 0.0998589003
S  S16  1  0.54450000  0.36070000  0.42540000  1.0 0.0998589003
S  S17  1  0.63930000  0.06470000  0.18380000  1.0 0.0998589003
S  S18  1  0.88090000  0.45550000  0.81620000  1.0 0.0998589003
S  S19  1  0.06470000  0.88090000  0.42540000  1.0 0.0998589003
S  S20  1  0.45550000  0.63930000  0.57460000  1.0 0.0998589003
S  S21  1  0.55130000  0.17110000  0.72240000  1.0 0.0998589003
S  S22  1  0.44870000  0.82890000  0.27760000  1.0 0.0998589003
S  S23  1  0.17110000  0.44870000  0.61980000  1.0 0.0998589003
S  S24  1  0.82890000  0.55130000  0.38020000  1.0 0.0998589003
S  S25  1  0.20700000  0.03000000  0.09920000  1.0 0.0813197191
S  S26  1  0.93080000  0.10780000  0.90080000  1.0 0.0813197191
S  S27  1  0.03000000  0.93080000  0.82300000  1.0 0.0813197191
S  S28  1  0.10780000  0.20700000  0.17700000  1.0 0.0813197191
S  S29  1  0.79300000  0.97000000  0.90080000  1.0 0.0857135928
S  S30  1  0.06920000  0.89220000  0.09920000  1.0 0.0813197191
S  S31  1  0.97000000  0.06920000  0.17700000  1.0 0.0813197191
S  S32  1  0.89220000  0.79300000  0.82300000  1.0 0.0857135928
S  S33  1  0.43650000  0.93710000  0.89680000  1.0 0.2944592825
S  S34  1  0.04030000  0.53970000  0.10320000  1.0 0.298899686
S  S35  1  0.93710000  0.04030000  0.50060000  1.0 0.298899686
S  S36  1  0.53970000  0.43650000  0.49940000  1.0 0.298899686
S  S37  1  0.56350000  0.06290000  0.10320000  1.0 0.298899686
S  S38  1  0.95970000  0.46030000  0.89680000  1.0 0.298899686
S  S39  1  0.06290000  0.95970000  0.49940000  1.0 0.298899686
S  S40  1  0.46030000  0.56350000  0.50060000  1.0 0.298899686
S  S41  1  0.43440000  0.99580000  0.93720000  1.0 0.1889449018
S  S42  1  0.05860000  0.49720000  0.06280000  1.0 0.1963450106
S  S43  1  0.99580000  0.05860000  0.56140000  1.0 0.1889449018
S  S44  1  0.49720000  0.43440000  0.43860000  1.0 0.1889449018
S  S45  1  0.56560000  0.00420000  0.06280000  1.0 0.1963450106
S  S46  1  0.94140000  0.50280000  0.93720000  1.0 0.1889449018
S  S47  1  0.00420000  0.94140000  0.43860000  1.0 0.1889449018
S  S48  1  0.50280000  0.56560000  0.56140000  1.0 0.1963450106
S  S49  1  0.22390000  0.11420000  0.12770000  1.0 0.298899686
S  S50  1  0.98650000  0.09620000  0.87230000  1.0 0.298899686
S  S51  1  0.11420000  0.98650000  0.89030000  1.0 0.298899686
S  S52  1  0.09620000  0.22390000  0.10970000  1.0 0.298899686
S  S53  1  0.77610000  0.88580000  0.87230000  1.0 0.298899686
S  S54  1  0.01350000  0.90380000  0.12770000  1.0 0.298899686
S  S55  1  0.88580000  0.01350000  0.10970000  1.0 0.298899686
S  S56  1  0.90380000  0.77610000  0.89030000  1.0 0.298899686
S  S57  1  0.20790000  0.95550000  0.09220000  1.0 0.0078530822
S  S58  1  0.86330000  0.11570000  0.90780000  1.0 0.0039258312
S  S59  1  0.95550000  0.86330000  0.74760000  1.0 0.0039258312
S  S60  1  0.11570000  0.20790000  0.25240000  1.0 0.0078530822
S  S61  1  0.79210000  0.04450000  0.90780000  1.0 0.0078530822
S  S62  1  0.13670000  0.88430000  0.09220000  1.0 0.0078530822
S  S63  1  0.04450000  0.13670000  0.25240000  1.0 0.0078530822
S  S64  1  0.88430000  0.79210000  0.74760000  1.0 0.0078530822
S  S65  1  0.22320000  0.01370000  0.16450000  1.0 0.1701709092
S  S66  1  0.84920000  0.05870000  0.83550000  1.0 0.1701709092
S  S67  1  0.01370000  0.84920000  0.79050000  1.0 0.1701709092
S  S68  1  0.05870000  0.22320000  0.20950000  1.0 0.1701709092
S  S69  1  0.77680000  0.98630000  0.83550000  1.0 0.1701709092
S  S70  1  0.15080000  0.94130000  0.16450000  1.0 0.1701709092
S  S71  1  0.98630000  0.15080000  0.20950000  1.0 0.1701709092
S  S72  1  0.94130000  0.77680000  0.79050000  1.0 0.1701709092
S  S73  1  0.23455000  0.03355000  0.11300000  1.0 0.1835383616
S  S74  1  0.92055000  0.12155000  0.88700000  1.0 0.1889449018
S  S75  1  0.03355000  0.92055000  0.79900000  1.0 0.1835383616
S  S76  1  0.12155000  0.23455000  0.20100000  1.0 0.1835383616
S  S77  1  0.76545000  0.96645000  0.88700000  1.0 0.1889449018
S  S78  1  0.07945000  0.87845000  0.11300000  1.0 0.1835383616
S  S79  1  0.96645000  0.07945000  0.20100000  1.0 0.1889449018
S  S80  1  0.87845000  0.76545000  0.79900000  1.0 0.1889449018
N  N1  1  0.64979000  0.00343000  0.46196000  1.0 -0.3365956404
N  N2  1  0.54147000  0.18783000  0.53804000  1.0 -0.3365956404
N  N3  1  0.00343000  0.54147000  0.35364000  1.0 -0.3345556864
N  N4  1  0.18783000  0.64979000  0.64636000  1.0 -0.3365956404
N  N5  1  0.35021000  0.99657000  0.53804000  1.0 -0.3365956404
N  N6  1  0.45853000  0.81217000  0.46196000  1.0 -0.3365956404
N  N7  1  0.99657000  0.45853000  0.64636000  1.0 -0.3365956404
N  N8  1  0.81217000  0.35021000  0.35364000  1.0 -0.3345556864
N  N9  1  0.60207000  0.92573000  0.19292000  1.0 -0.4808724513
N  N10  1  0.73281000  0.40915000  0.80708000  1.0 -0.4808724513
N  N11  1  0.92573000  0.73281000  0.32366000  1.0 -0.4808724513
N  N12  1  0.40915000  0.60207000  0.67634000  1.0 -0.4808724513
N  N13  1  0.39793000  0.07427000  0.80708000  1.0 -0.4808724513
N  N14  1  0.26719000  0.59085000  0.19292000  1.0 -0.4808724513
N  N15  1  0.07427000  0.26719000  0.67634000  1.0 -0.4808724513
N  N16  1  0.59085000  0.39793000  0.32366000  1.0 -0.4808724513
N  N17  1  0.50489000  0.90342000  0.12959000  1.0 -0.3086886116
N  N18  1  0.77383000  0.37530000  0.87041000  1.0 -0.3086886116
N  N19  1  0.90342000  0.77383000  0.39853000  1.0 -0.3086886116
N  N20  1  0.37530000  0.50489000  0.60147000  1.0 -0.3086886116
N  N21  1  0.49511000  0.09658000  0.87041000  1.0 -0.3086886116
N  N22  1  0.22617000  0.62470000  0.12959000  1.0 -0.3086886116
N  N23  1  0.09658000  0.22617000  0.60147000  1.0 -0.3086886116
N  N24  1  0.62470000  0.49511000  0.39853000  1.0 -0.3086886116
N  N25  1  0.55037000  0.93630000  0.24079000  1.0 -0.4643147597
N  N26  1  0.69551000  0.30958000  0.75921000  1.0 -0.4643147597
N  N27  1  0.93630000  0.69551000  0.38593000  1.0 -0.4643147597
N  N28  1  0.30958000  0.55037000  0.61407000  1.0 -0.4643147597
N  N29  1  0.44963000  0.06370000  0.75921000  1.0 -0.4643147597
N  N30  1  0.30449000  0.69042000  0.24079000  1.0 -0.4643147597
N  N31  1  0.06370000  0.30449000  0.61407000  1.0 -0.4643147597
N  N32  1  0.69042000  0.44963000  0.38593000  1.0 -0.4697814554
N  N33  1  0.65202000  0.96086000  0.30734000  1.0 -0.2971794346
N  N34  1  0.65352000  0.34468000  0.69266000  1.0 -0.2971794346
N  N35  1  0.96086000  0.65352000  0.30884000  1.0 -0.2971794346
N  N36  1  0.34468000  0.65202000  0.69116000  1.0 -0.2971794346
N  N37  1  0.34798000  0.03914000  0.69266000  1.0 -0.2971794346
N  N38  1  0.34648000  0.65532000  0.30734000  1.0 -0.2971794346
N  N39  1  0.03914000  0.34648000  0.69116000  1.0 -0.2971794346
N  N40  1  0.65532000  0.34798000  0.30884000  1.0 -0.2887328812
N  N41  1  0.60015000  0.97051000  0.35238000  1.0 -0.4808724513
N  N42  1  0.61813000  0.24777000  0.64762000  1.0 -0.4902252228
N  N43  1  0.97051000  0.61813000  0.37036000  1.0 -0.4902252228
N  N44  1  0.24777000  0.60015000  0.62964000  1.0 -0.4808724513
N  N45  1  0.39985000  0.02949000  0.64762000  1.0 -0.4902252228
N  N46  1  0.38187000  0.75223000  0.35238000  1.0 -0.4808724513
N  N47  1  0.02949000  0.38187000  0.62964000  1.0 -0.4808724513
N  N48  1  0.75223000  0.39985000  0.37036000  1.0 -0.4902252228
N  N49  1  0.70143000  0.95253000  0.25930000  1.0 -0.4697814554
N  N50  1  0.69323000  0.44213000  0.74070000  1.0 -0.4697814554
N  N51  1  0.95253000  0.69323000  0.25110000  1.0 -0.4697814554
N  N52  1  0.44213000  0.70143000  0.74890000  1.0 -0.4697814554
N  N53  1  0.29857000  0.04747000  0.74070000  1.0 -0.4697814554
N  N54  1  0.30677000  0.55787000  0.25930000  1.0 -0.4697814554
N  N55  1  0.04747000  0.30677000  0.74890000  1.0 -0.4697814554
N  N56  1  0.55787000  0.29857000  0.25110000  1.0 -0.4697814554
N  N57  1  0.70363000  0.99439000  0.42084000  1.0 -0.4643147597
N  N58  1  0.57355000  0.28279000  0.57916000  1.0 -0.4643147597
N  N59  1  0.99439000  0.57355000  0.29076000  1.0 -0.4697814554
N  N60  1  0.28279000  0.70363000  0.70924000  1.0 -0.4643147597
N  N61  1  0.29637000  0.00561000  0.57916000  1.0 -0.4697814554
N  N62  1  0.42645000  0.71721000  0.42084000  1.0 -0.4643147597
N  N63  1  0.00561000  0.42645000  0.70924000  1.0 -0.4643147597
N  N64  1  0.71721000  0.29637000  0.29076000  1.0 -0.4697814554
N  N65  1  0.75272000  0.98420000  0.37472000  1.0 -0.4697814554
N  N66  1  0.60948000  0.37800000  0.62528000  1.0 -0.4697814554
N  N67  1  0.98420000  0.60948000  0.23148000  1.0 -0.4697814554
N  N68  1  0.37800000  0.75272000  0.76852000  1.0 -0.4697814554
N  N69  1  0.24728000  0.01580000  0.62528000  1.0 -0.4697814554
N  N70  1  0.39052000  0.62200000  0.37472000  1.0 -0.4697814554
N  N71  1  0.01580000  0.39052000  0.76852000  1.0 -0.4697814554
N  N72  1  0.62200000  0.24728000  0.23148000  1.0 -0.4697814554
N  N73  1  0.80052000  0.97657000  0.32975000  1.0 -0.2887328812
N  N74  1  0.64682000  0.47077000  0.67025000  1.0 -0.2887328812
N  N75  1  0.97657000  0.64682000  0.17605000  1.0 -0.2887328812
N  N76  1  0.47077000  0.80052000  0.82395000  1.0 -0.2887328812
N  N77  1  0.19948000  0.02343000  0.67025000  1.0 -0.2887328812
N  N78  1  0.35318000  0.52923000  0.32975000  1.0 -0.2887328812
N  N79  1  0.02343000  0.35318000  0.82395000  1.0 -0.2887328812
N  N80  1  0.52923000  0.19948000  0.17605000  1.0 -0.2887328812
O  O1  1  0.46340000  0.88980000  0.92880000  1.0 -0.501438897
O  O2  1  0.96100000  0.53460000  0.07120000  1.0 -0.5124207007
O  O3  1  0.88980000  0.96100000  0.42640000  1.0 -0.5124207007
O  O4  1  0.53460000  0.46340000  0.57360000  1.0 -0.501438897
O  O5  1  0.53660000  0.11020000  0.07120000  1.0 -0.5124207007
O  O6  1  0.03900000  0.46540000  0.92880000  1.0 -0.501438897
O  O7  1  0.11020000  0.03900000  0.57360000  1.0 -0.501438897
O  O8  1  0.46540000  0.53660000  0.42640000  1.0 -0.5124207007
O  O9  1  0.20630000  0.10140000  0.06190000  1.0 -0.1476718177
O  O10  1  0.03950000  0.14440000  0.93810000  1.0 -0.1476718177
O  O11  1  0.10140000  0.03950000  0.89510000  1.0 -0.1476718177
O  O12  1  0.14440000  0.20630000  0.10490000  1.0 -0.1476718177
O  O13  1  0.79370000  0.89860000  0.93810000  1.0 -0.1476718177
O  O14  1  0.96050000  0.85560000  0.06190000  1.0 -0.1476718177
O  O15  1  0.89860000  0.96050000  0.10490000  1.0 -0.1476718177
O  O16  1  0.85560000  0.79370000  0.89510000  1.0 -0.1476718177
O  O17  1  0.96923000  0.94487000  0.32300000  1.0 -0.5358710694
O  O18  1  0.62187000  0.64623000  0.67700000  1.0 -0.5358710694
O  O19  1  0.94487000  0.62187000  0.97564000  1.0 -0.5358710694
O  O20  1  0.64623000  0.96923000  0.02436000  1.0 -0.5358710694
O  O21  1  0.03077000  0.05513000  0.67700000  1.0 -0.5342957386
O  O22  1  0.37813000  0.35377000  0.32300000  1.0 -0.5358710694
O  O23  1  0.05513000  0.37813000  0.02436000  1.0 -0.5358710694
O  O24  1  0.35377000  0.03077000  0.97564000  1.0 -0.5342957386
O  O25  1  0.27679000  0.93008000  0.97489000  1.0 -0.4808724513
O  O26  1  0.95519000  0.30190000  0.02511000  1.0 -0.4808724513
O  O27  1  0.93008000  0.95519000  0.65329000  1.0 -0.4808724513
O  O28  1  0.30190000  0.27679000  0.34671000  1.0 -0.4808724513
O  O29  1  0.72321000  0.06992000  0.02511000  1.0 -0.4808724513
O  O30  1  0.04481000  0.69810000  0.97489000  1.0 -0.4808724513
O  O31  1  0.06992000  0.04481000  0.34671000  1.0 -0.4808724513
O  O32  1  0.69810000  0.72321000  0.65329000  1.0 -0.4808724513
O  O33  1  0.79093000  0.00680000  0.13053000  1.0 -0.5124207007
O  O34  1  0.87627000  0.66040000  0.86947000  1.0 -0.5124207007
O  O35  1  0.00680000  0.87627000  0.21587000  1.0 -0.5124207007
O  O36  1  0.66040000  0.79093000  0.78413000  1.0 -0.5151165136
O  O37  1  0.20907000  0.99320000  0.86947000  1.0 -0.5151165136
O  O38  1  0.12373000  0.33960000  0.13053000  1.0 -0.5124207007
O  O39  1  0.99320000  0.12373000  0.78413000  1.0 -0.5151165136
O  O40  1  0.33960000  0.20907000  0.21587000  1.0 -0.5124207007
O  O41  1  0.38122000  0.89443000  0.20693000  1.0 -0.4697814554
O  O42  1  0.68750000  0.17429000  0.79307000  1.0 -0.4808724513
O  O43  1  0.89443000  0.68750000  0.51321000  1.0 -0.4697814554
O  O44  1  0.17429000  0.38122000  0.48679000  1.0 -0.4808724513
O  O45  1  0.61878000  0.10557000  0.79307000  1.0 -0.4808724513
O  O46  1  0.31250000  0.82571000  0.20693000  1.0 -0.4808724513
O  O47  1  0.10557000  0.31250000  0.48679000  1.0 -0.4808724513
O  O48  1  0.82571000  0.61878000  0.51321000  1.0 -0.4697814554
O  O49  1  0.30283000  0.91186000  0.14723000  1.0 -0.4808724513
O  O50  1  0.76463000  0.15560000  0.85277000  1.0 -0.4808724513
O  O51  1  0.91186000  0.76463000  0.60903000  1.0 -0.4808724513
O  O52  1  0.15560000  0.30283000  0.39097000  1.0 -0.4808724513
O  O53  1  0.69717000  0.08814000  0.85277000  1.0 -0.4808724513
O  O54  1  0.23537000  0.84440000  0.14723000  1.0 -0.4808724513
O  O55  1  0.08814000  0.23537000  0.39097000  1.0 -0.4808724513
O  O56  1  0.84440000  0.69717000  0.60903000  1.0 -0.4808724513
O  O57  1  0.86914000  0.04105000  0.60621000  1.0 -0.4902252228
O  O58  1  0.43484000  0.26293000  0.39379000  1.0 -0.501438897
O  O59  1  0.04105000  0.43484000  0.17191000  1.0 -0.501438897
O  O60  1  0.26293000  0.86914000  0.82809000  1.0 -0.4902252228
O  O61  1  0.13086000  0.95895000  0.39379000  1.0 -0.501438897
O  O62  1  0.56516000  0.73707000  0.60621000  1.0 -0.4902252228
O  O63  1  0.95895000  0.56516000  0.82809000  1.0 -0.501438897
O  O64  1  0.73707000  0.13086000  0.17191000  1.0 -0.4902252228
O  O65  1  0.73124000  0.02856000  0.16196000  1.0 -0.5124207007
O  O66  1  0.86660000  0.56928000  0.83804000  1.0 -0.5124207007
O  O67  1  0.02856000  0.86660000  0.29732000  1.0 -0.5124207007
O  O68  1  0.56928000  0.73124000  0.70268000  1.0 -0.5124207007
O  O69  1  0.26876000  0.97144000  0.83804000  1.0 -0.5124207007
O  O70  1  0.13340000  0.43072000  0.16196000  1.0 -0.5124207007
O  O71  1  0.97144000  0.13340000  0.70268000  1.0 -0.5124207007
O  O72  1  0.43072000  0.26876000  0.29732000  1.0 -0.5124207007
O  O73  1  0.96188000  0.96661000  0.25471000  1.0 -0.4697814554
O  O74  1  0.71190000  0.70717000  0.74529000  1.0 -0.4697814554
O  O75  1  0.96661000  0.71190000  0.00473000  1.0 -0.4697814554
O  O76  1  0.70717000  0.96188000  0.99527000  1.0 -0.4697814554
O  O77  1  0.03812000  0.03339000  0.74529000  1.0 -0.4697814554
O  O78  1  0.28810000  0.29283000  0.25471000  1.0 -0.4697814554
O  O79  1  0.03339000  0.28810000  0.99527000  1.0 -0.4697814554
O  O80  1  0.29283000  0.03812000  0.00473000  1.0 -0.4697814554
O  O81  1  0.65741000  0.07839000  0.66998000  1.0 -0.4544001751
O  O82  1  0.40841000  0.98743000  0.33002000  1.0 -0.4544001751
O  O83  1  0.07839000  0.40841000  0.42098000  1.0 -0.4544001751
O  O84  1  0.98743000  0.65741000  0.57902000  1.0 -0.4544001751
O  O85  1  0.34259000  0.92161000  0.33002000  1.0 -0.4544001751
O  O86  1  0.59159000  0.01257000  0.66998000  1.0 -0.4544001751
O  O87  1  0.92161000  0.59159000  0.57902000  1.0 -0.4544001751
O  O88  1  0.01257000  0.34259000  0.42098000  1.0 -0.4544001751
O  O89  1  0.37899000  0.93608000  0.88147000  1.0 -0.1389031055
O  O90  1  0.05461000  0.49752000  0.11853000  1.0 -0.1389031055
O  O91  1  0.93608000  0.05461000  0.55709000  1.0 -0.1389031055
O  O92  1  0.49752000  0.37899000  0.44291000  1.0 -0.1389031055
O  O93  1  0.62101000  0.06392000  0.11853000  1.0 -0.1389031055
O  O94  1  0.94539000  0.50248000  0.88147000  1.0 -0.1389031055
O  O95  1  0.06392000  0.94539000  0.44291000  1.0 -0.1389031055
O  O96  1  0.50248000  0.62101000  0.55709000  1.0 -0.1389031055
O  O97  1  0.88464000  0.04408000  0.69352000  1.0 -0.501438897
O  O98  1  0.35056000  0.19112000  0.30648000  1.0 -0.501438897
O  O99  1  0.04408000  0.35056000  0.15944000  1.0 -0.501438897
O  O100  1  0.19112000  0.88464000  0.84056000  1.0 -0.501438897
O  O101  1  0.11536000  0.95592000  0.30648000  1.0 -0.501438897
O  O102  1  0.64944000  0.80888000  0.69352000  1.0 -0.501438897
O  O103  1  0.95592000  0.64944000  0.84056000  1.0 -0.501438897
O  O104  1  0.80888000  0.11536000  0.15944000  1.0 -0.501438897
O  O105  1  0.34929000  0.93002000  0.96423000  1.0 -0.501438897
O  O106  1  0.96579000  0.38506000  0.03577000  1.0 -0.501438897
O  O107  1  0.93002000  0.96579000  0.58073000  1.0 -0.501438897
O  O108  1  0.38506000  0.34929000  0.41927000  1.0 -0.501438897
O  O109  1  0.65071000  0.06998000  0.03577000  1.0 -0.501438897
O  O110  1  0.03421000  0.61494000  0.96423000  1.0 -0.501438897
O  O111  1  0.06998000  0.03421000  0.41927000  1.0 -0.501438897
O  O112  1  0.61494000  0.65071000  0.58073000  1.0 -0.501438897
O  O113  1  0.73585000  0.06192000  0.73133000  1.0 -0.501438897
O  O114  1  0.33059000  0.00452000  0.26867000  1.0 -0.501438897
O  O115  1  0.06192000  0.33059000  0.32607000  1.0 -0.501438897
O  O116  1  0.00452000  0.73585000  0.67393000  1.0 -0.501438897
O  O117  1  0.26415000  0.93808000  0.26867000  1.0 -0.501438897
O  O118  1  0.66941000  0.99548000  0.73133000  1.0 -0.501438897
O  O119  1  0.93808000  0.66941000  0.67393000  1.0 -0.501438897
O  O120  1  0.99548000  0.26415000  0.32607000  1.0 -0.501438897
O  O121  1  0.55775000  0.11273000  0.67048000  1.0 -0.2971794346
O  O122  1  0.44225000  0.88727000  0.32952000  1.0 -0.2971794346
O  O123  1  0.11273000  0.44225000  0.55498000  1.0 -0.2971794346
O  O124  1  0.88727000  0.55775000  0.44502000  1.0 -0.2887328812
O  O125  1  0.21021000  0.95511000  0.14970000  1.0 0.0039258312
O  O126  1  0.80541000  0.06051000  0.85030000  1.0 0.0039258312
O  O127  1  0.95511000  0.80541000  0.74490000  1.0 0.0039258312
O  O128  1  0.06051000  0.21021000  0.25510000  1.0 0.0039258312
O  O129  1  0.78979000  0.04489000  0.85030000  1.0 0.0039258312
O  O130  1  0.19459000  0.93949000  0.14970000  1.0 0.0039258312
O  O131  1  0.04489000  0.19459000  0.25510000  1.0 0.0039258312
O  O132  1  0.93949000  0.78979000  0.74490000  1.0 0.0039258312
O  O133  1  0.01860000  0.95800000  0.18700000  1.0 0.106795135
O  O134  1  0.77100000  0.83160000  0.81300000  1.0 0.106795135
O  O135  1  0.95800000  0.77100000  0.93940000  1.0 0.106795135
O  O136  1  0.83160000  0.01860000  0.06060000  1.0 0.106795135
O  O137  1  0.98140000  0.04200000  0.81300000  1.0 0.106795135
O  O138  1  0.22900000  0.16840000  0.18700000  1.0 0.106795135
O  O139  1  0.04200000  0.22900000  0.06060000  1.0 0.106795135
O  O140  1  0.16840000  0.98140000  0.93940000  1.0 0.106795135
O  O141  1  0.21150000  0.06560000  0.08150000  1.0 -0.1015682561
O  O142  1  0.98410000  0.13000000  0.91850000  1.0 -0.1015682561
O  O143  1  0.06560000  0.98410000  0.85410000  1.0 -0.1015682561
O  O144  1  0.13000000  0.21150000  0.14590000  1.0 -0.1015682561
O  O145  1  0.78850000  0.93440000  0.91850000  1.0 -0.1015682561
O  O146  1  0.01590000  0.87000000  0.08150000  1.0 -0.1015682561
O  O147  1  0.93440000  0.01590000  0.14590000  1.0 -0.094246053
O  O148  1  0.87000000  0.78850000  0.85410000  1.0 -0.1015682561
O  O149  1  0.22480000  0.05630000  0.17050000  1.0 -0.1726281139
O  O150  1  0.88580000  0.05430000  0.82950000  1.0 -0.1726281139
O  O151  1  0.05630000  0.88580000  0.83150000  1.0 -0.1726281139
O  O152  1  0.05430000  0.22480000  0.16850000  1.0 -0.1726281139
O  O153  1  0.77520000  0.94370000  0.82950000  1.0 -0.1726281139
O  O154  1  0.11420000  0.94570000  0.17050000  1.0 -0.1726281139
O  O155  1  0.94370000  0.11420000  0.16850000  1.0 -0.1726281139
O  O156  1  0.94570000  0.77520000  0.83150000  1.0 -0.1771786073
O  O157  1  0.03170000  0.98230000  0.20860000  1.0 0.0813197191
O  O158  1  0.77370000  0.82310000  0.79140000  1.0 0.0857135928
O  O159  1  0.98230000  0.77370000  0.95060000  1.0 0.0813197191
O  O160  1  0.82310000  0.03170000  0.04940000  1.0 0.0813197191
O  O161  1  0.96830000  0.01770000  0.79140000  1.0 0.0857135928
O  O162  1  0.22630000  0.17690000  0.20860000  1.0 0.0857135928
O  O163  1  0.01770000  0.22630000  0.04940000  1.0 0.0813197191
O  O164  1  0.17690000  0.96830000  0.95060000  1.0 0.0813197191
O  O165  1  0.47670000  0.00240000  0.03530000  1.0 -0.1389031055
O  O166  1  0.96710000  0.44140000  0.96470000  1.0 -0.1389031055
O  O167  1  0.00240000  0.96710000  0.52570000  1.0 -0.1389031055
O  O168  1  0.44140000  0.47670000  0.47430000  1.0 -0.1389031055
O  O169  1  0.52330000  0.99760000  0.96470000  1.0 -0.1389031055
O  O170  1  0.03290000  0.55860000  0.03530000  1.0 -0.1389031055
O  O171  1  0.99760000  0.03290000  0.47430000  1.0 -0.1389031055
O  O172  1  0.55860000  0.52330000  0.52570000  1.0 -0.1389031055
