# DDEC6 charges by PACMAN v1.1 (https://github.com/mtap-research/PACMAN-charge/)
data_SOXDAM_FSR_pacman
_symmetry_space_group_name_H-M   'P 1'
_cell_length_a   12.51010000
_cell_length_b   12.51010000
_cell_length_c   10.75350000
_cell_angle_alpha   66.22900000
_cell_angle_beta   113.77100000
_cell_angle_gamma   88.03740000
_symmetry_Int_Tables_number   1
_chemical_formula_structural   Tb2Zn3H40C30(N2O5)6
_chemical_formula_sum   'Tb2 Zn3 H40 C30 N12 O30'
_cell_volume   1370.07910597
_cell_formula_units_Z   1
loop_
 _symmetry_equiv_pos_site_id
 _symmetry_equiv_pos_as_xyz
  1  'x, y, z'
loop_
 _atom_site_type_symbol
 _atom_site_label
 _atom_site_symmetry_multiplicity
 _atom_site_fract_x
 _atom_site_fract_y
 _atom_site_fract_z
 _atom_site_occupancy
 _atom_site_charge
Tb  Tb1  1  0.20908000  0.20908000  0.50000000  1.0 2.0159492979
Tb  Tb2  1  0.79092000  0.79092000  0.50000000  1.0 2.0159492979
Zn  Zn1  1  0.00000000  0.00000000  0.50000000  1.0 0.9797224293
Zn  Zn2  1  0.50000000  0.00000000  0.50000000  1.0 1.0033827314
Zn  Zn3  1  0.00000000  0.50000000  0.50000000  1.0 1.0033827314
H  H1  1  0.18790000  0.90050000  0.74500000  1.0 0.1854027549
H  H2  1  0.90050000  0.18790000  0.25500000  1.0 0.1854027549
H  H3  1  0.81210000  0.09950000  0.25500000  1.0 0.1854027549
H  H4  1  0.09950000  0.81210000  0.74500000  1.0 0.1854027549
H  H5  1  0.78100000  0.01640000  0.75530000  1.0 0.1484409703
H  H6  1  0.01640000  0.78100000  0.24470000  1.0 0.1484409703
H  H7  1  0.21900000  0.98360000  0.24470000  1.0 0.1484409703
H  H8  1  0.98360000  0.21900000  0.75530000  1.0 0.1484409703
H  H9  1  0.74080000  0.13980000  0.61000000  1.0 0.1298646444
H  H10  1  0.13980000  0.74080000  0.39000000  1.0 0.1298646444
H  H11  1  0.25920000  0.86020000  0.39000000  1.0 0.1298646444
H  H12  1  0.86020000  0.25920000  0.61000000  1.0 0.1298646444
H  H13  1  0.28630000  0.11170000  0.00530000  1.0 0.1484409703
H  H14  1  0.11170000  0.28630000  0.99470000  1.0 0.1484409703
H  H15  1  0.71370000  0.88830000  0.99470000  1.0 0.1484409703
H  H16  1  0.88830000  0.71370000  0.00530000  1.0 0.1484409703
H  H17  1  0.41760000  0.05940000  0.04410000  1.0 0.1429466198
H  H18  1  0.05940000  0.41760000  0.95590000  1.0 0.1429466198
H  H19  1  0.58240000  0.94060000  0.95590000  1.0 0.1429466198
H  H20  1  0.94060000  0.58240000  0.04410000  1.0 0.1429466198
H  H21  1  0.40000000  0.76760000  0.21760000  1.0 0.1484409703
H  H22  1  0.76760000  0.40000000  0.78240000  1.0 0.1484409703
H  H23  1  0.60000000  0.23240000  0.78240000  1.0 0.1484409703
H  H24  1  0.23240000  0.60000000  0.21760000  1.0 0.1484409703
H  H25  1  0.47910000  0.83450000  0.14440000  1.0 0.1484409703
H  H26  1  0.83450000  0.47910000  0.85560000  1.0 0.1484409703
H  H27  1  0.52090000  0.16550000  0.85560000  1.0 0.1484409703
H  H28  1  0.16550000  0.52090000  0.14440000  1.0 0.1484409703
H  H29  1  0.52090000  0.81690000  0.73730000  1.0 0.3679142038
H  H30  1  0.81690000  0.52090000  0.26270000  1.0 0.3679142038
H  H31  1  0.47910000  0.18310000  0.26270000  1.0 0.3679142038
H  H32  1  0.18310000  0.47910000  0.73730000  1.0 0.3679142038
H  H33  1  0.51700000  0.77380000  0.63430000  1.0 0.364573572
H  H34  1  0.77380000  0.51700000  0.36570000  1.0 0.364573572
H  H35  1  0.48300000  0.22620000  0.36570000  1.0 0.364573572
H  H36  1  0.22620000  0.48300000  0.63430000  1.0 0.364573572
H  H37  1  0.09900000  0.84520000  0.77100000  1.0 0.100690406
H  H38  1  0.84520000  0.09900000  0.22900000  1.0 0.100690406
H  H39  1  0.90100000  0.15480000  0.22900000  1.0 0.100690406
H  H40  1  0.15480000  0.90100000  0.77100000  1.0 0.100690406
C  C1  1  0.20800000  0.91740000  0.01480000  1.0 0.4635949323
C  C2  1  0.91740000  0.20800000  0.98520000  1.0 0.4635949323
C  C3  1  0.79200000  0.08260000  0.98520000  1.0 0.4635949323
C  C4  1  0.08260000  0.79200000  0.01480000  1.0 0.4635949323
C  C5  1  0.29710000  0.10510000  0.82330000  1.0 0.5906887541
C  C6  1  0.10510000  0.29710000  0.17670000  1.0 0.5906887541
C  C7  1  0.70290000  0.89490000  0.17670000  1.0 0.5906887541
C  C8  1  0.89490000  0.70290000  0.82330000  1.0 0.5906887541
C  C9  1  0.01030000  0.98970000  0.85080000  1.0 0.4704519698
C  C10  1  0.98970000  0.01030000  0.14920000  1.0 0.4704519698
C  C11  1  0.49160000  0.86380000  0.32370000  1.0 0.6530918369
C  C12  1  0.86380000  0.49160000  0.67630000  1.0 0.6530918369
C  C13  1  0.50840000  0.13620000  0.67630000  1.0 0.6530918369
C  C14  1  0.13620000  0.50840000  0.32370000  1.0 0.6530918369
C  C15  1  0.79780000  0.06240000  0.67080000  1.0 -0.2415512574
C  C16  1  0.06240000  0.79780000  0.32920000  1.0 -0.2415512574
C  C17  1  0.20220000  0.93760000  0.32920000  1.0 -0.2415512574
C  C18  1  0.93760000  0.20220000  0.67080000  1.0 -0.2415512574
C  C19  1  0.33410000  0.05810000  0.99240000  1.0 -0.2415512574
C  C20  1  0.05810000  0.33410000  0.00760000  1.0 -0.2415512574
C  C21  1  0.66590000  0.94190000  0.00760000  1.0 -0.2415512574
C  C22  1  0.94190000  0.66590000  0.99240000  1.0 -0.2415512574
C  C23  1  0.42440000  0.84280000  0.18500000  1.0 -0.2466214409
C  C24  1  0.84280000  0.42440000  0.81500000  1.0 -0.2466214409
C  C25  1  0.57560000  0.15720000  0.81500000  1.0 -0.2466214409
C  C26  1  0.15720000  0.57560000  0.18500000  1.0 -0.2466214409
C  C27  1  0.77630000  0.99810000  0.57370000  1.0 0.6441334228
C  C28  1  0.99810000  0.77630000  0.42630000  1.0 0.6441334228
C  C29  1  0.22370000  0.00190000  0.42630000  1.0 0.6441334228
C  C30  1  0.00190000  0.22370000  0.57370000  1.0 0.6441334228
N  N1  1  0.31982000  0.93682000  0.06470000  1.0 -0.063217554
N  N2  1  0.93682000  0.31982000  0.93530000  1.0 -0.063217554
N  N3  1  0.68018000  0.06318000  0.93530000  1.0 -0.063217554
N  N4  1  0.06318000  0.68018000  0.06470000  1.0 -0.063217554
N  N5  1  0.91820000  0.08180000  0.73240000  1.0 -0.0902208497
N  N6  1  0.08180000  0.91820000  0.26760000  1.0 -0.0902208497
N  N7  1  0.11916000  0.01376000  0.90310000  1.0 -0.5402729819
N  N8  1  0.01376000  0.11916000  0.09690000  1.0 -0.5402729819
N  N9  1  0.88084000  0.98624000  0.09690000  1.0 -0.5402729819
N  N10  1  0.98624000  0.88084000  0.90310000  1.0 -0.5402729819
N  N11  1  0.19600000  0.80400000  0.07660000  1.0 -0.5402729819
N  N12  1  0.80400000  0.19600000  0.92340000  1.0 -0.5402729819
O  O1  1  0.44437000  0.94997000  0.33010000  1.0 -0.5743988862
O  O2  1  0.94997000  0.44437000  0.66990000  1.0 -0.5743988862
O  O3  1  0.55563000  0.05003000  0.66990000  1.0 -0.5743988862
O  O4  1  0.05003000  0.55563000  0.33010000  1.0 -0.5743988862
O  O5  1  0.59079000  0.79059000  0.42210000  1.0 -0.6641343345
O  O6  1  0.79059000  0.59079000  0.57790000  1.0 -0.6641343345
O  O7  1  0.40921000  0.20941000  0.57790000  1.0 -0.6641343345
O  O8  1  0.20941000  0.40921000  0.42210000  1.0 -0.6641343345
O  O9  1  0.30411000  0.03509000  0.76720000  1.0 -0.6216468623
O  O10  1  0.03509000  0.30411000  0.23280000  1.0 -0.6216468623
O  O11  1  0.69589000  0.96491000  0.23280000  1.0 -0.6216468623
O  O12  1  0.96491000  0.69589000  0.76720000  1.0 -0.6216468623
O  O13  1  0.26337000  0.21677000  0.74130000  1.0 -0.5999799927
O  O14  1  0.21677000  0.26337000  0.25870000  1.0 -0.5999799927
O  O15  1  0.73663000  0.78323000  0.25870000  1.0 -0.5999799927
O  O16  1  0.78323000  0.73663000  0.74130000  1.0 -0.5999799927
O  O17  1  0.86173000  0.95629000  0.55870000  1.0 -0.632445853
O  O18  1  0.95629000  0.86173000  0.44130000  1.0 -0.632445853
O  O19  1  0.13827000  0.04371000  0.44130000  1.0 -0.632445853
O  O20  1  0.04371000  0.13827000  0.55870000  1.0 -0.632445853
O  O21  1  0.67489000  0.97889000  0.51370000  1.0 -0.6073324194
O  O22  1  0.97889000  0.67489000  0.48630000  1.0 -0.6073324194
O  O23  1  0.32511000  0.02111000  0.48630000  1.0 -0.6073324194
O  O24  1  0.02111000  0.32511000  0.51370000  1.0 -0.6073324194
O  O25  1  0.12950000  0.87050000  0.70920000  1.0 -0.4912840536
O  O26  1  0.87050000  0.12950000  0.29080000  1.0 -0.4912840536
O  O27  1  0.54783000  0.81963000  0.67420000  1.0 -0.632445853
O  O28  1  0.81963000  0.54783000  0.32580000  1.0 -0.632445853
O  O29  1  0.45217000  0.18037000  0.32580000  1.0 -0.632445853
O  O30  1  0.18037000  0.45217000  0.67420000  1.0 -0.632445853
