# DDEC6 charges by PACMAN v1.1 (https://github.com/mtap-research/PACMAN-charge/)
data_SOXRIJ_ASR_pacman
_symmetry_space_group_name_H-M   'P 1'
_cell_length_a   36.44700000
_cell_length_b   36.44700000
_cell_length_c   30.00520000
_cell_angle_alpha   90.00000000
_cell_angle_beta   90.00000000
_cell_angle_gamma   120.00000000
_symmetry_Int_Tables_number   1
_chemical_formula_structural   Eu9H102C138S3(N3O25)2
_chemical_formula_sum   'Eu36 H408 C552 S12 N24 O200'
_cell_volume   34518.40589055
_cell_formula_units_Z   4
loop_
 _symmetry_equiv_pos_site_id
 _symmetry_equiv_pos_as_xyz
  1  'x, y, z'
loop_
 _atom_site_type_symbol
 _atom_site_label
 _atom_site_symmetry_multiplicity
 _atom_site_fract_x
 _atom_site_fract_y
 _atom_site_fract_z
 _atom_site_occupancy
 _atom_site_charge
Eu  Eu1  1  0.62646000  0.36491000  0.81532000  1.0 2.2085674538
Eu  Eu2  1  0.73845000  0.37354000  0.81532000  1.0 2.2085674538
Eu  Eu3  1  0.63509000  0.26155000  0.81532000  1.0 2.2085674538
Eu  Eu4  1  0.37354000  0.63509000  0.31532000  1.0 2.2085674538
Eu  Eu5  1  0.26155000  0.62646000  0.31532000  1.0 2.2085674538
Eu  Eu6  1  0.36491000  0.73845000  0.31532000  1.0 2.2085674538
Eu  Eu7  1  0.26155000  0.63509000  0.68468000  1.0 2.2085674538
Eu  Eu8  1  0.36491000  0.62646000  0.68468000  1.0 2.2085674538
Eu  Eu9  1  0.37354000  0.73845000  0.68468000  1.0 2.2085674538
Eu  Eu10  1  0.73845000  0.36491000  0.18468000  1.0 2.2085674538
Eu  Eu11  1  0.63509000  0.37354000  0.18468000  1.0 2.2085674538
Eu  Eu12  1  0.62646000  0.26155000  0.18468000  1.0 2.2085674538
Eu  Eu13  1  0.37354000  0.63509000  0.18468000  1.0 2.2085674538
Eu  Eu14  1  0.26155000  0.62646000  0.18468000  1.0 2.2085674538
Eu  Eu15  1  0.36491000  0.73845000  0.18468000  1.0 2.2085674538
Eu  Eu16  1  0.62646000  0.36491000  0.68468000  1.0 2.2085674538
Eu  Eu17  1  0.73845000  0.37354000  0.68468000  1.0 2.2085674538
Eu  Eu18  1  0.63509000  0.26155000  0.68468000  1.0 2.2085674538
Eu  Eu19  1  0.73845000  0.36491000  0.31532000  1.0 2.2085674538
Eu  Eu20  1  0.63509000  0.37354000  0.31532000  1.0 2.2085674538
Eu  Eu21  1  0.62646000  0.26155000  0.31532000  1.0 2.2085674538
Eu  Eu22  1  0.26155000  0.63509000  0.81532000  1.0 2.2085674538
Eu  Eu23  1  0.36491000  0.62646000  0.81532000  1.0 2.2085674538
Eu  Eu24  1  0.37354000  0.73845000  0.81532000  1.0 2.2085674538
Eu  Eu25  1  0.72297000  0.46228000  0.75000000  1.0 2.2303155297
Eu  Eu26  1  0.73931000  0.27703000  0.75000000  1.0 2.2303155297
Eu  Eu27  1  0.53772000  0.26069000  0.75000000  1.0 2.2303155297
Eu  Eu28  1  0.27703000  0.53772000  0.25000000  1.0 2.2303155297
Eu  Eu29  1  0.26069000  0.72297000  0.25000000  1.0 2.2303155297
Eu  Eu30  1  0.46228000  0.73931000  0.25000000  1.0 2.2303155297
Eu  Eu31  1  0.26069000  0.53772000  0.75000000  1.0 2.2303155297
Eu  Eu32  1  0.46228000  0.72297000  0.75000000  1.0 2.2303155297
Eu  Eu33  1  0.27703000  0.73931000  0.75000000  1.0 2.2303155297
Eu  Eu34  1  0.73931000  0.46228000  0.25000000  1.0 2.2303155297
Eu  Eu35  1  0.53772000  0.27703000  0.25000000  1.0 2.2303155297
Eu  Eu36  1  0.72297000  0.26069000  0.25000000  1.0 2.2303155297
H  H1  1  0.59482000  0.57518000  0.16856000  1.0 0.0983874438
H  H2  1  0.57974000  0.60508000  0.17374000  1.0 0.0983874438
H  H3  1  0.62079000  0.61509000  0.19159000  1.0 0.1120328216
H  H4  1  0.57154000  0.54970000  0.86896000  1.0 0.1230670894
H  H5  1  0.58614000  0.58394000  0.83676000  1.0 0.1519252651
H  H6  1  0.55083000  0.57487000  0.86602000  1.0 0.1230670894
H  H7  1  0.69530000  0.60239000  0.85754000  1.0 0.1398342782
H  H8  1  0.60342000  0.46042000  0.88889000  1.0 0.1299843241
H  H9  1  0.69125000  0.62788000  0.05748000  1.0 0.1519252651
H  H10  1  0.68577000  0.62353000  0.95846000  1.0 0.1575368825
H  H11  1  0.59663000  0.53187000  0.12503000  1.0 0.1299843241
H  H12  1  0.72178000  0.61565000  0.13491000  1.0 0.1299843241
H  H13  1  0.73210000  0.56112000  0.16275000  1.0 0.1230670894
H  H14  1  0.60873000  0.47903000  0.14637000  1.0 0.1299843241
H  H15  1  0.70526000  0.55124000  0.82830000  1.0 0.1299843241
H  H16  1  0.59035000  0.51176000  0.91866000  1.0 0.1299843241
H  H17  1  0.64435000  0.38101000  0.96316000  1.0 0.1120328216
H  H18  1  0.98036000  0.40518000  0.16856000  1.0 0.0983874438
H  H19  1  0.02534000  0.42026000  0.17374000  1.0 0.0983874438
H  H20  1  0.99430000  0.37921000  0.19159000  1.0 0.1120328216
H  H21  1  0.97816000  0.42846000  0.86896000  1.0 0.1230670894
H  H22  1  0.99780000  0.41386000  0.83676000  1.0 0.1519252651
H  H23  1  0.02404000  0.44917000  0.86602000  1.0 0.1230670894
H  H24  1  0.90709000  0.30470000  0.85754000  1.0 0.1398342782
H  H25  1  0.85700000  0.39658000  0.88889000  1.0 0.1299843241
H  H26  1  0.93663000  0.30875000  0.05748000  1.0 0.1519252651
H  H27  1  0.93776000  0.31423000  0.95846000  1.0 0.1575368825
H  H28  1  0.93524000  0.40337000  0.12503000  1.0 0.1299843241
H  H29  1  0.89387000  0.27822000  0.13491000  1.0 0.1299843241
H  H30  1  0.82902000  0.26790000  0.16275000  1.0 0.1230670894
H  H31  1  0.87030000  0.39127000  0.14637000  1.0 0.1299843241
H  H32  1  0.84598000  0.29474000  0.82830000  1.0 0.1299843241
H  H33  1  0.92141000  0.40965000  0.91866000  1.0 0.1299843241
H  H34  1  0.73666000  0.35565000  0.96316000  1.0 0.1120328216
H  H35  1  0.42482000  0.01964000  0.16856000  1.0 0.0983874438
H  H36  1  0.39492000  0.97466000  0.17374000  1.0 0.0983874438
H  H37  1  0.38491000  0.00570000  0.19159000  1.0 0.1120328216
H  H38  1  0.45030000  0.02184000  0.86896000  1.0 0.1230670894
H  H39  1  0.41606000  0.00220000  0.83676000  1.0 0.1519252651
H  H40  1  0.42513000  0.97596000  0.86602000  1.0 0.1299843241
H  H41  1  0.39761000  0.09291000  0.85754000  1.0 0.1398342782
H  H42  1  0.53958000  0.14300000  0.88889000  1.0 0.1299843241
H  H43  1  0.37212000  0.06337000  0.05748000  1.0 0.1519252651
H  H44  1  0.37647000  0.06224000  0.95846000  1.0 0.1575368825
H  H45  1  0.46813000  0.06476000  0.12503000  1.0 0.1299843241
H  H46  1  0.38435000  0.10613000  0.13491000  1.0 0.1299843241
H  H47  1  0.43888000  0.17098000  0.16275000  1.0 0.1230670894
H  H48  1  0.52097000  0.12970000  0.14637000  1.0 0.1299843241
H  H49  1  0.44876000  0.15402000  0.82830000  1.0 0.1299843241
H  H50  1  0.48824000  0.07859000  0.91866000  1.0 0.1299843241
H  H51  1  0.61899000  0.26334000  0.96316000  1.0 0.1120328216
H  H52  1  0.40518000  0.42482000  0.66856000  1.0 0.0983874438
H  H53  1  0.42026000  0.39492000  0.67374000  1.0 0.0983874438
H  H54  1  0.37921000  0.38491000  0.69159000  1.0 0.1120328216
H  H55  1  0.42846000  0.45030000  0.36896000  1.0 0.1230670894
H  H56  1  0.41386000  0.41606000  0.33676000  1.0 0.1519252651
H  H57  1  0.44917000  0.42513000  0.36602000  1.0 0.1230670894
H  H58  1  0.30470000  0.39761000  0.35754000  1.0 0.1398342782
H  H59  1  0.39658000  0.53958000  0.38889000  1.0 0.1299843241
H  H60  1  0.30875000  0.37212000  0.55748000  1.0 0.1519252651
H  H61  1  0.31423000  0.37647000  0.45846000  1.0 0.1575368825
H  H62  1  0.40337000  0.46813000  0.62503000  1.0 0.1299843241
H  H63  1  0.27822000  0.38435000  0.63491000  1.0 0.1299843241
H  H64  1  0.26790000  0.43888000  0.66275000  1.0 0.1230670894
H  H65  1  0.39127000  0.52097000  0.64637000  1.0 0.1299843241
H  H66  1  0.29474000  0.44876000  0.32830000  1.0 0.1299843241
H  H67  1  0.40965000  0.48824000  0.41866000  1.0 0.1299843241
H  H68  1  0.35565000  0.61899000  0.46316000  1.0 0.1120328216
H  H69  1  0.01964000  0.59482000  0.66856000  1.0 0.0983874438
H  H70  1  0.97466000  0.57974000  0.67374000  1.0 0.0983874438
H  H71  1  0.00570000  0.62079000  0.69159000  1.0 0.1120328216
H  H72  1  0.02184000  0.57154000  0.36896000  1.0 0.1299843241
H  H73  1  0.00220000  0.58614000  0.33676000  1.0 0.1519252651
H  H74  1  0.97596000  0.55083000  0.36602000  1.0 0.1230670894
H  H75  1  0.09291000  0.69530000  0.35754000  1.0 0.1398342782
H  H76  1  0.14300000  0.60342000  0.38889000  1.0 0.1299843241
H  H77  1  0.06337000  0.69125000  0.55748000  1.0 0.1519252651
H  H78  1  0.06224000  0.68577000  0.45846000  1.0 0.1575368825
H  H79  1  0.06476000  0.59663000  0.62503000  1.0 0.1299843241
H  H80  1  0.10613000  0.72178000  0.63491000  1.0 0.1299843241
H  H81  1  0.17098000  0.73210000  0.66275000  1.0 0.1230670894
H  H82  1  0.12970000  0.60873000  0.64637000  1.0 0.1299843241
H  H83  1  0.15402000  0.70526000  0.32830000  1.0 0.1299843241
H  H84  1  0.07859000  0.59035000  0.41866000  1.0 0.1299843241
H  H85  1  0.26334000  0.64435000  0.46316000  1.0 0.1120328216
H  H86  1  0.57518000  0.98036000  0.66856000  1.0 0.0983874438
H  H87  1  0.60508000  0.02534000  0.67374000  1.0 0.0983874438
H  H88  1  0.61509000  0.99430000  0.69159000  1.0 0.1120328216
H  H89  1  0.54970000  0.97816000  0.36896000  1.0 0.1230670894
H  H90  1  0.58394000  0.99780000  0.33676000  1.0 0.1519252651
H  H91  1  0.57487000  0.02404000  0.36602000  1.0 0.1230670894
H  H92  1  0.60239000  0.90709000  0.35754000  1.0 0.1398342782
H  H93  1  0.46042000  0.85700000  0.38889000  1.0 0.1299843241
H  H94  1  0.62788000  0.93663000  0.55748000  1.0 0.1519252651
H  H95  1  0.62353000  0.93776000  0.45846000  1.0 0.1575368825
H  H96  1  0.53187000  0.93524000  0.62503000  1.0 0.1299843241
H  H97  1  0.61565000  0.89387000  0.63491000  1.0 0.1299843241
H  H98  1  0.56112000  0.82902000  0.66275000  1.0 0.1230670894
H  H99  1  0.47903000  0.87030000  0.64637000  1.0 0.1299843241
H  H100  1  0.55124000  0.84598000  0.32830000  1.0 0.1299843241
H  H101  1  0.51176000  0.92141000  0.41866000  1.0 0.1299843241
H  H102  1  0.38101000  0.73666000  0.46316000  1.0 0.1120328216
H  H103  1  0.01964000  0.42482000  0.33144000  1.0 0.0983874438
H  H104  1  0.97466000  0.39492000  0.32626000  1.0 0.0983874438
H  H105  1  0.00570000  0.38491000  0.30841000  1.0 0.1120328216
H  H106  1  0.02184000  0.45030000  0.63104000  1.0 0.1230670894
H  H107  1  0.00220000  0.41606000  0.66324000  1.0 0.1519252651
H  H108  1  0.97596000  0.42513000  0.63398000  1.0 0.1230670894
H  H109  1  0.09291000  0.39761000  0.64246000  1.0 0.1398342782
H  H110  1  0.14300000  0.53958000  0.61111000  1.0 0.1299843241
H  H111  1  0.06337000  0.37212000  0.44252000  1.0 0.1519252651
H  H112  1  0.06224000  0.37647000  0.54154000  1.0 0.1575368825
H  H113  1  0.06476000  0.46813000  0.37497000  1.0 0.1299843241
H  H114  1  0.10613000  0.38435000  0.36509000  1.0 0.1299843241
H  H115  1  0.17098000  0.43888000  0.33725000  1.0 0.1230670894
H  H116  1  0.12970000  0.52097000  0.35363000  1.0 0.1299843241
H  H117  1  0.15402000  0.44876000  0.67170000  1.0 0.1299843241
H  H118  1  0.07859000  0.48824000  0.58134000  1.0 0.1299843241
H  H119  1  0.26334000  0.61899000  0.53684000  1.0 0.1120328216
H  H120  1  0.57518000  0.59482000  0.33144000  1.0 0.0983874438
H  H121  1  0.60508000  0.57974000  0.32626000  1.0 0.0983874438
H  H122  1  0.61509000  0.62079000  0.30841000  1.0 0.1120328216
H  H123  1  0.54970000  0.57154000  0.63104000  1.0 0.1230670894
H  H124  1  0.58394000  0.58614000  0.66324000  1.0 0.1519252651
H  H125  1  0.57487000  0.55083000  0.63398000  1.0 0.1230670894
H  H126  1  0.60239000  0.69530000  0.64246000  1.0 0.1398342782
H  H127  1  0.46042000  0.60342000  0.61111000  1.0 0.1299843241
H  H128  1  0.62788000  0.69125000  0.44252000  1.0 0.1519252651
H  H129  1  0.62353000  0.68577000  0.54154000  1.0 0.1575368825
H  H130  1  0.53187000  0.59663000  0.37497000  1.0 0.1299843241
H  H131  1  0.61565000  0.72178000  0.36509000  1.0 0.1299843241
H  H132  1  0.56112000  0.73210000  0.33725000  1.0 0.1230670894
H  H133  1  0.47903000  0.60873000  0.35363000  1.0 0.1299843241
H  H134  1  0.55124000  0.70526000  0.67170000  1.0 0.1299843241
H  H135  1  0.51176000  0.59035000  0.58134000  1.0 0.1299843241
H  H136  1  0.38101000  0.64435000  0.53684000  1.0 0.1120328216
H  H137  1  0.40518000  0.98036000  0.33144000  1.0 0.0983874438
H  H138  1  0.42026000  0.02534000  0.32626000  1.0 0.0983874438
H  H139  1  0.37921000  0.99430000  0.30841000  1.0 0.1120328216
H  H140  1  0.42846000  0.97816000  0.63104000  1.0 0.1299843241
H  H141  1  0.41386000  0.99780000  0.66324000  1.0 0.1519252651
H  H142  1  0.44917000  0.02404000  0.63398000  1.0 0.1230670894
H  H143  1  0.30470000  0.90709000  0.64246000  1.0 0.1398342782
H  H144  1  0.39658000  0.85700000  0.61111000  1.0 0.1299843241
H  H145  1  0.30875000  0.93663000  0.44252000  1.0 0.1519252651
H  H146  1  0.31423000  0.93776000  0.54154000  1.0 0.1575368825
H  H147  1  0.40337000  0.93524000  0.37497000  1.0 0.1299843241
H  H148  1  0.27822000  0.89387000  0.36509000  1.0 0.1299843241
H  H149  1  0.26790000  0.82902000  0.33725000  1.0 0.1230670894
H  H150  1  0.39127000  0.87030000  0.35363000  1.0 0.1299843241
H  H151  1  0.29474000  0.84598000  0.67170000  1.0 0.1299843241
H  H152  1  0.40965000  0.92141000  0.58134000  1.0 0.1299843241
H  H153  1  0.35565000  0.73666000  0.53684000  1.0 0.1120328216
H  H154  1  0.98036000  0.57518000  0.83144000  1.0 0.0983874438
H  H155  1  0.02534000  0.60508000  0.82626000  1.0 0.0983874438
H  H156  1  0.99430000  0.61509000  0.80841000  1.0 0.1120328216
H  H157  1  0.97816000  0.54970000  0.13104000  1.0 0.1230670894
H  H158  1  0.99780000  0.58394000  0.16324000  1.0 0.1519252651
H  H159  1  0.02404000  0.57487000  0.13398000  1.0 0.1230670894
H  H160  1  0.90709000  0.60239000  0.14246000  1.0 0.1398342782
H  H161  1  0.85700000  0.46042000  0.11111000  1.0 0.1299843241
H  H162  1  0.93663000  0.62788000  0.94252000  1.0 0.1519252651
H  H163  1  0.93776000  0.62353000  0.04154000  1.0 0.1575368825
H  H164  1  0.93524000  0.53187000  0.87497000  1.0 0.1299843241
H  H165  1  0.89387000  0.61565000  0.86509000  1.0 0.1299843241
H  H166  1  0.82902000  0.56112000  0.83725000  1.0 0.1230670894
H  H167  1  0.87030000  0.47903000  0.85363000  1.0 0.1299843241
H  H168  1  0.84598000  0.55124000  0.17170000  1.0 0.1299843241
H  H169  1  0.92141000  0.51176000  0.08134000  1.0 0.1299843241
H  H170  1  0.73666000  0.38101000  0.03684000  1.0 0.1120328216
H  H171  1  0.42482000  0.40518000  0.83144000  1.0 0.0983874438
H  H172  1  0.39492000  0.42026000  0.82626000  1.0 0.0983874438
H  H173  1  0.38491000  0.37921000  0.80841000  1.0 0.1120328216
H  H174  1  0.45030000  0.42846000  0.13104000  1.0 0.1230670894
H  H175  1  0.41606000  0.41386000  0.16324000  1.0 0.1519252651
H  H176  1  0.42513000  0.44917000  0.13398000  1.0 0.1299843241
H  H177  1  0.39761000  0.30470000  0.14246000  1.0 0.1398342782
H  H178  1  0.53958000  0.39658000  0.11111000  1.0 0.1299843241
H  H179  1  0.37212000  0.30875000  0.94252000  1.0 0.1519252651
H  H180  1  0.37647000  0.31423000  0.04154000  1.0 0.1575368825
H  H181  1  0.46813000  0.40337000  0.87497000  1.0 0.1299843241
H  H182  1  0.38435000  0.27822000  0.86509000  1.0 0.1299843241
H  H183  1  0.43888000  0.26790000  0.83725000  1.0 0.1230670894
H  H184  1  0.52097000  0.39127000  0.85363000  1.0 0.1299843241
H  H185  1  0.44876000  0.29474000  0.17170000  1.0 0.1299843241
H  H186  1  0.48824000  0.40965000  0.08134000  1.0 0.1299843241
H  H187  1  0.61899000  0.35565000  0.03684000  1.0 0.1120328216
H  H188  1  0.59482000  0.01964000  0.83144000  1.0 0.0983874438
H  H189  1  0.57974000  0.97466000  0.82626000  1.0 0.0983874438
H  H190  1  0.62079000  0.00570000  0.80841000  1.0 0.1120328216
H  H191  1  0.57154000  0.02184000  0.13104000  1.0 0.1230670894
H  H192  1  0.58614000  0.00220000  0.16324000  1.0 0.1519252651
H  H193  1  0.55083000  0.97596000  0.13398000  1.0 0.1230670894
H  H194  1  0.69530000  0.09291000  0.14246000  1.0 0.1398342782
H  H195  1  0.60342000  0.14300000  0.11111000  1.0 0.1299843241
H  H196  1  0.69125000  0.06337000  0.94252000  1.0 0.1519252651
H  H197  1  0.68577000  0.06224000  0.04154000  1.0 0.1575368825
H  H198  1  0.59663000  0.06476000  0.87497000  1.0 0.1299843241
H  H199  1  0.72178000  0.10613000  0.86509000  1.0 0.1299843241
H  H200  1  0.73210000  0.17098000  0.83725000  1.0 0.1230670894
H  H201  1  0.60873000  0.12970000  0.85363000  1.0 0.1299843241
H  H202  1  0.70526000  0.15402000  0.17170000  1.0 0.1299843241
H  H203  1  0.59035000  0.07859000  0.08134000  1.0 0.1299843241
H  H204  1  0.64435000  0.26334000  0.03684000  1.0 0.1120328216
H  H205  1  0.40518000  0.42482000  0.83144000  1.0 0.0983874438
H  H206  1  0.42026000  0.39492000  0.82626000  1.0 0.0983874438
H  H207  1  0.37921000  0.38491000  0.80841000  1.0 0.1120328216
H  H208  1  0.42846000  0.45030000  0.13104000  1.0 0.1230670894
H  H209  1  0.41386000  0.41606000  0.16324000  1.0 0.1519252651
H  H210  1  0.44917000  0.42513000  0.13398000  1.0 0.1230670894
H  H211  1  0.30470000  0.39761000  0.14246000  1.0 0.1398342782
H  H212  1  0.39658000  0.53958000  0.11111000  1.0 0.1299843241
H  H213  1  0.30875000  0.37212000  0.94252000  1.0 0.1519252651
H  H214  1  0.31423000  0.37647000  0.04154000  1.0 0.1575368825
H  H215  1  0.40337000  0.46813000  0.87497000  1.0 0.1299843241
H  H216  1  0.27822000  0.38435000  0.86509000  1.0 0.1299843241
H  H217  1  0.26790000  0.43888000  0.83725000  1.0 0.1230670894
H  H218  1  0.39127000  0.52097000  0.85363000  1.0 0.1299843241
H  H219  1  0.29474000  0.44876000  0.17170000  1.0 0.1299843241
H  H220  1  0.40965000  0.48824000  0.08134000  1.0 0.1299843241
H  H221  1  0.35565000  0.61899000  0.03684000  1.0 0.1120328216
H  H222  1  0.01964000  0.59482000  0.83144000  1.0 0.0983874438
H  H223  1  0.97466000  0.57974000  0.82626000  1.0 0.0983874438
H  H224  1  0.00570000  0.62079000  0.80841000  1.0 0.1120328216
H  H225  1  0.02184000  0.57154000  0.13104000  1.0 0.1230670894
H  H226  1  0.00220000  0.58614000  0.16324000  1.0 0.1519252651
H  H227  1  0.97596000  0.55083000  0.13398000  1.0 0.1230670894
H  H228  1  0.09291000  0.69530000  0.14246000  1.0 0.1398342782
H  H229  1  0.14300000  0.60342000  0.11111000  1.0 0.1299843241
H  H230  1  0.06337000  0.69125000  0.94252000  1.0 0.1519252651
H  H231  1  0.06224000  0.68577000  0.04154000  1.0 0.1575368825
H  H232  1  0.06476000  0.59663000  0.87497000  1.0 0.1299843241
H  H233  1  0.10613000  0.72178000  0.86509000  1.0 0.1299843241
H  H234  1  0.17098000  0.73210000  0.83725000  1.0 0.1230670894
H  H235  1  0.12970000  0.60873000  0.85363000  1.0 0.1299843241
H  H236  1  0.15402000  0.70526000  0.17170000  1.0 0.1299843241
H  H237  1  0.07859000  0.59035000  0.08134000  1.0 0.1299843241
H  H238  1  0.26334000  0.64435000  0.03684000  1.0 0.1120328216
H  H239  1  0.57518000  0.98036000  0.83144000  1.0 0.0983874438
H  H240  1  0.60508000  0.02534000  0.82626000  1.0 0.0983874438
H  H241  1  0.61509000  0.99430000  0.80841000  1.0 0.1120328216
H  H242  1  0.54970000  0.97816000  0.13104000  1.0 0.1230670894
H  H243  1  0.58394000  0.99780000  0.16324000  1.0 0.1519252651
H  H244  1  0.57487000  0.02404000  0.13398000  1.0 0.1230670894
H  H245  1  0.60239000  0.90709000  0.14246000  1.0 0.1398342782
H  H246  1  0.46042000  0.85700000  0.11111000  1.0 0.1299843241
H  H247  1  0.62788000  0.93663000  0.94252000  1.0 0.1519252651
H  H248  1  0.62353000  0.93776000  0.04154000  1.0 0.1575368825
H  H249  1  0.53187000  0.93524000  0.87497000  1.0 0.1299843241
H  H250  1  0.61565000  0.89387000  0.86509000  1.0 0.1299843241
H  H251  1  0.56112000  0.82902000  0.83725000  1.0 0.1230670894
H  H252  1  0.47903000  0.87030000  0.85363000  1.0 0.1299843241
H  H253  1  0.55124000  0.84598000  0.17170000  1.0 0.1299843241
H  H254  1  0.51176000  0.92141000  0.08134000  1.0 0.1299843241
H  H255  1  0.38101000  0.73666000  0.03684000  1.0 0.1120328216
H  H256  1  0.59482000  0.57518000  0.33144000  1.0 0.0983874438
H  H257  1  0.57974000  0.60508000  0.32626000  1.0 0.0983874438
H  H258  1  0.62079000  0.61509000  0.30841000  1.0 0.1120328216
H  H259  1  0.57154000  0.54970000  0.63104000  1.0 0.1230670894
H  H260  1  0.58614000  0.58394000  0.66324000  1.0 0.1519252651
H  H261  1  0.55083000  0.57487000  0.63398000  1.0 0.1230670894
H  H262  1  0.69530000  0.60239000  0.64246000  1.0 0.1398342782
H  H263  1  0.60342000  0.46042000  0.61111000  1.0 0.1299843241
H  H264  1  0.69125000  0.62788000  0.44252000  1.0 0.1519252651
H  H265  1  0.68577000  0.62353000  0.54154000  1.0 0.1575368825
H  H266  1  0.59663000  0.53187000  0.37497000  1.0 0.1299843241
H  H267  1  0.72178000  0.61565000  0.36509000  1.0 0.1299843241
H  H268  1  0.73210000  0.56112000  0.33725000  1.0 0.1230670894
H  H269  1  0.60873000  0.47903000  0.35363000  1.0 0.1299843241
H  H270  1  0.70526000  0.55124000  0.67170000  1.0 0.1299843241
H  H271  1  0.59035000  0.51176000  0.58134000  1.0 0.1299843241
H  H272  1  0.64435000  0.38101000  0.53684000  1.0 0.1120328216
H  H273  1  0.98036000  0.40518000  0.33144000  1.0 0.0983874438
H  H274  1  0.02534000  0.42026000  0.32626000  1.0 0.0983874438
H  H275  1  0.99430000  0.37921000  0.30841000  1.0 0.1120328216
H  H276  1  0.97816000  0.42846000  0.63104000  1.0 0.1230670894
H  H277  1  0.99780000  0.41386000  0.66324000  1.0 0.1519252651
H  H278  1  0.02404000  0.44917000  0.63398000  1.0 0.1230670894
H  H279  1  0.90709000  0.30470000  0.64246000  1.0 0.1398342782
H  H280  1  0.85700000  0.39658000  0.61111000  1.0 0.1299843241
H  H281  1  0.93663000  0.30875000  0.44252000  1.0 0.1519252651
H  H282  1  0.93776000  0.31423000  0.54154000  1.0 0.1575368825
H  H283  1  0.93524000  0.40337000  0.37497000  1.0 0.1299843241
H  H284  1  0.89387000  0.27822000  0.36509000  1.0 0.1299843241
H  H285  1  0.82902000  0.26790000  0.33725000  1.0 0.1230670894
H  H286  1  0.87030000  0.39127000  0.35363000  1.0 0.1299843241
H  H287  1  0.84598000  0.29474000  0.67170000  1.0 0.1299843241
H  H288  1  0.92141000  0.40965000  0.58134000  1.0 0.1299843241
H  H289  1  0.73666000  0.35565000  0.53684000  1.0 0.1120328216
H  H290  1  0.42482000  0.01964000  0.33144000  1.0 0.0983874438
H  H291  1  0.39492000  0.97466000  0.32626000  1.0 0.0983874438
H  H292  1  0.38491000  0.00570000  0.30841000  1.0 0.1120328216
H  H293  1  0.45030000  0.02184000  0.63104000  1.0 0.1230670894
H  H294  1  0.41606000  0.00220000  0.66324000  1.0 0.1519252651
H  H295  1  0.42513000  0.97596000  0.63398000  1.0 0.1299843241
H  H296  1  0.39761000  0.09291000  0.64246000  1.0 0.1398342782
H  H297  1  0.53958000  0.14300000  0.61111000  1.0 0.1299843241
H  H298  1  0.37212000  0.06337000  0.44252000  1.0 0.1519252651
H  H299  1  0.37647000  0.06224000  0.54154000  1.0 0.1575368825
H  H300  1  0.46813000  0.06476000  0.37497000  1.0 0.1299843241
H  H301  1  0.38435000  0.10613000  0.36509000  1.0 0.1299843241
H  H302  1  0.43888000  0.17098000  0.33725000  1.0 0.1230670894
H  H303  1  0.52097000  0.12970000  0.35363000  1.0 0.1299843241
H  H304  1  0.44876000  0.15402000  0.67170000  1.0 0.1299843241
H  H305  1  0.48824000  0.07859000  0.58134000  1.0 0.1299843241
H  H306  1  0.61899000  0.26334000  0.53684000  1.0 0.1120328216
H  H307  1  0.98036000  0.57518000  0.66856000  1.0 0.0983874438
H  H308  1  0.02534000  0.60508000  0.67374000  1.0 0.0983874438
H  H309  1  0.99430000  0.61509000  0.69159000  1.0 0.1120328216
H  H310  1  0.97816000  0.54970000  0.36896000  1.0 0.1230670894
H  H311  1  0.99780000  0.58394000  0.33676000  1.0 0.1519252651
H  H312  1  0.02404000  0.57487000  0.36602000  1.0 0.1230670894
H  H313  1  0.90709000  0.60239000  0.35754000  1.0 0.1398342782
H  H314  1  0.85700000  0.46042000  0.38889000  1.0 0.1299843241
H  H315  1  0.93663000  0.62788000  0.55748000  1.0 0.1519252651
H  H316  1  0.93776000  0.62353000  0.45846000  1.0 0.1575368825
H  H317  1  0.93524000  0.53187000  0.62503000  1.0 0.1299843241
H  H318  1  0.89387000  0.61565000  0.63491000  1.0 0.1299843241
H  H319  1  0.82902000  0.56112000  0.66275000  1.0 0.1230670894
H  H320  1  0.87030000  0.47903000  0.64637000  1.0 0.1299843241
H  H321  1  0.84598000  0.55124000  0.32830000  1.0 0.1299843241
H  H322  1  0.92141000  0.51176000  0.41866000  1.0 0.1299843241
H  H323  1  0.73666000  0.38101000  0.46316000  1.0 0.1120328216
H  H324  1  0.42482000  0.40518000  0.66856000  1.0 0.0983874438
H  H325  1  0.39492000  0.42026000  0.67374000  1.0 0.0983874438
H  H326  1  0.38491000  0.37921000  0.69159000  1.0 0.1120328216
H  H327  1  0.45030000  0.42846000  0.36896000  1.0 0.1230670894
H  H328  1  0.41606000  0.41386000  0.33676000  1.0 0.1519252651
H  H329  1  0.42513000  0.44917000  0.36602000  1.0 0.1299843241
H  H330  1  0.39761000  0.30470000  0.35754000  1.0 0.1398342782
H  H331  1  0.53958000  0.39658000  0.38889000  1.0 0.1299843241
H  H332  1  0.37212000  0.30875000  0.55748000  1.0 0.1519252651
H  H333  1  0.37647000  0.31423000  0.45846000  1.0 0.1575368825
H  H334  1  0.46813000  0.40337000  0.62503000  1.0 0.1299843241
H  H335  1  0.38435000  0.27822000  0.63491000  1.0 0.1299843241
H  H336  1  0.43888000  0.26790000  0.66275000  1.0 0.1230670894
H  H337  1  0.52097000  0.39127000  0.64637000  1.0 0.1299843241
H  H338  1  0.44876000  0.29474000  0.32830000  1.0 0.1299843241
H  H339  1  0.48824000  0.40965000  0.41866000  1.0 0.1299843241
H  H340  1  0.61899000  0.35565000  0.46316000  1.0 0.1120328216
H  H341  1  0.59482000  0.01964000  0.66856000  1.0 0.0983874438
H  H342  1  0.57974000  0.97466000  0.67374000  1.0 0.0983874438
H  H343  1  0.62079000  0.00570000  0.69159000  1.0 0.1120328216
H  H344  1  0.57154000  0.02184000  0.36896000  1.0 0.1230670894
H  H345  1  0.58614000  0.00220000  0.33676000  1.0 0.1519252651
H  H346  1  0.55083000  0.97596000  0.36602000  1.0 0.1299843241
H  H347  1  0.69530000  0.09291000  0.35754000  1.0 0.1398342782
H  H348  1  0.60342000  0.14300000  0.38889000  1.0 0.1299843241
H  H349  1  0.69125000  0.06337000  0.55748000  1.0 0.1519252651
H  H350  1  0.68577000  0.06224000  0.45846000  1.0 0.1575368825
H  H351  1  0.59663000  0.06476000  0.62503000  1.0 0.1299843241
H  H352  1  0.72178000  0.10613000  0.63491000  1.0 0.1299843241
H  H353  1  0.73210000  0.17098000  0.66275000  1.0 0.1230670894
H  H354  1  0.60873000  0.12970000  0.64637000  1.0 0.1299843241
H  H355  1  0.70526000  0.15402000  0.32830000  1.0 0.1299843241
H  H356  1  0.59035000  0.07859000  0.41866000  1.0 0.1299843241
H  H357  1  0.64435000  0.26334000  0.46316000  1.0 0.1120328216
H  H358  1  0.01964000  0.42482000  0.16856000  1.0 0.0983874438
H  H359  1  0.97466000  0.39492000  0.17374000  1.0 0.0983874438
H  H360  1  0.00570000  0.38491000  0.19159000  1.0 0.1120328216
H  H361  1  0.02184000  0.45030000  0.86896000  1.0 0.1230670894
H  H362  1  0.00220000  0.41606000  0.83676000  1.0 0.1519252651
H  H363  1  0.97596000  0.42513000  0.86602000  1.0 0.1230670894
H  H364  1  0.09291000  0.39761000  0.85754000  1.0 0.1398342782
H  H365  1  0.14300000  0.53958000  0.88889000  1.0 0.1299843241
H  H366  1  0.06337000  0.37212000  0.05748000  1.0 0.1519252651
H  H367  1  0.06224000  0.37647000  0.95846000  1.0 0.1575368825
H  H368  1  0.06476000  0.46813000  0.12503000  1.0 0.1299843241
H  H369  1  0.10613000  0.38435000  0.13491000  1.0 0.1299843241
H  H370  1  0.17098000  0.43888000  0.16275000  1.0 0.1230670894
H  H371  1  0.12970000  0.52097000  0.14637000  1.0 0.1299843241
H  H372  1  0.15402000  0.44876000  0.82830000  1.0 0.1299843241
H  H373  1  0.07859000  0.48824000  0.91866000  1.0 0.1299843241
H  H374  1  0.26334000  0.61899000  0.96316000  1.0 0.1120328216
H  H375  1  0.57518000  0.59482000  0.16856000  1.0 0.0983874438
H  H376  1  0.60508000  0.57974000  0.17374000  1.0 0.0983874438
H  H377  1  0.61509000  0.62079000  0.19159000  1.0 0.1120328216
H  H378  1  0.54970000  0.57154000  0.86896000  1.0 0.1230670894
H  H379  1  0.58394000  0.58614000  0.83676000  1.0 0.1519252651
H  H380  1  0.57487000  0.55083000  0.86602000  1.0 0.1230670894
H  H381  1  0.60239000  0.69530000  0.85754000  1.0 0.1398342782
H  H382  1  0.46042000  0.60342000  0.88889000  1.0 0.1299843241
H  H383  1  0.62788000  0.69125000  0.05748000  1.0 0.1519252651
H  H384  1  0.62353000  0.68577000  0.95846000  1.0 0.1575368825
H  H385  1  0.53187000  0.59663000  0.12503000  1.0 0.1299843241
H  H386  1  0.61565000  0.72178000  0.13491000  1.0 0.1299843241
H  H387  1  0.56112000  0.73210000  0.16275000  1.0 0.1230670894
H  H388  1  0.47903000  0.60873000  0.14637000  1.0 0.1299843241
H  H389  1  0.55124000  0.70526000  0.82830000  1.0 0.1299843241
H  H390  1  0.51176000  0.59035000  0.91866000  1.0 0.1299843241
H  H391  1  0.38101000  0.64435000  0.96316000  1.0 0.1120328216
H  H392  1  0.40518000  0.98036000  0.16856000  1.0 0.0983874438
H  H393  1  0.42026000  0.02534000  0.17374000  1.0 0.0983874438
H  H394  1  0.37921000  0.99430000  0.19159000  1.0 0.1120328216
H  H395  1  0.42846000  0.97816000  0.86896000  1.0 0.1299843241
H  H396  1  0.41386000  0.99780000  0.83676000  1.0 0.1519252651
H  H397  1  0.44917000  0.02404000  0.86602000  1.0 0.1230670894
H  H398  1  0.30470000  0.90709000  0.85754000  1.0 0.1398342782
H  H399  1  0.39658000  0.85700000  0.88889000  1.0 0.1299843241
H  H400  1  0.30875000  0.93663000  0.05748000  1.0 0.1519252651
H  H401  1  0.31423000  0.93776000  0.95846000  1.0 0.1575368825
H  H402  1  0.40337000  0.93524000  0.12503000  1.0 0.1299843241
H  H403  1  0.27822000  0.89387000  0.13491000  1.0 0.1299843241
H  H404  1  0.26790000  0.82902000  0.16275000  1.0 0.1230670894
H  H405  1  0.39127000  0.87030000  0.14637000  1.0 0.1299843241
H  H406  1  0.29474000  0.84598000  0.82830000  1.0 0.1299843241
H  H407  1  0.40965000  0.92141000  0.91866000  1.0 0.1299843241
H  H408  1  0.35565000  0.73666000  0.96316000  1.0 0.1120328216
C  C1  1  0.65480000  0.49940000  0.85310000  1.0 -0.020821103
C  C2  1  0.67660000  0.57420000  0.86480000  1.0 -0.1472253232
C  C3  1  0.63720000  0.59740000  0.91260000  1.0 -0.0034611378
C  C4  1  0.62150000  0.48870000  0.88190000  1.0 -0.0979039884
C  C5  1  0.67200000  0.63400000  0.07100000  1.0 -0.1677722843
C  C6  1  0.65030000  0.61230000  0.11000000  1.0 0.0191133955
C  C7  1  0.66340000  0.62600000  0.94700000  1.0 -0.1677722843
C  C8  1  0.65790000  0.57800000  0.12810000  1.0 0.0680143607
C  C9  1  0.62390000  0.53770000  0.13180000  1.0 -0.1677722843
C  C10  1  0.69910000  0.58820000  0.13850000  1.0 -0.1677722843
C  C11  1  0.66620000  0.47220000  0.82470000  1.0 0.6208690463
C  C12  1  0.67590000  0.47640000  0.17660000  1.0 0.6438503125
C  C13  1  0.70510000  0.55530000  0.15470000  1.0 -0.0815714715
C  C14  1  0.63150000  0.50650000  0.14580000  1.0 -0.0815714715
C  C15  1  0.68180000  0.54300000  0.84660000  1.0 -0.0979039884
C  C16  1  0.61440000  0.52020000  0.90120000  1.0 -0.1815992635
C  C17  1  0.67000000  0.51260000  0.15890000  1.0 -0.0299478416
C  C18  1  0.64290000  0.56410000  0.89470000  1.0 0.0491891778
C  C19  1  0.63980000  0.35560000  0.97700000  1.0 -0.0627910211
C  C20  1  0.63160000  0.31800000  0.95350000  1.0 0.006893607
C  C21  1  0.63230000  0.31430000  0.90560000  1.0 0.2162817116
C  C22  1  0.84460000  0.34520000  0.85310000  1.0 -0.020821103
C  C23  1  0.89760000  0.32340000  0.86480000  1.0 -0.1472253232
C  C24  1  0.96020000  0.36280000  0.91260000  1.0 -0.0034611378
C  C25  1  0.86720000  0.37850000  0.88190000  1.0 -0.0979039884
C  C26  1  0.96200000  0.32800000  0.07100000  1.0 -0.1677722843
C  C27  1  0.96200000  0.34970000  0.11000000  1.0 0.0191133955
C  C28  1  0.96260000  0.33660000  0.94700000  1.0 -0.1677722843
C  C29  1  0.92010000  0.34210000  0.12810000  1.0 0.0680143607
C  C30  1  0.91380000  0.37610000  0.13180000  1.0 -0.1677722843
C  C31  1  0.88910000  0.30090000  0.13850000  1.0 -0.1677722843
C  C32  1  0.80600000  0.33380000  0.82470000  1.0 0.6208690463
C  C33  1  0.80050000  0.32410000  0.17660000  1.0 0.6438503125
C  C34  1  0.85020000  0.29490000  0.15470000  1.0 -0.0815714715
C  C35  1  0.87500000  0.36850000  0.14580000  1.0 -0.0815714715
C  C36  1  0.86120000  0.31820000  0.84660000  1.0 -0.0979039884
C  C37  1  0.90580000  0.38560000  0.90120000  1.0 -0.1815992635
C  C38  1  0.84260000  0.33000000  0.15890000  1.0 -0.0299478416
C  C39  1  0.92120000  0.35710000  0.89470000  1.0 0.0491891778
C  C40  1  0.71580000  0.36020000  0.97700000  1.0 -0.0627910211
C  C41  1  0.68640000  0.36840000  0.95350000  1.0 0.006893607
C  C42  1  0.68200000  0.36770000  0.90560000  1.0 0.2162817116
C  C43  1  0.50060000  0.15540000  0.85310000  1.0 -0.020821103
C  C44  1  0.42580000  0.10240000  0.86480000  1.0 -0.1472253232
C  C45  1  0.40260000  0.03980000  0.91260000  1.0 -0.0034611378
C  C46  1  0.51130000  0.13280000  0.88190000  1.0 -0.0979039884
C  C47  1  0.36600000  0.03800000  0.07100000  1.0 -0.1677722843
C  C48  1  0.38770000  0.03800000  0.11000000  1.0 0.0191133955
C  C49  1  0.37400000  0.03740000  0.94700000  1.0 -0.1677722843
C  C50  1  0.42200000  0.07990000  0.12810000  1.0 0.0680143607
C  C51  1  0.46230000  0.08620000  0.13180000  1.0 -0.1677722843
C  C52  1  0.41180000  0.11090000  0.13850000  1.0 -0.1677722843
C  C53  1  0.52780000  0.19400000  0.82470000  1.0 0.6208690463
C  C54  1  0.52360000  0.19950000  0.17660000  1.0 0.6438503125
C  C55  1  0.44470000  0.14980000  0.15470000  1.0 -0.0815714715
C  C56  1  0.49350000  0.12500000  0.14580000  1.0 -0.0815714715
C  C57  1  0.45700000  0.13880000  0.84660000  1.0 -0.0979039884
C  C58  1  0.47980000  0.09420000  0.90120000  1.0 -0.1815992635
C  C59  1  0.48740000  0.15740000  0.15890000  1.0 -0.0299478416
C  C60  1  0.43590000  0.07880000  0.89470000  1.0 0.0491891778
C  C61  1  0.64440000  0.28420000  0.97700000  1.0 -0.0627910211
C  C62  1  0.68200000  0.31360000  0.95350000  1.0 0.006893607
C  C63  1  0.68570000  0.31800000  0.90560000  1.0 0.2162817116
C  C64  1  0.34520000  0.50060000  0.35310000  1.0 -0.020821103
C  C65  1  0.32340000  0.42580000  0.36480000  1.0 -0.1472253232
C  C66  1  0.36280000  0.40260000  0.41260000  1.0 -0.0034611378
C  C67  1  0.37850000  0.51130000  0.38190000  1.0 -0.0979039884
C  C68  1  0.32800000  0.36600000  0.57100000  1.0 -0.1677722843
C  C69  1  0.34970000  0.38770000  0.61000000  1.0 0.0191133955
C  C70  1  0.33660000  0.37400000  0.44700000  1.0 -0.1677722843
C  C71  1  0.34210000  0.42200000  0.62810000  1.0 0.0680143607
C  C72  1  0.37610000  0.46230000  0.63180000  1.0 -0.1677722843
C  C73  1  0.30090000  0.41180000  0.63850000  1.0 -0.1677722843
C  C74  1  0.33380000  0.52780000  0.32470000  1.0 0.6208690463
C  C75  1  0.32410000  0.52360000  0.67660000  1.0 0.6438503125
C  C76  1  0.29490000  0.44470000  0.65470000  1.0 -0.0815714715
C  C77  1  0.36850000  0.49350000  0.64580000  1.0 -0.0815714715
C  C78  1  0.31820000  0.45700000  0.34660000  1.0 -0.0979039884
C  C79  1  0.38560000  0.47980000  0.40120000  1.0 -0.1815992635
C  C80  1  0.33000000  0.48740000  0.65890000  1.0 -0.0299478416
C  C81  1  0.35710000  0.43590000  0.39470000  1.0 0.0491891778
C  C82  1  0.36020000  0.64440000  0.47700000  1.0 -0.0627910211
C  C83  1  0.36840000  0.68200000  0.45350000  1.0 0.006893607
C  C84  1  0.36770000  0.68570000  0.40560000  1.0 0.2144215041
C  C85  1  0.15540000  0.65480000  0.35310000  1.0 -0.020821103
C  C86  1  0.10240000  0.67660000  0.36480000  1.0 -0.1472253232
C  C87  1  0.03980000  0.63720000  0.41260000  1.0 -0.0034611378
C  C88  1  0.13280000  0.62150000  0.38190000  1.0 -0.0979039884
C  C89  1  0.03800000  0.67200000  0.57100000  1.0 -0.1677722843
C  C90  1  0.03800000  0.65030000  0.61000000  1.0 0.0191133955
C  C91  1  0.03740000  0.66340000  0.44700000  1.0 -0.1677722843
C  C92  1  0.07990000  0.65790000  0.62810000  1.0 0.0680143607
C  C93  1  0.08620000  0.62390000  0.63180000  1.0 -0.1677722843
C  C94  1  0.11090000  0.69910000  0.63850000  1.0 -0.1677722843
C  C95  1  0.19400000  0.66620000  0.32470000  1.0 0.6208690463
C  C96  1  0.19950000  0.67590000  0.67660000  1.0 0.6438503125
C  C97  1  0.14980000  0.70510000  0.65470000  1.0 -0.0815714715
C  C98  1  0.12500000  0.63150000  0.64580000  1.0 -0.0815714715
C  C99  1  0.13880000  0.68180000  0.34660000  1.0 -0.0979039884
C  C100  1  0.09420000  0.61440000  0.40120000  1.0 -0.1815992635
C  C101  1  0.15740000  0.67000000  0.65890000  1.0 -0.0299478416
C  C102  1  0.07880000  0.64290000  0.39470000  1.0 0.0491891778
C  C103  1  0.28420000  0.63980000  0.47700000  1.0 -0.0627910211
C  C104  1  0.31360000  0.63160000  0.45350000  1.0 0.006893607
C  C105  1  0.31800000  0.63230000  0.40560000  1.0 0.2144215041
C  C106  1  0.49940000  0.84460000  0.35310000  1.0 -0.020821103
C  C107  1  0.57420000  0.89760000  0.36480000  1.0 -0.1472253232
C  C108  1  0.59740000  0.96020000  0.41260000  1.0 -0.0034611378
C  C109  1  0.48870000  0.86720000  0.38190000  1.0 -0.0979039884
C  C110  1  0.63400000  0.96200000  0.57100000  1.0 -0.1677722843
C  C111  1  0.61230000  0.96200000  0.61000000  1.0 0.0191133955
C  C112  1  0.62600000  0.96260000  0.44700000  1.0 -0.1677722843
C  C113  1  0.57800000  0.92010000  0.62810000  1.0 0.0680143607
C  C114  1  0.53770000  0.91380000  0.63180000  1.0 -0.1677722843
C  C115  1  0.58820000  0.88910000  0.63850000  1.0 -0.1677722843
C  C116  1  0.47220000  0.80600000  0.32470000  1.0 0.6208690463
C  C117  1  0.47640000  0.80050000  0.67660000  1.0 0.6438503125
C  C118  1  0.55530000  0.85020000  0.65470000  1.0 -0.0815714715
C  C119  1  0.50650000  0.87500000  0.64580000  1.0 -0.0815714715
C  C120  1  0.54300000  0.86120000  0.34660000  1.0 -0.0979039884
C  C121  1  0.52020000  0.90580000  0.40120000  1.0 -0.1815992635
C  C122  1  0.51260000  0.84260000  0.65890000  1.0 -0.0299478416
C  C123  1  0.56410000  0.92120000  0.39470000  1.0 0.0491891778
C  C124  1  0.35560000  0.71580000  0.47700000  1.0 -0.0627910211
C  C125  1  0.31800000  0.68640000  0.45350000  1.0 0.006893607
C  C126  1  0.31430000  0.68200000  0.40560000  1.0 0.2144215041
C  C127  1  0.15540000  0.50060000  0.64690000  1.0 -0.020821103
C  C128  1  0.10240000  0.42580000  0.63520000  1.0 -0.1472253232
C  C129  1  0.03980000  0.40260000  0.58740000  1.0 -0.0034611378
C  C130  1  0.13280000  0.51130000  0.61810000  1.0 -0.0979039884
C  C131  1  0.03800000  0.36600000  0.42900000  1.0 -0.1649007118
C  C132  1  0.03800000  0.38770000  0.39000000  1.0 0.0191133955
C  C133  1  0.03740000  0.37400000  0.55300000  1.0 -0.1677722843
C  C134  1  0.07990000  0.42200000  0.37190000  1.0 0.0680143607
C  C135  1  0.08620000  0.46230000  0.36820000  1.0 -0.1677722843
C  C136  1  0.11090000  0.41180000  0.36150000  1.0 -0.1677722843
C  C137  1  0.19400000  0.52780000  0.67530000  1.0 0.6208690463
C  C138  1  0.19950000  0.52360000  0.32340000  1.0 0.6438503125
C  C139  1  0.14980000  0.44470000  0.34530000  1.0 -0.0815714715
C  C140  1  0.12500000  0.49350000  0.35420000  1.0 -0.0815714715
C  C141  1  0.13880000  0.45700000  0.65340000  1.0 -0.0979039884
C  C142  1  0.09420000  0.47980000  0.59880000  1.0 -0.1815992635
C  C143  1  0.15740000  0.48740000  0.34110000  1.0 -0.0299478416
C  C144  1  0.07880000  0.43590000  0.60530000  1.0 0.0491891778
C  C145  1  0.28420000  0.64440000  0.52300000  1.0 -0.0627910211
C  C146  1  0.31360000  0.68200000  0.54650000  1.0 0.006893607
C  C147  1  0.31800000  0.68570000  0.59440000  1.0 0.2144215041
C  C148  1  0.49940000  0.65480000  0.64690000  1.0 -0.020821103
C  C149  1  0.57420000  0.67660000  0.63520000  1.0 -0.1472253232
C  C150  1  0.59740000  0.63720000  0.58740000  1.0 -0.0034611378
C  C151  1  0.48870000  0.62150000  0.61810000  1.0 -0.0979039884
C  C152  1  0.63400000  0.67200000  0.42900000  1.0 -0.1677722843
C  C153  1  0.61230000  0.65030000  0.39000000  1.0 0.0191133955
C  C154  1  0.62600000  0.66340000  0.55300000  1.0 -0.1677722843
C  C155  1  0.57800000  0.65790000  0.37190000  1.0 0.0680143607
C  C156  1  0.53770000  0.62390000  0.36820000  1.0 -0.1677722843
C  C157  1  0.58820000  0.69910000  0.36150000  1.0 -0.1677722843
C  C158  1  0.47220000  0.66620000  0.67530000  1.0 0.6208690463
C  C159  1  0.47640000  0.67590000  0.32340000  1.0 0.6438503125
C  C160  1  0.55530000  0.70510000  0.34530000  1.0 -0.0815714715
C  C161  1  0.50650000  0.63150000  0.35420000  1.0 -0.0815714715
C  C162  1  0.54300000  0.68180000  0.65340000  1.0 -0.0979039884
C  C163  1  0.52020000  0.61440000  0.59880000  1.0 -0.1815992635
C  C164  1  0.51260000  0.67000000  0.34110000  1.0 -0.0299478416
C  C165  1  0.56410000  0.64290000  0.60530000  1.0 0.0491891778
C  C166  1  0.35560000  0.63980000  0.52300000  1.0 -0.0627910211
C  C167  1  0.31800000  0.63160000  0.54650000  1.0 0.006893607
C  C168  1  0.31430000  0.63230000  0.59440000  1.0 0.2144215041
C  C169  1  0.34520000  0.84460000  0.64690000  1.0 -0.020821103
C  C170  1  0.32340000  0.89760000  0.63520000  1.0 -0.1472253232
C  C171  1  0.36280000  0.96020000  0.58740000  1.0 -0.0034611378
C  C172  1  0.37850000  0.86720000  0.61810000  1.0 -0.0979039884
C  C173  1  0.32800000  0.96200000  0.42900000  1.0 -0.1677722843
C  C174  1  0.34970000  0.96200000  0.39000000  1.0 0.0191133955
C  C175  1  0.33660000  0.96260000  0.55300000  1.0 -0.1677722843
C  C176  1  0.34210000  0.92010000  0.37190000  1.0 0.0680143607
C  C177  1  0.37610000  0.91380000  0.36820000  1.0 -0.1677722843
C  C178  1  0.30090000  0.88910000  0.36150000  1.0 -0.1677722843
C  C179  1  0.33380000  0.80600000  0.67530000  1.0 0.6208690463
C  C180  1  0.32410000  0.80050000  0.32340000  1.0 0.6438503125
C  C181  1  0.29490000  0.85020000  0.34530000  1.0 -0.0815714715
C  C182  1  0.36850000  0.87500000  0.35420000  1.0 -0.0815714715
C  C183  1  0.31820000  0.86120000  0.65340000  1.0 -0.0979039884
C  C184  1  0.38560000  0.90580000  0.59880000  1.0 -0.1815992635
C  C185  1  0.33000000  0.84260000  0.34110000  1.0 -0.0299478416
C  C186  1  0.35710000  0.92120000  0.60530000  1.0 0.0491891778
C  C187  1  0.36020000  0.71580000  0.52300000  1.0 -0.0627910211
C  C188  1  0.36840000  0.68640000  0.54650000  1.0 0.006893607
C  C189  1  0.36770000  0.68200000  0.59440000  1.0 0.2144215041
C  C190  1  0.84460000  0.49940000  0.14690000  1.0 -0.020821103
C  C191  1  0.89760000  0.57420000  0.13520000  1.0 -0.1472253232
C  C192  1  0.96020000  0.59740000  0.08740000  1.0 -0.0034611378
C  C193  1  0.86720000  0.48870000  0.11810000  1.0 -0.0979039884
C  C194  1  0.96200000  0.63400000  0.92900000  1.0 -0.1649007118
C  C195  1  0.96200000  0.61230000  0.89000000  1.0 0.0191133955
C  C196  1  0.96260000  0.62600000  0.05300000  1.0 -0.1677722843
C  C197  1  0.92010000  0.57800000  0.87190000  1.0 0.0680143607
C  C198  1  0.91380000  0.53770000  0.86820000  1.0 -0.1677722843
C  C199  1  0.88910000  0.58820000  0.86150000  1.0 -0.1677722843
C  C200  1  0.80600000  0.47220000  0.17530000  1.0 0.6208690463
C  C201  1  0.80050000  0.47640000  0.82340000  1.0 0.6438503125
C  C202  1  0.85020000  0.55530000  0.84530000  1.0 -0.0815714715
C  C203  1  0.87500000  0.50650000  0.85420000  1.0 -0.0815714715
C  C204  1  0.86120000  0.54300000  0.15340000  1.0 -0.0979039884
C  C205  1  0.90580000  0.52020000  0.09880000  1.0 -0.1815992635
C  C206  1  0.84260000  0.51260000  0.84110000  1.0 -0.0299478416
C  C207  1  0.92120000  0.56410000  0.10530000  1.0 0.0491891778
C  C208  1  0.71580000  0.35560000  0.02300000  1.0 -0.0653489745
C  C209  1  0.68640000  0.31800000  0.04650000  1.0 0.006893607
C  C210  1  0.68200000  0.31430000  0.09440000  1.0 0.2144215041
C  C211  1  0.50060000  0.34520000  0.14690000  1.0 -0.020821103
C  C212  1  0.42580000  0.32340000  0.13520000  1.0 -0.1472253232
C  C213  1  0.40260000  0.36280000  0.08740000  1.0 -0.0034611378
C  C214  1  0.51130000  0.37850000  0.11810000  1.0 -0.0979039884
C  C215  1  0.36600000  0.32800000  0.92900000  1.0 -0.1677722843
C  C216  1  0.38770000  0.34970000  0.89000000  1.0 0.0191133955
C  C217  1  0.37400000  0.33660000  0.05300000  1.0 -0.1677722843
C  C218  1  0.42200000  0.34210000  0.87190000  1.0 0.0680143607
C  C219  1  0.46230000  0.37610000  0.86820000  1.0 -0.1677722843
C  C220  1  0.41180000  0.30090000  0.86150000  1.0 -0.1677722843
C  C221  1  0.52780000  0.33380000  0.17530000  1.0 0.6208690463
C  C222  1  0.52360000  0.32410000  0.82340000  1.0 0.6438503125
C  C223  1  0.44470000  0.29490000  0.84530000  1.0 -0.0815714715
C  C224  1  0.49350000  0.36850000  0.85420000  1.0 -0.0815714715
C  C225  1  0.45700000  0.31820000  0.15340000  1.0 -0.0979039884
C  C226  1  0.47980000  0.38560000  0.09880000  1.0 -0.1815992635
C  C227  1  0.48740000  0.33000000  0.84110000  1.0 -0.0299478416
C  C228  1  0.43590000  0.35710000  0.10530000  1.0 0.0491891778
C  C229  1  0.64440000  0.36020000  0.02300000  1.0 -0.0653489745
C  C230  1  0.68200000  0.36840000  0.04650000  1.0 0.006893607
C  C231  1  0.68570000  0.36770000  0.09440000  1.0 0.2162817116
C  C232  1  0.65480000  0.15540000  0.14690000  1.0 -0.020821103
C  C233  1  0.67660000  0.10240000  0.13520000  1.0 -0.1472253232
C  C234  1  0.63720000  0.03980000  0.08740000  1.0 -0.0034611378
C  C235  1  0.62150000  0.13280000  0.11810000  1.0 -0.0979039884
C  C236  1  0.67200000  0.03800000  0.92900000  1.0 -0.1677722843
C  C237  1  0.65030000  0.03800000  0.89000000  1.0 0.0191133955
C  C238  1  0.66340000  0.03740000  0.05300000  1.0 -0.1677722843
C  C239  1  0.65790000  0.07990000  0.87190000  1.0 0.0680143607
C  C240  1  0.62390000  0.08620000  0.86820000  1.0 -0.1677722843
C  C241  1  0.69910000  0.11090000  0.86150000  1.0 -0.1677722843
C  C242  1  0.66620000  0.19400000  0.17530000  1.0 0.6208690463
C  C243  1  0.67590000  0.19950000  0.82340000  1.0 0.6438503125
C  C244  1  0.70510000  0.14980000  0.84530000  1.0 -0.0815714715
C  C245  1  0.63150000  0.12500000  0.85420000  1.0 -0.0815714715
C  C246  1  0.68180000  0.13880000  0.15340000  1.0 -0.0979039884
C  C247  1  0.61440000  0.09420000  0.09880000  1.0 -0.1815992635
C  C248  1  0.67000000  0.15740000  0.84110000  1.0 -0.0299478416
C  C249  1  0.64290000  0.07880000  0.10530000  1.0 0.0491891778
C  C250  1  0.63980000  0.28420000  0.02300000  1.0 -0.0653489745
C  C251  1  0.63160000  0.31360000  0.04650000  1.0 0.006893607
C  C252  1  0.63230000  0.31800000  0.09440000  1.0 0.2162817116
C  C253  1  0.34520000  0.50060000  0.14690000  1.0 -0.020821103
C  C254  1  0.32340000  0.42580000  0.13520000  1.0 -0.1472253232
C  C255  1  0.36280000  0.40260000  0.08740000  1.0 -0.0034611378
C  C256  1  0.37850000  0.51130000  0.11810000  1.0 -0.0979039884
C  C257  1  0.32800000  0.36600000  0.92900000  1.0 -0.1677722843
C  C258  1  0.34970000  0.38770000  0.89000000  1.0 0.0191133955
C  C259  1  0.33660000  0.37400000  0.05300000  1.0 -0.1677722843
C  C260  1  0.34210000  0.42200000  0.87190000  1.0 0.0680143607
C  C261  1  0.37610000  0.46230000  0.86820000  1.0 -0.1677722843
C  C262  1  0.30090000  0.41180000  0.86150000  1.0 -0.1677722843
C  C263  1  0.33380000  0.52780000  0.17530000  1.0 0.6208690463
C  C264  1  0.32410000  0.52360000  0.82340000  1.0 0.6438503125
C  C265  1  0.29490000  0.44470000  0.84530000  1.0 -0.0815714715
C  C266  1  0.36850000  0.49350000  0.85420000  1.0 -0.0815714715
C  C267  1  0.31820000  0.45700000  0.15340000  1.0 -0.0979039884
C  C268  1  0.38560000  0.47980000  0.09880000  1.0 -0.1815992635
C  C269  1  0.33000000  0.48740000  0.84110000  1.0 -0.0299478416
C  C270  1  0.35710000  0.43590000  0.10530000  1.0 0.0491891778
C  C271  1  0.36020000  0.64440000  0.02300000  1.0 -0.0653489745
C  C272  1  0.36840000  0.68200000  0.04650000  1.0 0.006893607
C  C273  1  0.36770000  0.68570000  0.09440000  1.0 0.2144215041
C  C274  1  0.15540000  0.65480000  0.14690000  1.0 -0.020821103
C  C275  1  0.10240000  0.67660000  0.13520000  1.0 -0.1472253232
C  C276  1  0.03980000  0.63720000  0.08740000  1.0 -0.0034611378
C  C277  1  0.13280000  0.62150000  0.11810000  1.0 -0.0979039884
C  C278  1  0.03800000  0.67200000  0.92900000  1.0 -0.1677722843
C  C279  1  0.03800000  0.65030000  0.89000000  1.0 0.0191133955
C  C280  1  0.03740000  0.66340000  0.05300000  1.0 -0.1677722843
C  C281  1  0.07990000  0.65790000  0.87190000  1.0 0.0680143607
C  C282  1  0.08620000  0.62390000  0.86820000  1.0 -0.1677722843
C  C283  1  0.11090000  0.69910000  0.86150000  1.0 -0.1677722843
C  C284  1  0.19400000  0.66620000  0.17530000  1.0 0.6208690463
C  C285  1  0.19950000  0.67590000  0.82340000  1.0 0.6438503125
C  C286  1  0.14980000  0.70510000  0.84530000  1.0 -0.0815714715
C  C287  1  0.12500000  0.63150000  0.85420000  1.0 -0.0815714715
C  C288  1  0.13880000  0.68180000  0.15340000  1.0 -0.0979039884
C  C289  1  0.09420000  0.61440000  0.09880000  1.0 -0.1815992635
C  C290  1  0.15740000  0.67000000  0.84110000  1.0 -0.0299478416
C  C291  1  0.07880000  0.64290000  0.10530000  1.0 0.0491891778
C  C292  1  0.28420000  0.63980000  0.02300000  1.0 -0.0653489745
C  C293  1  0.31360000  0.63160000  0.04650000  1.0 0.006893607
C  C294  1  0.31800000  0.63230000  0.09440000  1.0 0.2144215041
C  C295  1  0.49940000  0.84460000  0.14690000  1.0 -0.020821103
C  C296  1  0.57420000  0.89760000  0.13520000  1.0 -0.1472253232
C  C297  1  0.59740000  0.96020000  0.08740000  1.0 -0.0034611378
C  C298  1  0.48870000  0.86720000  0.11810000  1.0 -0.0979039884
C  C299  1  0.63400000  0.96200000  0.92900000  1.0 -0.1649007118
C  C300  1  0.61230000  0.96200000  0.89000000  1.0 0.0191133955
C  C301  1  0.62600000  0.96260000  0.05300000  1.0 -0.1677722843
C  C302  1  0.57800000  0.92010000  0.87190000  1.0 0.0680143607
C  C303  1  0.53770000  0.91380000  0.86820000  1.0 -0.1677722843
C  C304  1  0.58820000  0.88910000  0.86150000  1.0 -0.1677722843
C  C305  1  0.47220000  0.80600000  0.17530000  1.0 0.6208690463
C  C306  1  0.47640000  0.80050000  0.82340000  1.0 0.6438503125
C  C307  1  0.55530000  0.85020000  0.84530000  1.0 -0.0815714715
C  C308  1  0.50650000  0.87500000  0.85420000  1.0 -0.0815714715
C  C309  1  0.54300000  0.86120000  0.15340000  1.0 -0.0979039884
C  C310  1  0.52020000  0.90580000  0.09880000  1.0 -0.1815992635
C  C311  1  0.51260000  0.84260000  0.84110000  1.0 -0.0299478416
C  C312  1  0.56410000  0.92120000  0.10530000  1.0 0.0491891778
C  C313  1  0.35560000  0.71580000  0.02300000  1.0 -0.0653489745
C  C314  1  0.31800000  0.68640000  0.04650000  1.0 0.006893607
C  C315  1  0.31430000  0.68200000  0.09440000  1.0 0.2144215041
C  C316  1  0.65480000  0.49940000  0.64690000  1.0 -0.020821103
C  C317  1  0.67660000  0.57420000  0.63520000  1.0 -0.1472253232
C  C318  1  0.63720000  0.59740000  0.58740000  1.0 -0.0034611378
C  C319  1  0.62150000  0.48870000  0.61810000  1.0 -0.0979039884
C  C320  1  0.67200000  0.63400000  0.42900000  1.0 -0.1649007118
C  C321  1  0.65030000  0.61230000  0.39000000  1.0 0.0191133955
C  C322  1  0.66340000  0.62600000  0.55300000  1.0 -0.1677722843
C  C323  1  0.65790000  0.57800000  0.37190000  1.0 0.0680143607
C  C324  1  0.62390000  0.53770000  0.36820000  1.0 -0.1677722843
C  C325  1  0.69910000  0.58820000  0.36150000  1.0 -0.1677722843
C  C326  1  0.66620000  0.47220000  0.67530000  1.0 0.6208690463
C  C327  1  0.67590000  0.47640000  0.32340000  1.0 0.6438503125
C  C328  1  0.70510000  0.55530000  0.34530000  1.0 -0.0815714715
C  C329  1  0.63150000  0.50650000  0.35420000  1.0 -0.0815714715
C  C330  1  0.68180000  0.54300000  0.65340000  1.0 -0.0979039884
C  C331  1  0.61440000  0.52020000  0.59880000  1.0 -0.1815992635
C  C332  1  0.67000000  0.51260000  0.34110000  1.0 -0.0299478416
C  C333  1  0.64290000  0.56410000  0.60530000  1.0 0.0491891778
C  C334  1  0.63980000  0.35560000  0.52300000  1.0 -0.0627910211
C  C335  1  0.63160000  0.31800000  0.54650000  1.0 0.006893607
C  C336  1  0.63230000  0.31430000  0.59440000  1.0 0.2162817116
C  C337  1  0.84460000  0.34520000  0.64690000  1.0 -0.020821103
C  C338  1  0.89760000  0.32340000  0.63520000  1.0 -0.1472253232
C  C339  1  0.96020000  0.36280000  0.58740000  1.0 -0.0034611378
C  C340  1  0.86720000  0.37850000  0.61810000  1.0 -0.0979039884
C  C341  1  0.96200000  0.32800000  0.42900000  1.0 -0.1649007118
C  C342  1  0.96200000  0.34970000  0.39000000  1.0 0.0191133955
C  C343  1  0.96260000  0.33660000  0.55300000  1.0 -0.1677722843
C  C344  1  0.92010000  0.34210000  0.37190000  1.0 0.0680143607
C  C345  1  0.91380000  0.37610000  0.36820000  1.0 -0.1677722843
C  C346  1  0.88910000  0.30090000  0.36150000  1.0 -0.1677722843
C  C347  1  0.80600000  0.33380000  0.67530000  1.0 0.6208690463
C  C348  1  0.80050000  0.32410000  0.32340000  1.0 0.6438503125
C  C349  1  0.85020000  0.29490000  0.34530000  1.0 -0.0815714715
C  C350  1  0.87500000  0.36850000  0.35420000  1.0 -0.0815714715
C  C351  1  0.86120000  0.31820000  0.65340000  1.0 -0.0979039884
C  C352  1  0.90580000  0.38560000  0.59880000  1.0 -0.1815992635
C  C353  1  0.84260000  0.33000000  0.34110000  1.0 -0.0299478416
C  C354  1  0.92120000  0.35710000  0.60530000  1.0 0.0491891778
C  C355  1  0.71580000  0.36020000  0.52300000  1.0 -0.0627910211
C  C356  1  0.68640000  0.36840000  0.54650000  1.0 0.006893607
C  C357  1  0.68200000  0.36770000  0.59440000  1.0 0.2162817116
C  C358  1  0.50060000  0.15540000  0.64690000  1.0 -0.020821103
C  C359  1  0.42580000  0.10240000  0.63520000  1.0 -0.1472253232
C  C360  1  0.40260000  0.03980000  0.58740000  1.0 -0.0034611378
C  C361  1  0.51130000  0.13280000  0.61810000  1.0 -0.0979039884
C  C362  1  0.36600000  0.03800000  0.42900000  1.0 -0.1677722843
C  C363  1  0.38770000  0.03800000  0.39000000  1.0 0.0191133955
C  C364  1  0.37400000  0.03740000  0.55300000  1.0 -0.1677722843
C  C365  1  0.42200000  0.07990000  0.37190000  1.0 0.0680143607
C  C366  1  0.46230000  0.08620000  0.36820000  1.0 -0.1677722843
C  C367  1  0.41180000  0.11090000  0.36150000  1.0 -0.1677722843
C  C368  1  0.52780000  0.19400000  0.67530000  1.0 0.6208690463
C  C369  1  0.52360000  0.19950000  0.32340000  1.0 0.6438503125
C  C370  1  0.44470000  0.14980000  0.34530000  1.0 -0.0815714715
C  C371  1  0.49350000  0.12500000  0.35420000  1.0 -0.0815714715
C  C372  1  0.45700000  0.13880000  0.65340000  1.0 -0.0979039884
C  C373  1  0.47980000  0.09420000  0.59880000  1.0 -0.1815992635
C  C374  1  0.48740000  0.15740000  0.34110000  1.0 -0.0299478416
C  C375  1  0.43590000  0.07880000  0.60530000  1.0 0.0491891778
C  C376  1  0.64440000  0.28420000  0.52300000  1.0 -0.0627910211
C  C377  1  0.68200000  0.31360000  0.54650000  1.0 0.006893607
C  C378  1  0.68570000  0.31800000  0.59440000  1.0 0.2162817116
C  C379  1  0.84460000  0.49940000  0.35310000  1.0 -0.020821103
C  C380  1  0.89760000  0.57420000  0.36480000  1.0 -0.1472253232
C  C381  1  0.96020000  0.59740000  0.41260000  1.0 -0.0034611378
C  C382  1  0.86720000  0.48870000  0.38190000  1.0 -0.0979039884
C  C383  1  0.96200000  0.63400000  0.57100000  1.0 -0.1677722843
C  C384  1  0.96200000  0.61230000  0.61000000  1.0 0.0191133955
C  C385  1  0.96260000  0.62600000  0.44700000  1.0 -0.1677722843
C  C386  1  0.92010000  0.57800000  0.62810000  1.0 0.0680143607
C  C387  1  0.91380000  0.53770000  0.63180000  1.0 -0.1677722843
C  C388  1  0.88910000  0.58820000  0.63850000  1.0 -0.1677722843
C  C389  1  0.80600000  0.47220000  0.32470000  1.0 0.6208690463
C  C390  1  0.80050000  0.47640000  0.67660000  1.0 0.6438503125
C  C391  1  0.85020000  0.55530000  0.65470000  1.0 -0.0815714715
C  C392  1  0.87500000  0.50650000  0.64580000  1.0 -0.0815714715
C  C393  1  0.86120000  0.54300000  0.34660000  1.0 -0.0979039884
C  C394  1  0.90580000  0.52020000  0.40120000  1.0 -0.1815992635
C  C395  1  0.84260000  0.51260000  0.65890000  1.0 -0.0299478416
C  C396  1  0.92120000  0.56410000  0.39470000  1.0 0.0491891778
C  C397  1  0.71580000  0.35560000  0.47700000  1.0 -0.0627910211
C  C398  1  0.68640000  0.31800000  0.45350000  1.0 0.006893607
C  C399  1  0.68200000  0.31430000  0.40560000  1.0 0.2162817116
C  C400  1  0.50060000  0.34520000  0.35310000  1.0 -0.020821103
C  C401  1  0.42580000  0.32340000  0.36480000  1.0 -0.1472253232
C  C402  1  0.40260000  0.36280000  0.41260000  1.0 -0.0034611378
C  C403  1  0.51130000  0.37850000  0.38190000  1.0 -0.0979039884
C  C404  1  0.36600000  0.32800000  0.57100000  1.0 -0.1677722843
C  C405  1  0.38770000  0.34970000  0.61000000  1.0 0.0191133955
C  C406  1  0.37400000  0.33660000  0.44700000  1.0 -0.1677722843
C  C407  1  0.42200000  0.34210000  0.62810000  1.0 0.0680143607
C  C408  1  0.46230000  0.37610000  0.63180000  1.0 -0.1677722843
C  C409  1  0.41180000  0.30090000  0.63850000  1.0 -0.1677722843
C  C410  1  0.52780000  0.33380000  0.32470000  1.0 0.6208690463
C  C411  1  0.52360000  0.32410000  0.67660000  1.0 0.6438503125
C  C412  1  0.44470000  0.29490000  0.65470000  1.0 -0.0815714715
C  C413  1  0.49350000  0.36850000  0.64580000  1.0 -0.0815714715
C  C414  1  0.45700000  0.31820000  0.34660000  1.0 -0.0979039884
C  C415  1  0.47980000  0.38560000  0.40120000  1.0 -0.1815992635
C  C416  1  0.48740000  0.33000000  0.65890000  1.0 -0.0299478416
C  C417  1  0.43590000  0.35710000  0.39470000  1.0 0.0491891778
C  C418  1  0.64440000  0.36020000  0.47700000  1.0 -0.0627910211
C  C419  1  0.68200000  0.36840000  0.45350000  1.0 0.006893607
C  C420  1  0.68570000  0.36770000  0.40560000  1.0 0.2162817116
C  C421  1  0.65480000  0.15540000  0.35310000  1.0 -0.020821103
C  C422  1  0.67660000  0.10240000  0.36480000  1.0 -0.1472253232
C  C423  1  0.63720000  0.03980000  0.41260000  1.0 -0.0034611378
C  C424  1  0.62150000  0.13280000  0.38190000  1.0 -0.0979039884
C  C425  1  0.67200000  0.03800000  0.57100000  1.0 -0.1677722843
C  C426  1  0.65030000  0.03800000  0.61000000  1.0 0.0191133955
C  C427  1  0.66340000  0.03740000  0.44700000  1.0 -0.1677722843
C  C428  1  0.65790000  0.07990000  0.62810000  1.0 0.0680143607
C  C429  1  0.62390000  0.08620000  0.63180000  1.0 -0.1677722843
C  C430  1  0.69910000  0.11090000  0.63850000  1.0 -0.1677722843
C  C431  1  0.66620000  0.19400000  0.32470000  1.0 0.6208690463
C  C432  1  0.67590000  0.19950000  0.67660000  1.0 0.6438503125
C  C433  1  0.70510000  0.14980000  0.65470000  1.0 -0.0815714715
C  C434  1  0.63150000  0.12500000  0.64580000  1.0 -0.0815714715
C  C435  1  0.68180000  0.13880000  0.34660000  1.0 -0.0979039884
C  C436  1  0.61440000  0.09420000  0.40120000  1.0 -0.1815992635
C  C437  1  0.67000000  0.15740000  0.65890000  1.0 -0.0299478416
C  C438  1  0.64290000  0.07880000  0.39470000  1.0 0.0491891778
C  C439  1  0.63980000  0.28420000  0.47700000  1.0 -0.0627910211
C  C440  1  0.63160000  0.31360000  0.45350000  1.0 0.006893607
C  C441  1  0.63230000  0.31800000  0.40560000  1.0 0.2162817116
C  C442  1  0.15540000  0.50060000  0.85310000  1.0 -0.020821103
C  C443  1  0.10240000  0.42580000  0.86480000  1.0 -0.1472253232
C  C444  1  0.03980000  0.40260000  0.91260000  1.0 -0.0034611378
C  C445  1  0.13280000  0.51130000  0.88190000  1.0 -0.0979039884
C  C446  1  0.03800000  0.36600000  0.07100000  1.0 -0.1677722843
C  C447  1  0.03800000  0.38770000  0.11000000  1.0 0.0191133955
C  C448  1  0.03740000  0.37400000  0.94700000  1.0 -0.1677722843
C  C449  1  0.07990000  0.42200000  0.12810000  1.0 0.0680143607
C  C450  1  0.08620000  0.46230000  0.13180000  1.0 -0.1677722843
C  C451  1  0.11090000  0.41180000  0.13850000  1.0 -0.1677722843
C  C452  1  0.19400000  0.52780000  0.82470000  1.0 0.6208690463
C  C453  1  0.19950000  0.52360000  0.17660000  1.0 0.6438503125
C  C454  1  0.14980000  0.44470000  0.15470000  1.0 -0.0815714715
C  C455  1  0.12500000  0.49350000  0.14580000  1.0 -0.0815714715
C  C456  1  0.13880000  0.45700000  0.84660000  1.0 -0.0979039884
C  C457  1  0.09420000  0.47980000  0.90120000  1.0 -0.1815992635
C  C458  1  0.15740000  0.48740000  0.15890000  1.0 -0.0299478416
C  C459  1  0.07880000  0.43590000  0.89470000  1.0 0.0491891778
C  C460  1  0.28420000  0.64440000  0.97700000  1.0 -0.0627910211
C  C461  1  0.31360000  0.68200000  0.95350000  1.0 0.006893607
C  C462  1  0.31800000  0.68570000  0.90560000  1.0 0.2144215041
C  C463  1  0.49940000  0.65480000  0.85310000  1.0 -0.020821103
C  C464  1  0.57420000  0.67660000  0.86480000  1.0 -0.1472253232
C  C465  1  0.59740000  0.63720000  0.91260000  1.0 -0.0034611378
C  C466  1  0.48870000  0.62150000  0.88190000  1.0 -0.0979039884
C  C467  1  0.63400000  0.67200000  0.07100000  1.0 -0.1677722843
C  C468  1  0.61230000  0.65030000  0.11000000  1.0 0.0191133955
C  C469  1  0.62600000  0.66340000  0.94700000  1.0 -0.1677722843
C  C470  1  0.57800000  0.65790000  0.12810000  1.0 0.0680143607
C  C471  1  0.53770000  0.62390000  0.13180000  1.0 -0.1677722843
C  C472  1  0.58820000  0.69910000  0.13850000  1.0 -0.1677722843
C  C473  1  0.47220000  0.66620000  0.82470000  1.0 0.6208690463
C  C474  1  0.47640000  0.67590000  0.17660000  1.0 0.6438503125
C  C475  1  0.55530000  0.70510000  0.15470000  1.0 -0.0815714715
C  C476  1  0.50650000  0.63150000  0.14580000  1.0 -0.0815714715
C  C477  1  0.54300000  0.68180000  0.84660000  1.0 -0.0979039884
C  C478  1  0.52020000  0.61440000  0.90120000  1.0 -0.1815992635
C  C479  1  0.51260000  0.67000000  0.15890000  1.0 -0.0299478416
C  C480  1  0.56410000  0.64290000  0.89470000  1.0 0.0491891778
C  C481  1  0.35560000  0.63980000  0.97700000  1.0 -0.0627910211
C  C482  1  0.31800000  0.63160000  0.95350000  1.0 0.006893607
C  C483  1  0.31430000  0.63230000  0.90560000  1.0 0.2144215041
C  C484  1  0.34520000  0.84460000  0.85310000  1.0 -0.020821103
C  C485  1  0.32340000  0.89760000  0.86480000  1.0 -0.1472253232
C  C486  1  0.36280000  0.96020000  0.91260000  1.0 -0.0034611378
C  C487  1  0.37850000  0.86720000  0.88190000  1.0 -0.0979039884
C  C488  1  0.32800000  0.96200000  0.07100000  1.0 -0.1677722843
C  C489  1  0.34970000  0.96200000  0.11000000  1.0 0.0191133955
C  C490  1  0.33660000  0.96260000  0.94700000  1.0 -0.1677722843
C  C491  1  0.34210000  0.92010000  0.12810000  1.0 0.0680143607
C  C492  1  0.37610000  0.91380000  0.13180000  1.0 -0.1677722843
C  C493  1  0.30090000  0.88910000  0.13850000  1.0 -0.1677722843
C  C494  1  0.33380000  0.80600000  0.82470000  1.0 0.6208690463
C  C495  1  0.32410000  0.80050000  0.17660000  1.0 0.6438503125
C  C496  1  0.29490000  0.85020000  0.15470000  1.0 -0.0815714715
C  C497  1  0.36850000  0.87500000  0.14580000  1.0 -0.0815714715
C  C498  1  0.31820000  0.86120000  0.84660000  1.0 -0.0979039884
C  C499  1  0.38560000  0.90580000  0.90120000  1.0 -0.1815992635
C  C500  1  0.33000000  0.84260000  0.15890000  1.0 -0.0299478416
C  C501  1  0.35710000  0.92120000  0.89470000  1.0 0.0491891778
C  C502  1  0.36020000  0.71580000  0.97700000  1.0 -0.0627910211
C  C503  1  0.36840000  0.68640000  0.95350000  1.0 0.006893607
C  C504  1  0.36770000  0.68200000  0.90560000  1.0 0.2162817116
C  C505  1  0.62090000  0.62090000  0.13050000  1.0 0.0853538715
C  C506  1  0.65630000  0.65630000  0.96270000  1.0 -0.0627910211
C  C507  1  0.66430000  0.66430000  0.05340000  1.0 -0.0534641264
C  C508  1  0.60430000  0.60430000  0.89840000  1.0 0.0680143607
C  C509  1  0.00000000  0.37910000  0.13050000  1.0 0.0853538715
C  C510  1  0.00000000  0.34370000  0.96270000  1.0 -0.0627910211
C  C511  1  0.00000000  0.33570000  0.05340000  1.0 -0.0627910211
C  C512  1  0.00000000  0.39570000  0.89840000  1.0 0.0680143607
C  C513  1  0.37910000  0.00000000  0.13050000  1.0 0.0853538715
C  C514  1  0.34370000  0.00000000  0.96270000  1.0 -0.0627910211
C  C515  1  0.33570000  0.00000000  0.05340000  1.0 -0.0534641264
C  C516  1  0.39570000  0.00000000  0.89840000  1.0 0.0680143607
C  C517  1  0.37910000  0.37910000  0.63050000  1.0 0.0830372537
C  C518  1  0.34370000  0.34370000  0.46270000  1.0 -0.0627910211
C  C519  1  0.33570000  0.33570000  0.55340000  1.0 -0.0534641264
C  C520  1  0.39570000  0.39570000  0.39840000  1.0 0.0680143607
C  C521  1  0.00000000  0.62090000  0.63050000  1.0 0.0830372537
C  C522  1  0.00000000  0.65630000  0.46270000  1.0 -0.0627910211
C  C523  1  0.00000000  0.66430000  0.55340000  1.0 -0.0534641264
C  C524  1  0.00000000  0.60430000  0.39840000  1.0 0.0680143607
C  C525  1  0.62090000  0.00000000  0.63050000  1.0 0.0853538715
C  C526  1  0.65630000  0.00000000  0.46270000  1.0 -0.0627910211
C  C527  1  0.66430000  0.00000000  0.55340000  1.0 -0.0534641264
C  C528  1  0.60430000  0.00000000  0.39840000  1.0 0.0680143607
C  C529  1  0.00000000  0.37910000  0.36950000  1.0 0.0830372537
C  C530  1  0.00000000  0.34370000  0.53730000  1.0 -0.0627910211
C  C531  1  0.00000000  0.33570000  0.44660000  1.0 -0.0534641264
C  C532  1  0.00000000  0.39570000  0.60160000  1.0 0.0680143607
C  C533  1  0.62090000  0.62090000  0.36950000  1.0 0.0830372537
C  C534  1  0.65630000  0.65630000  0.53730000  1.0 -0.0627910211
C  C535  1  0.66430000  0.66430000  0.44660000  1.0 -0.0534641264
C  C536  1  0.60430000  0.60430000  0.60160000  1.0 0.0680143607
C  C537  1  0.37910000  0.00000000  0.36950000  1.0 0.0853538715
C  C538  1  0.34370000  0.00000000  0.53730000  1.0 -0.0627910211
C  C539  1  0.33570000  0.00000000  0.44660000  1.0 -0.0534641264
C  C540  1  0.39570000  0.00000000  0.60160000  1.0 0.0680143607
C  C541  1  0.00000000  0.62090000  0.86950000  1.0 0.0830372537
C  C542  1  0.00000000  0.65630000  0.03730000  1.0 -0.0627910211
C  C543  1  0.00000000  0.66430000  0.94660000  1.0 -0.0534641264
C  C544  1  0.00000000  0.60430000  0.10160000  1.0 0.0680143607
C  C545  1  0.37910000  0.37910000  0.86950000  1.0 0.0830372537
C  C546  1  0.34370000  0.34370000  0.03730000  1.0 -0.0627910211
C  C547  1  0.33570000  0.33570000  0.94660000  1.0 -0.0534641264
C  C548  1  0.39570000  0.39570000  0.10160000  1.0 0.0680143607
C  C549  1  0.62090000  0.00000000  0.86950000  1.0 0.0830372537
C  C550  1  0.65630000  0.00000000  0.03730000  1.0 -0.0627910211
C  C551  1  0.66430000  0.00000000  0.94660000  1.0 -0.0534641264
C  C552  1  0.60430000  0.00000000  0.10160000  1.0 0.0680143607
S  S1  1  0.69098000  0.69098000  0.00427000  1.0 0.9429845496
S  S2  1  0.00000000  0.30902000  0.00427000  1.0 0.9429845496
S  S3  1  0.30902000  0.00000000  0.00427000  1.0 0.9429845496
S  S4  1  0.30902000  0.30902000  0.50427000  1.0 0.9429845496
S  S5  1  0.00000000  0.69098000  0.50427000  1.0 0.9429845496
S  S6  1  0.69098000  0.00000000  0.50427000  1.0 0.9429845496
S  S7  1  0.00000000  0.30902000  0.49573000  1.0 0.9429845496
S  S8  1  0.69098000  0.69098000  0.49573000  1.0 0.9429845496
S  S9  1  0.30902000  0.00000000  0.49573000  1.0 0.9429845496
S  S10  1  0.00000000  0.69098000  0.99573000  1.0 0.9429845496
S  S11  1  0.30902000  0.30902000  0.99573000  1.0 0.9429845496
S  S12  1  0.69098000  0.00000000  0.99573000  1.0 0.9429845496
N  N1  1  0.60250000  0.60250000  0.16940000  1.0 -0.3194757952
N  N2  1  0.57550000  0.57550000  0.86390000  1.0 -0.3501711219
N  N3  1  0.00000000  0.39750000  0.16940000  1.0 -0.3194757952
N  N4  1  0.00000000  0.42450000  0.86390000  1.0 -0.3501711219
N  N5  1  0.39750000  0.00000000  0.16940000  1.0 -0.3143072194
N  N6  1  0.42450000  0.00000000  0.86390000  1.0 -0.3426234043
N  N7  1  0.39750000  0.39750000  0.66940000  1.0 -0.3194757952
N  N8  1  0.42450000  0.42450000  0.36390000  1.0 -0.3501711219
N  N9  1  0.00000000  0.60250000  0.66940000  1.0 -0.3194757952
N  N10  1  0.00000000  0.57550000  0.36390000  1.0 -0.3501711219
N  N11  1  0.60250000  0.00000000  0.66940000  1.0 -0.3143072194
N  N12  1  0.57550000  0.00000000  0.36390000  1.0 -0.3426234043
N  N13  1  0.00000000  0.39750000  0.33060000  1.0 -0.3194757952
N  N14  1  0.00000000  0.42450000  0.63610000  1.0 -0.3501711219
N  N15  1  0.60250000  0.60250000  0.33060000  1.0 -0.3194757952
N  N16  1  0.57550000  0.57550000  0.63610000  1.0 -0.3501711219
N  N17  1  0.39750000  0.00000000  0.33060000  1.0 -0.3143072194
N  N18  1  0.42450000  0.00000000  0.63610000  1.0 -0.3426234043
N  N19  1  0.00000000  0.60250000  0.83060000  1.0 -0.3194757952
N  N20  1  0.00000000  0.57550000  0.13610000  1.0 -0.3501711219
N  N21  1  0.39750000  0.39750000  0.83060000  1.0 -0.3194757952
N  N22  1  0.42450000  0.42450000  0.13610000  1.0 -0.3501711219
N  N23  1  0.60250000  0.00000000  0.83060000  1.0 -0.3143072194
N  N24  1  0.57550000  0.00000000  0.13610000  1.0 -0.3426234043
O  O1  1  0.69950000  0.41020000  0.81890000  1.0 -0.9777786665
O  O2  1  0.63600000  0.35640000  0.88900000  1.0 -0.4977913144
O  O3  1  0.71160000  0.49020000  0.19920000  1.0 -0.671512223
O  O4  1  0.63420000  0.43060000  0.83800000  1.0 -0.6963688824
O  O5  1  0.69080000  0.48130000  0.80130000  1.0 -0.5872480563
O  O6  1  0.69000000  0.73070000  0.00180000  1.0 -0.4933810598
O  O7  1  0.64820000  0.44040000  0.17030000  1.0 -0.5646449593
O  O8  1  0.71070000  0.30050000  0.81890000  1.0 -0.9777786665
O  O9  1  0.72040000  0.36400000  0.88900000  1.0 -0.4977913144
O  O10  1  0.77860000  0.28840000  0.19920000  1.0 -0.671512223
O  O11  1  0.79640000  0.36580000  0.83800000  1.0 -0.6963688824
O  O12  1  0.79050000  0.30920000  0.80130000  1.0 -0.5872480563
O  O13  1  0.04070000  0.31000000  0.00180000  1.0 -0.4933810598
O  O14  1  0.79220000  0.35180000  0.17030000  1.0 -0.5646449593
O  O15  1  0.58980000  0.28930000  0.81890000  1.0 -0.9777786665
O  O16  1  0.64360000  0.27960000  0.88900000  1.0 -0.4977913144
O  O17  1  0.50980000  0.22140000  0.19920000  1.0 -0.671512223
O  O18  1  0.56940000  0.20360000  0.83800000  1.0 -0.6963688824
O  O19  1  0.51870000  0.20950000  0.80130000  1.0 -0.5872480563
O  O20  1  0.26930000  0.95930000  0.00180000  1.0 -0.4977913144
O  O21  1  0.55960000  0.20780000  0.17030000  1.0 -0.5646449593
O  O22  1  0.30050000  0.58980000  0.31890000  1.0 -0.9777786665
O  O23  1  0.36400000  0.64360000  0.38900000  1.0 -0.4977913144
O  O24  1  0.28840000  0.50980000  0.69920000  1.0 -0.671512223
O  O25  1  0.36580000  0.56940000  0.33800000  1.0 -0.6963688824
O  O26  1  0.30920000  0.51870000  0.30130000  1.0 -0.5872480563
O  O27  1  0.31000000  0.26930000  0.50180000  1.0 -0.4933810598
O  O28  1  0.35180000  0.55960000  0.67030000  1.0 -0.5654363996
O  O29  1  0.28930000  0.69950000  0.31890000  1.0 -0.9743484027
O  O30  1  0.27960000  0.63600000  0.38900000  1.0 -0.4977913144
O  O31  1  0.22140000  0.71160000  0.69920000  1.0 -0.671512223
O  O32  1  0.20360000  0.63420000  0.33800000  1.0 -0.6963688824
O  O33  1  0.20950000  0.69080000  0.30130000  1.0 -0.5872480563
O  O34  1  0.95930000  0.69000000  0.50180000  1.0 -0.4933810598
O  O35  1  0.20780000  0.64820000  0.67030000  1.0 -0.5654363996
O  O36  1  0.41020000  0.71070000  0.31890000  1.0 -0.9777786665
O  O37  1  0.35640000  0.72040000  0.38900000  1.0 -0.4977913144
O  O38  1  0.49020000  0.77860000  0.69920000  1.0 -0.671512223
O  O39  1  0.43060000  0.79640000  0.33800000  1.0 -0.6963688824
O  O40  1  0.48130000  0.79050000  0.30130000  1.0 -0.5872480563
O  O41  1  0.73070000  0.04070000  0.50180000  1.0 -0.4933810598
O  O42  1  0.44040000  0.79220000  0.67030000  1.0 -0.5654363996
O  O43  1  0.28930000  0.58980000  0.68110000  1.0 -0.9777786665
O  O44  1  0.27960000  0.64360000  0.61100000  1.0 -0.4977913144
O  O45  1  0.22140000  0.50980000  0.30080000  1.0 -0.671512223
O  O46  1  0.20360000  0.56940000  0.66200000  1.0 -0.6963688824
O  O47  1  0.20950000  0.51870000  0.69870000  1.0 -0.5872480563
O  O48  1  0.95930000  0.26930000  0.49820000  1.0 -0.4933810598
O  O49  1  0.20780000  0.55960000  0.32970000  1.0 -0.5654363996
O  O50  1  0.41020000  0.69950000  0.68110000  1.0 -0.9777786665
O  O51  1  0.35640000  0.63600000  0.61100000  1.0 -0.4977913144
O  O52  1  0.49020000  0.71160000  0.30080000  1.0 -0.671512223
O  O53  1  0.43060000  0.63420000  0.66200000  1.0 -0.6963688824
O  O54  1  0.48130000  0.69080000  0.69870000  1.0 -0.5872480563
O  O55  1  0.73070000  0.69000000  0.49820000  1.0 -0.4933810598
O  O56  1  0.44040000  0.64820000  0.32970000  1.0 -0.5654363996
O  O57  1  0.30050000  0.71070000  0.68110000  1.0 -0.9777786665
O  O58  1  0.36400000  0.72040000  0.61100000  1.0 -0.4977913144
O  O59  1  0.28840000  0.77860000  0.30080000  1.0 -0.671512223
O  O60  1  0.36580000  0.79640000  0.66200000  1.0 -0.6963688824
O  O61  1  0.30920000  0.79050000  0.69870000  1.0 -0.5872480563
O  O62  1  0.31000000  0.04070000  0.49820000  1.0 -0.4977913144
O  O63  1  0.35180000  0.79220000  0.32970000  1.0 -0.5654363996
O  O64  1  0.71070000  0.41020000  0.18110000  1.0 -0.9897248939
O  O65  1  0.72040000  0.35640000  0.11100000  1.0 -0.4977913144
O  O66  1  0.77860000  0.49020000  0.80080000  1.0 -0.671512223
O  O67  1  0.79640000  0.43060000  0.16200000  1.0 -0.6963688824
O  O68  1  0.79050000  0.48130000  0.19870000  1.0 -0.5872480563
O  O69  1  0.04070000  0.73070000  0.99820000  1.0 -0.4933810598
O  O70  1  0.79220000  0.44040000  0.82970000  1.0 -0.5646449593
O  O71  1  0.58980000  0.30050000  0.18110000  1.0 -0.9897248939
O  O72  1  0.64360000  0.36400000  0.11100000  1.0 -0.4977913144
O  O73  1  0.50980000  0.28840000  0.80080000  1.0 -0.671512223
O  O74  1  0.56940000  0.36580000  0.16200000  1.0 -0.6947209603
O  O75  1  0.51870000  0.30920000  0.19870000  1.0 -0.5872480563
O  O76  1  0.26930000  0.31000000  0.99820000  1.0 -0.4933810598
O  O77  1  0.55960000  0.35180000  0.82970000  1.0 -0.5646449593
O  O78  1  0.69950000  0.28930000  0.18110000  1.0 -0.9777786665
O  O79  1  0.63600000  0.27960000  0.11100000  1.0 -0.4977913144
O  O80  1  0.71160000  0.22140000  0.80080000  1.0 -0.671512223
O  O81  1  0.63420000  0.20360000  0.16200000  1.0 -0.6963688824
O  O82  1  0.69080000  0.20950000  0.19870000  1.0 -0.5872480563
O  O83  1  0.69000000  0.95930000  0.99820000  1.0 -0.4977913144
O  O84  1  0.64820000  0.20780000  0.82970000  1.0 -0.5646449593
O  O85  1  0.30050000  0.58980000  0.18110000  1.0 -0.9777786665
O  O86  1  0.36400000  0.64360000  0.11100000  1.0 -0.4977913144
O  O87  1  0.28840000  0.50980000  0.80080000  1.0 -0.671512223
O  O88  1  0.36580000  0.56940000  0.16200000  1.0 -0.6963688824
O  O89  1  0.30920000  0.51870000  0.19870000  1.0 -0.5872480563
O  O90  1  0.31000000  0.26930000  0.99820000  1.0 -0.4933810598
O  O91  1  0.35180000  0.55960000  0.82970000  1.0 -0.5654363996
O  O92  1  0.28930000  0.69950000  0.18110000  1.0 -0.9743484027
O  O93  1  0.27960000  0.63600000  0.11100000  1.0 -0.4977913144
O  O94  1  0.22140000  0.71160000  0.80080000  1.0 -0.671512223
O  O95  1  0.20360000  0.63420000  0.16200000  1.0 -0.6963688824
O  O96  1  0.20950000  0.69080000  0.19870000  1.0 -0.5872480563
O  O97  1  0.95930000  0.69000000  0.99820000  1.0 -0.4933810598
O  O98  1  0.20780000  0.64820000  0.82970000  1.0 -0.5654363996
O  O99  1  0.41020000  0.71070000  0.18110000  1.0 -0.9777786665
O  O100  1  0.35640000  0.72040000  0.11100000  1.0 -0.4977913144
O  O101  1  0.49020000  0.77860000  0.80080000  1.0 -0.671512223
O  O102  1  0.43060000  0.79640000  0.16200000  1.0 -0.6963688824
O  O103  1  0.48130000  0.79050000  0.19870000  1.0 -0.5872480563
O  O104  1  0.73070000  0.04070000  0.99820000  1.0 -0.4933810598
O  O105  1  0.44040000  0.79220000  0.82970000  1.0 -0.5654363996
O  O106  1  0.69950000  0.41020000  0.68110000  1.0 -0.9777786665
O  O107  1  0.63600000  0.35640000  0.61100000  1.0 -0.4977913144
O  O108  1  0.71160000  0.49020000  0.30080000  1.0 -0.671512223
O  O109  1  0.63420000  0.43060000  0.66200000  1.0 -0.6963688824
O  O110  1  0.69080000  0.48130000  0.69870000  1.0 -0.5872480563
O  O111  1  0.69000000  0.73070000  0.49820000  1.0 -0.4933810598
O  O112  1  0.64820000  0.44040000  0.32970000  1.0 -0.5646449593
O  O113  1  0.71070000  0.30050000  0.68110000  1.0 -0.9777786665
O  O114  1  0.72040000  0.36400000  0.61100000  1.0 -0.4977913144
O  O115  1  0.77860000  0.28840000  0.30080000  1.0 -0.671512223
O  O116  1  0.79640000  0.36580000  0.66200000  1.0 -0.6963688824
O  O117  1  0.79050000  0.30920000  0.69870000  1.0 -0.5872480563
O  O118  1  0.04070000  0.31000000  0.49820000  1.0 -0.4933810598
O  O119  1  0.79220000  0.35180000  0.32970000  1.0 -0.5646449593
O  O120  1  0.58980000  0.28930000  0.68110000  1.0 -0.9777786665
O  O121  1  0.64360000  0.27960000  0.61100000  1.0 -0.4977913144
O  O122  1  0.50980000  0.22140000  0.30080000  1.0 -0.671512223
O  O123  1  0.56940000  0.20360000  0.66200000  1.0 -0.6963688824
O  O124  1  0.51870000  0.20950000  0.69870000  1.0 -0.5872480563
O  O125  1  0.26930000  0.95930000  0.49820000  1.0 -0.4977913144
O  O126  1  0.55960000  0.20780000  0.32970000  1.0 -0.5646449593
O  O127  1  0.71070000  0.41020000  0.31890000  1.0 -0.9897248939
O  O128  1  0.72040000  0.35640000  0.38900000  1.0 -0.4977913144
O  O129  1  0.77860000  0.49020000  0.69920000  1.0 -0.671512223
O  O130  1  0.79640000  0.43060000  0.33800000  1.0 -0.6963688824
O  O131  1  0.79050000  0.48130000  0.30130000  1.0 -0.5872480563
O  O132  1  0.04070000  0.73070000  0.50180000  1.0 -0.4933810598
O  O133  1  0.79220000  0.44040000  0.67030000  1.0 -0.5646449593
O  O134  1  0.58980000  0.30050000  0.31890000  1.0 -0.9897248939
O  O135  1  0.64360000  0.36400000  0.38900000  1.0 -0.4977913144
O  O136  1  0.50980000  0.28840000  0.69920000  1.0 -0.671512223
O  O137  1  0.56940000  0.36580000  0.33800000  1.0 -0.6947209603
O  O138  1  0.51870000  0.30920000  0.30130000  1.0 -0.5872480563
O  O139  1  0.26930000  0.31000000  0.50180000  1.0 -0.4933810598
O  O140  1  0.55960000  0.35180000  0.67030000  1.0 -0.5646449593
O  O141  1  0.69950000  0.28930000  0.31890000  1.0 -0.9777786665
O  O142  1  0.63600000  0.27960000  0.38900000  1.0 -0.4977913144
O  O143  1  0.71160000  0.22140000  0.69920000  1.0 -0.671512223
O  O144  1  0.63420000  0.20360000  0.33800000  1.0 -0.6963688824
O  O145  1  0.69080000  0.20950000  0.30130000  1.0 -0.5872480563
O  O146  1  0.69000000  0.95930000  0.50180000  1.0 -0.4977913144
O  O147  1  0.64820000  0.20780000  0.67030000  1.0 -0.5646449593
O  O148  1  0.28930000  0.58980000  0.81890000  1.0 -0.9777786665
O  O149  1  0.27960000  0.64360000  0.88900000  1.0 -0.4977913144
O  O150  1  0.22140000  0.50980000  0.19920000  1.0 -0.671512223
O  O151  1  0.20360000  0.56940000  0.83800000  1.0 -0.6963688824
O  O152  1  0.20950000  0.51870000  0.80130000  1.0 -0.5872480563
O  O153  1  0.95930000  0.26930000  0.00180000  1.0 -0.4933810598
O  O154  1  0.20780000  0.55960000  0.17030000  1.0 -0.5654363996
O  O155  1  0.41020000  0.69950000  0.81890000  1.0 -0.9777786665
O  O156  1  0.35640000  0.63600000  0.88900000  1.0 -0.4977913144
O  O157  1  0.49020000  0.71160000  0.19920000  1.0 -0.671512223
O  O158  1  0.43060000  0.63420000  0.83800000  1.0 -0.6963688824
O  O159  1  0.48130000  0.69080000  0.80130000  1.0 -0.5872480563
O  O160  1  0.73070000  0.69000000  0.00180000  1.0 -0.4933810598
O  O161  1  0.44040000  0.64820000  0.17030000  1.0 -0.5654363996
O  O162  1  0.30050000  0.71070000  0.81890000  1.0 -0.9777786665
O  O163  1  0.36400000  0.72040000  0.88900000  1.0 -0.4977913144
O  O164  1  0.28840000  0.77860000  0.19920000  1.0 -0.671512223
O  O165  1  0.36580000  0.79640000  0.83800000  1.0 -0.6963688824
O  O166  1  0.30920000  0.79050000  0.80130000  1.0 -0.5872480563
O  O167  1  0.31000000  0.04070000  0.00180000  1.0 -0.4933810598
O  O168  1  0.35180000  0.79220000  0.17030000  1.0 -0.5654363996
O  O169  1  0.65410000  0.40430000  0.75000000  1.0 -0.9988629983
O  O170  1  0.74340000  0.41150000  0.75000000  1.0 -1.044060818
O  O171  1  0.75020000  0.34590000  0.75000000  1.0 -0.9988629983
O  O172  1  0.66810000  0.25660000  0.75000000  1.0 -1.0468262202
O  O173  1  0.59570000  0.24980000  0.75000000  1.0 -0.9988629983
O  O174  1  0.58850000  0.33190000  0.75000000  1.0 -1.0468262202
O  O175  1  0.34590000  0.59570000  0.25000000  1.0 -0.9988629983
O  O176  1  0.25660000  0.58850000  0.25000000  1.0 -1.044060818
O  O177  1  0.24980000  0.65410000  0.25000000  1.0 -0.9988629983
O  O178  1  0.33190000  0.74340000  0.25000000  1.0 -1.044060818
O  O179  1  0.40430000  0.75020000  0.25000000  1.0 -0.9897248939
O  O180  1  0.41150000  0.66810000  0.25000000  1.0 -1.0468262202
O  O181  1  0.24980000  0.59570000  0.75000000  1.0 -0.9988629983
O  O182  1  0.33190000  0.58850000  0.75000000  1.0 -1.044060818
O  O183  1  0.40430000  0.65410000  0.75000000  1.0 -0.9988629983
O  O184  1  0.41150000  0.74340000  0.75000000  1.0 -1.044060818
O  O185  1  0.34590000  0.75020000  0.75000000  1.0 -0.9988629983
O  O186  1  0.25660000  0.66810000  0.75000000  1.0 -1.044060818
O  O187  1  0.75020000  0.40430000  0.25000000  1.0 -0.9897248939
O  O188  1  0.66810000  0.41150000  0.25000000  1.0 -1.044060818
O  O189  1  0.59570000  0.34590000  0.25000000  1.0 -0.9897248939
O  O190  1  0.58850000  0.25660000  0.25000000  1.0 -1.044060818
O  O191  1  0.65410000  0.24980000  0.25000000  1.0 -0.9988629983
O  O192  1  0.74340000  0.33190000  0.25000000  1.0 -1.0468262202
O  O193  1  0.66666667  0.33333333  0.79570000  1.0 -0.8661542899
O  O194  1  0.33333333  0.66666667  0.29570000  1.0 -0.8661542899
O  O195  1  0.33333333  0.66666667  0.70430000  1.0 -0.8661542899
O  O196  1  0.66666667  0.33333333  0.20430000  1.0 -0.8629043466
O  O197  1  0.33333333  0.66666667  0.20430000  1.0 -0.8661542899
O  O198  1  0.66666667  0.33333333  0.70430000  1.0 -0.8661542899
O  O199  1  0.66666667  0.33333333  0.29570000  1.0 -0.8629043466
O  O200  1  0.33333333  0.66666667  0.79570000  1.0 -0.8661542899
