# DDEC6 charges by PACMAN v1.1 (https://github.com/mtap-research/PACMAN-charge/)
data_SOXREF_ASR_pacman
_symmetry_space_group_name_H-M   'P 1'
_cell_length_a   36.65900000
_cell_length_b   36.65900000
_cell_length_c   14.83490000
_cell_angle_alpha   90.00000000
_cell_angle_beta   90.00000000
_cell_angle_gamma   120.00000000
_symmetry_Int_Tables_number   1
_chemical_formula_structural   Eu9H84C120S3(N3O22)2
_chemical_formula_sum   'Eu18 H168 C240 S6 N12 O88'
_cell_volume   17265.39356983
_cell_formula_units_Z   2
loop_
 _symmetry_equiv_pos_site_id
 _symmetry_equiv_pos_as_xyz
  1  'x, y, z'
loop_
 _atom_site_type_symbol
 _atom_site_label
 _atom_site_symmetry_multiplicity
 _atom_site_fract_x
 _atom_site_fract_y
 _atom_site_fract_z
 _atom_site_occupancy
 _atom_site_charge
Eu  Eu1  1  0.46171000  0.73086000  0.00000000  1.0 2.296268234
Eu  Eu2  1  0.26915000  0.53829000  0.00000000  1.0 2.296268234
Eu  Eu3  1  0.26915000  0.73086000  0.00000000  1.0 2.296268234
Eu  Eu4  1  0.53829000  0.26915000  0.00000000  1.0 2.296268234
Eu  Eu5  1  0.73086000  0.46171000  0.00000000  1.0 2.296268234
Eu  Eu6  1  0.73086000  0.26915000  0.00000000  1.0 2.296268234
Eu  Eu7  1  0.36905000  0.73810000  0.13146000  1.0 2.3200622493
Eu  Eu8  1  0.36905000  0.63095000  0.13146000  1.0 2.3200622493
Eu  Eu9  1  0.26190000  0.63095000  0.13146000  1.0 2.3200622493
Eu  Eu10  1  0.63095000  0.26190000  0.13146000  1.0 2.3284192178
Eu  Eu11  1  0.63095000  0.36905000  0.13146000  1.0 2.3284192178
Eu  Eu12  1  0.73810000  0.36905000  0.13146000  1.0 2.3284192178
Eu  Eu13  1  0.63095000  0.26190000  0.86854000  1.0 2.3200622493
Eu  Eu14  1  0.73810000  0.36905000  0.86854000  1.0 2.3200622493
Eu  Eu15  1  0.63095000  0.36905000  0.86854000  1.0 2.3200622493
Eu  Eu16  1  0.36905000  0.73810000  0.86854000  1.0 2.3200622493
Eu  Eu17  1  0.26190000  0.63095000  0.86854000  1.0 2.3200622493
Eu  Eu18  1  0.36905000  0.63095000  0.86854000  1.0 2.3200622493
H  H1  1  0.62540000  0.93840000  0.39582000  1.0 0.1491355039
H  H2  1  0.59423000  0.02345000  0.16332000  1.0 0.2821392473
H  H3  1  0.46846000  0.86728000  0.23152000  1.0 0.1228565089
H  H4  1  0.52127000  0.93110000  0.28751000  1.0 0.1140551958
H  H5  1  0.60765000  0.89841000  0.22394000  1.0 0.1325105257
H  H6  1  0.55484000  0.83459000  0.16795000  1.0 0.1325105257
H  H7  1  0.56960000  0.97655000  0.16543000  1.0 0.2821392473
H  H8  1  0.31300000  0.37460000  0.39582000  1.0 0.1491355039
H  H9  1  0.42922000  0.40577000  0.16332000  1.0 0.2821392473
H  H10  1  0.39882000  0.53154000  0.23152000  1.0 0.1228565089
H  H11  1  0.40983000  0.47873000  0.28751000  1.0 0.1140551958
H  H12  1  0.29076000  0.39235000  0.22394000  1.0 0.1325105257
H  H13  1  0.27975000  0.44516000  0.16795000  1.0 0.1325105257
H  H14  1  0.40695000  0.43040000  0.16543000  1.0 0.2821392473
H  H15  1  0.06160000  0.68700000  0.39582000  1.0 0.1491355039
H  H16  1  0.97655000  0.57078000  0.16332000  1.0 0.2821392473
H  H17  1  0.13272000  0.60118000  0.23152000  1.0 0.1228565089
H  H18  1  0.06890000  0.59017000  0.28751000  1.0 0.1140551958
H  H19  1  0.10159000  0.70924000  0.22394000  1.0 0.1325105257
H  H20  1  0.16541000  0.72025000  0.16795000  1.0 0.1325105257
H  H21  1  0.02345000  0.59305000  0.16543000  1.0 0.2821392473
H  H22  1  0.37460000  0.06160000  0.39582000  1.0 0.1491355039
H  H23  1  0.40577000  0.97655000  0.16332000  1.0 0.2821392473
H  H24  1  0.53154000  0.13272000  0.23152000  1.0 0.1228565089
H  H25  1  0.47873000  0.06890000  0.28751000  1.0 0.1140551958
H  H26  1  0.39235000  0.10159000  0.22394000  1.0 0.1325105257
H  H27  1  0.44516000  0.16541000  0.16795000  1.0 0.1325105257
H  H28  1  0.43040000  0.02345000  0.16543000  1.0 0.2821392473
H  H29  1  0.68700000  0.62540000  0.39582000  1.0 0.1491355039
H  H30  1  0.57078000  0.59423000  0.16332000  1.0 0.2821392473
H  H31  1  0.60118000  0.46846000  0.23152000  1.0 0.1228565089
H  H32  1  0.59017000  0.52127000  0.28751000  1.0 0.1140551958
H  H33  1  0.70924000  0.60765000  0.22394000  1.0 0.1325105257
H  H34  1  0.72025000  0.55484000  0.16795000  1.0 0.1325105257
H  H35  1  0.59305000  0.56960000  0.16543000  1.0 0.2821392473
H  H36  1  0.93840000  0.31300000  0.39582000  1.0 0.1491355039
H  H37  1  0.02345000  0.42922000  0.16332000  1.0 0.2821392473
H  H38  1  0.86728000  0.39882000  0.23152000  1.0 0.1228565089
H  H39  1  0.93110000  0.40983000  0.28751000  1.0 0.1140551958
H  H40  1  0.89841000  0.29076000  0.22394000  1.0 0.1325105257
H  H41  1  0.83459000  0.27975000  0.16795000  1.0 0.1325105257
H  H42  1  0.97655000  0.40695000  0.16543000  1.0 0.2821392473
H  H43  1  0.68700000  0.06160000  0.60418000  1.0 0.1491355039
H  H44  1  0.57078000  0.97655000  0.83668000  1.0 0.2821392473
H  H45  1  0.60118000  0.13272000  0.76848000  1.0 0.1228565089
H  H46  1  0.59017000  0.06890000  0.71249000  1.0 0.1140551958
H  H47  1  0.70924000  0.10159000  0.77606000  1.0 0.1325105257
H  H48  1  0.72025000  0.16541000  0.83205000  1.0 0.1325105257
H  H49  1  0.59305000  0.02345000  0.83457000  1.0 0.2821392473
H  H50  1  0.93840000  0.62540000  0.60418000  1.0 0.1491355039
H  H51  1  0.02345000  0.59423000  0.83668000  1.0 0.2821392473
H  H52  1  0.86728000  0.46846000  0.76848000  1.0 0.1228565089
H  H53  1  0.93110000  0.52127000  0.71249000  1.0 0.1140551958
H  H54  1  0.89841000  0.60765000  0.77606000  1.0 0.1325105257
H  H55  1  0.83459000  0.55484000  0.83205000  1.0 0.1325105257
H  H56  1  0.97655000  0.56960000  0.83457000  1.0 0.2821392473
H  H57  1  0.37460000  0.31300000  0.60418000  1.0 0.1491355039
H  H58  1  0.40577000  0.42922000  0.83668000  1.0 0.2821392473
H  H59  1  0.53154000  0.39882000  0.76848000  1.0 0.1228565089
H  H60  1  0.47873000  0.40983000  0.71249000  1.0 0.1140551958
H  H61  1  0.39235000  0.29076000  0.77606000  1.0 0.1325105257
H  H62  1  0.44516000  0.27975000  0.83205000  1.0 0.1325105257
H  H63  1  0.43040000  0.40695000  0.83457000  1.0 0.2821392473
H  H64  1  0.31300000  0.93840000  0.60418000  1.0 0.1491355039
H  H65  1  0.42922000  0.02345000  0.83668000  1.0 0.2821392473
H  H66  1  0.39882000  0.86728000  0.76848000  1.0 0.1228565089
H  H67  1  0.40983000  0.93110000  0.71249000  1.0 0.1140551958
H  H68  1  0.29076000  0.89841000  0.77606000  1.0 0.1325105257
H  H69  1  0.27975000  0.83459000  0.83205000  1.0 0.1325105257
H  H70  1  0.40695000  0.97655000  0.83457000  1.0 0.2821392473
H  H71  1  0.06160000  0.37460000  0.60418000  1.0 0.1491355039
H  H72  1  0.97655000  0.40577000  0.83668000  1.0 0.2821392473
H  H73  1  0.13272000  0.53154000  0.76848000  1.0 0.1228565089
H  H74  1  0.06890000  0.47873000  0.71249000  1.0 0.1140551958
H  H75  1  0.10159000  0.39235000  0.77606000  1.0 0.1325105257
H  H76  1  0.16541000  0.44516000  0.83205000  1.0 0.1325105257
H  H77  1  0.02345000  0.43040000  0.83457000  1.0 0.2821392473
H  H78  1  0.62540000  0.68700000  0.60418000  1.0 0.1491355039
H  H79  1  0.59423000  0.57078000  0.83668000  1.0 0.2821392473
H  H80  1  0.46846000  0.60118000  0.76848000  1.0 0.1228565089
H  H81  1  0.52127000  0.59017000  0.71249000  1.0 0.1140551958
H  H82  1  0.60765000  0.70924000  0.77606000  1.0 0.1325105257
H  H83  1  0.55484000  0.72025000  0.83205000  1.0 0.1325105257
H  H84  1  0.56960000  0.59305000  0.83457000  1.0 0.2821392473
H  H85  1  0.37460000  0.06160000  0.60418000  1.0 0.1491355039
H  H86  1  0.40577000  0.97655000  0.83668000  1.0 0.2821392473
H  H87  1  0.53154000  0.13272000  0.76848000  1.0 0.1228565089
H  H88  1  0.47873000  0.06890000  0.71249000  1.0 0.1140551958
H  H89  1  0.39235000  0.10159000  0.77606000  1.0 0.1325105257
H  H90  1  0.44516000  0.16541000  0.83205000  1.0 0.1325105257
H  H91  1  0.43040000  0.02345000  0.83457000  1.0 0.2821392473
H  H92  1  0.68700000  0.62540000  0.60418000  1.0 0.1491355039
H  H93  1  0.57078000  0.59423000  0.83668000  1.0 0.2821392473
H  H94  1  0.60118000  0.46846000  0.76848000  1.0 0.1228565089
H  H95  1  0.59017000  0.52127000  0.71249000  1.0 0.1140551958
H  H96  1  0.70924000  0.60765000  0.77606000  1.0 0.1325105257
H  H97  1  0.72025000  0.55484000  0.83205000  1.0 0.1325105257
H  H98  1  0.59305000  0.56960000  0.83457000  1.0 0.2821392473
H  H99  1  0.93840000  0.31300000  0.60418000  1.0 0.1491355039
H  H100  1  0.02345000  0.42922000  0.83668000  1.0 0.2821392473
H  H101  1  0.86728000  0.39882000  0.76848000  1.0 0.1228565089
H  H102  1  0.93110000  0.40983000  0.71249000  1.0 0.1140551958
H  H103  1  0.89841000  0.29076000  0.77606000  1.0 0.1325105257
H  H104  1  0.83459000  0.27975000  0.83205000  1.0 0.1325105257
H  H105  1  0.97655000  0.40695000  0.83457000  1.0 0.2821392473
H  H106  1  0.62540000  0.93840000  0.60418000  1.0 0.1491355039
H  H107  1  0.59423000  0.02345000  0.83668000  1.0 0.2821392473
H  H108  1  0.46846000  0.86728000  0.76848000  1.0 0.1228565089
H  H109  1  0.52127000  0.93110000  0.71249000  1.0 0.1140551958
H  H110  1  0.60765000  0.89841000  0.77606000  1.0 0.1325105257
H  H111  1  0.55484000  0.83459000  0.83205000  1.0 0.1325105257
H  H112  1  0.56960000  0.97655000  0.83457000  1.0 0.2821392473
H  H113  1  0.31300000  0.37460000  0.60418000  1.0 0.1491355039
H  H114  1  0.42922000  0.40577000  0.83668000  1.0 0.2821392473
H  H115  1  0.39882000  0.53154000  0.76848000  1.0 0.1228565089
H  H116  1  0.40983000  0.47873000  0.71249000  1.0 0.1140551958
H  H117  1  0.29076000  0.39235000  0.77606000  1.0 0.1325105257
H  H118  1  0.27975000  0.44516000  0.83205000  1.0 0.1325105257
H  H119  1  0.40695000  0.43040000  0.83457000  1.0 0.2821392473
H  H120  1  0.06160000  0.68700000  0.60418000  1.0 0.1491355039
H  H121  1  0.97655000  0.57078000  0.83668000  1.0 0.2821392473
H  H122  1  0.13272000  0.60118000  0.76848000  1.0 0.1228565089
H  H123  1  0.06890000  0.59017000  0.71249000  1.0 0.1140551958
H  H124  1  0.10159000  0.70924000  0.77606000  1.0 0.1325105257
H  H125  1  0.16541000  0.72025000  0.83205000  1.0 0.1325105257
H  H126  1  0.02345000  0.59305000  0.83457000  1.0 0.2821392473
H  H127  1  0.31300000  0.93840000  0.39582000  1.0 0.1491355039
H  H128  1  0.42922000  0.02345000  0.16332000  1.0 0.2821392473
H  H129  1  0.39882000  0.86728000  0.23152000  1.0 0.1228565089
H  H130  1  0.40983000  0.93110000  0.28751000  1.0 0.1140551958
H  H131  1  0.29076000  0.89841000  0.22394000  1.0 0.1325105257
H  H132  1  0.27975000  0.83459000  0.16795000  1.0 0.1325105257
H  H133  1  0.40695000  0.97655000  0.16543000  1.0 0.2821392473
H  H134  1  0.06160000  0.37460000  0.39582000  1.0 0.1491355039
H  H135  1  0.97655000  0.40577000  0.16332000  1.0 0.2821392473
H  H136  1  0.13272000  0.53154000  0.23152000  1.0 0.1228565089
H  H137  1  0.06890000  0.47873000  0.28751000  1.0 0.1140551958
H  H138  1  0.10159000  0.39235000  0.22394000  1.0 0.1325105257
H  H139  1  0.16541000  0.44516000  0.16795000  1.0 0.1325105257
H  H140  1  0.02345000  0.43040000  0.16543000  1.0 0.2821392473
H  H141  1  0.62540000  0.68700000  0.39582000  1.0 0.1491355039
H  H142  1  0.59423000  0.57078000  0.16332000  1.0 0.2821392473
H  H143  1  0.46846000  0.60118000  0.23152000  1.0 0.1228565089
H  H144  1  0.52127000  0.59017000  0.28751000  1.0 0.1140551958
H  H145  1  0.60765000  0.70924000  0.22394000  1.0 0.1325105257
H  H146  1  0.55484000  0.72025000  0.16795000  1.0 0.1325105257
H  H147  1  0.56960000  0.59305000  0.16543000  1.0 0.2821392473
H  H148  1  0.68700000  0.06160000  0.39582000  1.0 0.1491355039
H  H149  1  0.57078000  0.97655000  0.16332000  1.0 0.2821392473
H  H150  1  0.60118000  0.13272000  0.23152000  1.0 0.1228565089
H  H151  1  0.59017000  0.06890000  0.28751000  1.0 0.1140551958
H  H152  1  0.70924000  0.10159000  0.22394000  1.0 0.1325105257
H  H153  1  0.72025000  0.16541000  0.16795000  1.0 0.1325105257
H  H154  1  0.59305000  0.02345000  0.16543000  1.0 0.2821392473
H  H155  1  0.93840000  0.62540000  0.39582000  1.0 0.1491355039
H  H156  1  0.02345000  0.59423000  0.16332000  1.0 0.2821392473
H  H157  1  0.86728000  0.46846000  0.23152000  1.0 0.1228565089
H  H158  1  0.93110000  0.52127000  0.28751000  1.0 0.1140551958
H  H159  1  0.89841000  0.60765000  0.22394000  1.0 0.1325105257
H  H160  1  0.83459000  0.55484000  0.16795000  1.0 0.1325105257
H  H161  1  0.97655000  0.56960000  0.16543000  1.0 0.2821392473
H  H162  1  0.37460000  0.31300000  0.39582000  1.0 0.1491355039
H  H163  1  0.40577000  0.42922000  0.16332000  1.0 0.2821392473
H  H164  1  0.53154000  0.39882000  0.23152000  1.0 0.1228565089
H  H165  1  0.47873000  0.40983000  0.28751000  1.0 0.1140551958
H  H166  1  0.39235000  0.29076000  0.22394000  1.0 0.1325105257
H  H167  1  0.44516000  0.27975000  0.16795000  1.0 0.1325105257
H  H168  1  0.43040000  0.40695000  0.16543000  1.0 0.2821392473
C  C1  1  0.47180000  0.80560000  0.15330000  1.0 0.6595040802
C  C2  1  0.62950000  0.96360000  0.37160000  1.0 -0.1475690932
C  C3  1  0.60470000  0.96250000  0.30090000  1.0 -0.0236257497
C  C4  1  0.49640000  0.87360000  0.23000000  1.0 -0.0888438817
C  C5  1  0.52800000  0.91180000  0.26350000  1.0 -0.2014585343
C  C6  1  0.56970000  0.92110000  0.26130000  1.0 0.0633136132
C  C7  1  0.57980000  0.89220000  0.22550000  1.0 -0.1652058475
C  C8  1  0.54810000  0.85390000  0.19190000  1.0 -0.0888438817
C  C9  1  0.50640000  0.84460000  0.19420000  1.0 -0.0547359418
C  C10  1  0.33380000  0.52820000  0.15330000  1.0 0.6595040802
C  C11  1  0.33410000  0.37050000  0.37160000  1.0 -0.1475690932
C  C12  1  0.35780000  0.39530000  0.30090000  1.0 -0.0236257497
C  C13  1  0.37720000  0.50360000  0.23000000  1.0 -0.0888438817
C  C14  1  0.38380000  0.47200000  0.26350000  1.0 -0.2014585343
C  C15  1  0.35140000  0.43030000  0.26130000  1.0 0.0633136132
C  C16  1  0.31240000  0.42020000  0.22550000  1.0 -0.1652058475
C  C17  1  0.30580000  0.45190000  0.19190000  1.0 -0.0888438817
C  C18  1  0.33820000  0.49360000  0.19420000  1.0 -0.0547359418
C  C19  1  0.19440000  0.66620000  0.15330000  1.0 0.6595040802
C  C20  1  0.03640000  0.66590000  0.37160000  1.0 -0.1475690932
C  C21  1  0.03750000  0.64220000  0.30090000  1.0 -0.0236257497
C  C22  1  0.12640000  0.62280000  0.23000000  1.0 -0.0888438817
C  C23  1  0.08820000  0.61620000  0.26350000  1.0 -0.2014585343
C  C24  1  0.07890000  0.64860000  0.26130000  1.0 0.0633136132
C  C25  1  0.10780000  0.68760000  0.22550000  1.0 -0.1652058475
C  C26  1  0.14610000  0.69420000  0.19190000  1.0 -0.0888438817
C  C27  1  0.15540000  0.66180000  0.19420000  1.0 -0.0547359418
C  C28  1  0.52820000  0.19440000  0.15330000  1.0 0.6595040802
C  C29  1  0.37050000  0.03640000  0.37160000  1.0 -0.1475690932
C  C30  1  0.39530000  0.03750000  0.30090000  1.0 -0.0236257497
C  C31  1  0.50360000  0.12640000  0.23000000  1.0 -0.0888438817
C  C32  1  0.47200000  0.08820000  0.26350000  1.0 -0.2014585343
C  C33  1  0.43030000  0.07890000  0.26130000  1.0 0.0633136132
C  C34  1  0.42020000  0.10780000  0.22550000  1.0 -0.1652058475
C  C35  1  0.45190000  0.14610000  0.19190000  1.0 -0.0888438817
C  C36  1  0.49360000  0.15540000  0.19420000  1.0 -0.0547359418
C  C37  1  0.66620000  0.47180000  0.15330000  1.0 0.6595040802
C  C38  1  0.66590000  0.62950000  0.37160000  1.0 -0.1475690932
C  C39  1  0.64220000  0.60470000  0.30090000  1.0 -0.0236257497
C  C40  1  0.62280000  0.49640000  0.23000000  1.0 -0.0888438817
C  C41  1  0.61620000  0.52800000  0.26350000  1.0 -0.2014585343
C  C42  1  0.64860000  0.56970000  0.26130000  1.0 0.0633136132
C  C43  1  0.68760000  0.57980000  0.22550000  1.0 -0.1652058475
C  C44  1  0.69420000  0.54810000  0.19190000  1.0 -0.0888438817
C  C45  1  0.66180000  0.50640000  0.19420000  1.0 -0.0547359418
C  C46  1  0.80560000  0.33380000  0.15330000  1.0 0.6595040802
C  C47  1  0.96360000  0.33410000  0.37160000  1.0 -0.1475690932
C  C48  1  0.96250000  0.35780000  0.30090000  1.0 -0.0236257497
C  C49  1  0.87360000  0.37720000  0.23000000  1.0 -0.0888438817
C  C50  1  0.91180000  0.38380000  0.26350000  1.0 -0.2014585343
C  C51  1  0.92110000  0.35140000  0.26130000  1.0 0.0633136132
C  C52  1  0.89220000  0.31240000  0.22550000  1.0 -0.1652058475
C  C53  1  0.85390000  0.30580000  0.19190000  1.0 -0.0888438817
C  C54  1  0.84460000  0.33820000  0.19420000  1.0 -0.0547359418
C  C55  1  0.66620000  0.19440000  0.84670000  1.0 0.6595040802
C  C56  1  0.66590000  0.03640000  0.62840000  1.0 -0.1475690932
C  C57  1  0.64220000  0.03750000  0.69910000  1.0 -0.0236257497
C  C58  1  0.62280000  0.12640000  0.77000000  1.0 -0.0888438817
C  C59  1  0.61620000  0.08820000  0.73650000  1.0 -0.2014585343
C  C60  1  0.64860000  0.07890000  0.73870000  1.0 0.0633136132
C  C61  1  0.68760000  0.10780000  0.77450000  1.0 -0.1652058475
C  C62  1  0.69420000  0.14610000  0.80810000  1.0 -0.0888438817
C  C63  1  0.66180000  0.15540000  0.80580000  1.0 -0.0547359418
C  C64  1  0.80560000  0.47180000  0.84670000  1.0 0.6595040802
C  C65  1  0.96360000  0.62950000  0.62840000  1.0 -0.1475690932
C  C66  1  0.96250000  0.60470000  0.69910000  1.0 -0.0236257497
C  C67  1  0.87360000  0.49640000  0.77000000  1.0 -0.0888438817
C  C68  1  0.91180000  0.52800000  0.73650000  1.0 -0.2014585343
C  C69  1  0.92110000  0.56970000  0.73870000  1.0 0.0633136132
C  C70  1  0.89220000  0.57980000  0.77450000  1.0 -0.1652058475
C  C71  1  0.85390000  0.54810000  0.80810000  1.0 -0.0888438817
C  C72  1  0.84460000  0.50640000  0.80580000  1.0 -0.0547359418
C  C73  1  0.52820000  0.33380000  0.84670000  1.0 0.6595040802
C  C74  1  0.37050000  0.33410000  0.62840000  1.0 -0.1475690932
C  C75  1  0.39530000  0.35780000  0.69910000  1.0 -0.0236257497
C  C76  1  0.50360000  0.37720000  0.77000000  1.0 -0.0888438817
C  C77  1  0.47200000  0.38380000  0.73650000  1.0 -0.2014585343
C  C78  1  0.43030000  0.35140000  0.73870000  1.0 0.0633136132
C  C79  1  0.42020000  0.31240000  0.77450000  1.0 -0.1652058475
C  C80  1  0.45190000  0.30580000  0.80810000  1.0 -0.0888438817
C  C81  1  0.49360000  0.33820000  0.80580000  1.0 -0.0547359418
C  C82  1  0.33380000  0.80560000  0.84670000  1.0 0.6595040802
C  C83  1  0.33410000  0.96360000  0.62840000  1.0 -0.1475690932
C  C84  1  0.35780000  0.96250000  0.69910000  1.0 -0.0236257497
C  C85  1  0.37720000  0.87360000  0.77000000  1.0 -0.0888438817
C  C86  1  0.38380000  0.91180000  0.73650000  1.0 -0.2014585343
C  C87  1  0.35140000  0.92110000  0.73870000  1.0 0.0633136132
C  C88  1  0.31240000  0.89220000  0.77450000  1.0 -0.1652058475
C  C89  1  0.30580000  0.85390000  0.80810000  1.0 -0.0888438817
C  C90  1  0.33820000  0.84460000  0.80580000  1.0 -0.0547359418
C  C91  1  0.19440000  0.52820000  0.84670000  1.0 0.6595040802
C  C92  1  0.03640000  0.37050000  0.62840000  1.0 -0.1475690932
C  C93  1  0.03750000  0.39530000  0.69910000  1.0 -0.0236257497
C  C94  1  0.12640000  0.50360000  0.77000000  1.0 -0.0888438817
C  C95  1  0.08820000  0.47200000  0.73650000  1.0 -0.2014585343
C  C96  1  0.07890000  0.43030000  0.73870000  1.0 0.0633136132
C  C97  1  0.10780000  0.42020000  0.77450000  1.0 -0.1652058475
C  C98  1  0.14610000  0.45190000  0.80810000  1.0 -0.0888438817
C  C99  1  0.15540000  0.49360000  0.80580000  1.0 -0.0547359418
C  C100  1  0.47180000  0.66620000  0.84670000  1.0 0.6595040802
C  C101  1  0.62950000  0.66590000  0.62840000  1.0 -0.1475690932
C  C102  1  0.60470000  0.64220000  0.69910000  1.0 -0.0236257497
C  C103  1  0.49640000  0.62280000  0.77000000  1.0 -0.0888438817
C  C104  1  0.52800000  0.61620000  0.73650000  1.0 -0.2014585343
C  C105  1  0.56970000  0.64860000  0.73870000  1.0 0.0633136132
C  C106  1  0.57980000  0.68760000  0.77450000  1.0 -0.1652058475
C  C107  1  0.54810000  0.69420000  0.80810000  1.0 -0.0888438817
C  C108  1  0.50640000  0.66180000  0.80580000  1.0 -0.0547359418
C  C109  1  0.52820000  0.19440000  0.84670000  1.0 0.6595040802
C  C110  1  0.37050000  0.03640000  0.62840000  1.0 -0.1475690932
C  C111  1  0.39530000  0.03750000  0.69910000  1.0 -0.0236257497
C  C112  1  0.50360000  0.12640000  0.77000000  1.0 -0.0888438817
C  C113  1  0.47200000  0.08820000  0.73650000  1.0 -0.2014585343
C  C114  1  0.43030000  0.07890000  0.73870000  1.0 0.0633136132
C  C115  1  0.42020000  0.10780000  0.77450000  1.0 -0.1652058475
C  C116  1  0.45190000  0.14610000  0.80810000  1.0 -0.0888438817
C  C117  1  0.49360000  0.15540000  0.80580000  1.0 -0.0547359418
C  C118  1  0.66620000  0.47180000  0.84670000  1.0 0.6595040802
C  C119  1  0.66590000  0.62950000  0.62840000  1.0 -0.1475690932
C  C120  1  0.64220000  0.60470000  0.69910000  1.0 -0.0236257497
C  C121  1  0.62280000  0.49640000  0.77000000  1.0 -0.0888438817
C  C122  1  0.61620000  0.52800000  0.73650000  1.0 -0.2014585343
C  C123  1  0.64860000  0.56970000  0.73870000  1.0 0.0633136132
C  C124  1  0.68760000  0.57980000  0.77450000  1.0 -0.1652058475
C  C125  1  0.69420000  0.54810000  0.80810000  1.0 -0.0888438817
C  C126  1  0.66180000  0.50640000  0.80580000  1.0 -0.0547359418
C  C127  1  0.80560000  0.33380000  0.84670000  1.0 0.6595040802
C  C128  1  0.96360000  0.33410000  0.62840000  1.0 -0.1475690932
C  C129  1  0.96250000  0.35780000  0.69910000  1.0 -0.0236257497
C  C130  1  0.87360000  0.37720000  0.77000000  1.0 -0.0888438817
C  C131  1  0.91180000  0.38380000  0.73650000  1.0 -0.2014585343
C  C132  1  0.92110000  0.35140000  0.73870000  1.0 0.0633136132
C  C133  1  0.89220000  0.31240000  0.77450000  1.0 -0.1652058475
C  C134  1  0.85390000  0.30580000  0.80810000  1.0 -0.0888438817
C  C135  1  0.84460000  0.33820000  0.80580000  1.0 -0.0547359418
C  C136  1  0.47180000  0.80560000  0.84670000  1.0 0.6595040802
C  C137  1  0.62950000  0.96360000  0.62840000  1.0 -0.1475690932
C  C138  1  0.60470000  0.96250000  0.69910000  1.0 -0.0236257497
C  C139  1  0.49640000  0.87360000  0.77000000  1.0 -0.0888438817
C  C140  1  0.52800000  0.91180000  0.73650000  1.0 -0.2014585343
C  C141  1  0.56970000  0.92110000  0.73870000  1.0 0.0633136132
C  C142  1  0.57980000  0.89220000  0.77450000  1.0 -0.1652058475
C  C143  1  0.54810000  0.85390000  0.80810000  1.0 -0.0888438817
C  C144  1  0.50640000  0.84460000  0.80580000  1.0 -0.0547359418
C  C145  1  0.33380000  0.52820000  0.84670000  1.0 0.6595040802
C  C146  1  0.33410000  0.37050000  0.62840000  1.0 -0.1475690932
C  C147  1  0.35780000  0.39530000  0.69910000  1.0 -0.0236257497
C  C148  1  0.37720000  0.50360000  0.77000000  1.0 -0.0888438817
C  C149  1  0.38380000  0.47200000  0.73650000  1.0 -0.2014585343
C  C150  1  0.35140000  0.43030000  0.73870000  1.0 0.0633136132
C  C151  1  0.31240000  0.42020000  0.77450000  1.0 -0.1652058475
C  C152  1  0.30580000  0.45190000  0.80810000  1.0 -0.0888438817
C  C153  1  0.33820000  0.49360000  0.80580000  1.0 -0.0547359418
C  C154  1  0.19440000  0.66620000  0.84670000  1.0 0.6595040802
C  C155  1  0.03640000  0.66590000  0.62840000  1.0 -0.1475690932
C  C156  1  0.03750000  0.64220000  0.69910000  1.0 -0.0236257497
C  C157  1  0.12640000  0.62280000  0.77000000  1.0 -0.0888438817
C  C158  1  0.08820000  0.61620000  0.73650000  1.0 -0.2014585343
C  C159  1  0.07890000  0.64860000  0.73870000  1.0 0.0633136132
C  C160  1  0.10780000  0.68760000  0.77450000  1.0 -0.1652058475
C  C161  1  0.14610000  0.69420000  0.80810000  1.0 -0.0888438817
C  C162  1  0.15540000  0.66180000  0.80580000  1.0 -0.0547359418
C  C163  1  0.33380000  0.80560000  0.15330000  1.0 0.6595040802
C  C164  1  0.33410000  0.96360000  0.37160000  1.0 -0.1475690932
C  C165  1  0.35780000  0.96250000  0.30090000  1.0 -0.0236257497
C  C166  1  0.37720000  0.87360000  0.23000000  1.0 -0.0888438817
C  C167  1  0.38380000  0.91180000  0.26350000  1.0 -0.2014585343
C  C168  1  0.35140000  0.92110000  0.26130000  1.0 0.0633136132
C  C169  1  0.31240000  0.89220000  0.22550000  1.0 -0.1652058475
C  C170  1  0.30580000  0.85390000  0.19190000  1.0 -0.0888438817
C  C171  1  0.33820000  0.84460000  0.19420000  1.0 -0.0547359418
C  C172  1  0.19440000  0.52820000  0.15330000  1.0 0.6595040802
C  C173  1  0.03640000  0.37050000  0.37160000  1.0 -0.1475690932
C  C174  1  0.03750000  0.39530000  0.30090000  1.0 -0.0236257497
C  C175  1  0.12640000  0.50360000  0.23000000  1.0 -0.0888438817
C  C176  1  0.08820000  0.47200000  0.26350000  1.0 -0.2014585343
C  C177  1  0.07890000  0.43030000  0.26130000  1.0 0.0633136132
C  C178  1  0.10780000  0.42020000  0.22550000  1.0 -0.1652058475
C  C179  1  0.14610000  0.45190000  0.19190000  1.0 -0.0888438817
C  C180  1  0.15540000  0.49360000  0.19420000  1.0 -0.0547359418
C  C181  1  0.47180000  0.66620000  0.15330000  1.0 0.6595040802
C  C182  1  0.62950000  0.66590000  0.37160000  1.0 -0.1475690932
C  C183  1  0.60470000  0.64220000  0.30090000  1.0 -0.0236257497
C  C184  1  0.49640000  0.62280000  0.23000000  1.0 -0.0888438817
C  C185  1  0.52800000  0.61620000  0.26350000  1.0 -0.2014585343
C  C186  1  0.56970000  0.64860000  0.26130000  1.0 0.0633136132
C  C187  1  0.57980000  0.68760000  0.22550000  1.0 -0.1652058475
C  C188  1  0.54810000  0.69420000  0.19190000  1.0 -0.0888438817
C  C189  1  0.50640000  0.66180000  0.19420000  1.0 -0.0547359418
C  C190  1  0.66620000  0.19440000  0.15330000  1.0 0.6595040802
C  C191  1  0.66590000  0.03640000  0.37160000  1.0 -0.1475690932
C  C192  1  0.64220000  0.03750000  0.30090000  1.0 -0.0236257497
C  C193  1  0.62280000  0.12640000  0.23000000  1.0 -0.0888438817
C  C194  1  0.61620000  0.08820000  0.26350000  1.0 -0.2014585343
C  C195  1  0.64860000  0.07890000  0.26130000  1.0 0.0633136132
C  C196  1  0.68760000  0.10780000  0.22550000  1.0 -0.1652058475
C  C197  1  0.69420000  0.14610000  0.19190000  1.0 -0.0888438817
C  C198  1  0.66180000  0.15540000  0.19420000  1.0 -0.0547359418
C  C199  1  0.80560000  0.47180000  0.15330000  1.0 0.6595040802
C  C200  1  0.96360000  0.62950000  0.37160000  1.0 -0.1475690932
C  C201  1  0.96250000  0.60470000  0.30090000  1.0 -0.0236257497
C  C202  1  0.87360000  0.49640000  0.23000000  1.0 -0.0888438817
C  C203  1  0.91180000  0.52800000  0.26350000  1.0 -0.2014585343
C  C204  1  0.92110000  0.56970000  0.26130000  1.0 0.0633136132
C  C205  1  0.89220000  0.57980000  0.22550000  1.0 -0.1652058475
C  C206  1  0.85390000  0.54810000  0.19190000  1.0 -0.0888438817
C  C207  1  0.84460000  0.50640000  0.19420000  1.0 -0.0547359418
C  C208  1  0.52820000  0.33380000  0.15330000  1.0 0.6595040802
C  C209  1  0.37050000  0.33410000  0.37160000  1.0 -0.1475690932
C  C210  1  0.39530000  0.35780000  0.30090000  1.0 -0.0236257497
C  C211  1  0.50360000  0.37720000  0.23000000  1.0 -0.0888438817
C  C212  1  0.47200000  0.38380000  0.26350000  1.0 -0.2014585343
C  C213  1  0.43030000  0.35140000  0.26130000  1.0 0.0633136132
C  C214  1  0.42020000  0.31240000  0.22550000  1.0 -0.1652058475
C  C215  1  0.45190000  0.30580000  0.19190000  1.0 -0.0888438817
C  C216  1  0.49360000  0.33820000  0.19420000  1.0 -0.0547359418
C  C217  1  0.65930000  0.00000000  0.40620000  1.0 -0.0888438817
C  C218  1  0.61040000  0.00000000  0.26140000  1.0 0.0929338982
C  C219  1  0.34070000  0.34070000  0.40620000  1.0 -0.0888438817
C  C220  1  0.38960000  0.38960000  0.26140000  1.0 0.0929338982
C  C221  1  0.00000000  0.65930000  0.40620000  1.0 -0.0888438817
C  C222  1  0.00000000  0.61040000  0.26140000  1.0 0.0955682252
C  C223  1  0.34070000  0.00000000  0.40620000  1.0 -0.0888438817
C  C224  1  0.38960000  0.00000000  0.26140000  1.0 0.0929338982
C  C225  1  0.65930000  0.65930000  0.40620000  1.0 -0.0888438817
C  C226  1  0.61040000  0.61040000  0.26140000  1.0 0.0929338982
C  C227  1  0.00000000  0.34070000  0.40620000  1.0 -0.0888438817
C  C228  1  0.00000000  0.38960000  0.26140000  1.0 0.0955682252
C  C229  1  0.65930000  0.00000000  0.59380000  1.0 -0.0888438817
C  C230  1  0.61040000  0.00000000  0.73860000  1.0 0.0929338982
C  C231  1  0.00000000  0.65930000  0.59380000  1.0 -0.0888438817
C  C232  1  0.00000000  0.61040000  0.73860000  1.0 0.0955682252
C  C233  1  0.34070000  0.34070000  0.59380000  1.0 -0.0888438817
C  C234  1  0.38960000  0.38960000  0.73860000  1.0 0.0955682252
C  C235  1  0.34070000  0.00000000  0.59380000  1.0 -0.0888438817
C  C236  1  0.38960000  0.00000000  0.73860000  1.0 0.0929338982
C  C237  1  0.00000000  0.34070000  0.59380000  1.0 -0.0888438817
C  C238  1  0.00000000  0.38960000  0.73860000  1.0 0.0955682252
C  C239  1  0.65930000  0.65930000  0.59380000  1.0 -0.0888438817
C  C240  1  0.61040000  0.61040000  0.73860000  1.0 0.0929338982
S  S1  1  0.68860000  0.00000000  0.50000000  1.0 0.9416392836
S  S2  1  0.31140000  0.31140000  0.50000000  1.0 0.9416392836
S  S3  1  0.00000000  0.68860000  0.50000000  1.0 0.9416392836
S  S4  1  0.31140000  0.00000000  0.50000000  1.0 0.9416392836
S  S5  1  0.68860000  0.68860000  0.50000000  1.0 0.9416392836
S  S6  1  0.00000000  0.31140000  0.50000000  1.0 0.9416392836
N  N1  1  0.58880000  0.00000000  0.18780000  1.0 -0.4813308002
N  N2  1  0.41120000  0.41120000  0.18780000  1.0 -0.4813308002
N  N3  1  0.00000000  0.58880000  0.18780000  1.0 -0.4813308002
N  N4  1  0.41120000  0.00000000  0.18780000  1.0 -0.4813308002
N  N5  1  0.58880000  0.58880000  0.18780000  1.0 -0.4813308002
N  N6  1  0.00000000  0.41120000  0.18780000  1.0 -0.4813308002
N  N7  1  0.58880000  0.00000000  0.81220000  1.0 -0.4813308002
N  N8  1  0.00000000  0.58880000  0.81220000  1.0 -0.4813308002
N  N9  1  0.41120000  0.41120000  0.81220000  1.0 -0.4813308002
N  N10  1  0.41120000  0.00000000  0.81220000  1.0 -0.4813308002
N  N11  1  0.00000000  0.41120000  0.81220000  1.0 -0.4813308002
N  N12  1  0.58880000  0.58880000  0.81220000  1.0 -0.4813308002
O  O1  1  0.43260000  0.79260000  0.17250000  1.0 -0.6706506021
O  O2  1  0.48500000  0.78460000  0.10590000  1.0 -0.6579351531
O  O3  1  0.36000000  0.56740000  0.17250000  1.0 -0.6706506021
O  O4  1  0.29960000  0.51500000  0.10590000  1.0 -0.6579351531
O  O5  1  0.20740000  0.64000000  0.17250000  1.0 -0.6706506021
O  O6  1  0.21540000  0.70040000  0.10590000  1.0 -0.6579351531
O  O7  1  0.56740000  0.20740000  0.17250000  1.0 -0.6706506021
O  O8  1  0.51500000  0.21540000  0.10590000  1.0 -0.6579351531
O  O9  1  0.64000000  0.43260000  0.17250000  1.0 -0.6706506021
O  O10  1  0.70040000  0.48500000  0.10590000  1.0 -0.6579351531
O  O11  1  0.79260000  0.36000000  0.17250000  1.0 -0.6706506021
O  O12  1  0.78460000  0.29960000  0.10590000  1.0 -0.6579351531
O  O13  1  0.64000000  0.20740000  0.82750000  1.0 -0.6706506021
O  O14  1  0.70040000  0.21540000  0.89410000  1.0 -0.6579351531
O  O15  1  0.79260000  0.43260000  0.82750000  1.0 -0.6706506021
O  O16  1  0.78460000  0.48500000  0.89410000  1.0 -0.6579351531
O  O17  1  0.56740000  0.36000000  0.82750000  1.0 -0.6706506021
O  O18  1  0.51500000  0.29960000  0.89410000  1.0 -0.6579351531
O  O19  1  0.36000000  0.79260000  0.82750000  1.0 -0.6706506021
O  O20  1  0.29960000  0.78460000  0.89410000  1.0 -0.6579351531
O  O21  1  0.20740000  0.56740000  0.82750000  1.0 -0.6706506021
O  O22  1  0.21540000  0.51500000  0.89410000  1.0 -0.6579351531
O  O23  1  0.43260000  0.64000000  0.82750000  1.0 -0.6706506021
O  O24  1  0.48500000  0.70040000  0.89410000  1.0 -0.6579351531
O  O25  1  0.56740000  0.20740000  0.82750000  1.0 -0.6706506021
O  O26  1  0.51500000  0.21540000  0.89410000  1.0 -0.6579351531
O  O27  1  0.64000000  0.43260000  0.82750000  1.0 -0.6706506021
O  O28  1  0.70040000  0.48500000  0.89410000  1.0 -0.6579351531
O  O29  1  0.79260000  0.36000000  0.82750000  1.0 -0.6706506021
O  O30  1  0.78460000  0.29960000  0.89410000  1.0 -0.6579351531
O  O31  1  0.43260000  0.79260000  0.82750000  1.0 -0.6706506021
O  O32  1  0.48500000  0.78460000  0.89410000  1.0 -0.6579351531
O  O33  1  0.36000000  0.56740000  0.82750000  1.0 -0.6706506021
O  O34  1  0.29960000  0.51500000  0.89410000  1.0 -0.6579351531
O  O35  1  0.20740000  0.64000000  0.82750000  1.0 -0.6706506021
O  O36  1  0.21540000  0.70040000  0.89410000  1.0 -0.6579351531
O  O37  1  0.36000000  0.79260000  0.17250000  1.0 -0.6706506021
O  O38  1  0.29960000  0.78460000  0.10590000  1.0 -0.6579351531
O  O39  1  0.20740000  0.56740000  0.17250000  1.0 -0.6706506021
O  O40  1  0.21540000  0.51500000  0.10590000  1.0 -0.6579351531
O  O41  1  0.43260000  0.64000000  0.17250000  1.0 -0.6706506021
O  O42  1  0.48500000  0.70040000  0.10590000  1.0 -0.6579351531
O  O43  1  0.64000000  0.20740000  0.17250000  1.0 -0.6706506021
O  O44  1  0.70040000  0.21540000  0.10590000  1.0 -0.6579351531
O  O45  1  0.79260000  0.43260000  0.17250000  1.0 -0.6706506021
O  O46  1  0.78460000  0.48500000  0.10590000  1.0 -0.6579351531
O  O47  1  0.56740000  0.36000000  0.17250000  1.0 -0.6706506021
O  O48  1  0.51500000  0.29960000  0.10590000  1.0 -0.6579351531
O  O49  1  0.40910000  0.70455000  0.13800000  1.0 -1.1509566959
O  O50  1  0.29545000  0.59090000  0.13800000  1.0 -1.1509566959
O  O51  1  0.29545000  0.70455000  0.13800000  1.0 -1.1509566959
O  O52  1  0.59090000  0.29545000  0.13800000  1.0 -1.1606794503
O  O53  1  0.70455000  0.40910000  0.13800000  1.0 -1.1509566959
O  O54  1  0.70455000  0.29545000  0.13800000  1.0 -1.1606794503
O  O55  1  0.70455000  0.29545000  0.86200000  1.0 -1.1606794503
O  O56  1  0.70455000  0.40910000  0.86200000  1.0 -1.1509566959
O  O57  1  0.59090000  0.29545000  0.86200000  1.0 -1.1606794503
O  O58  1  0.29545000  0.70455000  0.86200000  1.0 -1.1509566959
O  O59  1  0.29545000  0.59090000  0.86200000  1.0 -1.1509566959
O  O60  1  0.40910000  0.70455000  0.86200000  1.0 -1.1509566959
O  O61  1  0.33333333  0.66666667  0.09270000  1.0 -1.0095043686
O  O62  1  0.66666667  0.33333333  0.09270000  1.0 -1.0095043686
O  O63  1  0.66666667  0.33333333  0.90730000  1.0 -1.0095043686
O  O64  1  0.33333333  0.66666667  0.90730000  1.0 -1.0095043686
O  O65  1  0.40710000  0.66080000  0.00000000  1.0 -1.1210303512
O  O66  1  0.25370000  0.59290000  0.00000000  1.0 -1.1210303512
O  O67  1  0.33920000  0.74630000  0.00000000  1.0 -1.1210303512
O  O68  1  0.59290000  0.33920000  0.00000000  1.0 -1.1210303512
O  O69  1  0.74630000  0.40710000  0.00000000  1.0 -1.1210303512
O  O70  1  0.66080000  0.25370000  0.00000000  1.0 -1.1210303512
O  O71  1  0.74630000  0.33920000  0.00000000  1.0 -1.1210303512
O  O72  1  0.66080000  0.40710000  0.00000000  1.0 -1.1210303512
O  O73  1  0.59290000  0.25370000  0.00000000  1.0 -1.1210303512
O  O74  1  0.25370000  0.66080000  0.00000000  1.0 -1.1210303512
O  O75  1  0.33920000  0.59290000  0.00000000  1.0 -1.1210303512
O  O76  1  0.40710000  0.74630000  0.00000000  1.0 -1.1210303512
O  O77  1  0.68820000  0.95930000  0.50000000  1.0 -0.5360039082
O  O78  1  0.27110000  0.31180000  0.50000000  1.0 -0.5309882667
O  O79  1  0.04070000  0.72890000  0.50000000  1.0 -0.5309882667
O  O80  1  0.31180000  0.04070000  0.50000000  1.0 -0.5309882667
O  O81  1  0.72890000  0.68820000  0.50000000  1.0 -0.5309882667
O  O82  1  0.95930000  0.27110000  0.50000000  1.0 -0.5309882667
O  O83  1  0.72890000  0.04070000  0.50000000  1.0 -0.5309882667
O  O84  1  0.95930000  0.68820000  0.50000000  1.0 -0.5309882667
O  O85  1  0.31180000  0.27110000  0.50000000  1.0 -0.5309882667
O  O86  1  0.27110000  0.95930000  0.50000000  1.0 -0.5360039082
O  O87  1  0.04070000  0.31180000  0.50000000  1.0 -0.5309882667
O  O88  1  0.68820000  0.72890000  0.50000000  1.0 -0.5309882667
