# DDEC6 charges by PACMAN v1.1 (https://github.com/mtap-research/PACMAN-charge/)
data_SOYWUZ_ASR_pacman
_symmetry_space_group_name_H-M   'P 1'
_cell_length_a   18.59930000
_cell_length_b   18.59930000
_cell_length_c   18.59930000
_cell_angle_alpha   60.00000000
_cell_angle_beta   60.00000000
_cell_angle_gamma   60.00000000
_symmetry_Int_Tables_number   1
_chemical_formula_structural   Cu(C3O2)2
_chemical_formula_sum   'Cu12 C72 O48'
_cell_volume   4549.61660850
_cell_formula_units_Z   12
loop_
 _symmetry_equiv_pos_site_id
 _symmetry_equiv_pos_as_xyz
  1  'x, y, z'
loop_
 _atom_site_type_symbol
 _atom_site_label
 _atom_site_symmetry_multiplicity
 _atom_site_fract_x
 _atom_site_fract_y
 _atom_site_fract_z
 _atom_site_occupancy
 _atom_site_charge
Cu  Cu1  1  0.00000000  0.57037000  0.42963000  1.0 0.8912345904
Cu  Cu2  1  0.57037000  0.00000000  0.00000000  1.0 0.8912345904
Cu  Cu3  1  0.42963000  0.00000000  0.00000000  1.0 0.8912345904
Cu  Cu4  1  0.00000000  0.42963000  0.57037000  1.0 0.8912345904
Cu  Cu5  1  0.42963000  0.00000000  0.57037000  1.0 0.8912345904
Cu  Cu6  1  0.00000000  0.57037000  0.00000000  1.0 0.8912345904
Cu  Cu7  1  0.00000000  0.42963000  0.00000000  1.0 0.8912345904
Cu  Cu8  1  0.57037000  0.00000000  0.42963000  1.0 0.8912345904
Cu  Cu9  1  0.57037000  0.42963000  0.00000000  1.0 0.8912345904
Cu  Cu10  1  0.00000000  0.00000000  0.57037000  1.0 0.8912345904
Cu  Cu11  1  0.00000000  0.00000000  0.42963000  1.0 0.8912345904
Cu  Cu12  1  0.42963000  0.57037000  0.00000000  1.0 0.8912345904
C  C1  1  0.02614000  0.56890000  0.56890000  1.0 0.6374893461
C  C2  1  0.56890000  0.02614000  0.83606000  1.0 0.6374893461
C  C3  1  0.56890000  0.83606000  0.02614000  1.0 0.6338170307
C  C4  1  0.83606000  0.56890000  0.56890000  1.0 0.6374893461
C  C5  1  0.56890000  0.02614000  0.56890000  1.0 0.6374893461
C  C6  1  0.83606000  0.56890000  0.02614000  1.0 0.6374893461
C  C7  1  0.02614000  0.56890000  0.83606000  1.0 0.6374893461
C  C8  1  0.56890000  0.83606000  0.56890000  1.0 0.6374893461
C  C9  1  0.56890000  0.56890000  0.02614000  1.0 0.6374893461
C  C10  1  0.02614000  0.83606000  0.56890000  1.0 0.6374893461
C  C11  1  0.83606000  0.02614000  0.56890000  1.0 0.6374893461
C  C12  1  0.56890000  0.56890000  0.83606000  1.0 0.6374893461
C  C13  1  0.97386000  0.43110000  0.16394000  1.0 0.6374893461
C  C14  1  0.43110000  0.97386000  0.43110000  1.0 0.6374893461
C  C15  1  0.43110000  0.16394000  0.43110000  1.0 0.6374893461
C  C16  1  0.16394000  0.43110000  0.97386000  1.0 0.6374893461
C  C17  1  0.43110000  0.97386000  0.16394000  1.0 0.6374893461
C  C18  1  0.16394000  0.43110000  0.43110000  1.0 0.6374893461
C  C19  1  0.97386000  0.43110000  0.43110000  1.0 0.6374893461
C  C20  1  0.43110000  0.16394000  0.97386000  1.0 0.6374893461
C  C21  1  0.43110000  0.43110000  0.16394000  1.0 0.6374893461
C  C22  1  0.97386000  0.16394000  0.43110000  1.0 0.6374893461
C  C23  1  0.16394000  0.97386000  0.43110000  1.0 0.6338170307
C  C24  1  0.43110000  0.43110000  0.97386000  1.0 0.6374893461
C  C25  1  0.03450000  0.56890000  0.69830000  1.0 0.0621558569
C  C26  1  0.56890000  0.03450000  0.69830000  1.0 0.0621558569
C  C27  1  0.69830000  0.69830000  0.03450000  1.0 0.0621558569
C  C28  1  0.69830000  0.69830000  0.56890000  1.0 0.0621558569
C  C29  1  0.69830000  0.03450000  0.56890000  1.0 0.0621558569
C  C30  1  0.69830000  0.56890000  0.03450000  1.0 0.0621558569
C  C31  1  0.03450000  0.69830000  0.69830000  1.0 0.0621558569
C  C32  1  0.56890000  0.69830000  0.69830000  1.0 0.0621558569
C  C33  1  0.56890000  0.69830000  0.03450000  1.0 0.0621558569
C  C34  1  0.03450000  0.69830000  0.56890000  1.0 0.0621558569
C  C35  1  0.69830000  0.03450000  0.69830000  1.0 0.0665938134
C  C36  1  0.69830000  0.56890000  0.69830000  1.0 0.0621558569
C  C37  1  0.96550000  0.43110000  0.30170000  1.0 0.0621558569
C  C38  1  0.43110000  0.96550000  0.30170000  1.0 0.0621558569
C  C39  1  0.30170000  0.30170000  0.43110000  1.0 0.0621558569
C  C40  1  0.30170000  0.30170000  0.96550000  1.0 0.0621558569
C  C41  1  0.30170000  0.96550000  0.30170000  1.0 0.0621558569
C  C42  1  0.30170000  0.43110000  0.30170000  1.0 0.0621558569
C  C43  1  0.96550000  0.30170000  0.43110000  1.0 0.0621558569
C  C44  1  0.43110000  0.30170000  0.96550000  1.0 0.0621558569
C  C45  1  0.43110000  0.30170000  0.30170000  1.0 0.0621558569
C  C46  1  0.96550000  0.30170000  0.30170000  1.0 0.0621558569
C  C47  1  0.30170000  0.96550000  0.43110000  1.0 0.0621558569
C  C48  1  0.30170000  0.43110000  0.96550000  1.0 0.0621558569
C  C49  1  0.03428000  0.61220000  0.61220000  1.0 -0.091875022
C  C50  1  0.61220000  0.03428000  0.74132000  1.0 -0.0956272644
C  C51  1  0.61220000  0.74132000  0.03428000  1.0 -0.091875022
C  C52  1  0.74132000  0.61220000  0.61220000  1.0 -0.091875022
C  C53  1  0.61220000  0.03428000  0.61220000  1.0 -0.091875022
C  C54  1  0.74132000  0.61220000  0.03428000  1.0 -0.091875022
C  C55  1  0.03428000  0.61220000  0.74132000  1.0 -0.091875022
C  C56  1  0.61220000  0.74132000  0.61220000  1.0 -0.091875022
C  C57  1  0.61220000  0.61220000  0.03428000  1.0 -0.091875022
C  C58  1  0.03428000  0.74132000  0.61220000  1.0 -0.091875022
C  C59  1  0.74132000  0.03428000  0.61220000  1.0 -0.091875022
C  C60  1  0.61220000  0.61220000  0.74132000  1.0 -0.091875022
C  C61  1  0.96572000  0.38780000  0.25868000  1.0 -0.091875022
C  C62  1  0.38780000  0.96572000  0.38780000  1.0 -0.091875022
C  C63  1  0.38780000  0.25868000  0.38780000  1.0 -0.091875022
C  C64  1  0.25868000  0.38780000  0.96572000  1.0 -0.091875022
C  C65  1  0.38780000  0.96572000  0.25868000  1.0 -0.0956272644
C  C66  1  0.25868000  0.38780000  0.38780000  1.0 -0.091875022
C  C67  1  0.96572000  0.38780000  0.38780000  1.0 -0.091875022
C  C68  1  0.38780000  0.25868000  0.96572000  1.0 -0.091875022
C  C69  1  0.38780000  0.38780000  0.25868000  1.0 -0.091875022
C  C70  1  0.96572000  0.25868000  0.38780000  1.0 -0.091875022
C  C71  1  0.25868000  0.96572000  0.38780000  1.0 -0.091875022
C  C72  1  0.38780000  0.38780000  0.96572000  1.0 -0.091875022
O  O1  1  0.02118000  0.61244000  0.49216000  1.0 -0.5244302911
O  O2  1  0.61244000  0.02118000  0.87422000  1.0 -0.5275001128
O  O3  1  0.49216000  0.87422000  0.02118000  1.0 -0.5275001128
O  O4  1  0.87422000  0.49216000  0.61244000  1.0 -0.5275001128
O  O5  1  0.49216000  0.02118000  0.61244000  1.0 -0.5275001128
O  O6  1  0.87422000  0.61244000  0.02118000  1.0 -0.5244302911
O  O7  1  0.02118000  0.49216000  0.87422000  1.0 -0.5275001128
O  O8  1  0.61244000  0.87422000  0.49216000  1.0 -0.5275001128
O  O9  1  0.61244000  0.49216000  0.02118000  1.0 -0.5244302911
O  O10  1  0.02118000  0.87422000  0.61244000  1.0 -0.5275001128
O  O11  1  0.87422000  0.02118000  0.49216000  1.0 -0.5275001128
O  O12  1  0.49216000  0.61244000  0.87422000  1.0 -0.5275001128
O  O13  1  0.97882000  0.38756000  0.12578000  1.0 -0.5275001128
O  O14  1  0.38756000  0.97882000  0.50784000  1.0 -0.5275001128
O  O15  1  0.50784000  0.12578000  0.38756000  1.0 -0.5275001128
O  O16  1  0.12578000  0.50784000  0.97882000  1.0 -0.5244302911
O  O17  1  0.50784000  0.97882000  0.12578000  1.0 -0.5275001128
O  O18  1  0.12578000  0.38756000  0.50784000  1.0 -0.5275001128
O  O19  1  0.97882000  0.50784000  0.38756000  1.0 -0.5275001128
O  O20  1  0.38756000  0.12578000  0.97882000  1.0 -0.5275001128
O  O21  1  0.38756000  0.50784000  0.12578000  1.0 -0.5275001128
O  O22  1  0.97882000  0.12578000  0.50784000  1.0 -0.5275001128
O  O23  1  0.12578000  0.97882000  0.38756000  1.0 -0.5244302911
O  O24  1  0.50784000  0.38756000  0.97882000  1.0 -0.5275001128
O  O25  1  0.97882000  0.38756000  0.50784000  1.0 -0.5244302911
O  O26  1  0.38756000  0.97882000  0.12578000  1.0 -0.5275001128
O  O27  1  0.50784000  0.12578000  0.97882000  1.0 -0.5275001128
O  O28  1  0.12578000  0.50784000  0.38756000  1.0 -0.5275001128
O  O29  1  0.50784000  0.97882000  0.38756000  1.0 -0.5244302911
O  O30  1  0.12578000  0.38756000  0.97882000  1.0 -0.5244302911
O  O31  1  0.97882000  0.50784000  0.12578000  1.0 -0.5275001128
O  O32  1  0.38756000  0.12578000  0.50784000  1.0 -0.5244302911
O  O33  1  0.38756000  0.50784000  0.97882000  1.0 -0.5244302911
O  O34  1  0.97882000  0.12578000  0.38756000  1.0 -0.5275001128
O  O35  1  0.12578000  0.97882000  0.50784000  1.0 -0.5244302911
O  O36  1  0.50784000  0.38756000  0.12578000  1.0 -0.5275001128
O  O37  1  0.02118000  0.61244000  0.87422000  1.0 -0.5275001128
O  O38  1  0.61244000  0.02118000  0.49216000  1.0 -0.5275001128
O  O39  1  0.49216000  0.87422000  0.61244000  1.0 -0.5244302911
O  O40  1  0.87422000  0.49216000  0.02118000  1.0 -0.5244302911
O  O41  1  0.49216000  0.02118000  0.87422000  1.0 -0.5275001128
O  O42  1  0.87422000  0.61244000  0.49216000  1.0 -0.5275001128
O  O43  1  0.02118000  0.49216000  0.61244000  1.0 -0.5244302911
O  O44  1  0.61244000  0.87422000  0.02118000  1.0 -0.5275001128
O  O45  1  0.61244000  0.49216000  0.87422000  1.0 -0.5275001128
O  O46  1  0.02118000  0.87422000  0.49216000  1.0 -0.5244302911
O  O47  1  0.87422000  0.02118000  0.61244000  1.0 -0.5275001128
O  O48  1  0.49216000  0.61244000  0.02118000  1.0 -0.5244302911
