# DDEC6 charges by PACMAN v1.1 (https://github.com/mtap-research/PACMAN-charge/)
data_SOYWUZ_FSR_pacman
_symmetry_space_group_name_H-M   'P 1'
_cell_length_a   18.59930000
_cell_length_b   18.59930000
_cell_length_c   18.59930000
_cell_angle_alpha   60.00000000
_cell_angle_beta   60.00000000
_cell_angle_gamma   60.00000000
_symmetry_Int_Tables_number   1
_chemical_formula_structural   Cu12SiMo12(C9O13)8
_chemical_formula_sum   'Cu12 Si1 Mo12 C72 O104'
_cell_volume   4549.61660850
_cell_formula_units_Z   1
loop_
 _symmetry_equiv_pos_site_id
 _symmetry_equiv_pos_as_xyz
  1  'x, y, z'
loop_
 _atom_site_type_symbol
 _atom_site_label
 _atom_site_symmetry_multiplicity
 _atom_site_fract_x
 _atom_site_fract_y
 _atom_site_fract_z
 _atom_site_occupancy
 _atom_site_charge
Cu  Cu1  1  0.00000000  0.57037000  0.42963000  1.0 0.9209049262
Cu  Cu2  1  0.57037000  0.00000000  0.00000000  1.0 0.9209049262
Cu  Cu3  1  0.42963000  0.00000000  0.00000000  1.0 0.9209049262
Cu  Cu4  1  0.00000000  0.42963000  0.57037000  1.0 0.9209049262
Cu  Cu5  1  0.42963000  0.00000000  0.57037000  1.0 0.9209049262
Cu  Cu6  1  0.00000000  0.57037000  0.00000000  1.0 0.9209049262
Cu  Cu7  1  0.00000000  0.42963000  0.00000000  1.0 0.9209049262
Cu  Cu8  1  0.57037000  0.00000000  0.42963000  1.0 0.9209049262
Cu  Cu9  1  0.57037000  0.42963000  0.00000000  1.0 0.9209049262
Cu  Cu10  1  0.00000000  0.00000000  0.57037000  1.0 0.9209049262
Cu  Cu11  1  0.00000000  0.00000000  0.42963000  1.0 0.9209049262
Cu  Cu12  1  0.42963000  0.57037000  0.00000000  1.0 0.9209049262
Si  Si1  1  0.50000000  0.50000000  0.50000000  1.0 1.338655111
Mo  Mo1  1  0.31064000  0.50000000  0.50000000  1.0 2.1654249795
Mo  Mo2  1  0.50000000  0.31064000  0.68936000  1.0 2.1654249795
Mo  Mo3  1  0.50000000  0.68936000  0.31064000  1.0 2.1654249795
Mo  Mo4  1  0.68936000  0.50000000  0.50000000  1.0 2.1654249795
Mo  Mo5  1  0.50000000  0.31064000  0.50000000  1.0 2.1654249795
Mo  Mo6  1  0.68936000  0.50000000  0.31064000  1.0 2.1654249795
Mo  Mo7  1  0.31064000  0.50000000  0.68936000  1.0 2.1654249795
Mo  Mo8  1  0.50000000  0.68936000  0.50000000  1.0 2.1654249795
Mo  Mo9  1  0.50000000  0.50000000  0.31064000  1.0 2.1654249795
Mo  Mo10  1  0.31064000  0.68936000  0.50000000  1.0 2.1654249795
Mo  Mo11  1  0.68936000  0.31064000  0.50000000  1.0 2.1654249795
Mo  Mo12  1  0.50000000  0.50000000  0.68936000  1.0 2.1654249795
C  C1  1  0.02614000  0.56890000  0.56890000  1.0 0.6297268984
C  C2  1  0.56890000  0.02614000  0.83606000  1.0 0.6297268984
C  C3  1  0.56890000  0.83606000  0.02614000  1.0 0.6297268984
C  C4  1  0.83606000  0.56890000  0.56890000  1.0 0.6297268984
C  C5  1  0.56890000  0.02614000  0.56890000  1.0 0.6297268984
C  C6  1  0.83606000  0.56890000  0.02614000  1.0 0.6297268984
C  C7  1  0.02614000  0.56890000  0.83606000  1.0 0.6297268984
C  C8  1  0.56890000  0.83606000  0.56890000  1.0 0.6297268984
C  C9  1  0.56890000  0.56890000  0.02614000  1.0 0.6297268984
C  C10  1  0.02614000  0.83606000  0.56890000  1.0 0.6297268984
C  C11  1  0.83606000  0.02614000  0.56890000  1.0 0.6297268984
C  C12  1  0.56890000  0.56890000  0.83606000  1.0 0.6297268984
C  C13  1  0.97386000  0.43110000  0.16394000  1.0 0.6297268984
C  C14  1  0.43110000  0.97386000  0.43110000  1.0 0.6297268984
C  C15  1  0.43110000  0.16394000  0.43110000  1.0 0.6297268984
C  C16  1  0.16394000  0.43110000  0.97386000  1.0 0.6297268984
C  C17  1  0.43110000  0.97386000  0.16394000  1.0 0.6297268984
C  C18  1  0.16394000  0.43110000  0.43110000  1.0 0.6297268984
C  C19  1  0.97386000  0.43110000  0.43110000  1.0 0.6297268984
C  C20  1  0.43110000  0.16394000  0.97386000  1.0 0.6297268984
C  C21  1  0.43110000  0.43110000  0.16394000  1.0 0.6297268984
C  C22  1  0.97386000  0.16394000  0.43110000  1.0 0.6297268984
C  C23  1  0.16394000  0.97386000  0.43110000  1.0 0.6297268984
C  C24  1  0.43110000  0.43110000  0.97386000  1.0 0.6297268984
C  C25  1  0.03450000  0.56890000  0.69830000  1.0 0.0887417475
C  C26  1  0.56890000  0.03450000  0.69830000  1.0 0.0887417475
C  C27  1  0.69830000  0.69830000  0.03450000  1.0 0.0887417475
C  C28  1  0.69830000  0.69830000  0.56890000  1.0 0.0887417475
C  C29  1  0.69830000  0.03450000  0.56890000  1.0 0.0887417475
C  C30  1  0.69830000  0.56890000  0.03450000  1.0 0.0887417475
C  C31  1  0.03450000  0.69830000  0.69830000  1.0 0.0887417475
C  C32  1  0.56890000  0.69830000  0.69830000  1.0 0.0887417475
C  C33  1  0.56890000  0.69830000  0.03450000  1.0 0.0887417475
C  C34  1  0.03450000  0.69830000  0.56890000  1.0 0.0887417475
C  C35  1  0.69830000  0.03450000  0.69830000  1.0 0.0887417475
C  C36  1  0.69830000  0.56890000  0.69830000  1.0 0.0887417475
C  C37  1  0.96550000  0.43110000  0.30170000  1.0 0.0887417475
C  C38  1  0.43110000  0.96550000  0.30170000  1.0 0.0887417475
C  C39  1  0.30170000  0.30170000  0.43110000  1.0 0.0887417475
C  C40  1  0.30170000  0.30170000  0.96550000  1.0 0.0887417475
C  C41  1  0.30170000  0.96550000  0.30170000  1.0 0.0887417475
C  C42  1  0.30170000  0.43110000  0.30170000  1.0 0.0887417475
C  C43  1  0.96550000  0.30170000  0.43110000  1.0 0.0887417475
C  C44  1  0.43110000  0.30170000  0.96550000  1.0 0.0887417475
C  C45  1  0.43110000  0.30170000  0.30170000  1.0 0.0887417475
C  C46  1  0.96550000  0.30170000  0.30170000  1.0 0.0887417475
C  C47  1  0.30170000  0.96550000  0.43110000  1.0 0.0887417475
C  C48  1  0.30170000  0.43110000  0.96550000  1.0 0.0887417475
C  C49  1  0.03428000  0.61220000  0.61220000  1.0 -0.0880665166
C  C50  1  0.61220000  0.03428000  0.74132000  1.0 -0.0880665166
C  C51  1  0.61220000  0.74132000  0.03428000  1.0 -0.0880665166
C  C52  1  0.74132000  0.61220000  0.61220000  1.0 -0.0880665166
C  C53  1  0.61220000  0.03428000  0.61220000  1.0 -0.0880665166
C  C54  1  0.74132000  0.61220000  0.03428000  1.0 -0.0880665166
C  C55  1  0.03428000  0.61220000  0.74132000  1.0 -0.0880665166
C  C56  1  0.61220000  0.74132000  0.61220000  1.0 -0.0880665166
C  C57  1  0.61220000  0.61220000  0.03428000  1.0 -0.0880665166
C  C58  1  0.03428000  0.74132000  0.61220000  1.0 -0.0880665166
C  C59  1  0.74132000  0.03428000  0.61220000  1.0 -0.0880665166
C  C60  1  0.61220000  0.61220000  0.74132000  1.0 -0.0880665166
C  C61  1  0.96572000  0.38780000  0.25868000  1.0 -0.0849582063
C  C62  1  0.38780000  0.96572000  0.38780000  1.0 -0.0880665166
C  C63  1  0.38780000  0.25868000  0.38780000  1.0 -0.0880665166
C  C64  1  0.25868000  0.38780000  0.96572000  1.0 -0.0880665166
C  C65  1  0.38780000  0.96572000  0.25868000  1.0 -0.0880665166
C  C66  1  0.25868000  0.38780000  0.38780000  1.0 -0.0880665166
C  C67  1  0.96572000  0.38780000  0.38780000  1.0 -0.0880665166
C  C68  1  0.38780000  0.25868000  0.96572000  1.0 -0.0880665166
C  C69  1  0.38780000  0.38780000  0.25868000  1.0 -0.0880665166
C  C70  1  0.96572000  0.25868000  0.38780000  1.0 -0.0880665166
C  C71  1  0.25868000  0.96572000  0.38780000  1.0 -0.0880665166
C  C72  1  0.38780000  0.38780000  0.96572000  1.0 -0.0880665166
O  O1  1  0.39320000  0.53560000  0.53560000  1.0 -0.4466650779
O  O2  1  0.53560000  0.39320000  0.53560000  1.0 -0.4466650779
O  O3  1  0.53560000  0.53560000  0.39320000  1.0 -0.4466650779
O  O4  1  0.53560000  0.53560000  0.53560000  1.0 -0.4466650779
O  O5  1  0.60680000  0.46440000  0.46440000  1.0 -0.4466650779
O  O6  1  0.46440000  0.60680000  0.46440000  1.0 -0.4466650779
O  O7  1  0.46440000  0.46440000  0.46440000  1.0 -0.4466650779
O  O8  1  0.46440000  0.46440000  0.60680000  1.0 -0.4466650779
O  O9  1  0.22240000  0.50000000  0.50000000  1.0 -0.5160487674
O  O10  1  0.50000000  0.22240000  0.77760000  1.0 -0.5160487674
O  O11  1  0.50000000  0.77760000  0.22240000  1.0 -0.5160487674
O  O12  1  0.77760000  0.50000000  0.50000000  1.0 -0.5160487674
O  O13  1  0.50000000  0.22240000  0.50000000  1.0 -0.5160487674
O  O14  1  0.77760000  0.50000000  0.22240000  1.0 -0.5160487674
O  O15  1  0.22240000  0.50000000  0.77760000  1.0 -0.5160487674
O  O16  1  0.50000000  0.77760000  0.50000000  1.0 -0.5160487674
O  O17  1  0.50000000  0.50000000  0.22240000  1.0 -0.5160487674
O  O18  1  0.22240000  0.77760000  0.50000000  1.0 -0.5160487674
O  O19  1  0.77760000  0.22240000  0.50000000  1.0 -0.5160487674
O  O20  1  0.50000000  0.50000000  0.77760000  1.0 -0.5160487674
O  O21  1  0.28300000  0.61980000  0.47740000  1.0 -0.7627999243
O  O22  1  0.61980000  0.28300000  0.61980000  1.0 -0.7627999243
O  O23  1  0.47740000  0.61980000  0.28300000  1.0 -0.7627999243
O  O24  1  0.61980000  0.47740000  0.61980000  1.0 -0.7627999243
O  O25  1  0.47740000  0.28300000  0.61980000  1.0 -0.7627999243
O  O26  1  0.61980000  0.61980000  0.28300000  1.0 -0.7627999243
O  O27  1  0.28300000  0.47740000  0.61980000  1.0 -0.7627999243
O  O28  1  0.61980000  0.61980000  0.47740000  1.0 -0.7627999243
O  O29  1  0.61980000  0.47740000  0.28300000  1.0 -0.7627999243
O  O30  1  0.28300000  0.61980000  0.61980000  1.0 -0.7627999243
O  O31  1  0.61980000  0.28300000  0.47740000  1.0 -0.7627999243
O  O32  1  0.47740000  0.61980000  0.61980000  1.0 -0.7627999243
O  O33  1  0.71700000  0.38020000  0.38020000  1.0 -0.7627999243
O  O34  1  0.38020000  0.71700000  0.52260000  1.0 -0.7627999243
O  O35  1  0.52260000  0.38020000  0.38020000  1.0 -0.7627999243
O  O36  1  0.38020000  0.52260000  0.71700000  1.0 -0.7627999243
O  O37  1  0.52260000  0.71700000  0.38020000  1.0 -0.7627999243
O  O38  1  0.38020000  0.38020000  0.52260000  1.0 -0.7627999243
O  O39  1  0.71700000  0.52260000  0.38020000  1.0 -0.7627999243
O  O40  1  0.38020000  0.38020000  0.71700000  1.0 -0.7627999243
O  O41  1  0.38020000  0.52260000  0.38020000  1.0 -0.7627999243
O  O42  1  0.71700000  0.38020000  0.52260000  1.0 -0.7627999243
O  O43  1  0.38020000  0.71700000  0.38020000  1.0 -0.7627999243
O  O44  1  0.52260000  0.38020000  0.71700000  1.0 -0.7627999243
O  O45  1  0.02118000  0.61244000  0.49216000  1.0 -0.5334454757
O  O46  1  0.61244000  0.02118000  0.87422000  1.0 -0.5351911667
O  O47  1  0.49216000  0.87422000  0.02118000  1.0 -0.5334454757
O  O48  1  0.87422000  0.49216000  0.61244000  1.0 -0.5334454757
O  O49  1  0.49216000  0.02118000  0.61244000  1.0 -0.5351911667
O  O50  1  0.87422000  0.61244000  0.02118000  1.0 -0.5334454757
O  O51  1  0.02118000  0.49216000  0.87422000  1.0 -0.5334454757
O  O52  1  0.61244000  0.87422000  0.49216000  1.0 -0.5334454757
O  O53  1  0.61244000  0.49216000  0.02118000  1.0 -0.5334454757
O  O54  1  0.02118000  0.87422000  0.61244000  1.0 -0.5334454757
O  O55  1  0.87422000  0.02118000  0.49216000  1.0 -0.5334454757
O  O56  1  0.49216000  0.61244000  0.87422000  1.0 -0.5351911667
O  O57  1  0.97882000  0.38756000  0.12578000  1.0 -0.5334454757
O  O58  1  0.38756000  0.97882000  0.50784000  1.0 -0.5351911667
O  O59  1  0.50784000  0.12578000  0.38756000  1.0 -0.5351911667
O  O60  1  0.12578000  0.50784000  0.97882000  1.0 -0.5334454757
O  O61  1  0.50784000  0.97882000  0.12578000  1.0 -0.5351911667
O  O62  1  0.12578000  0.38756000  0.50784000  1.0 -0.5334454757
O  O63  1  0.97882000  0.50784000  0.38756000  1.0 -0.5334454757
O  O64  1  0.38756000  0.12578000  0.97882000  1.0 -0.5351911667
O  O65  1  0.38756000  0.50784000  0.12578000  1.0 -0.5334454757
O  O66  1  0.97882000  0.12578000  0.50784000  1.0 -0.5334454757
O  O67  1  0.12578000  0.97882000  0.38756000  1.0 -0.5334454757
O  O68  1  0.50784000  0.38756000  0.97882000  1.0 -0.5334454757
O  O69  1  0.97882000  0.38756000  0.50784000  1.0 -0.5334454757
O  O70  1  0.38756000  0.97882000  0.12578000  1.0 -0.5351911667
O  O71  1  0.50784000  0.12578000  0.97882000  1.0 -0.5351911667
O  O72  1  0.12578000  0.50784000  0.38756000  1.0 -0.5334454757
O  O73  1  0.50784000  0.97882000  0.38756000  1.0 -0.5334454757
O  O74  1  0.12578000  0.38756000  0.97882000  1.0 -0.5334454757
O  O75  1  0.97882000  0.50784000  0.12578000  1.0 -0.5334454757
O  O76  1  0.38756000  0.12578000  0.50784000  1.0 -0.5334454757
O  O77  1  0.38756000  0.50784000  0.97882000  1.0 -0.5334454757
O  O78  1  0.97882000  0.12578000  0.38756000  1.0 -0.5334454757
O  O79  1  0.12578000  0.97882000  0.50784000  1.0 -0.5334454757
O  O80  1  0.50784000  0.38756000  0.12578000  1.0 -0.5334454757
O  O81  1  0.02118000  0.61244000  0.87422000  1.0 -0.5351911667
O  O82  1  0.61244000  0.02118000  0.49216000  1.0 -0.5334454757
O  O83  1  0.49216000  0.87422000  0.61244000  1.0 -0.5334454757
O  O84  1  0.87422000  0.49216000  0.02118000  1.0 -0.5334454757
O  O85  1  0.49216000  0.02118000  0.87422000  1.0 -0.5351911667
O  O86  1  0.87422000  0.61244000  0.49216000  1.0 -0.5334454757
O  O87  1  0.02118000  0.49216000  0.61244000  1.0 -0.5334454757
O  O88  1  0.61244000  0.87422000  0.02118000  1.0 -0.5334454757
O  O89  1  0.61244000  0.49216000  0.87422000  1.0 -0.5334454757
O  O90  1  0.02118000  0.87422000  0.49216000  1.0 -0.5334454757
O  O91  1  0.87422000  0.02118000  0.61244000  1.0 -0.5351911667
O  O92  1  0.49216000  0.61244000  0.02118000  1.0 -0.5334454757
O  O93  1  0.00000000  0.68880000  0.31120000  1.0 0.0170607865
O  O94  1  0.68880000  0.00000000  0.00000000  1.0 0.0170607865
O  O95  1  0.31120000  0.00000000  0.00000000  1.0 0.0170607865
O  O96  1  0.00000000  0.31120000  0.68880000  1.0 0.0145272484
O  O97  1  0.31120000  0.00000000  0.68880000  1.0 0.0145272484
O  O98  1  0.00000000  0.68880000  0.00000000  1.0 0.0145272484
O  O99  1  0.00000000  0.31120000  0.00000000  1.0 0.0145272484
O  O100  1  0.68880000  0.00000000  0.31120000  1.0 0.0170607865
O  O101  1  0.68880000  0.31120000  0.00000000  1.0 0.0170607865
O  O102  1  0.00000000  0.00000000  0.68880000  1.0 0.0145272484
O  O103  1  0.00000000  0.00000000  0.31120000  1.0 0.0170607865
O  O104  1  0.31120000  0.68880000  0.00000000  1.0 0.0170607865
