# DDEC6 charges by PACMAN v1.1 (https://github.com/mtap-research/PACMAN-charge/)
data_SUKKUG_ASR_pacman
_symmetry_space_group_name_H-M   'P 1'
_cell_length_a   16.76520000
_cell_length_b   16.76520000
_cell_length_c   16.76520000
_cell_angle_alpha   67.57330000
_cell_angle_beta   67.57330000
_cell_angle_gamma   67.57330000
_symmetry_Int_Tables_number   1
_chemical_formula_structural   CuH13C24(NO2)2
_chemical_formula_sum   'Cu6 H78 C144 N12 O24'
_cell_volume   3869.82690838
_cell_formula_units_Z   6
loop_
 _symmetry_equiv_pos_site_id
 _symmetry_equiv_pos_as_xyz
  1  'x, y, z'
loop_
 _atom_site_type_symbol
 _atom_site_label
 _atom_site_symmetry_multiplicity
 _atom_site_fract_x
 _atom_site_fract_y
 _atom_site_fract_z
 _atom_site_occupancy
 _atom_site_charge
Cu  Cu1  1  0.50478000  0.50478000  0.07519000  1.0 0.8842044312
Cu  Cu2  1  0.50478000  0.07519000  0.50478000  1.0 0.8850626785
Cu  Cu3  1  0.07519000  0.50478000  0.50478000  1.0 0.8842044312
Cu  Cu4  1  0.49522000  0.49522000  0.92481000  1.0 0.8850626785
Cu  Cu5  1  0.92481000  0.49522000  0.49522000  1.0 0.8850626785
Cu  Cu6  1  0.49522000  0.92481000  0.49522000  1.0 0.8842044312
H  H1  1  0.53090000  0.22840000  0.22840000  1.0 0.1556017611
H  H2  1  0.22840000  0.22840000  0.53090000  1.0 0.1556017611
H  H3  1  0.22840000  0.53090000  0.22840000  1.0 0.1556017611
H  H4  1  0.77160000  0.46910000  0.77160000  1.0 0.1556017611
H  H5  1  0.77160000  0.77160000  0.46910000  1.0 0.1556017611
H  H6  1  0.46910000  0.77160000  0.77160000  1.0 0.1556017611
H  H7  1  0.51720000  0.21490000  0.00000000  1.0 0.1664229918
H  H8  1  0.21490000  0.00000000  0.51720000  1.0 0.1664229918
H  H9  1  0.00000000  0.51720000  0.21490000  1.0 0.1664229918
H  H10  1  0.78510000  0.48280000  0.00000000  1.0 0.1664229918
H  H11  1  0.00000000  0.78510000  0.48280000  1.0 0.1664229918
H  H12  1  0.48280000  0.00000000  0.78510000  1.0 0.1664229918
H  H13  1  0.48280000  0.78510000  0.00000000  1.0 0.1664229918
H  H14  1  0.78510000  0.00000000  0.48280000  1.0 0.1664229918
H  H15  1  0.00000000  0.48280000  0.78510000  1.0 0.1664229918
H  H16  1  0.21490000  0.51720000  0.00000000  1.0 0.1664229918
H  H17  1  0.00000000  0.21490000  0.51720000  1.0 0.1664229918
H  H18  1  0.51720000  0.00000000  0.21490000  1.0 0.1664229918
H  H19  1  0.40470000  0.02630000  0.12230000  1.0 0.0897691139
H  H20  1  0.02630000  0.12230000  0.40470000  1.0 0.0897691139
H  H21  1  0.12230000  0.40470000  0.02630000  1.0 0.0897691139
H  H22  1  0.97370000  0.59530000  0.87770000  1.0 0.0897691139
H  H23  1  0.87770000  0.97370000  0.59530000  1.0 0.0897691139
H  H24  1  0.59530000  0.87770000  0.97370000  1.0 0.0897691139
H  H25  1  0.59530000  0.97370000  0.87770000  1.0 0.0897691139
H  H26  1  0.97370000  0.87770000  0.59530000  1.0 0.0897691139
H  H27  1  0.87770000  0.59530000  0.97370000  1.0 0.0897691139
H  H28  1  0.02630000  0.40470000  0.12230000  1.0 0.0897691139
H  H29  1  0.12230000  0.02630000  0.40470000  1.0 0.0897691139
H  H30  1  0.40470000  0.12230000  0.02630000  1.0 0.0897691139
H  H31  1  0.38990000  0.95110000  0.03830000  1.0 0.0897691139
H  H32  1  0.95110000  0.03830000  0.38990000  1.0 0.0897691139
H  H33  1  0.03830000  0.38990000  0.95110000  1.0 0.0897691139
H  H34  1  0.04890000  0.61010000  0.96170000  1.0 0.0897691139
H  H35  1  0.96170000  0.04890000  0.61010000  1.0 0.0897691139
H  H36  1  0.61010000  0.96170000  0.04890000  1.0 0.0897691139
H  H37  1  0.61010000  0.04890000  0.96170000  1.0 0.0897691139
H  H38  1  0.04890000  0.96170000  0.61010000  1.0 0.0897691139
H  H39  1  0.96170000  0.61010000  0.04890000  1.0 0.0897691139
H  H40  1  0.95110000  0.38990000  0.03830000  1.0 0.0897691139
H  H41  1  0.03830000  0.95110000  0.38990000  1.0 0.0897691139
H  H42  1  0.38990000  0.03830000  0.95110000  1.0 0.0897691139
H  H43  1  0.64790000  0.93940000  0.80280000  1.0 0.1212243054
H  H44  1  0.93940000  0.80280000  0.64790000  1.0 0.1212243054
H  H45  1  0.80280000  0.64790000  0.93940000  1.0 0.1212243054
H  H46  1  0.06060000  0.35210000  0.19720000  1.0 0.1212243054
H  H47  1  0.19720000  0.06060000  0.35210000  1.0 0.1212243054
H  H48  1  0.35210000  0.19720000  0.06060000  1.0 0.1212243054
H  H49  1  0.35210000  0.06060000  0.19720000  1.0 0.1212243054
H  H50  1  0.06060000  0.19720000  0.35210000  1.0 0.1212243054
H  H51  1  0.19720000  0.35210000  0.06060000  1.0 0.1212243054
H  H52  1  0.93940000  0.64790000  0.80280000  1.0 0.1212243054
H  H53  1  0.80280000  0.93940000  0.64790000  1.0 0.1212243054
H  H54  1  0.64790000  0.80280000  0.93940000  1.0 0.1212243054
H  H55  1  0.78190000  0.97240000  0.76810000  1.0 0.1431714633
H  H56  1  0.97240000  0.76810000  0.78190000  1.0 0.1431714633
H  H57  1  0.76810000  0.78190000  0.97240000  1.0 0.1431714633
H  H58  1  0.02760000  0.21810000  0.23190000  1.0 0.1431714633
H  H59  1  0.23190000  0.02760000  0.21810000  1.0 0.1431714633
H  H60  1  0.21810000  0.23190000  0.02760000  1.0 0.1431714633
H  H61  1  0.21810000  0.02760000  0.23190000  1.0 0.1431714633
H  H62  1  0.02760000  0.23190000  0.21810000  1.0 0.1431714633
H  H63  1  0.23190000  0.21810000  0.02760000  1.0 0.1431714633
H  H64  1  0.97240000  0.78190000  0.76810000  1.0 0.1431714633
H  H65  1  0.76810000  0.97240000  0.78190000  1.0 0.1431714633
H  H66  1  0.78190000  0.76810000  0.97240000  1.0 0.1431714633
H  H67  1  0.68540000  0.06440000  0.98650000  1.0 0.1027356102
H  H68  1  0.06440000  0.98650000  0.68540000  1.0 0.1027356102
H  H69  1  0.98650000  0.68540000  0.06440000  1.0 0.1027356102
H  H70  1  0.93560000  0.31460000  0.01350000  1.0 0.1027356102
H  H71  1  0.01350000  0.93560000  0.31460000  1.0 0.1027356102
H  H72  1  0.31460000  0.01350000  0.93560000  1.0 0.1027356102
H  H73  1  0.31460000  0.93560000  0.01350000  1.0 0.1027356102
H  H74  1  0.93560000  0.01350000  0.31460000  1.0 0.1027356102
H  H75  1  0.01350000  0.31460000  0.93560000  1.0 0.1027356102
H  H76  1  0.06440000  0.68540000  0.98650000  1.0 0.1027356102
H  H77  1  0.98650000  0.06440000  0.68540000  1.0 0.1027356102
H  H78  1  0.68540000  0.98650000  0.06440000  1.0 0.1027356102
C  C1  1  0.51957000  0.33477000  0.06577000  1.0 0.5870268135
C  C2  1  0.33477000  0.06577000  0.51957000  1.0 0.5870268135
C  C3  1  0.06577000  0.51957000  0.33477000  1.0 0.5870268135
C  C4  1  0.66523000  0.48043000  0.93423000  1.0 0.5870268135
C  C5  1  0.93423000  0.66523000  0.48043000  1.0 0.5870268135
C  C6  1  0.48043000  0.93423000  0.66523000  1.0 0.5870268135
C  C7  1  0.48043000  0.66523000  0.93423000  1.0 0.5870268135
C  C8  1  0.66523000  0.93423000  0.48043000  1.0 0.5870268135
C  C9  1  0.93423000  0.48043000  0.66523000  1.0 0.5870268135
C  C10  1  0.33477000  0.51957000  0.06577000  1.0 0.5870268135
C  C11  1  0.06577000  0.33477000  0.51957000  1.0 0.5870268135
C  C12  1  0.51957000  0.06577000  0.33477000  1.0 0.5870268135
C  C13  1  0.52452000  0.23622000  0.10762000  1.0 0.016182784
C  C14  1  0.23622000  0.10762000  0.52452000  1.0 0.016182784
C  C15  1  0.10762000  0.52452000  0.23622000  1.0 0.016182784
C  C16  1  0.76378000  0.47548000  0.89238000  1.0 0.016182784
C  C17  1  0.89238000  0.76378000  0.47548000  1.0 0.016182784
C  C18  1  0.47548000  0.89238000  0.76378000  1.0 0.016182784
C  C19  1  0.47548000  0.76378000  0.89238000  1.0 0.016182784
C  C20  1  0.76378000  0.89238000  0.47548000  1.0 0.016182784
C  C21  1  0.89238000  0.47548000  0.76378000  1.0 0.016182784
C  C22  1  0.23622000  0.52452000  0.10762000  1.0 0.016182784
C  C23  1  0.10762000  0.23622000  0.52452000  1.0 0.016182784
C  C24  1  0.52452000  0.10762000  0.23622000  1.0 0.016182784
C  C25  1  0.52719000  0.19613000  0.19613000  1.0 -0.0992813569
C  C26  1  0.19613000  0.19613000  0.52719000  1.0 -0.0992813569
C  C27  1  0.19613000  0.52719000  0.19613000  1.0 -0.0992813569
C  C28  1  0.80387000  0.47281000  0.80387000  1.0 -0.0992813569
C  C29  1  0.80387000  0.80387000  0.47281000  1.0 -0.0992813569
C  C30  1  0.47281000  0.80387000  0.80387000  1.0 -0.0992813569
C  C31  1  0.51905000  0.18775000  0.05935000  1.0 -0.2290484569
C  C32  1  0.18775000  0.05935000  0.51905000  1.0 -0.2290484569
C  C33  1  0.05935000  0.51905000  0.18775000  1.0 -0.2290484569
C  C34  1  0.81225000  0.48095000  0.94065000  1.0 -0.2290484569
C  C35  1  0.94065000  0.81225000  0.48095000  1.0 -0.2290484569
C  C36  1  0.48095000  0.94065000  0.81225000  1.0 -0.2290484569
C  C37  1  0.48095000  0.81225000  0.94065000  1.0 -0.2290484569
C  C38  1  0.81225000  0.94065000  0.48095000  1.0 -0.2290484569
C  C39  1  0.94065000  0.48095000  0.81225000  1.0 -0.2290484569
C  C40  1  0.18775000  0.51905000  0.05935000  1.0 -0.2290484569
C  C41  1  0.05935000  0.18775000  0.51905000  1.0 -0.2290484569
C  C42  1  0.51905000  0.05935000  0.18775000  1.0 -0.2290484569
C  C43  1  0.51590000  0.09940000  0.09940000  1.0 0.0455913588
C  C44  1  0.09940000  0.09940000  0.51590000  1.0 0.0435891289
C  C45  1  0.09940000  0.51590000  0.09940000  1.0 0.0435891289
C  C46  1  0.90060000  0.48410000  0.90060000  1.0 0.0435891289
C  C47  1  0.90060000  0.90060000  0.48410000  1.0 0.0435891289
C  C48  1  0.48410000  0.90060000  0.90060000  1.0 0.0455913588
C  C49  1  0.52770000  0.04280000  0.04280000  1.0 -0.031880651
C  C50  1  0.04280000  0.04280000  0.52770000  1.0 -0.031880651
C  C51  1  0.04280000  0.52770000  0.04280000  1.0 -0.031880651
C  C52  1  0.95720000  0.47230000  0.95720000  1.0 -0.031880651
C  C53  1  0.95720000  0.95720000  0.47230000  1.0 -0.031880651
C  C54  1  0.47230000  0.95720000  0.95720000  1.0 -0.031880651
C  C55  1  0.45170000  0.01450000  0.06970000  1.0 -0.0171576655
C  C56  1  0.01450000  0.06970000  0.45170000  1.0 -0.0171576655
C  C57  1  0.06970000  0.45170000  0.01450000  1.0 -0.0171576655
C  C58  1  0.98550000  0.54830000  0.93030000  1.0 -0.0171576655
C  C59  1  0.93030000  0.98550000  0.54830000  1.0 -0.0171576655
C  C60  1  0.54830000  0.93030000  0.98550000  1.0 -0.0171576655
C  C61  1  0.54830000  0.98550000  0.93030000  1.0 -0.0171576655
C  C62  1  0.98550000  0.93030000  0.54830000  1.0 -0.0171576655
C  C63  1  0.93030000  0.54830000  0.98550000  1.0 -0.0171576655
C  C64  1  0.01450000  0.45170000  0.06970000  1.0 -0.0171576655
C  C65  1  0.06970000  0.01450000  0.45170000  1.0 -0.0171576655
C  C66  1  0.45170000  0.06970000  0.01450000  1.0 -0.0171576655
C  C67  1  0.44360000  0.96900000  0.02040000  1.0 -0.031880651
C  C68  1  0.96900000  0.02040000  0.44360000  1.0 -0.031880651
C  C69  1  0.02040000  0.44360000  0.96900000  1.0 -0.031880651
C  C70  1  0.03100000  0.55640000  0.97960000  1.0 -0.031880651
C  C71  1  0.97960000  0.03100000  0.55640000  1.0 -0.031880651
C  C72  1  0.55640000  0.97960000  0.03100000  1.0 -0.031880651
C  C73  1  0.55640000  0.03100000  0.97960000  1.0 -0.031880651
C  C74  1  0.03100000  0.97960000  0.55640000  1.0 -0.0423055463
C  C75  1  0.97960000  0.55640000  0.03100000  1.0 -0.031880651
C  C76  1  0.96900000  0.44360000  0.02040000  1.0 -0.031880651
C  C77  1  0.02040000  0.96900000  0.44360000  1.0 -0.031880651
C  C78  1  0.44360000  0.02040000  0.96900000  1.0 -0.031880651
C  C79  1  0.51120000  0.94800000  0.94800000  1.0 -0.0091284509
C  C80  1  0.94800000  0.94800000  0.51120000  1.0 -0.0091284509
C  C81  1  0.94800000  0.51120000  0.94800000  1.0 -0.0091284509
C  C82  1  0.05200000  0.48880000  0.05200000  1.0 -0.0091284509
C  C83  1  0.05200000  0.05200000  0.48880000  1.0 -0.0091284509
C  C84  1  0.48880000  0.05200000  0.05200000  1.0 -0.0091284509
C  C85  1  0.58540000  0.98300000  0.91560000  1.0 -0.031880651
C  C86  1  0.98300000  0.91560000  0.58540000  1.0 -0.031880651
C  C87  1  0.91560000  0.58540000  0.98300000  1.0 -0.031880651
C  C88  1  0.01700000  0.41460000  0.08440000  1.0 -0.031880651
C  C89  1  0.08440000  0.01700000  0.41460000  1.0 -0.031880651
C  C90  1  0.41460000  0.08440000  0.01700000  1.0 -0.031880651
C  C91  1  0.41460000  0.01700000  0.08440000  1.0 -0.031880651
C  C92  1  0.01700000  0.08440000  0.41460000  1.0 -0.031880651
C  C93  1  0.08440000  0.41460000  0.01700000  1.0 -0.031880651
C  C94  1  0.98300000  0.58540000  0.91560000  1.0 -0.031880651
C  C95  1  0.91560000  0.98300000  0.58540000  1.0 -0.031880651
C  C96  1  0.58540000  0.91560000  0.98300000  1.0 -0.031880651
C  C97  1  0.65470000  0.96750000  0.83930000  1.0 -0.2063730732
C  C98  1  0.96750000  0.83930000  0.65470000  1.0 -0.2063730732
C  C99  1  0.83930000  0.65470000  0.96750000  1.0 -0.2063730732
C  C100  1  0.03250000  0.34530000  0.16070000  1.0 -0.2048616242
C  C101  1  0.16070000  0.03250000  0.34530000  1.0 -0.2048616242
C  C102  1  0.34530000  0.16070000  0.03250000  1.0 -0.2048616242
C  C103  1  0.34530000  0.03250000  0.16070000  1.0 -0.2048616242
C  C104  1  0.03250000  0.16070000  0.34530000  1.0 -0.2048616242
C  C105  1  0.16070000  0.34530000  0.03250000  1.0 -0.2063730732
C  C106  1  0.96750000  0.65470000  0.83930000  1.0 -0.2063730732
C  C107  1  0.83930000  0.96750000  0.65470000  1.0 -0.2063730732
C  C108  1  0.65470000  0.83930000  0.96750000  1.0 -0.2063730732
C  C109  1  0.73240000  0.98940000  0.81740000  1.0 -0.0614126113
C  C110  1  0.98940000  0.81740000  0.73240000  1.0 -0.0614126113
C  C111  1  0.81740000  0.73240000  0.98940000  1.0 -0.0614126113
C  C112  1  0.01060000  0.26760000  0.18260000  1.0 -0.0614126113
C  C113  1  0.18260000  0.01060000  0.26760000  1.0 -0.0614126113
C  C114  1  0.26760000  0.18260000  0.01060000  1.0 -0.0614126113
C  C115  1  0.26760000  0.01060000  0.18260000  1.0 -0.0614126113
C  C116  1  0.01060000  0.18260000  0.26760000  1.0 -0.0614126113
C  C117  1  0.18260000  0.26760000  0.01060000  1.0 -0.0614126113
C  C118  1  0.98940000  0.73240000  0.81740000  1.0 -0.0614126113
C  C119  1  0.81740000  0.98940000  0.73240000  1.0 -0.0614126113
C  C120  1  0.73240000  0.81740000  0.98940000  1.0 -0.0614126113
C  C121  1  0.67440000  0.04540000  0.94540000  1.0 -0.0687020656
C  C122  1  0.04540000  0.94540000  0.67440000  1.0 -0.0687020656
C  C123  1  0.94540000  0.67440000  0.04540000  1.0 -0.0687020656
C  C124  1  0.95460000  0.32560000  0.05460000  1.0 -0.0687020656
C  C125  1  0.05460000  0.95460000  0.32560000  1.0 -0.0687020656
C  C126  1  0.32560000  0.05460000  0.95460000  1.0 -0.0687020656
C  C127  1  0.32560000  0.95460000  0.05460000  1.0 -0.0687020656
C  C128  1  0.95460000  0.05460000  0.32560000  1.0 -0.0687020656
C  C129  1  0.05460000  0.32560000  0.95460000  1.0 -0.0687020656
C  C130  1  0.04540000  0.67440000  0.94540000  1.0 -0.0687020656
C  C131  1  0.94540000  0.04540000  0.67440000  1.0 -0.0687020656
C  C132  1  0.67440000  0.94540000  0.04540000  1.0 -0.0687020656
C  C133  1  0.59370000  0.02840000  0.96510000  1.0 -0.0423055463
C  C134  1  0.02840000  0.96510000  0.59370000  1.0 -0.0423055463
C  C135  1  0.96510000  0.59370000  0.02840000  1.0 -0.0423055463
C  C136  1  0.97160000  0.40630000  0.03490000  1.0 -0.0423055463
C  C137  1  0.03490000  0.97160000  0.40630000  1.0 -0.0423055463
C  C138  1  0.40630000  0.03490000  0.97160000  1.0 -0.0423055463
C  C139  1  0.40630000  0.97160000  0.03490000  1.0 -0.0423055463
C  C140  1  0.97160000  0.03490000  0.40630000  1.0 -0.0423055463
C  C141  1  0.03490000  0.40630000  0.97160000  1.0 -0.0423055463
C  C142  1  0.02840000  0.59370000  0.96510000  1.0 -0.0423055463
C  C143  1  0.96510000  0.02840000  0.59370000  1.0 -0.0423055463
C  C144  1  0.59370000  0.96510000  0.02840000  1.0 -0.0423055463
N  N1  1  0.74040000  0.03740000  0.86340000  1.0 -0.1189232641
N  N2  1  0.03740000  0.86340000  0.74040000  1.0 -0.1189232641
N  N3  1  0.86340000  0.74040000  0.03740000  1.0 -0.1189232641
N  N4  1  0.96260000  0.25960000  0.13660000  1.0 -0.1189232641
N  N5  1  0.13660000  0.96260000  0.25960000  1.0 -0.1189232641
N  N6  1  0.25960000  0.13660000  0.96260000  1.0 -0.1189232641
N  N7  1  0.25960000  0.96260000  0.13660000  1.0 -0.1189232641
N  N8  1  0.96260000  0.13660000  0.25960000  1.0 -0.1189232641
N  N9  1  0.13660000  0.25960000  0.96260000  1.0 -0.1189232641
N  N10  1  0.03740000  0.74040000  0.86340000  1.0 -0.1189232641
N  N11  1  0.86340000  0.03740000  0.74040000  1.0 -0.1189232641
N  N12  1  0.74040000  0.86340000  0.03740000  1.0 -0.1189232641
O  O1  1  0.51449000  0.36628000  0.98738000  1.0 -0.4960547449
O  O2  1  0.36628000  0.98738000  0.51449000  1.0 -0.4908293311
O  O3  1  0.98738000  0.51449000  0.36628000  1.0 -0.4960547449
O  O4  1  0.63372000  0.48551000  0.01262000  1.0 -0.4908293311
O  O5  1  0.01262000  0.63372000  0.48551000  1.0 -0.4908293311
O  O6  1  0.48551000  0.01262000  0.63372000  1.0 -0.4908293311
O  O7  1  0.48551000  0.63372000  0.01262000  1.0 -0.4908293311
O  O8  1  0.63372000  0.01262000  0.48551000  1.0 -0.4908293311
O  O9  1  0.01262000  0.48551000  0.63372000  1.0 -0.4908293311
O  O10  1  0.36628000  0.51449000  0.98738000  1.0 -0.4908293311
O  O11  1  0.98738000  0.36628000  0.51449000  1.0 -0.4960547449
O  O12  1  0.51449000  0.98738000  0.36628000  1.0 -0.4908293311
O  O13  1  0.52117000  0.37500000  0.11385000  1.0 -0.484865145
O  O14  1  0.37500000  0.11385000  0.52117000  1.0 -0.484865145
O  O15  1  0.11385000  0.52117000  0.37500000  1.0 -0.4908293311
O  O16  1  0.62500000  0.47883000  0.88615000  1.0 -0.4908293311
O  O17  1  0.88615000  0.62500000  0.47883000  1.0 -0.4908293311
O  O18  1  0.47883000  0.88615000  0.62500000  1.0 -0.4908293311
O  O19  1  0.47883000  0.62500000  0.88615000  1.0 -0.4908293311
O  O20  1  0.62500000  0.88615000  0.47883000  1.0 -0.4908293311
O  O21  1  0.88615000  0.47883000  0.62500000  1.0 -0.4908293311
O  O22  1  0.37500000  0.52117000  0.11385000  1.0 -0.484865145
O  O23  1  0.11385000  0.37500000  0.52117000  1.0 -0.484865145
O  O24  1  0.52117000  0.11385000  0.37500000  1.0 -0.484865145
