# DDEC6 charges by PACMAN v1.1 (https://github.com/mtap-research/PACMAN-charge/)
data_SUKNOC_ASR_pacman
_symmetry_space_group_name_H-M   'P 1'
_cell_length_a   21.36760000
_cell_length_b   21.36760000
_cell_length_c   21.05600000
_cell_angle_alpha   90.00000000
_cell_angle_beta   90.00000000
_cell_angle_gamma   120.00000000
_symmetry_Int_Tables_number   1
_chemical_formula_structural   KCd3H60C78(N3O2)6
_chemical_formula_sum   'K2 Cd6 H120 C156 N36 O24'
_cell_volume   8325.64701227
_cell_formula_units_Z   2
loop_
 _symmetry_equiv_pos_site_id
 _symmetry_equiv_pos_as_xyz
  1  'x, y, z'
loop_
 _atom_site_type_symbol
 _atom_site_label
 _atom_site_symmetry_multiplicity
 _atom_site_fract_x
 _atom_site_fract_y
 _atom_site_fract_z
 _atom_site_occupancy
 _atom_site_charge
K  K1  1  0.66666667  0.33333333  0.75000000  1.0 0.8947487105
K  K2  1  0.33333333  0.66666667  0.25000000  1.0 0.8947487105
Cd  Cd1  1  0.45237000  0.22618000  0.75000000  1.0 0.8131816217
Cd  Cd2  1  0.77382000  0.22618000  0.75000000  1.0 0.8131816217
Cd  Cd3  1  0.77382000  0.54763000  0.75000000  1.0 0.8131816217
Cd  Cd4  1  0.54763000  0.77382000  0.25000000  1.0 0.8131816217
Cd  Cd5  1  0.22618000  0.77382000  0.25000000  1.0 0.8131816217
Cd  Cd6  1  0.22618000  0.45237000  0.25000000  1.0 0.8131816217
H  H1  1  0.45570000  0.10180000  0.94910000  1.0 0.1218288023
H  H2  1  0.89820000  0.35390000  0.94910000  1.0 0.1218288023
H  H3  1  0.64610000  0.54430000  0.94910000  1.0 0.1218288023
H  H4  1  0.89820000  0.54430000  0.55090000  1.0 0.1218288023
H  H5  1  0.45570000  0.35390000  0.55090000  1.0 0.1218288023
H  H6  1  0.64610000  0.10180000  0.55090000  1.0 0.1218288023
H  H7  1  0.54430000  0.89820000  0.05090000  1.0 0.1218288023
H  H8  1  0.10180000  0.64610000  0.05090000  1.0 0.1218288023
H  H9  1  0.35390000  0.45570000  0.05090000  1.0 0.1218288023
H  H10  1  0.10180000  0.45570000  0.44910000  1.0 0.1218288023
H  H11  1  0.54430000  0.64610000  0.44910000  1.0 0.1218288023
H  H12  1  0.35390000  0.89820000  0.44910000  1.0 0.1218288023
H  H13  1  0.70460000  0.22370000  0.96350000  1.0 0.1218288023
H  H14  1  0.77630000  0.48090000  0.96350000  1.0 0.1218288023
H  H15  1  0.51910000  0.29540000  0.96350000  1.0 0.1218288023
H  H16  1  0.77630000  0.29540000  0.53650000  1.0 0.1218288023
H  H17  1  0.70460000  0.48090000  0.53650000  1.0 0.1218288023
H  H18  1  0.51910000  0.22370000  0.53650000  1.0 0.1218288023
H  H19  1  0.29540000  0.77630000  0.03650000  1.0 0.1218288023
H  H20  1  0.22370000  0.51910000  0.03650000  1.0 0.1218288023
H  H21  1  0.48090000  0.70460000  0.03650000  1.0 0.1218288023
H  H22  1  0.22370000  0.70460000  0.46350000  1.0 0.1218288023
H  H23  1  0.29540000  0.51910000  0.46350000  1.0 0.1218288023
H  H24  1  0.48090000  0.77630000  0.46350000  1.0 0.1218288023
H  H25  1  0.64960000  0.24940000  0.88300000  1.0 0.1093270923
H  H26  1  0.75060000  0.40020000  0.88300000  1.0 0.1093270923
H  H27  1  0.59980000  0.35040000  0.88300000  1.0 0.1093270923
H  H28  1  0.75060000  0.35040000  0.61700000  1.0 0.1093270923
H  H29  1  0.64960000  0.40020000  0.61700000  1.0 0.1093270923
H  H30  1  0.59980000  0.24940000  0.61700000  1.0 0.1093270923
H  H31  1  0.35040000  0.75060000  0.11700000  1.0 0.1093270923
H  H32  1  0.24940000  0.59980000  0.11700000  1.0 0.1093270923
H  H33  1  0.40020000  0.64960000  0.11700000  1.0 0.1093270923
H  H34  1  0.24940000  0.64960000  0.38300000  1.0 0.1093270923
H  H35  1  0.35040000  0.59980000  0.38300000  1.0 0.1093270923
H  H36  1  0.40020000  0.75060000  0.38300000  1.0 0.1093270923
H  H37  1  0.40970000  0.02940000  0.01340000  1.0 0.087365687
H  H38  1  0.97060000  0.38030000  0.01340000  1.0 0.087365687
H  H39  1  0.61970000  0.59030000  0.01340000  1.0 0.087365687
H  H40  1  0.97060000  0.59030000  0.48660000  1.0 0.087365687
H  H41  1  0.40970000  0.38030000  0.48660000  1.0 0.087365687
H  H42  1  0.61970000  0.02940000  0.48660000  1.0 0.087365687
H  H43  1  0.59030000  0.97060000  0.98660000  1.0 0.087365687
H  H44  1  0.02940000  0.61970000  0.98660000  1.0 0.087365687
H  H45  1  0.38030000  0.40970000  0.98660000  1.0 0.087365687
H  H46  1  0.02940000  0.40970000  0.51340000  1.0 0.087365687
H  H47  1  0.59030000  0.61970000  0.51340000  1.0 0.087365687
H  H48  1  0.38030000  0.97060000  0.51340000  1.0 0.087365687
H  H49  1  0.39360000  0.89270000  0.22480000  1.0 0.1093270923
H  H50  1  0.10730000  0.50090000  0.22480000  1.0 0.1093270923
H  H51  1  0.49910000  0.60640000  0.22480000  1.0 0.1093270923
H  H52  1  0.10730000  0.60640000  0.27520000  1.0 0.1093270923
H  H53  1  0.39360000  0.50090000  0.27520000  1.0 0.1093270923
H  H54  1  0.49910000  0.89270000  0.27520000  1.0 0.1093270923
H  H55  1  0.60640000  0.10730000  0.77520000  1.0 0.1093270923
H  H56  1  0.89270000  0.49910000  0.77520000  1.0 0.1093270923
H  H57  1  0.50090000  0.39360000  0.77520000  1.0 0.1093270923
H  H58  1  0.89270000  0.39360000  0.72480000  1.0 0.1093270923
H  H59  1  0.60640000  0.49910000  0.72480000  1.0 0.1093270923
H  H60  1  0.50090000  0.10730000  0.72480000  1.0 0.1093270923
H  H61  1  0.46790000  0.98060000  0.15570000  1.0 0.1404346455
H  H62  1  0.01940000  0.48730000  0.15570000  1.0 0.1404346455
H  H63  1  0.51270000  0.53210000  0.15570000  1.0 0.1404346455
H  H64  1  0.01940000  0.53210000  0.34430000  1.0 0.1404346455
H  H65  1  0.46790000  0.48730000  0.34430000  1.0 0.1404346455
H  H66  1  0.51270000  0.98060000  0.34430000  1.0 0.1404346455
H  H67  1  0.53210000  0.01940000  0.84430000  1.0 0.1404346455
H  H68  1  0.98060000  0.51270000  0.84430000  1.0 0.1404346455
H  H69  1  0.48730000  0.46790000  0.84430000  1.0 0.1404346455
H  H70  1  0.98060000  0.46790000  0.65570000  1.0 0.1404346455
H  H71  1  0.53210000  0.51270000  0.65570000  1.0 0.1404346455
H  H72  1  0.48730000  0.01940000  0.65570000  1.0 0.1404346455
H  H73  1  0.29250000  0.94490000  0.05900000  1.0 0.1328430714
H  H74  1  0.05510000  0.34760000  0.05900000  1.0 0.1328430714
H  H75  1  0.65240000  0.70750000  0.05900000  1.0 0.1328430714
H  H76  1  0.05510000  0.70750000  0.44100000  1.0 0.1328430714
H  H77  1  0.29250000  0.34760000  0.44100000  1.0 0.1328430714
H  H78  1  0.65240000  0.94490000  0.44100000  1.0 0.1328430714
H  H79  1  0.70750000  0.05510000  0.94100000  1.0 0.1328430714
H  H80  1  0.94490000  0.65240000  0.94100000  1.0 0.1328430714
H  H81  1  0.34760000  0.29250000  0.94100000  1.0 0.1328430714
H  H82  1  0.94490000  0.29250000  0.55900000  1.0 0.1328430714
H  H83  1  0.70750000  0.65240000  0.55900000  1.0 0.1328430714
H  H84  1  0.34760000  0.05510000  0.55900000  1.0 0.1328430714
H  H85  1  0.22280000  0.85870000  0.13170000  1.0 0.1093270923
H  H86  1  0.14130000  0.36410000  0.13170000  1.0 0.1093270923
H  H87  1  0.63590000  0.77720000  0.13170000  1.0 0.1093270923
H  H88  1  0.14130000  0.77720000  0.36830000  1.0 0.1093270923
H  H89  1  0.22280000  0.36410000  0.36830000  1.0 0.1093270923
H  H90  1  0.63590000  0.85870000  0.36830000  1.0 0.1093270923
H  H91  1  0.77720000  0.14130000  0.86830000  1.0 0.1093270923
H  H92  1  0.85870000  0.63590000  0.86830000  1.0 0.1093270923
H  H93  1  0.36410000  0.22280000  0.86830000  1.0 0.1093270923
H  H94  1  0.85870000  0.22280000  0.63170000  1.0 0.1093270923
H  H95  1  0.77720000  0.63590000  0.63170000  1.0 0.1093270923
H  H96  1  0.36410000  0.14130000  0.63170000  1.0 0.1093270923
H  H97  1  0.63150000  0.09430000  0.07250000  1.0 0.2674529581
H  H98  1  0.90570000  0.53720000  0.07250000  1.0 0.2674529581
H  H99  1  0.46280000  0.36850000  0.07250000  1.0 0.2648396421
H  H100  1  0.90570000  0.36850000  0.42750000  1.0 0.2674529581
H  H101  1  0.63150000  0.53720000  0.42750000  1.0 0.2648396421
H  H102  1  0.46280000  0.09430000  0.42750000  1.0 0.2674529581
H  H103  1  0.36850000  0.90570000  0.92750000  1.0 0.2674529581
H  H104  1  0.09430000  0.46280000  0.92750000  1.0 0.2648396421
H  H105  1  0.53720000  0.63150000  0.92750000  1.0 0.2674529581
H  H106  1  0.09430000  0.63150000  0.57250000  1.0 0.2674529581
H  H107  1  0.36850000  0.46280000  0.57250000  1.0 0.2674529581
H  H108  1  0.53720000  0.90570000  0.57250000  1.0 0.2674529581
H  H109  1  0.69040000  0.16160000  0.05720000  1.0 0.2674529581
H  H110  1  0.83840000  0.52880000  0.05720000  1.0 0.2674529581
H  H111  1  0.47120000  0.30960000  0.05720000  1.0 0.2674529581
H  H112  1  0.83840000  0.30960000  0.44280000  1.0 0.2674529581
H  H113  1  0.69040000  0.52880000  0.44280000  1.0 0.2674529581
H  H114  1  0.47120000  0.16160000  0.44280000  1.0 0.2674529581
H  H115  1  0.30960000  0.83840000  0.94280000  1.0 0.2674529581
H  H116  1  0.16160000  0.47120000  0.94280000  1.0 0.2674529581
H  H117  1  0.52880000  0.69040000  0.94280000  1.0 0.2674529581
H  H118  1  0.16160000  0.69040000  0.55720000  1.0 0.2674529581
H  H119  1  0.30960000  0.47120000  0.55720000  1.0 0.2674529581
H  H120  1  0.52880000  0.83840000  0.55720000  1.0 0.2674529581
C  C1  1  0.51150000  0.18847000  0.85125000  1.0 0.5476604928
C  C2  1  0.81153000  0.32303000  0.85125000  1.0 0.5476604928
C  C3  1  0.67697000  0.48850000  0.85125000  1.0 0.5476604928
C  C4  1  0.81153000  0.48850000  0.64875000  1.0 0.5476604928
C  C5  1  0.51150000  0.32303000  0.64875000  1.0 0.5476604928
C  C6  1  0.67697000  0.18847000  0.64875000  1.0 0.5476604928
C  C7  1  0.48850000  0.81153000  0.14875000  1.0 0.5476604928
C  C8  1  0.18847000  0.67697000  0.14875000  1.0 0.5476604928
C  C9  1  0.32303000  0.51150000  0.14875000  1.0 0.5476604928
C  C10  1  0.18847000  0.51150000  0.35125000  1.0 0.5476604928
C  C11  1  0.48850000  0.67697000  0.35125000  1.0 0.5476604928
C  C12  1  0.32303000  0.81153000  0.35125000  1.0 0.5476604928
C  C13  1  0.54747000  0.17728000  0.90623000  1.0 -0.0580707753
C  C14  1  0.82272000  0.37019000  0.90623000  1.0 -0.0580707753
C  C15  1  0.62981000  0.45253000  0.90623000  1.0 -0.0580707753
C  C16  1  0.82272000  0.45253000  0.59377000  1.0 -0.0580707753
C  C17  1  0.54747000  0.37019000  0.59377000  1.0 -0.0580707753
C  C18  1  0.62981000  0.17728000  0.59377000  1.0 -0.0580707753
C  C19  1  0.45253000  0.82272000  0.09377000  1.0 -0.0580707753
C  C20  1  0.17728000  0.62981000  0.09377000  1.0 -0.0580707753
C  C21  1  0.37019000  0.54747000  0.09377000  1.0 -0.0580707753
C  C22  1  0.17728000  0.54747000  0.40623000  1.0 -0.0580707753
C  C23  1  0.45253000  0.62981000  0.40623000  1.0 -0.0580707753
C  C24  1  0.37019000  0.82272000  0.40623000  1.0 -0.0580707753
C  C25  1  0.50581000  0.12647000  0.95249000  1.0 -0.2022931696
C  C26  1  0.87353000  0.37934000  0.95249000  1.0 -0.2022931696
C  C27  1  0.62066000  0.49419000  0.95249000  1.0 -0.2022931696
C  C28  1  0.87353000  0.49419000  0.54751000  1.0 -0.2022931696
C  C29  1  0.50581000  0.37934000  0.54751000  1.0 -0.2022931696
C  C30  1  0.62066000  0.12647000  0.54751000  1.0 -0.2022931696
C  C31  1  0.49419000  0.87353000  0.04751000  1.0 -0.2022931696
C  C32  1  0.12647000  0.62066000  0.04751000  1.0 -0.2022931696
C  C33  1  0.37934000  0.50581000  0.04751000  1.0 -0.2022931696
C  C34  1  0.12647000  0.50581000  0.45249000  1.0 -0.2022931696
C  C35  1  0.49419000  0.62066000  0.45249000  1.0 -0.2022931696
C  C36  1  0.37934000  0.87353000  0.45249000  1.0 -0.2022931696
C  C37  1  0.53799000  0.11207000  0.00364000  1.0 0.087365687
C  C38  1  0.88793000  0.42592000  0.00364000  1.0 0.087365687
C  C39  1  0.57408000  0.46201000  0.00364000  1.0 0.087365687
C  C40  1  0.88793000  0.46201000  0.49636000  1.0 0.087365687
C  C41  1  0.53799000  0.42592000  0.49636000  1.0 0.087365687
C  C42  1  0.57408000  0.11207000  0.49636000  1.0 0.087365687
C  C43  1  0.46201000  0.88793000  0.99636000  1.0 0.087365687
C  C44  1  0.11207000  0.57408000  0.99636000  1.0 0.087365687
C  C45  1  0.42592000  0.53799000  0.99636000  1.0 0.087365687
C  C46  1  0.11207000  0.53799000  0.50364000  1.0 0.087365687
C  C47  1  0.46201000  0.57408000  0.50364000  1.0 0.087365687
C  C48  1  0.42592000  0.88793000  0.50364000  1.0 0.087365687
C  C49  1  0.61329000  0.14790000  0.00779000  1.0 0.2023583282
C  C50  1  0.85210000  0.46539000  0.00779000  1.0 0.2023583282
C  C51  1  0.53461000  0.38671000  0.00779000  1.0 0.2023583282
C  C52  1  0.85210000  0.38671000  0.49221000  1.0 0.2023583282
C  C53  1  0.61329000  0.46539000  0.49221000  1.0 0.2023583282
C  C54  1  0.53461000  0.14790000  0.49221000  1.0 0.2023583282
C  C55  1  0.38671000  0.85210000  0.99221000  1.0 0.2023583282
C  C56  1  0.14790000  0.53461000  0.99221000  1.0 0.2023583282
C  C57  1  0.46539000  0.61329000  0.99221000  1.0 0.2023583282
C  C58  1  0.14790000  0.61329000  0.50779000  1.0 0.2023583282
C  C59  1  0.38671000  0.53461000  0.50779000  1.0 0.2023583282
C  C60  1  0.46539000  0.85210000  0.50779000  1.0 0.2023583282
C  C61  1  0.65441000  0.19940000  0.96115000  1.0 -0.2116152268
C  C62  1  0.80060000  0.45501000  0.96115000  1.0 -0.2116152268
C  C63  1  0.54499000  0.34559000  0.96115000  1.0 -0.2116152268
C  C64  1  0.80060000  0.34559000  0.53885000  1.0 -0.2116152268
C  C65  1  0.65441000  0.45501000  0.53885000  1.0 -0.2116152268
C  C66  1  0.54499000  0.19940000  0.53885000  1.0 -0.2116152268
C  C67  1  0.34559000  0.80060000  0.03885000  1.0 -0.2116152268
C  C68  1  0.19940000  0.54499000  0.03885000  1.0 -0.2116152268
C  C69  1  0.45501000  0.65441000  0.03885000  1.0 -0.2116152268
C  C70  1  0.19940000  0.65441000  0.46115000  1.0 -0.2116152268
C  C71  1  0.34559000  0.54499000  0.46115000  1.0 -0.2116152268
C  C72  1  0.45501000  0.80060000  0.46115000  1.0 -0.2116152268
C  C73  1  0.62148000  0.21394000  0.91253000  1.0 -0.1041478474
C  C74  1  0.78606000  0.40754000  0.91253000  1.0 -0.1041478474
C  C75  1  0.59246000  0.37852000  0.91253000  1.0 -0.1041478474
C  C76  1  0.78606000  0.37852000  0.58747000  1.0 -0.1041478474
C  C77  1  0.62148000  0.40754000  0.58747000  1.0 -0.1041478474
C  C78  1  0.59246000  0.21394000  0.58747000  1.0 -0.1041478474
C  C79  1  0.37852000  0.78606000  0.08747000  1.0 -0.1041478474
C  C80  1  0.21394000  0.59246000  0.08747000  1.0 -0.1041478474
C  C81  1  0.40754000  0.62148000  0.08747000  1.0 -0.1041478474
C  C82  1  0.21394000  0.62148000  0.41253000  1.0 -0.1041478474
C  C83  1  0.37852000  0.59246000  0.41253000  1.0 -0.1041478474
C  C84  1  0.40754000  0.78606000  0.41253000  1.0 -0.1041478474
C  C85  1  0.43280000  0.02410000  0.04870000  1.0 0.0637126668
C  C86  1  0.97590000  0.40870000  0.04870000  1.0 0.0637126668
C  C87  1  0.59130000  0.56720000  0.04870000  1.0 0.0637126668
C  C88  1  0.97590000  0.56720000  0.45130000  1.0 0.0637126668
C  C89  1  0.43280000  0.40870000  0.45130000  1.0 0.0637126668
C  C90  1  0.59130000  0.02410000  0.45130000  1.0 0.0637126668
C  C91  1  0.56720000  0.97590000  0.95130000  1.0 0.0637126668
C  C92  1  0.02410000  0.59130000  0.95130000  1.0 0.0637126668
C  C93  1  0.40870000  0.43280000  0.95130000  1.0 0.0637126668
C  C94  1  0.02410000  0.43280000  0.54870000  1.0 0.0637126668
C  C95  1  0.56720000  0.59130000  0.54870000  1.0 0.0637126668
C  C96  1  0.40870000  0.97590000  0.54870000  1.0 0.0637126668
C  C97  1  0.37301000  0.90329000  0.19056000  1.0 0.0737676053
C  C98  1  0.09671000  0.46972000  0.19056000  1.0 0.0737676053
C  C99  1  0.53028000  0.62699000  0.19056000  1.0 0.0737676053
C  C100  1  0.09671000  0.62699000  0.30944000  1.0 0.0737676053
C  C101  1  0.37301000  0.46972000  0.30944000  1.0 0.0737676053
C  C102  1  0.53028000  0.90329000  0.30944000  1.0 0.0737676053
C  C103  1  0.62699000  0.09671000  0.80944000  1.0 0.0737676053
C  C104  1  0.90329000  0.53028000  0.80944000  1.0 0.0737676053
C  C105  1  0.46972000  0.37301000  0.80944000  1.0 0.0737676053
C  C106  1  0.90329000  0.37301000  0.69056000  1.0 0.0737676053
C  C107  1  0.62699000  0.53028000  0.69056000  1.0 0.0737676053
C  C108  1  0.46972000  0.09671000  0.69056000  1.0 0.0737676053
C  C109  1  0.41822000  0.95573000  0.14927000  1.0 -0.1769401936
C  C110  1  0.04427000  0.46249000  0.14927000  1.0 -0.1769401936
C  C111  1  0.53751000  0.58178000  0.14927000  1.0 -0.1769401936
C  C112  1  0.04427000  0.58178000  0.35073000  1.0 -0.1769401936
C  C113  1  0.41822000  0.46249000  0.35073000  1.0 -0.1769401936
C  C114  1  0.53751000  0.95573000  0.35073000  1.0 -0.1769401936
C  C115  1  0.58178000  0.04427000  0.85073000  1.0 -0.1769401936
C  C116  1  0.95573000  0.53751000  0.85073000  1.0 -0.1769401936
C  C117  1  0.46249000  0.41822000  0.85073000  1.0 -0.1769401936
C  C118  1  0.95573000  0.41822000  0.64927000  1.0 -0.1769401936
C  C119  1  0.58178000  0.53751000  0.64927000  1.0 -0.1769401936
C  C120  1  0.46249000  0.04427000  0.64927000  1.0 -0.1769401936
C  C121  1  0.38804000  0.97090000  0.09768000  1.0 0.1043278405
C  C122  1  0.02910000  0.41714000  0.09768000  1.0 0.1043278405
C  C123  1  0.58286000  0.61196000  0.09768000  1.0 0.1043278405
C  C124  1  0.02910000  0.61196000  0.40232000  1.0 0.1043278405
C  C125  1  0.38804000  0.41714000  0.40232000  1.0 0.1043278405
C  C126  1  0.58286000  0.97090000  0.40232000  1.0 0.1043278405
C  C127  1  0.61196000  0.02910000  0.90232000  1.0 0.1043278405
C  C128  1  0.97090000  0.58286000  0.90232000  1.0 0.1043278405
C  C129  1  0.41714000  0.38804000  0.90232000  1.0 0.1043278405
C  C130  1  0.97090000  0.38804000  0.59768000  1.0 0.1043278405
C  C131  1  0.61196000  0.58286000  0.59768000  1.0 0.1043278405
C  C132  1  0.41714000  0.02910000  0.59768000  1.0 0.1043278405
C  C133  1  0.31438000  0.93460000  0.09236000  1.0 -0.194446834
C  C134  1  0.06540000  0.37978000  0.09236000  1.0 -0.194446834
C  C135  1  0.62022000  0.68562000  0.09236000  1.0 -0.194446834
C  C136  1  0.06540000  0.68562000  0.40764000  1.0 -0.194446834
C  C137  1  0.31438000  0.37978000  0.40764000  1.0 -0.194446834
C  C138  1  0.62022000  0.93460000  0.40764000  1.0 -0.194446834
C  C139  1  0.68562000  0.06540000  0.90764000  1.0 -0.194446834
C  C140  1  0.93460000  0.62022000  0.90764000  1.0 -0.194446834
C  C141  1  0.37978000  0.31438000  0.90764000  1.0 -0.194446834
C  C142  1  0.93460000  0.31438000  0.59236000  1.0 -0.194446834
C  C143  1  0.68562000  0.62022000  0.59236000  1.0 -0.194446834
C  C144  1  0.37978000  0.06540000  0.59236000  1.0 -0.194446834
C  C145  1  0.27274000  0.88290000  0.13620000  1.0 0.0758858699
C  C146  1  0.11710000  0.38984000  0.13620000  1.0 0.0758858699
C  C147  1  0.61016000  0.72726000  0.13620000  1.0 0.0758858699
C  C148  1  0.11710000  0.72726000  0.36380000  1.0 0.0758858699
C  C149  1  0.27274000  0.38984000  0.36380000  1.0 0.0758858699
C  C150  1  0.61016000  0.88290000  0.36380000  1.0 0.0758858699
C  C151  1  0.72726000  0.11710000  0.86380000  1.0 0.0758858699
C  C152  1  0.88290000  0.61016000  0.86380000  1.0 0.0758858699
C  C153  1  0.38984000  0.27274000  0.86380000  1.0 0.0758858699
C  C154  1  0.88290000  0.27274000  0.63620000  1.0 0.0758858699
C  C155  1  0.72726000  0.61016000  0.63620000  1.0 0.0758858699
C  C156  1  0.38984000  0.11710000  0.63620000  1.0 0.0758858699
N  N1  1  0.49969000  0.06211000  0.05222000  1.0 -0.2776793064
N  N2  1  0.93789000  0.43758000  0.05222000  1.0 -0.2776793064
N  N3  1  0.56242000  0.50031000  0.05222000  1.0 -0.2776793064
N  N4  1  0.93789000  0.50031000  0.44778000  1.0 -0.2776793064
N  N5  1  0.49969000  0.43758000  0.44778000  1.0 -0.2776793064
N  N6  1  0.56242000  0.06211000  0.44778000  1.0 -0.2776793064
N  N7  1  0.50031000  0.93789000  0.94778000  1.0 -0.2776793064
N  N8  1  0.06211000  0.56242000  0.94778000  1.0 -0.2776793064
N  N9  1  0.43758000  0.49969000  0.94778000  1.0 -0.2776793064
N  N10  1  0.06211000  0.49969000  0.55222000  1.0 -0.2776793064
N  N11  1  0.50031000  0.56242000  0.55222000  1.0 -0.2776793064
N  N12  1  0.43758000  0.93789000  0.55222000  1.0 -0.2776793064
N  N13  1  0.30117000  0.86621000  0.18498000  1.0 -0.2260396154
N  N14  1  0.13379000  0.43496000  0.18498000  1.0 -0.2260396154
N  N15  1  0.56504000  0.69883000  0.18498000  1.0 -0.2260396154
N  N16  1  0.13379000  0.69883000  0.31502000  1.0 -0.2260396154
N  N17  1  0.30117000  0.43496000  0.31502000  1.0 -0.2260396154
N  N18  1  0.56504000  0.86621000  0.31502000  1.0 -0.2260396154
N  N19  1  0.69883000  0.13379000  0.81502000  1.0 -0.2260396154
N  N20  1  0.86621000  0.56504000  0.81502000  1.0 -0.2260396154
N  N21  1  0.43496000  0.30117000  0.81502000  1.0 -0.2260396154
N  N22  1  0.86621000  0.30117000  0.68498000  1.0 -0.2260396154
N  N23  1  0.69883000  0.56504000  0.68498000  1.0 -0.2260396154
N  N24  1  0.43496000  0.13379000  0.68498000  1.0 -0.2260396154
N  N25  1  0.64519000  0.13570000  0.05780000  1.0 -0.512528963
N  N26  1  0.86430000  0.50949000  0.05780000  1.0 -0.512528963
N  N27  1  0.49051000  0.35481000  0.05780000  1.0 -0.512528963
N  N28  1  0.86430000  0.35481000  0.44220000  1.0 -0.512528963
N  N29  1  0.64519000  0.50949000  0.44220000  1.0 -0.512528963
N  N30  1  0.49051000  0.13570000  0.44220000  1.0 -0.512528963
N  N31  1  0.35481000  0.86430000  0.94220000  1.0 -0.512528963
N  N32  1  0.13570000  0.49051000  0.94220000  1.0 -0.512528963
N  N33  1  0.50949000  0.64519000  0.94220000  1.0 -0.512528963
N  N34  1  0.13570000  0.64519000  0.55780000  1.0 -0.512528963
N  N35  1  0.35481000  0.49051000  0.55780000  1.0 -0.512528963
N  N36  1  0.50949000  0.86430000  0.55780000  1.0 -0.512528963
O  O1  1  0.54992000  0.23367000  0.80901000  1.0 -0.6261942954
O  O2  1  0.76633000  0.31625000  0.80901000  1.0 -0.6261942954
O  O3  1  0.68375000  0.45008000  0.80901000  1.0 -0.6261942954
O  O4  1  0.76633000  0.45008000  0.69099000  1.0 -0.6261942954
O  O5  1  0.54992000  0.31625000  0.69099000  1.0 -0.6261942954
O  O6  1  0.68375000  0.23367000  0.69099000  1.0 -0.6261942954
O  O7  1  0.45008000  0.76633000  0.19099000  1.0 -0.6261942954
O  O8  1  0.23367000  0.68375000  0.19099000  1.0 -0.6261942954
O  O9  1  0.31625000  0.54992000  0.19099000  1.0 -0.6261942954
O  O10  1  0.23367000  0.54992000  0.30901000  1.0 -0.6261942954
O  O11  1  0.45008000  0.68375000  0.30901000  1.0 -0.6261942954
O  O12  1  0.31625000  0.76633000  0.30901000  1.0 -0.6261942954
O  O13  1  0.44278000  0.15399000  0.84625000  1.0 -0.5873727323
O  O14  1  0.84601000  0.28879000  0.84625000  1.0 -0.5873727323
O  O15  1  0.71121000  0.55722000  0.84625000  1.0 -0.5873727323
O  O16  1  0.84601000  0.55722000  0.65375000  1.0 -0.5873727323
O  O17  1  0.44278000  0.28879000  0.65375000  1.0 -0.5873727323
O  O18  1  0.71121000  0.15399000  0.65375000  1.0 -0.5873727323
O  O19  1  0.55722000  0.84601000  0.15375000  1.0 -0.5873727323
O  O20  1  0.15399000  0.71121000  0.15375000  1.0 -0.5873727323
O  O21  1  0.28879000  0.44278000  0.15375000  1.0 -0.5873727323
O  O22  1  0.15399000  0.44278000  0.34625000  1.0 -0.5873727323
O  O23  1  0.55722000  0.71121000  0.34625000  1.0 -0.5873727323
O  O24  1  0.28879000  0.84601000  0.34625000  1.0 -0.5873727323
