# DDEC6 charges by PACMAN v1.1 (https://github.com/mtap-research/PACMAN-charge/)
data_SUKNUI_ASR_pacman
_symmetry_space_group_name_H-M   'P 1'
_cell_length_a   20.14320000
_cell_length_b   20.14320000
_cell_length_c   21.96200000
_cell_angle_alpha   90.00000000
_cell_angle_beta   90.00000000
_cell_angle_gamma   120.00000000
_symmetry_Int_Tables_number   1
_chemical_formula_structural   NaCd3H60C78(N3O2)6
_chemical_formula_sum   'Na2 Cd6 H120 C156 N36 O24'
_cell_volume   7717.19454340
_cell_formula_units_Z   2
loop_
 _symmetry_equiv_pos_site_id
 _symmetry_equiv_pos_as_xyz
  1  'x, y, z'
loop_
 _atom_site_type_symbol
 _atom_site_label
 _atom_site_symmetry_multiplicity
 _atom_site_fract_x
 _atom_site_fract_y
 _atom_site_fract_z
 _atom_site_occupancy
 _atom_site_charge
Na  Na1  1  0.66666667  0.33333333  0.75000000  1.0 0.8811965214
Na  Na2  1  0.33333333  0.66666667  0.25000000  1.0 0.8811965214
Cd  Cd1  1  0.77560000  0.22440000  0.75000000  1.0 0.8014514175
Cd  Cd2  1  0.77560000  0.55120000  0.75000000  1.0 0.8014514175
Cd  Cd3  1  0.44880000  0.22440000  0.75000000  1.0 0.8014514175
Cd  Cd4  1  0.22440000  0.77560000  0.25000000  1.0 0.8014514175
Cd  Cd5  1  0.22440000  0.44880000  0.25000000  1.0 0.8014514175
Cd  Cd6  1  0.55120000  0.77560000  0.25000000  1.0 0.8014514175
H  H1  1  0.90490000  0.35470000  0.56390000  1.0 0.120732402
H  H2  1  0.64530000  0.55020000  0.56390000  1.0 0.120732402
H  H3  1  0.64530000  0.09510000  0.93610000  1.0 0.120732402
H  H4  1  0.44980000  0.09510000  0.56390000  1.0 0.120732402
H  H5  1  0.90490000  0.55020000  0.93610000  1.0 0.120732402
H  H6  1  0.44980000  0.35470000  0.93610000  1.0 0.120732402
H  H7  1  0.09510000  0.64530000  0.43610000  1.0 0.120732402
H  H8  1  0.35470000  0.44980000  0.43610000  1.0 0.120732402
H  H9  1  0.35470000  0.90490000  0.06390000  1.0 0.120732402
H  H10  1  0.55020000  0.90490000  0.43610000  1.0 0.120732402
H  H11  1  0.09510000  0.44980000  0.06390000  1.0 0.120732402
H  H12  1  0.55020000  0.64530000  0.06390000  1.0 0.120732402
H  H13  1  0.75370000  0.46930000  0.53270000  1.0 0.120732402
H  H14  1  0.53070000  0.28440000  0.53270000  1.0 0.120732402
H  H15  1  0.53070000  0.24630000  0.96730000  1.0 0.120732402
H  H16  1  0.71560000  0.24630000  0.53270000  1.0 0.120732402
H  H17  1  0.75370000  0.28440000  0.96730000  1.0 0.120732402
H  H18  1  0.71560000  0.46930000  0.96730000  1.0 0.120732402
H  H19  1  0.24630000  0.53070000  0.46730000  1.0 0.120732402
H  H20  1  0.46930000  0.71560000  0.46730000  1.0 0.120732402
H  H21  1  0.46930000  0.75370000  0.03270000  1.0 0.120732402
H  H22  1  0.28440000  0.75370000  0.46730000  1.0 0.120732402
H  H23  1  0.24630000  0.71560000  0.03270000  1.0 0.120732402
H  H24  1  0.28440000  0.53070000  0.03270000  1.0 0.120732402
H  H25  1  0.75010000  0.40680000  0.62290000  1.0 0.1101079225
H  H26  1  0.59320000  0.34330000  0.62290000  1.0 0.1101079225
H  H27  1  0.59320000  0.24990000  0.87710000  1.0 0.1101079225
H  H28  1  0.65670000  0.24990000  0.62290000  1.0 0.1101079225
H  H29  1  0.75010000  0.34330000  0.87710000  1.0 0.1101079225
H  H30  1  0.65670000  0.40680000  0.87710000  1.0 0.1101079225
H  H31  1  0.24990000  0.59320000  0.37710000  1.0 0.1101079225
H  H32  1  0.40680000  0.65670000  0.37710000  1.0 0.1101079225
H  H33  1  0.40680000  0.75010000  0.12290000  1.0 0.1101079225
H  H34  1  0.34330000  0.75010000  0.37710000  1.0 0.1101079225
H  H35  1  0.24990000  0.65670000  0.12290000  1.0 0.1101079225
H  H36  1  0.34330000  0.59320000  0.12290000  1.0 0.1101079225
H  H37  1  0.97770000  0.37990000  0.49500000  1.0 0.0934144304
H  H38  1  0.62010000  0.59780000  0.49500000  1.0 0.0934144304
H  H39  1  0.62010000  0.02230000  0.00500000  1.0 0.0934144304
H  H40  1  0.40220000  0.02230000  0.49500000  1.0 0.0934144304
H  H41  1  0.97770000  0.59780000  0.00500000  1.0 0.0934144304
H  H42  1  0.40220000  0.37990000  0.00500000  1.0 0.0934144304
H  H43  1  0.02230000  0.62010000  0.50500000  1.0 0.0934144304
H  H44  1  0.37990000  0.40220000  0.50500000  1.0 0.0934144304
H  H45  1  0.37990000  0.97770000  0.99500000  1.0 0.0934144304
H  H46  1  0.59780000  0.97770000  0.50500000  1.0 0.0934144304
H  H47  1  0.02230000  0.40220000  0.99500000  1.0 0.0934144304
H  H48  1  0.59780000  0.62010000  0.99500000  1.0 0.0934144304
H  H49  1  0.00320000  0.46980000  0.34990000  1.0 0.1379782646
H  H50  1  0.53020000  0.53340000  0.34990000  1.0 0.1379782646
H  H51  1  0.53020000  0.99680000  0.15010000  1.0 0.1379782646
H  H52  1  0.46660000  0.99680000  0.34990000  1.0 0.1379782646
H  H53  1  0.00320000  0.53340000  0.15010000  1.0 0.1379782646
H  H54  1  0.46660000  0.46980000  0.15010000  1.0 0.1379782646
H  H55  1  0.99680000  0.53020000  0.65010000  1.0 0.1379782646
H  H56  1  0.46980000  0.46660000  0.65010000  1.0 0.1379782646
H  H57  1  0.46980000  0.00320000  0.84990000  1.0 0.1379782646
H  H58  1  0.53340000  0.00320000  0.65010000  1.0 0.1379782646
H  H59  1  0.99680000  0.46660000  0.84990000  1.0 0.1379782646
H  H60  1  0.53340000  0.53020000  0.84990000  1.0 0.1379782646
H  H61  1  0.08990000  0.48580000  0.27940000  1.0 0.120732402
H  H62  1  0.51420000  0.60410000  0.27940000  1.0 0.120732402
H  H63  1  0.51420000  0.91010000  0.22060000  1.0 0.120732402
H  H64  1  0.39590000  0.91010000  0.27940000  1.0 0.120732402
H  H65  1  0.08990000  0.60410000  0.22060000  1.0 0.120732402
H  H66  1  0.39590000  0.48580000  0.22060000  1.0 0.120732402
H  H67  1  0.91010000  0.51420000  0.72060000  1.0 0.120732402
H  H68  1  0.48580000  0.39590000  0.72060000  1.0 0.120732402
H  H69  1  0.48580000  0.08990000  0.77940000  1.0 0.120732402
H  H70  1  0.60410000  0.08990000  0.72060000  1.0 0.120732402
H  H71  1  0.91010000  0.39590000  0.77940000  1.0 0.120732402
H  H72  1  0.60410000  0.51420000  0.77940000  1.0 0.120732402
H  H73  1  0.15830000  0.36340000  0.37300000  1.0 0.1101079225
H  H74  1  0.63660000  0.79490000  0.37300000  1.0 0.1101079225
H  H75  1  0.63660000  0.84170000  0.12700000  1.0 0.1101079225
H  H76  1  0.20510000  0.84170000  0.37300000  1.0 0.1101079225
H  H77  1  0.15830000  0.79490000  0.12700000  1.0 0.1101079225
H  H78  1  0.20510000  0.36340000  0.12700000  1.0 0.1101079225
H  H79  1  0.84170000  0.63660000  0.62700000  1.0 0.1101079225
H  H80  1  0.36340000  0.20510000  0.62700000  1.0 0.1101079225
H  H81  1  0.36340000  0.15830000  0.87300000  1.0 0.1101079225
H  H82  1  0.79490000  0.15830000  0.62700000  1.0 0.1101079225
H  H83  1  0.84170000  0.20510000  0.87300000  1.0 0.1101079225
H  H84  1  0.79490000  0.63660000  0.87300000  1.0 0.1101079225
H  H85  1  0.06980000  0.34540000  0.44660000  1.0 0.134626739
H  H86  1  0.65460000  0.72440000  0.44660000  1.0 0.134626739
H  H87  1  0.65460000  0.93020000  0.05340000  1.0 0.134626739
H  H88  1  0.27560000  0.93020000  0.44660000  1.0 0.134626739
H  H89  1  0.06980000  0.72440000  0.05340000  1.0 0.134626739
H  H90  1  0.27560000  0.34540000  0.05340000  1.0 0.134626739
H  H91  1  0.93020000  0.65460000  0.55340000  1.0 0.134626739
H  H92  1  0.34540000  0.27560000  0.55340000  1.0 0.134626739
H  H93  1  0.34540000  0.06980000  0.94660000  1.0 0.134626739
H  H94  1  0.72440000  0.06980000  0.55340000  1.0 0.134626739
H  H95  1  0.93020000  0.27560000  0.94660000  1.0 0.134626739
H  H96  1  0.72440000  0.65460000  0.94660000  1.0 0.134626739
H  H97  1  0.85400000  0.47500000  0.40470000  1.0 0.2458081371
H  H98  1  0.52500000  0.37900000  0.40470000  1.0 0.2392626175
H  H99  1  0.52500000  0.14600000  0.09530000  1.0 0.2392626175
H  H100  1  0.62100000  0.14600000  0.40470000  1.0 0.2392626175
H  H101  1  0.85400000  0.37900000  0.09530000  1.0 0.2392626175
H  H102  1  0.62100000  0.47500000  0.09530000  1.0 0.2458081371
H  H103  1  0.14600000  0.52500000  0.59530000  1.0 0.2392626175
H  H104  1  0.47500000  0.62100000  0.59530000  1.0 0.2458081371
H  H105  1  0.47500000  0.85400000  0.90470000  1.0 0.2458081371
H  H106  1  0.37900000  0.85400000  0.59530000  1.0 0.2458081371
H  H107  1  0.14600000  0.62100000  0.90470000  1.0 0.2392626175
H  H108  1  0.37900000  0.52500000  0.90470000  1.0 0.2458081371
H  H109  1  0.86700000  0.53860000  0.43410000  1.0 0.2392626175
H  H110  1  0.46140000  0.32840000  0.43410000  1.0 0.2392626175
H  H111  1  0.46140000  0.13300000  0.06590000  1.0 0.2392626175
H  H112  1  0.67160000  0.13300000  0.43410000  1.0 0.2392626175
H  H113  1  0.86700000  0.32840000  0.06590000  1.0 0.2392626175
H  H114  1  0.67160000  0.53860000  0.06590000  1.0 0.2392626175
H  H115  1  0.13300000  0.46140000  0.56590000  1.0 0.2392626175
H  H116  1  0.53860000  0.67160000  0.56590000  1.0 0.2392626175
H  H117  1  0.53860000  0.86700000  0.93410000  1.0 0.2392626175
H  H118  1  0.32840000  0.86700000  0.56590000  1.0 0.2392626175
H  H119  1  0.13300000  0.67160000  0.93410000  1.0 0.2392626175
H  H120  1  0.32840000  0.46140000  0.93410000  1.0 0.2343783902
C  C1  1  0.81750000  0.32930000  0.65820000  1.0 0.5379124212
C  C2  1  0.67070000  0.48820000  0.65820000  1.0 0.5379124212
C  C3  1  0.67070000  0.18250000  0.84180000  1.0 0.5379124212
C  C4  1  0.51180000  0.18250000  0.65820000  1.0 0.5379124212
C  C5  1  0.81750000  0.48820000  0.84180000  1.0 0.5379124212
C  C6  1  0.51180000  0.32930000  0.84180000  1.0 0.5379124212
C  C7  1  0.18250000  0.67070000  0.34180000  1.0 0.5379124212
C  C8  1  0.32930000  0.51180000  0.34180000  1.0 0.5379124212
C  C9  1  0.32930000  0.81750000  0.15820000  1.0 0.5379124212
C  C10  1  0.48820000  0.81750000  0.34180000  1.0 0.5379124212
C  C11  1  0.18250000  0.51180000  0.15820000  1.0 0.5379124212
C  C12  1  0.48820000  0.67070000  0.15820000  1.0 0.5379124212
C  C13  1  0.82650000  0.37310000  0.60110000  1.0 -0.0386261537
C  C14  1  0.62690000  0.45340000  0.60110000  1.0 -0.0386261537
C  C15  1  0.62690000  0.17350000  0.89890000  1.0 -0.0386261537
C  C16  1  0.54660000  0.17350000  0.60110000  1.0 -0.0386261537
C  C17  1  0.82650000  0.45340000  0.89890000  1.0 -0.0386261537
C  C18  1  0.54660000  0.37310000  0.89890000  1.0 -0.0386261537
C  C19  1  0.17350000  0.62690000  0.39890000  1.0 -0.0386261537
C  C20  1  0.37310000  0.54660000  0.39890000  1.0 -0.0386261537
C  C21  1  0.37310000  0.82650000  0.10110000  1.0 -0.0386261537
C  C22  1  0.45340000  0.82650000  0.39890000  1.0 -0.0386261537
C  C23  1  0.17350000  0.54660000  0.10110000  1.0 -0.0386261537
C  C24  1  0.45340000  0.62690000  0.10110000  1.0 -0.0386261537
C  C25  1  0.87530000  0.37750000  0.55720000  1.0 -0.1928467487
C  C26  1  0.62250000  0.49780000  0.55720000  1.0 -0.1928467487
C  C27  1  0.62250000  0.12470000  0.94280000  1.0 -0.1928467487
C  C28  1  0.50220000  0.12470000  0.55720000  1.0 -0.1928467487
C  C29  1  0.87530000  0.49780000  0.94280000  1.0 -0.1928467487
C  C30  1  0.50220000  0.37750000  0.94280000  1.0 -0.1928467487
C  C31  1  0.12470000  0.62250000  0.44280000  1.0 -0.1928467487
C  C32  1  0.37750000  0.50220000  0.44280000  1.0 -0.1928467487
C  C33  1  0.37750000  0.87530000  0.05720000  1.0 -0.1928467487
C  C34  1  0.49780000  0.87530000  0.44280000  1.0 -0.1928467487
C  C35  1  0.12470000  0.50220000  0.05720000  1.0 -0.1928467487
C  C36  1  0.49780000  0.62250000  0.05720000  1.0 -0.1928467487
C  C37  1  0.88290000  0.41480000  0.50240000  1.0 0.1101079225
C  C38  1  0.58520000  0.46810000  0.50240000  1.0 0.1101079225
C  C39  1  0.58520000  0.11710000  0.99760000  1.0 0.1101079225
C  C40  1  0.53190000  0.11710000  0.50240000  1.0 0.1101079225
C  C41  1  0.88290000  0.46810000  0.99760000  1.0 0.1101079225
C  C42  1  0.53190000  0.41480000  0.99760000  1.0 0.1101079225
C  C43  1  0.11710000  0.58520000  0.49760000  1.0 0.1101079225
C  C44  1  0.41480000  0.53190000  0.49760000  1.0 0.1101079225
C  C45  1  0.41480000  0.88290000  0.00240000  1.0 0.1101079225
C  C46  1  0.46810000  0.88290000  0.49760000  1.0 0.1101079225
C  C47  1  0.11710000  0.53190000  0.00240000  1.0 0.1101079225
C  C48  1  0.46810000  0.58520000  0.00240000  1.0 0.1101079225
C  C49  1  0.83760000  0.45270000  0.49150000  1.0 0.2174966722
C  C50  1  0.54730000  0.38490000  0.49150000  1.0 0.2174966722
C  C51  1  0.54730000  0.16240000  0.00850000  1.0 0.2174966722
C  C52  1  0.61510000  0.16240000  0.49150000  1.0 0.2174966722
C  C53  1  0.83760000  0.38490000  0.00850000  1.0 0.2174966722
C  C54  1  0.61510000  0.45270000  0.00850000  1.0 0.2174966722
C  C55  1  0.16240000  0.54730000  0.50850000  1.0 0.2174966722
C  C56  1  0.45270000  0.61510000  0.50850000  1.0 0.2174966722
C  C57  1  0.45270000  0.83760000  0.99150000  1.0 0.2174966722
C  C58  1  0.38490000  0.83760000  0.50850000  1.0 0.2174966722
C  C59  1  0.16240000  0.61510000  0.99150000  1.0 0.2174966722
C  C60  1  0.38490000  0.54730000  0.99150000  1.0 0.2174966722
C  C61  1  0.78470000  0.44780000  0.53810000  1.0 -0.231795908
C  C62  1  0.55220000  0.33690000  0.53810000  1.0 -0.231795908
C  C63  1  0.55220000  0.21530000  0.96190000  1.0 -0.231795908
C  C64  1  0.66310000  0.21530000  0.53810000  1.0 -0.231795908
C  C65  1  0.78470000  0.33690000  0.96190000  1.0 -0.231795908
C  C66  1  0.66310000  0.44780000  0.96190000  1.0 -0.231795908
C  C67  1  0.21530000  0.55220000  0.46190000  1.0 -0.231795908
C  C68  1  0.44780000  0.66310000  0.46190000  1.0 -0.231795908
C  C69  1  0.44780000  0.78470000  0.03810000  1.0 -0.231795908
C  C70  1  0.33690000  0.78470000  0.46190000  1.0 -0.231795908
C  C71  1  0.21530000  0.66310000  0.03810000  1.0 -0.231795908
C  C72  1  0.33690000  0.55220000  0.03810000  1.0 -0.231795908
C  C73  1  0.78240000  0.40900000  0.59170000  1.0 -0.0925003561
C  C74  1  0.59100000  0.37340000  0.59170000  1.0 -0.0925003561
C  C75  1  0.59100000  0.21760000  0.90830000  1.0 -0.0925003561
C  C76  1  0.62660000  0.21760000  0.59170000  1.0 -0.0925003561
C  C77  1  0.78240000  0.37340000  0.90830000  1.0 -0.0925003561
C  C78  1  0.62660000  0.40900000  0.90830000  1.0 -0.0925003561
C  C79  1  0.21760000  0.59100000  0.40830000  1.0 -0.0925003561
C  C80  1  0.40900000  0.62660000  0.40830000  1.0 -0.0925003561
C  C81  1  0.40900000  0.78240000  0.09170000  1.0 -0.0925003561
C  C82  1  0.37340000  0.78240000  0.40830000  1.0 -0.0925003561
C  C83  1  0.21760000  0.62660000  0.09170000  1.0 -0.0925003561
C  C84  1  0.37340000  0.59100000  0.09170000  1.0 -0.0925003561
C  C85  1  0.97580000  0.40190000  0.45830000  1.0 0.0600735529
C  C86  1  0.59810000  0.57390000  0.45830000  1.0 0.0600735529
C  C87  1  0.59810000  0.02420000  0.04170000  1.0 0.0600735529
C  C88  1  0.42610000  0.02420000  0.45830000  1.0 0.0600735529
C  C89  1  0.97580000  0.57390000  0.04170000  1.0 0.0600735529
C  C90  1  0.42610000  0.40190000  0.04170000  1.0 0.0600735529
C  C91  1  0.02420000  0.59810000  0.54170000  1.0 0.0600735529
C  C92  1  0.40190000  0.42610000  0.54170000  1.0 0.0600735529
C  C93  1  0.40190000  0.97580000  0.95830000  1.0 0.0600735529
C  C94  1  0.57390000  0.97580000  0.54170000  1.0 0.0600735529
C  C95  1  0.02420000  0.42610000  0.95830000  1.0 0.0600735529
C  C96  1  0.57390000  0.59810000  0.95830000  1.0 0.0600735529
C  C97  1  0.02910000  0.40640000  0.40900000  1.0 0.1101079225
C  C98  1  0.59360000  0.62270000  0.40900000  1.0 0.1101079225
C  C99  1  0.59360000  0.97090000  0.09100000  1.0 0.1101079225
C  C100  1  0.37730000  0.97090000  0.40900000  1.0 0.1101079225
C  C101  1  0.02910000  0.62270000  0.09100000  1.0 0.1101079225
C  C102  1  0.37730000  0.40640000  0.09100000  1.0 0.1101079225
C  C103  1  0.97090000  0.59360000  0.59100000  1.0 0.1101079225
C  C104  1  0.40640000  0.37730000  0.59100000  1.0 0.1101079225
C  C105  1  0.40640000  0.02910000  0.90900000  1.0 0.1101079225
C  C106  1  0.62270000  0.02910000  0.59100000  1.0 0.1101079225
C  C107  1  0.97090000  0.37730000  0.90900000  1.0 0.1101079225
C  C108  1  0.62270000  0.59360000  0.90900000  1.0 0.1101079225
C  C109  1  0.03460000  0.44870000  0.35540000  1.0 -0.1585983098
C  C110  1  0.55130000  0.58590000  0.35540000  1.0 -0.1585983098
C  C111  1  0.55130000  0.96540000  0.14460000  1.0 -0.1585983098
C  C112  1  0.41410000  0.96540000  0.35540000  1.0 -0.1585983098
C  C113  1  0.03460000  0.58590000  0.14460000  1.0 -0.1585983098
C  C114  1  0.41410000  0.44870000  0.14460000  1.0 -0.1585983098
C  C115  1  0.96540000  0.55130000  0.64460000  1.0 -0.1585983098
C  C116  1  0.44870000  0.41410000  0.64460000  1.0 -0.1585983098
C  C117  1  0.44870000  0.03460000  0.85540000  1.0 -0.1585983098
C  C118  1  0.58590000  0.03460000  0.64460000  1.0 -0.1585983098
C  C119  1  0.96540000  0.41410000  0.85540000  1.0 -0.1585983098
C  C120  1  0.58590000  0.55130000  0.85540000  1.0 -0.1585983098
C  C121  1  0.08510000  0.45700000  0.31390000  1.0 0.0600735529
C  C122  1  0.54300000  0.62810000  0.31390000  1.0 0.0600735529
C  C123  1  0.54300000  0.91490000  0.18610000  1.0 0.0600735529
C  C124  1  0.37190000  0.91490000  0.31390000  1.0 0.0600735529
C  C125  1  0.08510000  0.62810000  0.18610000  1.0 0.0600735529
C  C126  1  0.37190000  0.45700000  0.18610000  1.0 0.0600735529
C  C127  1  0.91490000  0.54300000  0.68610000  1.0 0.0600735529
C  C128  1  0.45700000  0.37190000  0.68610000  1.0 0.0600735529
C  C129  1  0.45700000  0.08510000  0.81390000  1.0 0.0600735529
C  C130  1  0.62810000  0.08510000  0.68610000  1.0 0.0600735529
C  C131  1  0.91490000  0.37190000  0.81390000  1.0 0.0600735529
C  C132  1  0.62810000  0.54300000  0.81390000  1.0 0.0600735529
C  C133  1  0.12680000  0.38460000  0.36860000  1.0 0.0831335512
C  C134  1  0.61540000  0.74220000  0.36860000  1.0 0.0831335512
C  C135  1  0.61540000  0.87320000  0.13140000  1.0 0.0831335512
C  C136  1  0.25780000  0.87320000  0.36860000  1.0 0.0831335512
C  C137  1  0.12680000  0.74220000  0.13140000  1.0 0.0831335512
C  C138  1  0.25780000  0.38460000  0.13140000  1.0 0.0831335512
C  C139  1  0.87320000  0.61540000  0.63140000  1.0 0.0831335512
C  C140  1  0.38460000  0.25780000  0.63140000  1.0 0.0831335512
C  C141  1  0.38460000  0.12680000  0.86860000  1.0 0.0831335512
C  C142  1  0.74220000  0.12680000  0.63140000  1.0 0.0831335512
C  C143  1  0.87320000  0.25780000  0.86860000  1.0 0.0831335512
C  C144  1  0.74220000  0.61540000  0.86860000  1.0 0.0831335512
C  C145  1  0.07430000  0.37500000  0.41260000  1.0 -0.1928467487
C  C146  1  0.62500000  0.69930000  0.41260000  1.0 -0.1928467487
C  C147  1  0.62500000  0.92570000  0.08740000  1.0 -0.1928467487
C  C148  1  0.30070000  0.92570000  0.41260000  1.0 -0.1928467487
C  C149  1  0.07430000  0.69930000  0.08740000  1.0 -0.1928467487
C  C150  1  0.30070000  0.37500000  0.08740000  1.0 -0.1928467487
C  C151  1  0.92570000  0.62500000  0.58740000  1.0 -0.1928467487
C  C152  1  0.37500000  0.30070000  0.58740000  1.0 -0.1928467487
C  C153  1  0.37500000  0.07430000  0.91260000  1.0 -0.1928467487
C  C154  1  0.69930000  0.07430000  0.58740000  1.0 -0.1928467487
C  C155  1  0.92570000  0.30070000  0.91260000  1.0 -0.1928467487
C  C156  1  0.69930000  0.62500000  0.91260000  1.0 -0.1928467487
N  N1  1  0.92940000  0.42500000  0.45440000  1.0 -0.2958069733
N  N2  1  0.57500000  0.50440000  0.45440000  1.0 -0.2958069733
N  N3  1  0.57500000  0.07060000  0.04560000  1.0 -0.2958069733
N  N4  1  0.49560000  0.07060000  0.45440000  1.0 -0.2958069733
N  N5  1  0.92940000  0.50440000  0.04560000  1.0 -0.2958069733
N  N6  1  0.49560000  0.42500000  0.04560000  1.0 -0.2958069733
N  N7  1  0.07060000  0.57500000  0.54560000  1.0 -0.2958069733
N  N8  1  0.42500000  0.49560000  0.54560000  1.0 -0.2958069733
N  N9  1  0.42500000  0.92940000  0.95440000  1.0 -0.2958069733
N  N10  1  0.50440000  0.92940000  0.54560000  1.0 -0.2958069733
N  N11  1  0.07060000  0.49560000  0.95440000  1.0 -0.2958069733
N  N12  1  0.50440000  0.57500000  0.95440000  1.0 -0.2941206468
N  N13  1  0.13120000  0.42530000  0.31920000  1.0 -0.2423075385
N  N14  1  0.57470000  0.70590000  0.31920000  1.0 -0.2423075385
N  N15  1  0.57470000  0.86880000  0.18080000  1.0 -0.2423075385
N  N16  1  0.29410000  0.86880000  0.31920000  1.0 -0.2423075385
N  N17  1  0.13120000  0.70590000  0.18080000  1.0 -0.2423075385
N  N18  1  0.29410000  0.42530000  0.18080000  1.0 -0.2423075385
N  N19  1  0.86880000  0.57470000  0.68080000  1.0 -0.2423075385
N  N20  1  0.42530000  0.29410000  0.68080000  1.0 -0.2423075385
N  N21  1  0.42530000  0.13120000  0.81920000  1.0 -0.2423075385
N  N22  1  0.70590000  0.13120000  0.68080000  1.0 -0.2423075385
N  N23  1  0.86880000  0.29410000  0.81920000  1.0 -0.2423075385
N  N24  1  0.70590000  0.57470000  0.81920000  1.0 -0.2423075385
N  N25  1  0.84600000  0.49070000  0.43800000  1.0 -0.535813016
N  N26  1  0.50930000  0.35530000  0.43800000  1.0 -0.535813016
N  N27  1  0.50930000  0.15400000  0.06200000  1.0 -0.535813016
N  N28  1  0.64470000  0.15400000  0.43800000  1.0 -0.535813016
N  N29  1  0.84600000  0.35530000  0.06200000  1.0 -0.535813016
N  N30  1  0.64470000  0.49070000  0.06200000  1.0 -0.535813016
N  N31  1  0.15400000  0.50930000  0.56200000  1.0 -0.535813016
N  N32  1  0.49070000  0.64470000  0.56200000  1.0 -0.535813016
N  N33  1  0.49070000  0.84600000  0.93800000  1.0 -0.535813016
N  N34  1  0.35530000  0.84600000  0.56200000  1.0 -0.535813016
N  N35  1  0.15400000  0.64470000  0.93800000  1.0 -0.535813016
N  N36  1  0.35530000  0.50930000  0.93800000  1.0 -0.535813016
O  O1  1  0.76550000  0.32280000  0.69610000  1.0 -0.6291817499
O  O2  1  0.67720000  0.44270000  0.69610000  1.0 -0.6291817499
O  O3  1  0.67720000  0.23450000  0.80390000  1.0 -0.6291817499
O  O4  1  0.55730000  0.23450000  0.69610000  1.0 -0.6291817499
O  O5  1  0.76550000  0.44270000  0.80390000  1.0 -0.6291817499
O  O6  1  0.55730000  0.32280000  0.80390000  1.0 -0.6291817499
O  O7  1  0.23450000  0.67720000  0.30390000  1.0 -0.6291817499
O  O8  1  0.32280000  0.55730000  0.30390000  1.0 -0.6291817499
O  O9  1  0.32280000  0.76550000  0.19610000  1.0 -0.6291817499
O  O10  1  0.44270000  0.76550000  0.30390000  1.0 -0.6291817499
O  O11  1  0.23450000  0.55730000  0.19610000  1.0 -0.6291817499
O  O12  1  0.44270000  0.67720000  0.19610000  1.0 -0.6291817499
O  O13  1  0.85990000  0.30300000  0.66720000  1.0 -0.5461378766
O  O14  1  0.69700000  0.55690000  0.66720000  1.0 -0.5461378766
O  O15  1  0.69700000  0.14010000  0.83280000  1.0 -0.5461378766
O  O16  1  0.44310000  0.14010000  0.66720000  1.0 -0.5461378766
O  O17  1  0.85990000  0.55690000  0.83280000  1.0 -0.5461378766
O  O18  1  0.44310000  0.30300000  0.83280000  1.0 -0.5461378766
O  O19  1  0.14010000  0.69700000  0.33280000  1.0 -0.5461378766
O  O20  1  0.30300000  0.44310000  0.33280000  1.0 -0.5461378766
O  O21  1  0.30300000  0.85990000  0.16720000  1.0 -0.5461378766
O  O22  1  0.55690000  0.85990000  0.33280000  1.0 -0.5461378766
O  O23  1  0.14010000  0.44310000  0.16720000  1.0 -0.5461378766
O  O24  1  0.55690000  0.69700000  0.16720000  1.0 -0.5461378766
