# DDEC6 charges by PACMAN v1.1 (https://github.com/mtap-research/PACMAN-charge/)
data_SUKYIH_ASR_pacman
_symmetry_space_group_name_H-M   'P 1'
_cell_length_a   12.24800000
_cell_length_b   12.24800000
_cell_length_c   22.87670000
_cell_angle_alpha   90.00000000
_cell_angle_beta   90.00000000
_cell_angle_gamma   90.00000000
_symmetry_Int_Tables_number   1
_chemical_formula_structural   Cu2H16C29O8
_chemical_formula_sum   'Cu4 H32 C58 O16'
_cell_volume   3431.81392696
_cell_formula_units_Z   2
loop_
 _symmetry_equiv_pos_site_id
 _symmetry_equiv_pos_as_xyz
  1  'x, y, z'
loop_
 _atom_site_type_symbol
 _atom_site_label
 _atom_site_symmetry_multiplicity
 _atom_site_fract_x
 _atom_site_fract_y
 _atom_site_fract_z
 _atom_site_occupancy
 _atom_site_charge
Cu  Cu1  1  0.00000000  0.39229000  0.00000000  1.0 0.8669038984
Cu  Cu2  1  0.00000000  0.60771000  0.00000000  1.0 0.8669038984
Cu  Cu3  1  0.60771000  0.00000000  0.50000000  1.0 0.8669038984
Cu  Cu4  1  0.39229000  0.00000000  0.50000000  1.0 0.8669038984
H  H1  1  0.38890000  0.33800000  0.19870000  1.0 0.1226607237
H  H2  1  0.61110000  0.66200000  0.19870000  1.0 0.1226607237
H  H3  1  0.66200000  0.38890000  0.69870000  1.0 0.1226607237
H  H4  1  0.33800000  0.61110000  0.69870000  1.0 0.1226607237
H  H5  1  0.61110000  0.33800000  0.80130000  1.0 0.1226607237
H  H6  1  0.38890000  0.66200000  0.80130000  1.0 0.1226607237
H  H7  1  0.33800000  0.38890000  0.30130000  1.0 0.1226607237
H  H8  1  0.66200000  0.61110000  0.30130000  1.0 0.1226607237
H  H9  1  0.61110000  0.66200000  0.80130000  1.0 0.1226607237
H  H10  1  0.38890000  0.33800000  0.80130000  1.0 0.1226607237
H  H11  1  0.33800000  0.61110000  0.30130000  1.0 0.1226607237
H  H12  1  0.66200000  0.38890000  0.30130000  1.0 0.1226607237
H  H13  1  0.38890000  0.66200000  0.19870000  1.0 0.1226607237
H  H14  1  0.61110000  0.33800000  0.19870000  1.0 0.1226607237
H  H15  1  0.66200000  0.61110000  0.69870000  1.0 0.1226607237
H  H16  1  0.33800000  0.38890000  0.69870000  1.0 0.1226607237
H  H17  1  0.25350000  0.33770000  0.12960000  1.0 0.1319618497
H  H18  1  0.74650000  0.66230000  0.12960000  1.0 0.1319618497
H  H19  1  0.66230000  0.25350000  0.62960000  1.0 0.1319618497
H  H20  1  0.33770000  0.74650000  0.62960000  1.0 0.1319618497
H  H21  1  0.74650000  0.33770000  0.87040000  1.0 0.1319618497
H  H22  1  0.25350000  0.66230000  0.87040000  1.0 0.1319618497
H  H23  1  0.33770000  0.25350000  0.37040000  1.0 0.1319618497
H  H24  1  0.66230000  0.74650000  0.37040000  1.0 0.1319618497
H  H25  1  0.74650000  0.66230000  0.87040000  1.0 0.1319618497
H  H26  1  0.25350000  0.33770000  0.87040000  1.0 0.1319618497
H  H27  1  0.33770000  0.74650000  0.37040000  1.0 0.1319618497
H  H28  1  0.66230000  0.25350000  0.37040000  1.0 0.1319618497
H  H29  1  0.25350000  0.66230000  0.12960000  1.0 0.1319618497
H  H30  1  0.74650000  0.33770000  0.12960000  1.0 0.1319618497
H  H31  1  0.66230000  0.74650000  0.62960000  1.0 0.1319618497
H  H32  1  0.33770000  0.25350000  0.62960000  1.0 0.1319618497
C  C1  1  0.40040000  0.50000000  0.20720000  1.0 0.0544506564
C  C2  1  0.59960000  0.50000000  0.20720000  1.0 0.0555770594
C  C3  1  0.50000000  0.40040000  0.70720000  1.0 0.0544506564
C  C4  1  0.50000000  0.59960000  0.70720000  1.0 0.0544506564
C  C5  1  0.59960000  0.50000000  0.79280000  1.0 0.0555770594
C  C6  1  0.40040000  0.50000000  0.79280000  1.0 0.0544506564
C  C7  1  0.50000000  0.40040000  0.29280000  1.0 0.0544506564
C  C8  1  0.50000000  0.59960000  0.29280000  1.0 0.0544506564
C  C9  1  0.50000000  0.50000000  0.25000000  1.0 0.0026962232
C  C10  1  0.50000000  0.50000000  0.75000000  1.0 0.0026962232
C  C11  1  0.14490000  0.50000000  0.07640000  1.0 0.5757654581
C  C12  1  0.85510000  0.50000000  0.07640000  1.0 0.5757654581
C  C13  1  0.50000000  0.14490000  0.57640000  1.0 0.5747013364
C  C14  1  0.50000000  0.85510000  0.57640000  1.0 0.5747013364
C  C15  1  0.85510000  0.50000000  0.92360000  1.0 0.5757654581
C  C16  1  0.14490000  0.50000000  0.92360000  1.0 0.5757654581
C  C17  1  0.50000000  0.14490000  0.42360000  1.0 0.5747013364
C  C18  1  0.50000000  0.85510000  0.42360000  1.0 0.5747013364
C  C19  1  0.36080000  0.40390000  0.18525000  1.0 -0.1609251787
C  C20  1  0.63920000  0.59610000  0.18525000  1.0 -0.1609251787
C  C21  1  0.59610000  0.36080000  0.68525000  1.0 -0.1609251787
C  C22  1  0.40390000  0.63920000  0.68525000  1.0 -0.1609251787
C  C23  1  0.63920000  0.40390000  0.81475000  1.0 -0.1609251787
C  C24  1  0.36080000  0.59610000  0.81475000  1.0 -0.1609251787
C  C25  1  0.40390000  0.36080000  0.31475000  1.0 -0.1609251787
C  C26  1  0.59610000  0.63920000  0.31475000  1.0 -0.1609251787
C  C27  1  0.63920000  0.59610000  0.81475000  1.0 -0.1609251787
C  C28  1  0.36080000  0.40390000  0.81475000  1.0 -0.1609251787
C  C29  1  0.40390000  0.63920000  0.31475000  1.0 -0.1609251787
C  C30  1  0.59610000  0.36080000  0.31475000  1.0 -0.1609251787
C  C31  1  0.36080000  0.59610000  0.18525000  1.0 -0.1609251787
C  C32  1  0.63920000  0.40390000  0.18525000  1.0 -0.1609251787
C  C33  1  0.59610000  0.63920000  0.68525000  1.0 -0.1609251787
C  C34  1  0.40390000  0.36080000  0.68525000  1.0 -0.1609251787
C  C35  1  0.28000000  0.40380000  0.14360000  1.0 -0.087365086
C  C36  1  0.72000000  0.59620000  0.14360000  1.0 -0.087365086
C  C37  1  0.59620000  0.28000000  0.64360000  1.0 -0.087365086
C  C38  1  0.40380000  0.72000000  0.64360000  1.0 -0.087365086
C  C39  1  0.72000000  0.40380000  0.85640000  1.0 -0.087365086
C  C40  1  0.28000000  0.59620000  0.85640000  1.0 -0.087365086
C  C41  1  0.40380000  0.28000000  0.35640000  1.0 -0.087365086
C  C42  1  0.59620000  0.72000000  0.35640000  1.0 -0.087365086
C  C43  1  0.72000000  0.59620000  0.85640000  1.0 -0.087365086
C  C44  1  0.28000000  0.40380000  0.85640000  1.0 -0.087365086
C  C45  1  0.40380000  0.72000000  0.35640000  1.0 -0.087365086
C  C46  1  0.59620000  0.28000000  0.35640000  1.0 -0.087365086
C  C47  1  0.28000000  0.59620000  0.14360000  1.0 -0.087365086
C  C48  1  0.72000000  0.40380000  0.14360000  1.0 -0.087365086
C  C49  1  0.59620000  0.72000000  0.64360000  1.0 -0.087365086
C  C50  1  0.40380000  0.28000000  0.64360000  1.0 -0.087365086
C  C51  1  0.23750000  0.50000000  0.12230000  1.0 -0.0194639292
C  C52  1  0.76250000  0.50000000  0.12230000  1.0 -0.0194639292
C  C53  1  0.50000000  0.23750000  0.62230000  1.0 -0.0194639292
C  C54  1  0.50000000  0.76250000  0.62230000  1.0 -0.0194639292
C  C55  1  0.76250000  0.50000000  0.87770000  1.0 -0.0194639292
C  C56  1  0.23750000  0.50000000  0.87770000  1.0 -0.0194639292
C  C57  1  0.50000000  0.23750000  0.37770000  1.0 -0.0194639292
C  C58  1  0.50000000  0.76250000  0.37770000  1.0 -0.0194639292
O  O1  1  0.11310000  0.40750000  0.05953000  1.0 -0.5286461737
O  O2  1  0.88690000  0.59250000  0.05953000  1.0 -0.5286461737
O  O3  1  0.59250000  0.11310000  0.55953000  1.0 -0.5286461737
O  O4  1  0.40750000  0.88690000  0.55953000  1.0 -0.5286461737
O  O5  1  0.88690000  0.40750000  0.94047000  1.0 -0.5286461737
O  O6  1  0.11310000  0.59250000  0.94047000  1.0 -0.5286461737
O  O7  1  0.40750000  0.11310000  0.44047000  1.0 -0.5286461737
O  O8  1  0.59250000  0.88690000  0.44047000  1.0 -0.5286461737
O  O9  1  0.88690000  0.59250000  0.94047000  1.0 -0.5286461737
O  O10  1  0.11310000  0.40750000  0.94047000  1.0 -0.5286461737
O  O11  1  0.40750000  0.88690000  0.44047000  1.0 -0.5286461737
O  O12  1  0.59250000  0.11310000  0.44047000  1.0 -0.5286461737
O  O13  1  0.11310000  0.59250000  0.05953000  1.0 -0.5286461737
O  O14  1  0.88690000  0.40750000  0.05953000  1.0 -0.5286461737
O  O15  1  0.59250000  0.88690000  0.55953000  1.0 -0.5286461737
O  O16  1  0.40750000  0.11310000  0.55953000  1.0 -0.5286461737
