# DDEC6 charges by PACMAN v1.1 (https://github.com/mtap-research/PACMAN-charge/)
data_SULREZ_ASR_pacman
_symmetry_space_group_name_H-M   'P 1'
_cell_length_a   18.50690000
_cell_length_b   18.50690000
_cell_length_c   23.82910000
_cell_angle_alpha   90.00000000
_cell_angle_beta   90.00000000
_cell_angle_gamma   120.00000000
_symmetry_Int_Tables_number   1
_chemical_formula_structural   Cu2H12C27NO8
_chemical_formula_sum   'Cu12 H72 C162 N6 O48'
_cell_volume   7068.14789416
_cell_formula_units_Z   6
loop_
 _symmetry_equiv_pos_site_id
 _symmetry_equiv_pos_as_xyz
  1  'x, y, z'
loop_
 _atom_site_type_symbol
 _atom_site_label
 _atom_site_symmetry_multiplicity
 _atom_site_fract_x
 _atom_site_fract_y
 _atom_site_fract_z
 _atom_site_occupancy
 _atom_site_charge
Cu  Cu1  1  0.52378000  0.47621000  0.95453000  1.0 0.8626931797
Cu  Cu2  1  0.95243000  0.47621000  0.95453000  1.0 0.8626931797
Cu  Cu3  1  0.52378000  0.04757000  0.95453000  1.0 0.8626931797
Cu  Cu4  1  0.47621000  0.52378000  0.45453000  1.0 0.8626931797
Cu  Cu5  1  0.04757000  0.52378000  0.45453000  1.0 0.8626931797
Cu  Cu6  1  0.47621000  0.95243000  0.45453000  1.0 0.8626931797
Cu  Cu7  1  0.04757000  0.52378000  0.04547000  1.0 0.8626931797
Cu  Cu8  1  0.47621000  0.52378000  0.04547000  1.0 0.8626931797
Cu  Cu9  1  0.47621000  0.95243000  0.04547000  1.0 0.8626931797
Cu  Cu10  1  0.95243000  0.47621000  0.54547000  1.0 0.8626931797
Cu  Cu11  1  0.52378000  0.47621000  0.54547000  1.0 0.8626931797
Cu  Cu12  1  0.52378000  0.04757000  0.54547000  1.0 0.8626931797
H  H1  1  0.63260000  0.70790000  0.86270000  1.0 0.1392572898
H  H2  1  0.53970000  0.81070000  0.73490000  1.0 0.0807386424
H  H3  1  0.07530000  0.36740000  0.86270000  1.0 0.1392572898
H  H4  1  0.27100000  0.46030000  0.73490000  1.0 0.0807386424
H  H5  1  0.29210000  0.92470000  0.86270000  1.0 0.1392572898
H  H6  1  0.18930000  0.72900000  0.73490000  1.0 0.0807386424
H  H7  1  0.36740000  0.29210000  0.36270000  1.0 0.1392572898
H  H8  1  0.46030000  0.18930000  0.23490000  1.0 0.0807386424
H  H9  1  0.92470000  0.63260000  0.36270000  1.0 0.1392572898
H  H10  1  0.72900000  0.53970000  0.23490000  1.0 0.0807386424
H  H11  1  0.70790000  0.07530000  0.36270000  1.0 0.1392572898
H  H12  1  0.81070000  0.27100000  0.23490000  1.0 0.0807386424
H  H13  1  0.92470000  0.29210000  0.13730000  1.0 0.1392572898
H  H14  1  0.72900000  0.18930000  0.26510000  1.0 0.0807386424
H  H15  1  0.70790000  0.63260000  0.13730000  1.0 0.1392572898
H  H16  1  0.81070000  0.53970000  0.26510000  1.0 0.0807386424
H  H17  1  0.36740000  0.07530000  0.13730000  1.0 0.1392572898
H  H18  1  0.46030000  0.27100000  0.26510000  1.0 0.0807386424
H  H19  1  0.07530000  0.70790000  0.63730000  1.0 0.1392572898
H  H20  1  0.27100000  0.81070000  0.76510000  1.0 0.0807386424
H  H21  1  0.29210000  0.36740000  0.63730000  1.0 0.1392572898
H  H22  1  0.18930000  0.46030000  0.76510000  1.0 0.0807386424
H  H23  1  0.63260000  0.92470000  0.63730000  1.0 0.1392572898
H  H24  1  0.53970000  0.72900000  0.76510000  1.0 0.0807386424
H  H25  1  0.36740000  0.29210000  0.13730000  1.0 0.1392572898
H  H26  1  0.46030000  0.18930000  0.26510000  1.0 0.0807386424
H  H27  1  0.92470000  0.63260000  0.13730000  1.0 0.1392572898
H  H28  1  0.72900000  0.53970000  0.26510000  1.0 0.0807386424
H  H29  1  0.70790000  0.07530000  0.13730000  1.0 0.1392572898
H  H30  1  0.81070000  0.27100000  0.26510000  1.0 0.0807386424
H  H31  1  0.63260000  0.70790000  0.63730000  1.0 0.1392572898
H  H32  1  0.53970000  0.81070000  0.76510000  1.0 0.0807386424
H  H33  1  0.07530000  0.36740000  0.63730000  1.0 0.1392572898
H  H34  1  0.27100000  0.46030000  0.76510000  1.0 0.0807386424
H  H35  1  0.29210000  0.92470000  0.63730000  1.0 0.1392572898
H  H36  1  0.18930000  0.72900000  0.76510000  1.0 0.0807386424
H  H37  1  0.07530000  0.70790000  0.86270000  1.0 0.1392572898
H  H38  1  0.27100000  0.81070000  0.73490000  1.0 0.0807386424
H  H39  1  0.29210000  0.36740000  0.86270000  1.0 0.1392572898
H  H40  1  0.18930000  0.46030000  0.73490000  1.0 0.0807386424
H  H41  1  0.63260000  0.92470000  0.86270000  1.0 0.1392572898
H  H42  1  0.53970000  0.72900000  0.73490000  1.0 0.0807386424
H  H43  1  0.92470000  0.29210000  0.36270000  1.0 0.1392572898
H  H44  1  0.72900000  0.18930000  0.23490000  1.0 0.0807386424
H  H45  1  0.70790000  0.63260000  0.36270000  1.0 0.1392572898
H  H46  1  0.81070000  0.53970000  0.23490000  1.0 0.0807386424
H  H47  1  0.36740000  0.07530000  0.36270000  1.0 0.1392572898
H  H48  1  0.46030000  0.27100000  0.23490000  1.0 0.0807386424
H  H49  1  0.53720000  0.76860000  0.78470000  1.0 0.0862787421
H  H50  1  0.52810000  0.76405000  0.99100000  1.0 0.1392572898
H  H51  1  0.23140000  0.46280000  0.78470000  1.0 0.0862787421
H  H52  1  0.23595000  0.47190000  0.99100000  1.0 0.1392572898
H  H53  1  0.23140000  0.76860000  0.78470000  1.0 0.0862787421
H  H54  1  0.23595000  0.76405000  0.99100000  1.0 0.1392572898
H  H55  1  0.46280000  0.23140000  0.28470000  1.0 0.0862787421
H  H56  1  0.47190000  0.23595000  0.49100000  1.0 0.1392572898
H  H57  1  0.76860000  0.53720000  0.28470000  1.0 0.0807386424
H  H58  1  0.76405000  0.52810000  0.49100000  1.0 0.1392572898
H  H59  1  0.76860000  0.23140000  0.28470000  1.0 0.0862787421
H  H60  1  0.76405000  0.23595000  0.49100000  1.0 0.1392572898
H  H61  1  0.76860000  0.23140000  0.21530000  1.0 0.0862787421
H  H62  1  0.76405000  0.23595000  0.00900000  1.0 0.1392572898
H  H63  1  0.76860000  0.53720000  0.21530000  1.0 0.0807386424
H  H64  1  0.76405000  0.52810000  0.00900000  1.0 0.1392572898
H  H65  1  0.46280000  0.23140000  0.21530000  1.0 0.0862787421
H  H66  1  0.47190000  0.23595000  0.00900000  1.0 0.1392572898
H  H67  1  0.23140000  0.76860000  0.71530000  1.0 0.0862787421
H  H68  1  0.23595000  0.76405000  0.50900000  1.0 0.1392572898
H  H69  1  0.23140000  0.46280000  0.71530000  1.0 0.0862787421
H  H70  1  0.23595000  0.47190000  0.50900000  1.0 0.1392572898
H  H71  1  0.53720000  0.76860000  0.71530000  1.0 0.0862787421
H  H72  1  0.52810000  0.76405000  0.50900000  1.0 0.1392572898
C  C1  1  0.57780000  0.72590000  0.93010000  1.0 -0.0110238997
C  C2  1  0.55100000  0.64010000  0.95630000  1.0 0.5771400968
C  C3  1  0.62000000  0.74490000  0.88050000  1.0 -0.1305262605
C  C4  1  0.77240000  0.91970000  0.80320000  1.0 -0.0859710413
C  C5  1  0.14810000  0.42220000  0.93010000  1.0 -0.0110238997
C  C6  1  0.08910000  0.44900000  0.95630000  1.0 0.5771400968
C  C7  1  0.12490000  0.38000000  0.88050000  1.0 -0.1305262605
C  C8  1  0.14730000  0.22760000  0.80320000  1.0 -0.0859710413
C  C9  1  0.27410000  0.85190000  0.93010000  1.0 -0.0110238997
C  C10  1  0.35990000  0.91090000  0.95630000  1.0 0.5771400968
C  C11  1  0.25510000  0.87510000  0.88050000  1.0 -0.1305262605
C  C12  1  0.08030000  0.85270000  0.80320000  1.0 -0.0859710413
C  C13  1  0.42220000  0.27410000  0.43010000  1.0 -0.0110238997
C  C14  1  0.44900000  0.35990000  0.45630000  1.0 0.5771400968
C  C15  1  0.38000000  0.25510000  0.38050000  1.0 -0.1305262605
C  C16  1  0.22760000  0.08030000  0.30320000  1.0 -0.0859710413
C  C17  1  0.85190000  0.57780000  0.43010000  1.0 -0.0110238997
C  C18  1  0.91090000  0.55100000  0.45630000  1.0 0.5771400968
C  C19  1  0.87510000  0.62000000  0.38050000  1.0 -0.1305262605
C  C20  1  0.85270000  0.77240000  0.30320000  1.0 -0.0859710413
C  C21  1  0.72590000  0.14810000  0.43010000  1.0 -0.0110238997
C  C22  1  0.64010000  0.08910000  0.45630000  1.0 0.5771400968
C  C23  1  0.74490000  0.12490000  0.38050000  1.0 -0.1305262605
C  C24  1  0.91970000  0.14730000  0.30320000  1.0 -0.0859710413
C  C25  1  0.85190000  0.27410000  0.06990000  1.0 -0.0110238997
C  C26  1  0.91090000  0.35990000  0.04370000  1.0 0.5771400968
C  C27  1  0.87510000  0.25510000  0.11950000  1.0 -0.1305262605
C  C28  1  0.85270000  0.08030000  0.19680000  1.0 -0.0859710413
C  C29  1  0.72590000  0.57780000  0.06990000  1.0 -0.0110238997
C  C30  1  0.64010000  0.55100000  0.04370000  1.0 0.5771400968
C  C31  1  0.74490000  0.62000000  0.11950000  1.0 -0.1305262605
C  C32  1  0.91970000  0.77240000  0.19680000  1.0 -0.0859710413
C  C33  1  0.42220000  0.14810000  0.06990000  1.0 -0.0110238997
C  C34  1  0.44900000  0.08910000  0.04370000  1.0 0.5771400968
C  C35  1  0.38000000  0.12490000  0.11950000  1.0 -0.1305262605
C  C36  1  0.22760000  0.14730000  0.19680000  1.0 -0.0859710413
C  C37  1  0.14810000  0.72590000  0.56990000  1.0 -0.0110238997
C  C38  1  0.08910000  0.64010000  0.54370000  1.0 0.5771400968
C  C39  1  0.12490000  0.74490000  0.61950000  1.0 -0.1305262605
C  C40  1  0.14730000  0.91970000  0.69680000  1.0 -0.0859710413
C  C41  1  0.27410000  0.42220000  0.56990000  1.0 -0.0110238997
C  C42  1  0.35990000  0.44900000  0.54370000  1.0 0.5771400968
C  C43  1  0.25510000  0.38000000  0.61950000  1.0 -0.1305262605
C  C44  1  0.08030000  0.22760000  0.69680000  1.0 -0.0859710413
C  C45  1  0.57780000  0.85190000  0.56990000  1.0 -0.0110238997
C  C46  1  0.55100000  0.91090000  0.54370000  1.0 0.5771400968
C  C47  1  0.62000000  0.87510000  0.61950000  1.0 -0.1305262605
C  C48  1  0.77240000  0.85270000  0.69680000  1.0 -0.0859710413
C  C49  1  0.42220000  0.27410000  0.06990000  1.0 -0.0110238997
C  C50  1  0.44900000  0.35990000  0.04370000  1.0 0.5771400968
C  C51  1  0.38000000  0.25510000  0.11950000  1.0 -0.1305262605
C  C52  1  0.22760000  0.08030000  0.19680000  1.0 -0.0859710413
C  C53  1  0.85190000  0.57780000  0.06990000  1.0 -0.0110238997
C  C54  1  0.91090000  0.55100000  0.04370000  1.0 0.5771400968
C  C55  1  0.87510000  0.62000000  0.11950000  1.0 -0.1305262605
C  C56  1  0.85270000  0.77240000  0.19680000  1.0 -0.0859710413
C  C57  1  0.72590000  0.14810000  0.06990000  1.0 -0.0110238997
C  C58  1  0.64010000  0.08910000  0.04370000  1.0 0.5771400968
C  C59  1  0.74490000  0.12490000  0.11950000  1.0 -0.1305262605
C  C60  1  0.91970000  0.14730000  0.19680000  1.0 -0.0859710413
C  C61  1  0.57780000  0.72590000  0.56990000  1.0 -0.0110238997
C  C62  1  0.55100000  0.64010000  0.54370000  1.0 0.5771400968
C  C63  1  0.62000000  0.74490000  0.61950000  1.0 -0.1305262605
C  C64  1  0.77240000  0.91970000  0.69680000  1.0 -0.0859710413
C  C65  1  0.14810000  0.42220000  0.56990000  1.0 -0.0110238997
C  C66  1  0.08910000  0.44900000  0.54370000  1.0 0.5771400968
C  C67  1  0.12490000  0.38000000  0.61950000  1.0 -0.1305262605
C  C68  1  0.14730000  0.22760000  0.69680000  1.0 -0.0859710413
C  C69  1  0.27410000  0.85190000  0.56990000  1.0 -0.0110238997
C  C70  1  0.35990000  0.91090000  0.54370000  1.0 0.5771400968
C  C71  1  0.25510000  0.87510000  0.61950000  1.0 -0.1305262605
C  C72  1  0.08030000  0.85270000  0.69680000  1.0 -0.0859710413
C  C73  1  0.14810000  0.72590000  0.93010000  1.0 -0.0110238997
C  C74  1  0.08910000  0.64010000  0.95630000  1.0 0.5771400968
C  C75  1  0.12490000  0.74490000  0.88050000  1.0 -0.1305262605
C  C76  1  0.14730000  0.91970000  0.80320000  1.0 -0.0859710413
C  C77  1  0.27410000  0.42220000  0.93010000  1.0 -0.0110238997
C  C78  1  0.35990000  0.44900000  0.95630000  1.0 0.5771400968
C  C79  1  0.25510000  0.38000000  0.88050000  1.0 -0.1305262605
C  C80  1  0.08030000  0.22760000  0.80320000  1.0 -0.0859710413
C  C81  1  0.57780000  0.85190000  0.93010000  1.0 -0.0110238997
C  C82  1  0.55100000  0.91090000  0.95630000  1.0 0.5771400968
C  C83  1  0.62000000  0.87510000  0.88050000  1.0 -0.1305262605
C  C84  1  0.77240000  0.85270000  0.80320000  1.0 -0.0859710413
C  C85  1  0.85190000  0.27410000  0.43010000  1.0 -0.0110238997
C  C86  1  0.91090000  0.35990000  0.45630000  1.0 0.5771400968
C  C87  1  0.87510000  0.25510000  0.38050000  1.0 -0.1305262605
C  C88  1  0.85270000  0.08030000  0.30320000  1.0 -0.0859710413
C  C89  1  0.72590000  0.57780000  0.43010000  1.0 -0.0110238997
C  C90  1  0.64010000  0.55100000  0.45630000  1.0 0.5771400968
C  C91  1  0.74490000  0.62000000  0.38050000  1.0 -0.1305262605
C  C92  1  0.91970000  0.77240000  0.30320000  1.0 -0.0859710413
C  C93  1  0.42220000  0.14810000  0.43010000  1.0 -0.0110238997
C  C94  1  0.44900000  0.08910000  0.45630000  1.0 0.5771400968
C  C95  1  0.38000000  0.12490000  0.38050000  1.0 -0.1305262605
C  C96  1  0.22760000  0.14730000  0.30320000  1.0 -0.0859710413
C  C97  1  0.64680000  0.82340000  0.75000000  1.0 0.0499169643
C  C98  1  0.17660000  0.35320000  0.75000000  1.0 0.0499169643
C  C99  1  0.17660000  0.82340000  0.75000000  1.0 0.0499169643
C  C100  1  0.35320000  0.17660000  0.25000000  1.0 0.0499169643
C  C101  1  0.82340000  0.64680000  0.25000000  1.0 0.0499169643
C  C102  1  0.82340000  0.17660000  0.25000000  1.0 0.0499169643
C  C103  1  0.55600000  0.77800000  0.95680000  1.0 -0.1114787482
C  C104  1  0.68590000  0.84295000  0.80150000  1.0 0.0310831607
C  C105  1  0.64240000  0.82120000  0.85490000  1.0 0.0378018002
C  C106  1  0.22200000  0.44400000  0.95680000  1.0 -0.1114787482
C  C107  1  0.15705000  0.31410000  0.80150000  1.0 0.0310831607
C  C108  1  0.17880000  0.35760000  0.85490000  1.0 0.0378018002
C  C109  1  0.22200000  0.77800000  0.95680000  1.0 -0.1114787482
C  C110  1  0.15705000  0.84295000  0.80150000  1.0 0.0310831607
C  C111  1  0.17880000  0.82120000  0.85490000  1.0 0.0378018002
C  C112  1  0.44400000  0.22200000  0.45680000  1.0 -0.1114787482
C  C113  1  0.31410000  0.15705000  0.30150000  1.0 0.0310831607
C  C114  1  0.35760000  0.17880000  0.35490000  1.0 0.0378018002
C  C115  1  0.77800000  0.55600000  0.45680000  1.0 -0.1114787482
C  C116  1  0.84295000  0.68590000  0.30150000  1.0 0.0310831607
C  C117  1  0.82120000  0.64240000  0.35490000  1.0 0.0378018002
C  C118  1  0.77800000  0.22200000  0.45680000  1.0 -0.1114787482
C  C119  1  0.84295000  0.15705000  0.30150000  1.0 0.0310831607
C  C120  1  0.82120000  0.17880000  0.35490000  1.0 0.0378018002
C  C121  1  0.77800000  0.22200000  0.04320000  1.0 -0.1114787482
C  C122  1  0.84295000  0.15705000  0.19850000  1.0 0.0310831607
C  C123  1  0.82120000  0.17880000  0.14510000  1.0 0.0378018002
C  C124  1  0.77800000  0.55600000  0.04320000  1.0 -0.1114787482
C  C125  1  0.84295000  0.68590000  0.19850000  1.0 0.0310831607
C  C126  1  0.82120000  0.64240000  0.14510000  1.0 0.0378018002
C  C127  1  0.44400000  0.22200000  0.04320000  1.0 -0.1114787482
C  C128  1  0.31410000  0.15705000  0.19850000  1.0 0.0310831607
C  C129  1  0.35760000  0.17880000  0.14510000  1.0 0.0378018002
C  C130  1  0.22200000  0.77800000  0.54320000  1.0 -0.1114787482
C  C131  1  0.15705000  0.84295000  0.69850000  1.0 0.0310831607
C  C132  1  0.17880000  0.82120000  0.64510000  1.0 0.0378018002
C  C133  1  0.22200000  0.44400000  0.54320000  1.0 -0.1114787482
C  C134  1  0.15705000  0.31410000  0.69850000  1.0 0.0310831607
C  C135  1  0.17880000  0.35760000  0.64510000  1.0 0.0378018002
C  C136  1  0.55600000  0.77800000  0.54320000  1.0 -0.1114787482
C  C137  1  0.68590000  0.84295000  0.69850000  1.0 0.0310831607
C  C138  1  0.64240000  0.82120000  0.64510000  1.0 0.0378018002
C  C139  1  0.80440000  0.94420000  0.75000000  1.0 0.0712769817
C  C140  1  0.90200000  0.02800000  0.75000000  1.0 -0.0525597238
C  C141  1  0.13980000  0.19560000  0.75000000  1.0 0.0712769817
C  C142  1  0.12600000  0.09800000  0.75000000  1.0 -0.0525597238
C  C143  1  0.05580000  0.86020000  0.75000000  1.0 0.0712769817
C  C144  1  0.97200000  0.87400000  0.75000000  1.0 -0.0525597238
C  C145  1  0.19560000  0.05580000  0.25000000  1.0 0.0712769817
C  C146  1  0.09800000  0.97200000  0.25000000  1.0 -0.0525597238
C  C147  1  0.86020000  0.80440000  0.25000000  1.0 0.0712769817
C  C148  1  0.87400000  0.90200000  0.25000000  1.0 -0.0525597238
C  C149  1  0.94420000  0.13980000  0.25000000  1.0 0.0712769817
C  C150  1  0.02800000  0.12600000  0.25000000  1.0 -0.0525597238
C  C151  1  0.86020000  0.05580000  0.25000000  1.0 0.0712769817
C  C152  1  0.87400000  0.97200000  0.25000000  1.0 -0.0525597238
C  C153  1  0.94420000  0.80440000  0.25000000  1.0 0.0712769817
C  C154  1  0.02800000  0.90200000  0.25000000  1.0 -0.0525597238
C  C155  1  0.19560000  0.13980000  0.25000000  1.0 0.0712769817
C  C156  1  0.09800000  0.12600000  0.25000000  1.0 -0.0525597238
C  C157  1  0.13980000  0.94420000  0.75000000  1.0 0.0712769817
C  C158  1  0.12600000  0.02800000  0.75000000  1.0 -0.0525597238
C  C159  1  0.05580000  0.19560000  0.75000000  1.0 0.0712769817
C  C160  1  0.97200000  0.09800000  0.75000000  1.0 -0.0525597238
C  C161  1  0.80440000  0.86020000  0.75000000  1.0 0.0712769817
C  C162  1  0.90200000  0.87400000  0.75000000  1.0 -0.0525597238
N  N1  1  0.55560000  0.77780000  0.75000000  1.0 -0.3086265484
N  N2  1  0.22220000  0.44440000  0.75000000  1.0 -0.3086265484
N  N3  1  0.22220000  0.77780000  0.75000000  1.0 -0.3086265484
N  N4  1  0.44440000  0.22220000  0.25000000  1.0 -0.3086265484
N  N5  1  0.77780000  0.55560000  0.25000000  1.0 -0.3086265484
N  N6  1  0.77780000  0.22220000  0.25000000  1.0 -0.3086265484
O  O1  1  0.55980000  0.58910000  0.92850000  1.0 -0.48959227
O  O2  1  0.51840000  0.62940000  0.00580000  1.0 -0.5470598275
O  O3  1  0.02930000  0.44020000  0.92850000  1.0 -0.48959227
O  O4  1  0.11100000  0.48160000  0.00580000  1.0 -0.5470598275
O  O5  1  0.41090000  0.97070000  0.92850000  1.0 -0.48959227
O  O6  1  0.37060000  0.88900000  0.00580000  1.0 -0.5470598275
O  O7  1  0.44020000  0.41090000  0.42850000  1.0 -0.48959227
O  O8  1  0.48160000  0.37060000  0.50580000  1.0 -0.5470598275
O  O9  1  0.97070000  0.55980000  0.42850000  1.0 -0.48959227
O  O10  1  0.88900000  0.51840000  0.50580000  1.0 -0.5470598275
O  O11  1  0.58910000  0.02930000  0.42850000  1.0 -0.48959227
O  O12  1  0.62940000  0.11100000  0.50580000  1.0 -0.5470598275
O  O13  1  0.97070000  0.41090000  0.07150000  1.0 -0.48959227
O  O14  1  0.88900000  0.37060000  0.99420000  1.0 -0.5470598275
O  O15  1  0.58910000  0.55980000  0.07150000  1.0 -0.48959227
O  O16  1  0.62940000  0.51840000  0.99420000  1.0 -0.5470598275
O  O17  1  0.44020000  0.02930000  0.07150000  1.0 -0.48959227
O  O18  1  0.48160000  0.11100000  0.99420000  1.0 -0.5470598275
O  O19  1  0.02930000  0.58910000  0.57150000  1.0 -0.48959227
O  O20  1  0.11100000  0.62940000  0.49420000  1.0 -0.5470598275
O  O21  1  0.41090000  0.44020000  0.57150000  1.0 -0.48959227
O  O22  1  0.37060000  0.48160000  0.49420000  1.0 -0.5470598275
O  O23  1  0.55980000  0.97070000  0.57150000  1.0 -0.48959227
O  O24  1  0.51840000  0.88900000  0.49420000  1.0 -0.5470598275
O  O25  1  0.44020000  0.41090000  0.07150000  1.0 -0.48959227
O  O26  1  0.48160000  0.37060000  0.99420000  1.0 -0.5470598275
O  O27  1  0.97070000  0.55980000  0.07150000  1.0 -0.48959227
O  O28  1  0.88900000  0.51840000  0.99420000  1.0 -0.5470598275
O  O29  1  0.58910000  0.02930000  0.07150000  1.0 -0.48959227
O  O30  1  0.62940000  0.11100000  0.99420000  1.0 -0.5470598275
O  O31  1  0.55980000  0.58910000  0.57150000  1.0 -0.48959227
O  O32  1  0.51840000  0.62940000  0.49420000  1.0 -0.5470598275
O  O33  1  0.02930000  0.44020000  0.57150000  1.0 -0.48959227
O  O34  1  0.11100000  0.48160000  0.49420000  1.0 -0.5470598275
O  O35  1  0.41090000  0.97070000  0.57150000  1.0 -0.48959227
O  O36  1  0.37060000  0.88900000  0.49420000  1.0 -0.5470598275
O  O37  1  0.02930000  0.58910000  0.92850000  1.0 -0.48959227
O  O38  1  0.11100000  0.62940000  0.00580000  1.0 -0.5470598275
O  O39  1  0.41090000  0.44020000  0.92850000  1.0 -0.48959227
O  O40  1  0.37060000  0.48160000  0.00580000  1.0 -0.5470598275
O  O41  1  0.55980000  0.97070000  0.92850000  1.0 -0.48959227
O  O42  1  0.51840000  0.88900000  0.00580000  1.0 -0.5470598275
O  O43  1  0.97070000  0.41090000  0.42850000  1.0 -0.48959227
O  O44  1  0.88900000  0.37060000  0.50580000  1.0 -0.5470598275
O  O45  1  0.58910000  0.55980000  0.42850000  1.0 -0.48959227
O  O46  1  0.62940000  0.51840000  0.50580000  1.0 -0.5470598275
O  O47  1  0.44020000  0.02930000  0.42850000  1.0 -0.48959227
O  O48  1  0.48160000  0.11100000  0.50580000  1.0 -0.5470598275
