# DDEC6 charges by PACMAN v1.1 (https://github.com/mtap-research/PACMAN-charge/)
data_SUMCEL_ASR_pacman
_symmetry_space_group_name_H-M   'P 1'
_cell_length_a   41.92640000
_cell_length_b   41.92640000
_cell_length_c   14.97810000
_cell_angle_alpha   90.00000000
_cell_angle_beta   90.00000000
_cell_angle_gamma   120.00000000
_symmetry_Int_Tables_number   1
_chemical_formula_structural   Tb3H32C46(NO7)2
_chemical_formula_sum   'Tb18 H192 C276 N12 O84'
_cell_volume   22801.45202607
_cell_formula_units_Z   6
loop_
 _symmetry_equiv_pos_site_id
 _symmetry_equiv_pos_as_xyz
  1  'x, y, z'
loop_
 _atom_site_type_symbol
 _atom_site_label
 _atom_site_symmetry_multiplicity
 _atom_site_fract_x
 _atom_site_fract_y
 _atom_site_fract_z
 _atom_site_occupancy
 _atom_site_charge
Tb  Tb1  1  0.53842000  0.07684000  0.50000000  1.0 2.1798335779
Tb  Tb2  1  0.53842000  0.46158000  0.50000000  1.0 2.1798335779
Tb  Tb3  1  0.92316000  0.46158000  0.50000000  1.0 2.1798335779
Tb  Tb4  1  0.46158000  0.92316000  0.50000000  1.0 2.1798335779
Tb  Tb5  1  0.46158000  0.53842000  0.50000000  1.0 2.1798335779
Tb  Tb6  1  0.07684000  0.53842000  0.50000000  1.0 2.1798335779
Tb  Tb7  1  0.45318000  0.00000000  0.37021000  1.0 2.1663580009
Tb  Tb8  1  0.54682000  0.54682000  0.37021000  1.0 2.1663580009
Tb  Tb9  1  0.00000000  0.45318000  0.37021000  1.0 2.1663580009
Tb  Tb10  1  0.54682000  0.00000000  0.37021000  1.0 2.1663580009
Tb  Tb11  1  0.45318000  0.45318000  0.37021000  1.0 2.1663580009
Tb  Tb12  1  0.00000000  0.54682000  0.37021000  1.0 2.1663580009
Tb  Tb13  1  0.45318000  0.00000000  0.62979000  1.0 2.1663580009
Tb  Tb14  1  0.00000000  0.45318000  0.62979000  1.0 2.1663580009
Tb  Tb15  1  0.54682000  0.54682000  0.62979000  1.0 2.1663580009
Tb  Tb16  1  0.54682000  0.00000000  0.62979000  1.0 2.1663580009
Tb  Tb17  1  0.00000000  0.54682000  0.62979000  1.0 2.1663580009
Tb  Tb18  1  0.45318000  0.45318000  0.62979000  1.0 2.1663580009
H  H1  1  0.46510000  0.21480000  0.36710000  1.0 0.2814938035
H  H2  1  0.52390000  0.16340000  0.36600000  1.0 0.1299335995
H  H3  1  0.51260000  0.20760000  0.30640000  1.0 0.1123760974
H  H4  1  0.42430000  0.13010000  0.18070000  1.0 0.1210377297
H  H5  1  0.43460000  0.08550000  0.24200000  1.0 0.1299335995
H  H6  1  0.45900000  0.18210000  0.06900000  1.0 0.1123760974
H  H7  1  0.74970000  0.53490000  0.36710000  1.0 0.2814938035
H  H8  1  0.63950000  0.47610000  0.36600000  1.0 0.1299335995
H  H9  1  0.69500000  0.48740000  0.30640000  1.0 0.1123760974
H  H10  1  0.70580000  0.57570000  0.18070000  1.0 0.1210377297
H  H11  1  0.65090000  0.56540000  0.24200000  1.0 0.1299335995
H  H12  1  0.72310000  0.54100000  0.06900000  1.0 0.1123760974
H  H13  1  0.78520000  0.25030000  0.36710000  1.0 0.2814938035
H  H14  1  0.83660000  0.36050000  0.36600000  1.0 0.1299335995
H  H15  1  0.79240000  0.30500000  0.30640000  1.0 0.1123760974
H  H16  1  0.86990000  0.29420000  0.18070000  1.0 0.1210377297
H  H17  1  0.91450000  0.34910000  0.24200000  1.0 0.1299335995
H  H18  1  0.81790000  0.27690000  0.06900000  1.0 0.1123760974
H  H19  1  0.53490000  0.78520000  0.36710000  1.0 0.2814938035
H  H20  1  0.47610000  0.83660000  0.36600000  1.0 0.1299335995
H  H21  1  0.48740000  0.79240000  0.30640000  1.0 0.1123760974
H  H22  1  0.57570000  0.86990000  0.18070000  1.0 0.1210377297
H  H23  1  0.56540000  0.91450000  0.24200000  1.0 0.1299335995
H  H24  1  0.54100000  0.81790000  0.06900000  1.0 0.1123760974
H  H25  1  0.25030000  0.46510000  0.36710000  1.0 0.2814938035
H  H26  1  0.36050000  0.52390000  0.36600000  1.0 0.1299335995
H  H27  1  0.30500000  0.51260000  0.30640000  1.0 0.1123760974
H  H28  1  0.29420000  0.42430000  0.18070000  1.0 0.1210377297
H  H29  1  0.34910000  0.43460000  0.24200000  1.0 0.1299335995
H  H30  1  0.27690000  0.45900000  0.06900000  1.0 0.1123760974
H  H31  1  0.21480000  0.74970000  0.36710000  1.0 0.2814938035
H  H32  1  0.16340000  0.63950000  0.36600000  1.0 0.1299335995
H  H33  1  0.20760000  0.69500000  0.30640000  1.0 0.1123760974
H  H34  1  0.13010000  0.70580000  0.18070000  1.0 0.1210377297
H  H35  1  0.08550000  0.65090000  0.24200000  1.0 0.1299335995
H  H36  1  0.18210000  0.72310000  0.06900000  1.0 0.1123760974
H  H37  1  0.25030000  0.78520000  0.63290000  1.0 0.2814938035
H  H38  1  0.36050000  0.83660000  0.63400000  1.0 0.1299335995
H  H39  1  0.30500000  0.79240000  0.69360000  1.0 0.1123760974
H  H40  1  0.29420000  0.86990000  0.81930000  1.0 0.1210377297
H  H41  1  0.34910000  0.91450000  0.75800000  1.0 0.1299335995
H  H42  1  0.27690000  0.81790000  0.93100000  1.0 0.1123760974
H  H43  1  0.21480000  0.46510000  0.63290000  1.0 0.2814938035
H  H44  1  0.16340000  0.52390000  0.63400000  1.0 0.1299335995
H  H45  1  0.20760000  0.51260000  0.69360000  1.0 0.1123760974
H  H46  1  0.13010000  0.42430000  0.81930000  1.0 0.1210377297
H  H47  1  0.08550000  0.43460000  0.75800000  1.0 0.1299335995
H  H48  1  0.18210000  0.45900000  0.93100000  1.0 0.1123760974
H  H49  1  0.53490000  0.74970000  0.63290000  1.0 0.2814938035
H  H50  1  0.47610000  0.63950000  0.63400000  1.0 0.1299335995
H  H51  1  0.48740000  0.69500000  0.69360000  1.0 0.1123760974
H  H52  1  0.57570000  0.70580000  0.81930000  1.0 0.1210377297
H  H53  1  0.56540000  0.65090000  0.75800000  1.0 0.1299335995
H  H54  1  0.54100000  0.72310000  0.93100000  1.0 0.1123760974
H  H55  1  0.74970000  0.21480000  0.63290000  1.0 0.2814938035
H  H56  1  0.63950000  0.16340000  0.63400000  1.0 0.1299335995
H  H57  1  0.69500000  0.20760000  0.69360000  1.0 0.1123760974
H  H58  1  0.70580000  0.13010000  0.81930000  1.0 0.1210377297
H  H59  1  0.65090000  0.08550000  0.75800000  1.0 0.1299335995
H  H60  1  0.72310000  0.18210000  0.93100000  1.0 0.1123760974
H  H61  1  0.78520000  0.53490000  0.63290000  1.0 0.2814938035
H  H62  1  0.83660000  0.47610000  0.63400000  1.0 0.1299335995
H  H63  1  0.79240000  0.48740000  0.69360000  1.0 0.1123760974
H  H64  1  0.86990000  0.57570000  0.81930000  1.0 0.1210377297
H  H65  1  0.91450000  0.56540000  0.75800000  1.0 0.1299335995
H  H66  1  0.81790000  0.54100000  0.93100000  1.0 0.1123760974
H  H67  1  0.46510000  0.25030000  0.63290000  1.0 0.2814938035
H  H68  1  0.52390000  0.36050000  0.63400000  1.0 0.1299335995
H  H69  1  0.51260000  0.30500000  0.69360000  1.0 0.1123760974
H  H70  1  0.42430000  0.29420000  0.81930000  1.0 0.1210377297
H  H71  1  0.43460000  0.34910000  0.75800000  1.0 0.1299335995
H  H72  1  0.45900000  0.27690000  0.93100000  1.0 0.1123760974
H  H73  1  0.53490000  0.78520000  0.63290000  1.0 0.2814938035
H  H74  1  0.47610000  0.83660000  0.63400000  1.0 0.1299335995
H  H75  1  0.48740000  0.79240000  0.69360000  1.0 0.1123760974
H  H76  1  0.57570000  0.86990000  0.81930000  1.0 0.1210377297
H  H77  1  0.56540000  0.91450000  0.75800000  1.0 0.1299335995
H  H78  1  0.54100000  0.81790000  0.93100000  1.0 0.1123760974
H  H79  1  0.25030000  0.46510000  0.63290000  1.0 0.2814938035
H  H80  1  0.36050000  0.52390000  0.63400000  1.0 0.1299335995
H  H81  1  0.30500000  0.51260000  0.69360000  1.0 0.1123760974
H  H82  1  0.29420000  0.42430000  0.81930000  1.0 0.1210377297
H  H83  1  0.34910000  0.43460000  0.75800000  1.0 0.1299335995
H  H84  1  0.27690000  0.45900000  0.93100000  1.0 0.1123760974
H  H85  1  0.21480000  0.74970000  0.63290000  1.0 0.2814938035
H  H86  1  0.16340000  0.63950000  0.63400000  1.0 0.1299335995
H  H87  1  0.20760000  0.69500000  0.69360000  1.0 0.1123760974
H  H88  1  0.13010000  0.70580000  0.81930000  1.0 0.1210377297
H  H89  1  0.08550000  0.65090000  0.75800000  1.0 0.1299335995
H  H90  1  0.18210000  0.72310000  0.93100000  1.0 0.1123760974
H  H91  1  0.46510000  0.21480000  0.63290000  1.0 0.2814938035
H  H92  1  0.52390000  0.16340000  0.63400000  1.0 0.1299335995
H  H93  1  0.51260000  0.20760000  0.69360000  1.0 0.1123760974
H  H94  1  0.42430000  0.13010000  0.81930000  1.0 0.1210377297
H  H95  1  0.43460000  0.08550000  0.75800000  1.0 0.1299335995
H  H96  1  0.45900000  0.18210000  0.93100000  1.0 0.1123760974
H  H97  1  0.74970000  0.53490000  0.63290000  1.0 0.2814938035
H  H98  1  0.63950000  0.47610000  0.63400000  1.0 0.1299335995
H  H99  1  0.69500000  0.48740000  0.69360000  1.0 0.1123760974
H  H100  1  0.70580000  0.57570000  0.81930000  1.0 0.1210377297
H  H101  1  0.65090000  0.56540000  0.75800000  1.0 0.1299335995
H  H102  1  0.72310000  0.54100000  0.93100000  1.0 0.1123760974
H  H103  1  0.78520000  0.25030000  0.63290000  1.0 0.2814938035
H  H104  1  0.83660000  0.36050000  0.63400000  1.0 0.1299335995
H  H105  1  0.79240000  0.30500000  0.69360000  1.0 0.1123760974
H  H106  1  0.86990000  0.29420000  0.81930000  1.0 0.1210377297
H  H107  1  0.91450000  0.34910000  0.75800000  1.0 0.1299335995
H  H108  1  0.81790000  0.27690000  0.93100000  1.0 0.1123760974
H  H109  1  0.74970000  0.21480000  0.36710000  1.0 0.2814938035
H  H110  1  0.63950000  0.16340000  0.36600000  1.0 0.1299335995
H  H111  1  0.69500000  0.20760000  0.30640000  1.0 0.1123760974
H  H112  1  0.70580000  0.13010000  0.18070000  1.0 0.1210377297
H  H113  1  0.65090000  0.08550000  0.24200000  1.0 0.1299335995
H  H114  1  0.72310000  0.18210000  0.06900000  1.0 0.1123760974
H  H115  1  0.78520000  0.53490000  0.36710000  1.0 0.2814938035
H  H116  1  0.83660000  0.47610000  0.36600000  1.0 0.1299335995
H  H117  1  0.79240000  0.48740000  0.30640000  1.0 0.1123760974
H  H118  1  0.86990000  0.57570000  0.18070000  1.0 0.1210377297
H  H119  1  0.91450000  0.56540000  0.24200000  1.0 0.1299335995
H  H120  1  0.81790000  0.54100000  0.06900000  1.0 0.1123760974
H  H121  1  0.46510000  0.25030000  0.36710000  1.0 0.2814938035
H  H122  1  0.52390000  0.36050000  0.36600000  1.0 0.1299335995
H  H123  1  0.51260000  0.30500000  0.30640000  1.0 0.1123760974
H  H124  1  0.42430000  0.29420000  0.18070000  1.0 0.1210377297
H  H125  1  0.43460000  0.34910000  0.24200000  1.0 0.1299335995
H  H126  1  0.45900000  0.27690000  0.06900000  1.0 0.1123760974
H  H127  1  0.25030000  0.78520000  0.36710000  1.0 0.2814938035
H  H128  1  0.36050000  0.83660000  0.36600000  1.0 0.1299335995
H  H129  1  0.30500000  0.79240000  0.30640000  1.0 0.1123760974
H  H130  1  0.29420000  0.86990000  0.18070000  1.0 0.1210377297
H  H131  1  0.34910000  0.91450000  0.24200000  1.0 0.1299335995
H  H132  1  0.27690000  0.81790000  0.06900000  1.0 0.1123760974
H  H133  1  0.21480000  0.46510000  0.36710000  1.0 0.2814938035
H  H134  1  0.16340000  0.52390000  0.36600000  1.0 0.1299335995
H  H135  1  0.20760000  0.51260000  0.30640000  1.0 0.1123760974
H  H136  1  0.13010000  0.42430000  0.18070000  1.0 0.1210377297
H  H137  1  0.08550000  0.43460000  0.24200000  1.0 0.1299335995
H  H138  1  0.18210000  0.45900000  0.06900000  1.0 0.1123760974
H  H139  1  0.53490000  0.74970000  0.36710000  1.0 0.2814938035
H  H140  1  0.47610000  0.63950000  0.36600000  1.0 0.1299335995
H  H141  1  0.48740000  0.69500000  0.30640000  1.0 0.1123760974
H  H142  1  0.57570000  0.70580000  0.18070000  1.0 0.1210377297
H  H143  1  0.56540000  0.65090000  0.24200000  1.0 0.1299335995
H  H144  1  0.54100000  0.72310000  0.06900000  1.0 0.1123760974
H  H145  1  0.30000000  0.00000000  0.35300000  1.0 0.1511115524
H  H146  1  0.35080000  0.00000000  0.36680000  1.0 0.1299335995
H  H147  1  0.70000000  0.70000000  0.35300000  1.0 0.1573954168
H  H148  1  0.64920000  0.64920000  0.36680000  1.0 0.1299335995
H  H149  1  0.00000000  0.30000000  0.35300000  1.0 0.1573954168
H  H150  1  0.00000000  0.35080000  0.36680000  1.0 0.1299335995
H  H151  1  0.70000000  0.00000000  0.35300000  1.0 0.1511115524
H  H152  1  0.64920000  0.00000000  0.36680000  1.0 0.1299335995
H  H153  1  0.30000000  0.30000000  0.35300000  1.0 0.1573954168
H  H154  1  0.35080000  0.35080000  0.36680000  1.0 0.1299335995
H  H155  1  0.00000000  0.70000000  0.35300000  1.0 0.1573954168
H  H156  1  0.00000000  0.64920000  0.36680000  1.0 0.1299335995
H  H157  1  0.30000000  0.00000000  0.64700000  1.0 0.1511115524
H  H158  1  0.35080000  0.00000000  0.63320000  1.0 0.1299335995
H  H159  1  0.00000000  0.30000000  0.64700000  1.0 0.1573954168
H  H160  1  0.00000000  0.35080000  0.63320000  1.0 0.1299335995
H  H161  1  0.70000000  0.70000000  0.64700000  1.0 0.1573954168
H  H162  1  0.64920000  0.64920000  0.63320000  1.0 0.1299335995
H  H163  1  0.70000000  0.00000000  0.64700000  1.0 0.1511115524
H  H164  1  0.64920000  0.00000000  0.63320000  1.0 0.1299335995
H  H165  1  0.00000000  0.70000000  0.64700000  1.0 0.1573954168
H  H166  1  0.00000000  0.64920000  0.63320000  1.0 0.1299335995
H  H167  1  0.30000000  0.30000000  0.64700000  1.0 0.1573954168
H  H168  1  0.35080000  0.35080000  0.63320000  1.0 0.1299335995
H  H169  1  0.47500000  0.95000000  0.32070000  1.0 0.4034389375
H  H170  1  0.47500000  0.52500000  0.32070000  1.0 0.4034389375
H  H171  1  0.05000000  0.52500000  0.32070000  1.0 0.4034389375
H  H172  1  0.52500000  0.05000000  0.32070000  1.0 0.4034389375
H  H173  1  0.52500000  0.47500000  0.32070000  1.0 0.4034389375
H  H174  1  0.95000000  0.47500000  0.32070000  1.0 0.4034389375
H  H175  1  0.52500000  0.05000000  0.67930000  1.0 0.4034389375
H  H176  1  0.95000000  0.47500000  0.67930000  1.0 0.4034389375
H  H177  1  0.52500000  0.47500000  0.67930000  1.0 0.4034389375
H  H178  1  0.47500000  0.95000000  0.67930000  1.0 0.4034389375
H  H179  1  0.05000000  0.52500000  0.67930000  1.0 0.4034389375
H  H180  1  0.47500000  0.52500000  0.67930000  1.0 0.4034389375
H  H181  1  0.58620000  0.05010000  0.50000000  1.0 0.4034389375
H  H182  1  0.46390000  0.41380000  0.50000000  1.0 0.4034389375
H  H183  1  0.94990000  0.53610000  0.50000000  1.0 0.4034389375
H  H184  1  0.41380000  0.94990000  0.50000000  1.0 0.4034389375
H  H185  1  0.53610000  0.58620000  0.50000000  1.0 0.4034389375
H  H186  1  0.05010000  0.46390000  0.50000000  1.0 0.4034389375
H  H187  1  0.53610000  0.94990000  0.50000000  1.0 0.4034389375
H  H188  1  0.05010000  0.58620000  0.50000000  1.0 0.4034389375
H  H189  1  0.41380000  0.46390000  0.50000000  1.0 0.4034389375
H  H190  1  0.46390000  0.05010000  0.50000000  1.0 0.4034389375
H  H191  1  0.94990000  0.41380000  0.50000000  1.0 0.4034389375
H  H192  1  0.58620000  0.53610000  0.50000000  1.0 0.4034389375
C  C1  1  0.48721000  0.09085000  0.34760000  1.0 0.6382012236
C  C2  1  0.47977000  0.11959000  0.30860000  1.0 -0.0442988153
C  C3  1  0.50375000  0.15659000  0.32880000  1.0 -0.0862735856
C  C4  1  0.49690000  0.18288000  0.29240000  1.0 -0.1736090314
C  C5  1  0.46772000  0.17375000  0.23640000  1.0 0.0825248285
C  C6  1  0.44450000  0.13706000  0.21810000  1.0 -0.1607895836
C  C7  1  0.45070000  0.11020000  0.25480000  1.0 -0.0862735856
C  C8  1  0.46336000  0.20311000  0.19030000  1.0 -0.0171892308
C  C9  1  0.46019000  0.20200000  0.09920000  1.0 -0.189739223
C  C10  1  0.60364000  0.51279000  0.34760000  1.0 0.6382012236
C  C11  1  0.63982000  0.52023000  0.30860000  1.0 -0.045321608
C  C12  1  0.65284000  0.49625000  0.32880000  1.0 -0.0862735856
C  C13  1  0.68598000  0.50310000  0.29240000  1.0 -0.1736090314
C  C14  1  0.70603000  0.53228000  0.23640000  1.0 0.0825248285
C  C15  1  0.69256000  0.55550000  0.21810000  1.0 -0.1607895836
C  C16  1  0.65950000  0.54930000  0.25480000  1.0 -0.0862735856
C  C17  1  0.73975000  0.53664000  0.19030000  1.0 -0.0171892308
C  C18  1  0.74181000  0.53981000  0.09920000  1.0 -0.189739223
C  C19  1  0.90915000  0.39636000  0.34760000  1.0 0.6382012236
C  C20  1  0.88041000  0.36018000  0.30860000  1.0 -0.0442988153
C  C21  1  0.84341000  0.34716000  0.32880000  1.0 -0.0862735856
C  C22  1  0.81712000  0.31402000  0.29240000  1.0 -0.1736090314
C  C23  1  0.82625000  0.29397000  0.23640000  1.0 0.0825248285
C  C24  1  0.86294000  0.30744000  0.21810000  1.0 -0.1607895836
C  C25  1  0.88980000  0.34050000  0.25480000  1.0 -0.0862735856
C  C26  1  0.79689000  0.26025000  0.19030000  1.0 -0.0171892308
C  C27  1  0.79800000  0.25819000  0.09920000  1.0 -0.189739223
C  C28  1  0.51279000  0.90915000  0.34760000  1.0 0.6382012236
C  C29  1  0.52023000  0.88041000  0.30860000  1.0 -0.0442988153
C  C30  1  0.49625000  0.84341000  0.32880000  1.0 -0.0862735856
C  C31  1  0.50310000  0.81712000  0.29240000  1.0 -0.1736090314
C  C32  1  0.53228000  0.82625000  0.23640000  1.0 0.0825248285
C  C33  1  0.55550000  0.86294000  0.21810000  1.0 -0.1607895836
C  C34  1  0.54930000  0.88980000  0.25480000  1.0 -0.0862735856
C  C35  1  0.53664000  0.79689000  0.19030000  1.0 -0.0171892308
C  C36  1  0.53981000  0.79800000  0.09920000  1.0 -0.189739223
C  C37  1  0.39636000  0.48721000  0.34760000  1.0 0.6382012236
C  C38  1  0.36018000  0.47977000  0.30860000  1.0 -0.0442988153
C  C39  1  0.34716000  0.50375000  0.32880000  1.0 -0.0862735856
C  C40  1  0.31402000  0.49690000  0.29240000  1.0 -0.1736090314
C  C41  1  0.29397000  0.46772000  0.23640000  1.0 0.0825248285
C  C42  1  0.30744000  0.44450000  0.21810000  1.0 -0.1607895836
C  C43  1  0.34050000  0.45070000  0.25480000  1.0 -0.0862735856
C  C44  1  0.26025000  0.46336000  0.19030000  1.0 -0.0171892308
C  C45  1  0.25819000  0.46019000  0.09920000  1.0 -0.189739223
C  C46  1  0.09085000  0.60364000  0.34760000  1.0 0.6382012236
C  C47  1  0.11959000  0.63982000  0.30860000  1.0 -0.0442988153
C  C48  1  0.15659000  0.65284000  0.32880000  1.0 -0.0862735856
C  C49  1  0.18288000  0.68598000  0.29240000  1.0 -0.1736090314
C  C50  1  0.17375000  0.70603000  0.23640000  1.0 0.0825248285
C  C51  1  0.13706000  0.69256000  0.21810000  1.0 -0.1607895836
C  C52  1  0.11020000  0.65950000  0.25480000  1.0 -0.0862735856
C  C53  1  0.20311000  0.73975000  0.19030000  1.0 -0.0171892308
C  C54  1  0.20200000  0.74181000  0.09920000  1.0 -0.189739223
C  C55  1  0.39636000  0.90915000  0.65240000  1.0 0.6382012236
C  C56  1  0.36018000  0.88041000  0.69140000  1.0 -0.0442988153
C  C57  1  0.34716000  0.84341000  0.67120000  1.0 -0.0862735856
C  C58  1  0.31402000  0.81712000  0.70760000  1.0 -0.1736090314
C  C59  1  0.29397000  0.82625000  0.76360000  1.0 0.0825248285
C  C60  1  0.30744000  0.86294000  0.78190000  1.0 -0.1607895836
C  C61  1  0.34050000  0.88980000  0.74520000  1.0 -0.0862735856
C  C62  1  0.26025000  0.79689000  0.80970000  1.0 -0.0171892308
C  C63  1  0.25819000  0.79800000  0.90080000  1.0 -0.189739223
C  C64  1  0.09085000  0.48721000  0.65240000  1.0 0.6382012236
C  C65  1  0.11959000  0.47977000  0.69140000  1.0 -0.0442988153
C  C66  1  0.15659000  0.50375000  0.67120000  1.0 -0.0862735856
C  C67  1  0.18288000  0.49690000  0.70760000  1.0 -0.1736090314
C  C68  1  0.17375000  0.46772000  0.76360000  1.0 0.0825248285
C  C69  1  0.13706000  0.44450000  0.78190000  1.0 -0.1607895836
C  C70  1  0.11020000  0.45070000  0.74520000  1.0 -0.0862735856
C  C71  1  0.20311000  0.46336000  0.80970000  1.0 -0.0171892308
C  C72  1  0.20200000  0.46019000  0.90080000  1.0 -0.189739223
C  C73  1  0.51279000  0.60364000  0.65240000  1.0 0.6382012236
C  C74  1  0.52023000  0.63982000  0.69140000  1.0 -0.0442988153
C  C75  1  0.49625000  0.65284000  0.67120000  1.0 -0.0862735856
C  C76  1  0.50310000  0.68598000  0.70760000  1.0 -0.1736090314
C  C77  1  0.53228000  0.70603000  0.76360000  1.0 0.0825248285
C  C78  1  0.55550000  0.69256000  0.78190000  1.0 -0.1607895836
C  C79  1  0.54930000  0.65950000  0.74520000  1.0 -0.0862735856
C  C80  1  0.53664000  0.73975000  0.80970000  1.0 -0.0171892308
C  C81  1  0.53981000  0.74181000  0.90080000  1.0 -0.189739223
C  C82  1  0.60364000  0.09085000  0.65240000  1.0 0.6382012236
C  C83  1  0.63982000  0.11959000  0.69140000  1.0 -0.045321608
C  C84  1  0.65284000  0.15659000  0.67120000  1.0 -0.0862735856
C  C85  1  0.68598000  0.18288000  0.70760000  1.0 -0.1736090314
C  C86  1  0.70603000  0.17375000  0.76360000  1.0 0.0825248285
C  C87  1  0.69256000  0.13706000  0.78190000  1.0 -0.1607895836
C  C88  1  0.65950000  0.11020000  0.74520000  1.0 -0.0862735856
C  C89  1  0.73975000  0.20311000  0.80970000  1.0 -0.0171892308
C  C90  1  0.74181000  0.20200000  0.90080000  1.0 -0.189739223
C  C91  1  0.90915000  0.51279000  0.65240000  1.0 0.6382012236
C  C92  1  0.88041000  0.52023000  0.69140000  1.0 -0.045321608
C  C93  1  0.84341000  0.49625000  0.67120000  1.0 -0.0862735856
C  C94  1  0.81712000  0.50310000  0.70760000  1.0 -0.1736090314
C  C95  1  0.82625000  0.53228000  0.76360000  1.0 0.0825248285
C  C96  1  0.86294000  0.55550000  0.78190000  1.0 -0.1607895836
C  C97  1  0.88980000  0.54930000  0.74520000  1.0 -0.0862735856
C  C98  1  0.79689000  0.53664000  0.80970000  1.0 -0.0171892308
C  C99  1  0.79800000  0.53981000  0.90080000  1.0 -0.189739223
C  C100  1  0.48721000  0.39636000  0.65240000  1.0 0.6382012236
C  C101  1  0.47977000  0.36018000  0.69140000  1.0 -0.0442988153
C  C102  1  0.50375000  0.34716000  0.67120000  1.0 -0.0862735856
C  C103  1  0.49690000  0.31402000  0.70760000  1.0 -0.1736090314
C  C104  1  0.46772000  0.29397000  0.76360000  1.0 0.0825248285
C  C105  1  0.44450000  0.30744000  0.78190000  1.0 -0.1607895836
C  C106  1  0.45070000  0.34050000  0.74520000  1.0 -0.0862735856
C  C107  1  0.46336000  0.26025000  0.80970000  1.0 -0.0171892308
C  C108  1  0.46019000  0.25819000  0.90080000  1.0 -0.189739223
C  C109  1  0.51279000  0.90915000  0.65240000  1.0 0.6382012236
C  C110  1  0.52023000  0.88041000  0.69140000  1.0 -0.0442988153
C  C111  1  0.49625000  0.84341000  0.67120000  1.0 -0.0862735856
C  C112  1  0.50310000  0.81712000  0.70760000  1.0 -0.1736090314
C  C113  1  0.53228000  0.82625000  0.76360000  1.0 0.0825248285
C  C114  1  0.55550000  0.86294000  0.78190000  1.0 -0.1607895836
C  C115  1  0.54930000  0.88980000  0.74520000  1.0 -0.0862735856
C  C116  1  0.53664000  0.79689000  0.80970000  1.0 -0.0171892308
C  C117  1  0.53981000  0.79800000  0.90080000  1.0 -0.189739223
C  C118  1  0.39636000  0.48721000  0.65240000  1.0 0.6382012236
C  C119  1  0.36018000  0.47977000  0.69140000  1.0 -0.0442988153
C  C120  1  0.34716000  0.50375000  0.67120000  1.0 -0.0862735856
C  C121  1  0.31402000  0.49690000  0.70760000  1.0 -0.1736090314
C  C122  1  0.29397000  0.46772000  0.76360000  1.0 0.0825248285
C  C123  1  0.30744000  0.44450000  0.78190000  1.0 -0.1607895836
C  C124  1  0.34050000  0.45070000  0.74520000  1.0 -0.0862735856
C  C125  1  0.26025000  0.46336000  0.80970000  1.0 -0.0171892308
C  C126  1  0.25819000  0.46019000  0.90080000  1.0 -0.189739223
C  C127  1  0.09085000  0.60364000  0.65240000  1.0 0.6382012236
C  C128  1  0.11959000  0.63982000  0.69140000  1.0 -0.0442988153
C  C129  1  0.15659000  0.65284000  0.67120000  1.0 -0.0862735856
C  C130  1  0.18288000  0.68598000  0.70760000  1.0 -0.1736090314
C  C131  1  0.17375000  0.70603000  0.76360000  1.0 0.0825248285
C  C132  1  0.13706000  0.69256000  0.78190000  1.0 -0.1607895836
C  C133  1  0.11020000  0.65950000  0.74520000  1.0 -0.0862735856
C  C134  1  0.20311000  0.73975000  0.80970000  1.0 -0.0171892308
C  C135  1  0.20200000  0.74181000  0.90080000  1.0 -0.189739223
C  C136  1  0.48721000  0.09085000  0.65240000  1.0 0.6382012236
C  C137  1  0.47977000  0.11959000  0.69140000  1.0 -0.0442988153
C  C138  1  0.50375000  0.15659000  0.67120000  1.0 -0.0862735856
C  C139  1  0.49690000  0.18288000  0.70760000  1.0 -0.1736090314
C  C140  1  0.46772000  0.17375000  0.76360000  1.0 0.0825248285
C  C141  1  0.44450000  0.13706000  0.78190000  1.0 -0.1607895836
C  C142  1  0.45070000  0.11020000  0.74520000  1.0 -0.0862735856
C  C143  1  0.46336000  0.20311000  0.80970000  1.0 -0.0171892308
C  C144  1  0.46019000  0.20200000  0.90080000  1.0 -0.189739223
C  C145  1  0.60364000  0.51279000  0.65240000  1.0 0.6382012236
C  C146  1  0.63982000  0.52023000  0.69140000  1.0 -0.045321608
C  C147  1  0.65284000  0.49625000  0.67120000  1.0 -0.0862735856
C  C148  1  0.68598000  0.50310000  0.70760000  1.0 -0.1736090314
C  C149  1  0.70603000  0.53228000  0.76360000  1.0 0.0825248285
C  C150  1  0.69256000  0.55550000  0.78190000  1.0 -0.1607895836
C  C151  1  0.65950000  0.54930000  0.74520000  1.0 -0.0862735856
C  C152  1  0.73975000  0.53664000  0.80970000  1.0 -0.0171892308
C  C153  1  0.74181000  0.53981000  0.90080000  1.0 -0.189739223
C  C154  1  0.90915000  0.39636000  0.65240000  1.0 0.6382012236
C  C155  1  0.88041000  0.36018000  0.69140000  1.0 -0.0442988153
C  C156  1  0.84341000  0.34716000  0.67120000  1.0 -0.0862735856
C  C157  1  0.81712000  0.31402000  0.70760000  1.0 -0.1736090314
C  C158  1  0.82625000  0.29397000  0.76360000  1.0 0.0825248285
C  C159  1  0.86294000  0.30744000  0.78190000  1.0 -0.1607895836
C  C160  1  0.88980000  0.34050000  0.74520000  1.0 -0.0862735856
C  C161  1  0.79689000  0.26025000  0.80970000  1.0 -0.0171892308
C  C162  1  0.79800000  0.25819000  0.90080000  1.0 -0.189739223
C  C163  1  0.60364000  0.09085000  0.34760000  1.0 0.6382012236
C  C164  1  0.63982000  0.11959000  0.30860000  1.0 -0.045321608
C  C165  1  0.65284000  0.15659000  0.32880000  1.0 -0.0862735856
C  C166  1  0.68598000  0.18288000  0.29240000  1.0 -0.1736090314
C  C167  1  0.70603000  0.17375000  0.23640000  1.0 0.0825248285
C  C168  1  0.69256000  0.13706000  0.21810000  1.0 -0.1607895836
C  C169  1  0.65950000  0.11020000  0.25480000  1.0 -0.0862735856
C  C170  1  0.73975000  0.20311000  0.19030000  1.0 -0.0171892308
C  C171  1  0.74181000  0.20200000  0.09920000  1.0 -0.189739223
C  C172  1  0.90915000  0.51279000  0.34760000  1.0 0.6382012236
C  C173  1  0.88041000  0.52023000  0.30860000  1.0 -0.045321608
C  C174  1  0.84341000  0.49625000  0.32880000  1.0 -0.0862735856
C  C175  1  0.81712000  0.50310000  0.29240000  1.0 -0.1736090314
C  C176  1  0.82625000  0.53228000  0.23640000  1.0 0.0825248285
C  C177  1  0.86294000  0.55550000  0.21810000  1.0 -0.1607895836
C  C178  1  0.88980000  0.54930000  0.25480000  1.0 -0.0862735856
C  C179  1  0.79689000  0.53664000  0.19030000  1.0 -0.0171892308
C  C180  1  0.79800000  0.53981000  0.09920000  1.0 -0.189739223
C  C181  1  0.48721000  0.39636000  0.34760000  1.0 0.6382012236
C  C182  1  0.47977000  0.36018000  0.30860000  1.0 -0.0442988153
C  C183  1  0.50375000  0.34716000  0.32880000  1.0 -0.0862735856
C  C184  1  0.49690000  0.31402000  0.29240000  1.0 -0.1736090314
C  C185  1  0.46772000  0.29397000  0.23640000  1.0 0.0825248285
C  C186  1  0.44450000  0.30744000  0.21810000  1.0 -0.1607895836
C  C187  1  0.45070000  0.34050000  0.25480000  1.0 -0.0862735856
C  C188  1  0.46336000  0.26025000  0.19030000  1.0 -0.0171892308
C  C189  1  0.46019000  0.25819000  0.09920000  1.0 -0.189739223
C  C190  1  0.39636000  0.90915000  0.34760000  1.0 0.6382012236
C  C191  1  0.36018000  0.88041000  0.30860000  1.0 -0.0442988153
C  C192  1  0.34716000  0.84341000  0.32880000  1.0 -0.0862735856
C  C193  1  0.31402000  0.81712000  0.29240000  1.0 -0.1736090314
C  C194  1  0.29397000  0.82625000  0.23640000  1.0 0.0825248285
C  C195  1  0.30744000  0.86294000  0.21810000  1.0 -0.1607895836
C  C196  1  0.34050000  0.88980000  0.25480000  1.0 -0.0862735856
C  C197  1  0.26025000  0.79689000  0.19030000  1.0 -0.0171892308
C  C198  1  0.25819000  0.79800000  0.09920000  1.0 -0.189739223
C  C199  1  0.09085000  0.48721000  0.34760000  1.0 0.6382012236
C  C200  1  0.11959000  0.47977000  0.30860000  1.0 -0.0442988153
C  C201  1  0.15659000  0.50375000  0.32880000  1.0 -0.0862735856
C  C202  1  0.18288000  0.49690000  0.29240000  1.0 -0.1736090314
C  C203  1  0.17375000  0.46772000  0.23640000  1.0 0.0825248285
C  C204  1  0.13706000  0.44450000  0.21810000  1.0 -0.1607895836
C  C205  1  0.11020000  0.45070000  0.25480000  1.0 -0.0862735856
C  C206  1  0.20311000  0.46336000  0.19030000  1.0 -0.0171892308
C  C207  1  0.20200000  0.46019000  0.09920000  1.0 -0.189739223
C  C208  1  0.51279000  0.60364000  0.34760000  1.0 0.6382012236
C  C209  1  0.52023000  0.63982000  0.30860000  1.0 -0.0442988153
C  C210  1  0.49625000  0.65284000  0.32880000  1.0 -0.0862735856
C  C211  1  0.50310000  0.68598000  0.29240000  1.0 -0.1736090314
C  C212  1  0.53228000  0.70603000  0.23640000  1.0 0.0825248285
C  C213  1  0.55550000  0.69256000  0.21810000  1.0 -0.1607895836
C  C214  1  0.54930000  0.65950000  0.25480000  1.0 -0.0862735856
C  C215  1  0.53664000  0.73975000  0.19030000  1.0 -0.0171892308
C  C216  1  0.53981000  0.74181000  0.09920000  1.0 -0.189739223
C  C217  1  0.30620000  0.00000000  0.41470000  1.0 -0.2227957111
C  C218  1  0.33920000  0.00000000  0.41970000  1.0 -0.0827640476
C  C219  1  0.69380000  0.69380000  0.41470000  1.0 -0.2227957111
C  C220  1  0.66080000  0.66080000  0.41970000  1.0 -0.0827640476
C  C221  1  0.00000000  0.30620000  0.41470000  1.0 -0.2227957111
C  C222  1  0.00000000  0.33920000  0.41970000  1.0 -0.0827640476
C  C223  1  0.69380000  0.00000000  0.41470000  1.0 -0.2227957111
C  C224  1  0.66080000  0.00000000  0.41970000  1.0 -0.0827640476
C  C225  1  0.30620000  0.30620000  0.41470000  1.0 -0.2252109778
C  C226  1  0.33920000  0.33920000  0.41970000  1.0 -0.0827640476
C  C227  1  0.00000000  0.69380000  0.41470000  1.0 -0.2227957111
C  C228  1  0.00000000  0.66080000  0.41970000  1.0 -0.0827640476
C  C229  1  0.30620000  0.00000000  0.58530000  1.0 -0.2227957111
C  C230  1  0.33920000  0.00000000  0.58030000  1.0 -0.0827640476
C  C231  1  0.00000000  0.30620000  0.58530000  1.0 -0.2227957111
C  C232  1  0.00000000  0.33920000  0.58030000  1.0 -0.0827640476
C  C233  1  0.69380000  0.69380000  0.58530000  1.0 -0.2227957111
C  C234  1  0.66080000  0.66080000  0.58030000  1.0 -0.0827640476
C  C235  1  0.69380000  0.00000000  0.58530000  1.0 -0.2227957111
C  C236  1  0.66080000  0.00000000  0.58030000  1.0 -0.0827640476
C  C237  1  0.00000000  0.69380000  0.58530000  1.0 -0.2227957111
C  C238  1  0.00000000  0.66080000  0.58030000  1.0 -0.0827640476
C  C239  1  0.30620000  0.30620000  0.58530000  1.0 -0.2252109778
C  C240  1  0.33920000  0.33920000  0.58030000  1.0 -0.0827640476
C  C241  1  0.46460000  0.23230000  0.23850000  1.0 0.1511115524
C  C242  1  0.45870000  0.22935000  0.04990000  1.0 0.0647422093
C  C243  1  0.76770000  0.53540000  0.23850000  1.0 0.1511115524
C  C244  1  0.77065000  0.54130000  0.04990000  1.0 0.0651517081
C  C245  1  0.76770000  0.23230000  0.23850000  1.0 0.1511115524
C  C246  1  0.77065000  0.22935000  0.04990000  1.0 0.0647422093
C  C247  1  0.53540000  0.76770000  0.23850000  1.0 0.1511115524
C  C248  1  0.54130000  0.77065000  0.04990000  1.0 0.0647422093
C  C249  1  0.23230000  0.46460000  0.23850000  1.0 0.1511115524
C  C250  1  0.22935000  0.45870000  0.04990000  1.0 0.0647422093
C  C251  1  0.23230000  0.76770000  0.23850000  1.0 0.1511115524
C  C252  1  0.22935000  0.77065000  0.04990000  1.0 0.0647422093
C  C253  1  0.23230000  0.76770000  0.76150000  1.0 0.1511115524
C  C254  1  0.22935000  0.77065000  0.95010000  1.0 0.0651517081
C  C255  1  0.23230000  0.46460000  0.76150000  1.0 0.1511115524
C  C256  1  0.22935000  0.45870000  0.95010000  1.0 0.0651517081
C  C257  1  0.53540000  0.76770000  0.76150000  1.0 0.1511115524
C  C258  1  0.54130000  0.77065000  0.95010000  1.0 0.0651517081
C  C259  1  0.76770000  0.23230000  0.76150000  1.0 0.1511115524
C  C260  1  0.77065000  0.22935000  0.95010000  1.0 0.0651517081
C  C261  1  0.76770000  0.53540000  0.76150000  1.0 0.1511115524
C  C262  1  0.77065000  0.54130000  0.95010000  1.0 0.0651517081
C  C263  1  0.46460000  0.23230000  0.76150000  1.0 0.1511115524
C  C264  1  0.45870000  0.22935000  0.95010000  1.0 0.0651517081
C  C265  1  0.39000000  0.00000000  0.50000000  1.0 0.6020101178
C  C266  1  0.35590000  0.00000000  0.50000000  1.0 -0.0658126381
C  C267  1  0.61000000  0.61000000  0.50000000  1.0 0.6020101178
C  C268  1  0.64410000  0.64410000  0.50000000  1.0 -0.0638952423
C  C269  1  0.00000000  0.39000000  0.50000000  1.0 0.6020101178
C  C270  1  0.00000000  0.35590000  0.50000000  1.0 -0.0638952423
C  C271  1  0.61000000  0.00000000  0.50000000  1.0 0.6020101178
C  C272  1  0.64410000  0.00000000  0.50000000  1.0 -0.0658126381
C  C273  1  0.39000000  0.39000000  0.50000000  1.0 0.6020101178
C  C274  1  0.35590000  0.35590000  0.50000000  1.0 -0.0638952423
C  C275  1  0.00000000  0.61000000  0.50000000  1.0 0.6020101178
C  C276  1  0.00000000  0.64410000  0.50000000  1.0 -0.0638952423
N  N1  1  0.46540000  0.23270000  0.33840000  1.0 -0.6098363729
N  N2  1  0.76730000  0.53460000  0.33840000  1.0 -0.6098363729
N  N3  1  0.76730000  0.23270000  0.33840000  1.0 -0.6098363729
N  N4  1  0.53460000  0.76730000  0.33840000  1.0 -0.6098363729
N  N5  1  0.23270000  0.46540000  0.33840000  1.0 -0.6098363729
N  N6  1  0.23270000  0.76730000  0.33840000  1.0 -0.6098363729
N  N7  1  0.23270000  0.76730000  0.66160000  1.0 -0.6098363729
N  N8  1  0.23270000  0.46540000  0.66160000  1.0 -0.6098363729
N  N9  1  0.53460000  0.76730000  0.66160000  1.0 -0.6098363729
N  N10  1  0.76730000  0.23270000  0.66160000  1.0 -0.6098363729
N  N11  1  0.76730000  0.53460000  0.66160000  1.0 -0.6098363729
N  N12  1  0.46540000  0.23270000  0.66160000  1.0 -0.6098363729
O  O1  1  0.51426000  0.10155000  0.40020000  1.0 -0.6639092398
O  O2  1  0.46521000  0.05778000  0.32580000  1.0 -0.683130101
O  O3  1  0.58729000  0.48574000  0.40020000  1.0 -0.6639092398
O  O4  1  0.59257000  0.53479000  0.32580000  1.0 -0.683130101
O  O5  1  0.89845000  0.41271000  0.40020000  1.0 -0.6639092398
O  O6  1  0.94222000  0.40743000  0.32580000  1.0 -0.683130101
O  O7  1  0.48574000  0.89845000  0.40020000  1.0 -0.6639092398
O  O8  1  0.53479000  0.94222000  0.32580000  1.0 -0.683130101
O  O9  1  0.41271000  0.51426000  0.40020000  1.0 -0.6639092398
O  O10  1  0.40743000  0.46521000  0.32580000  1.0 -0.683130101
O  O11  1  0.10155000  0.58729000  0.40020000  1.0 -0.6639092398
O  O12  1  0.05778000  0.59257000  0.32580000  1.0 -0.683130101
O  O13  1  0.41271000  0.89845000  0.59980000  1.0 -0.6639092398
O  O14  1  0.40743000  0.94222000  0.67420000  1.0 -0.683130101
O  O15  1  0.10155000  0.51426000  0.59980000  1.0 -0.6639092398
O  O16  1  0.05778000  0.46521000  0.67420000  1.0 -0.683130101
O  O17  1  0.48574000  0.58729000  0.59980000  1.0 -0.6639092398
O  O18  1  0.53479000  0.59257000  0.67420000  1.0 -0.683130101
O  O19  1  0.58729000  0.10155000  0.59980000  1.0 -0.6639092398
O  O20  1  0.59257000  0.05778000  0.67420000  1.0 -0.683130101
O  O21  1  0.89845000  0.48574000  0.59980000  1.0 -0.6639092398
O  O22  1  0.94222000  0.53479000  0.67420000  1.0 -0.683130101
O  O23  1  0.51426000  0.41271000  0.59980000  1.0 -0.6639092398
O  O24  1  0.46521000  0.40743000  0.67420000  1.0 -0.683130101
O  O25  1  0.48574000  0.89845000  0.59980000  1.0 -0.6639092398
O  O26  1  0.53479000  0.94222000  0.67420000  1.0 -0.683130101
O  O27  1  0.41271000  0.51426000  0.59980000  1.0 -0.6639092398
O  O28  1  0.40743000  0.46521000  0.67420000  1.0 -0.683130101
O  O29  1  0.10155000  0.58729000  0.59980000  1.0 -0.6639092398
O  O30  1  0.05778000  0.59257000  0.67420000  1.0 -0.683130101
O  O31  1  0.51426000  0.10155000  0.59980000  1.0 -0.6639092398
O  O32  1  0.46521000  0.05778000  0.67420000  1.0 -0.683130101
O  O33  1  0.58729000  0.48574000  0.59980000  1.0 -0.6639092398
O  O34  1  0.59257000  0.53479000  0.67420000  1.0 -0.683130101
O  O35  1  0.89845000  0.41271000  0.59980000  1.0 -0.6639092398
O  O36  1  0.94222000  0.40743000  0.67420000  1.0 -0.683130101
O  O37  1  0.58729000  0.10155000  0.40020000  1.0 -0.6639092398
O  O38  1  0.59257000  0.05778000  0.32580000  1.0 -0.683130101
O  O39  1  0.89845000  0.48574000  0.40020000  1.0 -0.6639092398
O  O40  1  0.94222000  0.53479000  0.32580000  1.0 -0.683130101
O  O41  1  0.51426000  0.41271000  0.40020000  1.0 -0.6639092398
O  O42  1  0.46521000  0.40743000  0.32580000  1.0 -0.683130101
O  O43  1  0.41271000  0.89845000  0.40020000  1.0 -0.6639092398
O  O44  1  0.40743000  0.94222000  0.32580000  1.0 -0.683130101
O  O45  1  0.10155000  0.51426000  0.40020000  1.0 -0.6639092398
O  O46  1  0.05778000  0.46521000  0.32580000  1.0 -0.683130101
O  O47  1  0.48574000  0.58729000  0.40020000  1.0 -0.6639092398
O  O48  1  0.53479000  0.59257000  0.32580000  1.0 -0.683130101
O  O49  1  0.39976000  0.00000000  0.41970000  1.0 -0.6449051034
O  O50  1  0.60024000  0.60024000  0.41970000  1.0 -0.6449051034
O  O51  1  0.00000000  0.39976000  0.41970000  1.0 -0.6457140577
O  O52  1  0.60024000  0.00000000  0.41970000  1.0 -0.6449051034
O  O53  1  0.39976000  0.39976000  0.41970000  1.0 -0.6457140577
O  O54  1  0.00000000  0.60024000  0.41970000  1.0 -0.6457140577
O  O55  1  0.39976000  0.00000000  0.58030000  1.0 -0.6449051034
O  O56  1  0.00000000  0.39976000  0.58030000  1.0 -0.6457140577
O  O57  1  0.60024000  0.60024000  0.58030000  1.0 -0.6449051034
O  O58  1  0.60024000  0.00000000  0.58030000  1.0 -0.6449051034
O  O59  1  0.00000000  0.60024000  0.58030000  1.0 -0.6457140577
O  O60  1  0.39976000  0.39976000  0.58030000  1.0 -0.6457140577
O  O61  1  0.48267000  0.96534000  0.37470000  1.0 -1.1384635401
O  O62  1  0.48267000  0.51733000  0.37470000  1.0 -1.1384635401
O  O63  1  0.03466000  0.51733000  0.37470000  1.0 -1.1384635401
O  O64  1  0.51733000  0.03466000  0.37470000  1.0 -1.1384635401
O  O65  1  0.51733000  0.48267000  0.37470000  1.0 -1.1384635401
O  O66  1  0.96534000  0.48267000  0.37470000  1.0 -1.1384635401
O  O67  1  0.51733000  0.03466000  0.62530000  1.0 -1.1384635401
O  O68  1  0.96534000  0.48267000  0.62530000  1.0 -1.1384635401
O  O69  1  0.51733000  0.48267000  0.62530000  1.0 -1.1384635401
O  O70  1  0.48267000  0.96534000  0.62530000  1.0 -1.1384635401
O  O71  1  0.03466000  0.51733000  0.62530000  1.0 -1.1384635401
O  O72  1  0.48267000  0.51733000  0.62530000  1.0 -1.1384635401
O  O73  1  0.55934000  0.03459000  0.50000000  1.0 -1.1384635401
O  O74  1  0.47525000  0.44066000  0.50000000  1.0 -1.1384635401
O  O75  1  0.96541000  0.52475000  0.50000000  1.0 -1.1384635401
O  O76  1  0.44066000  0.96541000  0.50000000  1.0 -1.1384635401
O  O77  1  0.52475000  0.55934000  0.50000000  1.0 -1.1384635401
O  O78  1  0.03459000  0.47525000  0.50000000  1.0 -1.1384635401
O  O79  1  0.52475000  0.96541000  0.50000000  1.0 -1.1384635401
O  O80  1  0.03459000  0.55934000  0.50000000  1.0 -1.1384635401
O  O81  1  0.44066000  0.47525000  0.50000000  1.0 -1.1384635401
O  O82  1  0.47525000  0.03459000  0.50000000  1.0 -1.1384635401
O  O83  1  0.96541000  0.44066000  0.50000000  1.0 -1.1384635401
O  O84  1  0.55934000  0.52475000  0.50000000  1.0 -1.1384635401
