# DDEC6 charges by PACMAN v1.1 (https://github.com/mtap-research/PACMAN-charge/)
data_SUNLET_ASR_pacman
_symmetry_space_group_name_H-M   'P 1'
_cell_length_a   30.49010000
_cell_length_b   30.49010000
_cell_length_c   30.49010000
_cell_angle_alpha   101.38800000
_cell_angle_beta   101.38800000
_cell_angle_gamma   127.23700000
_symmetry_Int_Tables_number   1
_chemical_formula_structural   Cu8H136C208O41
_chemical_formula_sum   'Cu16 H272 C416 O82'
_cell_volume   20216.16449606
_cell_formula_units_Z   2
loop_
 _symmetry_equiv_pos_site_id
 _symmetry_equiv_pos_as_xyz
  1  'x, y, z'
loop_
 _atom_site_type_symbol
 _atom_site_label
 _atom_site_symmetry_multiplicity
 _atom_site_fract_x
 _atom_site_fract_y
 _atom_site_fract_z
 _atom_site_occupancy
 _atom_site_charge
Cu  Cu1  1  0.11604000  0.83214000  0.71610000  1.0 0.8460167122
Cu  Cu2  1  0.11604000  0.39994000  0.28390000  1.0 0.8460167122
Cu  Cu3  1  0.64994000  0.86604000  0.78390000  1.0 0.8460167122
Cu  Cu4  1  0.08214000  0.86604000  0.21610000  1.0 0.8460167122
Cu  Cu5  1  0.13396000  0.35006000  0.21610000  1.0 0.8460167122
Cu  Cu6  1  0.13396000  0.91786000  0.78390000  1.0 0.8460167122
Cu  Cu7  1  0.60006000  0.88396000  0.71610000  1.0 0.8460167122
Cu  Cu8  1  0.16786000  0.88396000  0.28390000  1.0 0.8460167122
Cu  Cu9  1  0.91439000  0.91439000  0.00000000  1.0 0.8766471219
Cu  Cu10  1  0.16439000  0.66439000  0.50000000  1.0 0.8766471219
Cu  Cu11  1  0.33561000  0.83561000  0.50000000  1.0 0.8766471219
Cu  Cu12  1  0.08561000  0.08561000  0.00000000  1.0 0.8766471219
Cu  Cu13  1  0.81714000  0.81714000  0.00000000  1.0 0.8578819257
Cu  Cu14  1  0.06714000  0.56714000  0.50000000  1.0 0.8578819257
Cu  Cu15  1  0.43286000  0.93286000  0.50000000  1.0 0.8578819257
Cu  Cu16  1  0.18286000  0.18286000  0.00000000  1.0 0.8578819257
H  H1  1  0.96590000  0.86630000  0.71460000  1.0 0.1199862048
H  H2  1  0.15170000  0.25130000  0.28540000  1.0 0.1199862048
H  H3  1  0.50130000  0.71590000  0.59960000  1.0 0.1199862048
H  H4  1  0.11630000  0.90170000  0.40040000  1.0 0.1199862048
H  H5  1  0.28410000  0.49870000  0.40040000  1.0 0.1199862048
H  H6  1  0.09830000  0.88370000  0.59960000  1.0 0.1199862048
H  H7  1  0.74870000  0.84830000  0.71460000  1.0 0.1199862048
H  H8  1  0.13370000  0.03410000  0.28540000  1.0 0.1199862048
H  H9  1  0.28410000  0.88370000  0.78540000  1.0 0.1199862048
H  H10  1  0.09830000  0.49870000  0.21460000  1.0 0.1199862048
H  H11  1  0.74870000  0.03410000  0.90040000  1.0 0.1199862048
H  H12  1  0.13370000  0.84830000  0.09960000  1.0 0.1199862048
H  H13  1  0.96590000  0.25130000  0.09960000  1.0 0.1199862048
H  H14  1  0.15170000  0.86630000  0.90040000  1.0 0.1199862048
H  H15  1  0.50130000  0.90170000  0.78540000  1.0 0.1199862048
H  H16  1  0.11630000  0.71590000  0.21460000  1.0 0.1199862048
H  H17  1  0.78070000  0.70770000  0.53240000  1.0 0.1267983313
H  H18  1  0.17530000  0.24830000  0.46760000  1.0 0.1267983313
H  H19  1  0.49830000  0.53070000  0.57300000  1.0 0.1267983313
H  H20  1  0.95770000  0.92530000  0.42700000  1.0 0.1267983313
H  H21  1  0.46930000  0.50170000  0.42700000  1.0 0.1267983313
H  H22  1  0.07470000  0.04230000  0.57300000  1.0 0.1267983313
H  H23  1  0.75170000  0.82470000  0.53240000  1.0 0.1267983313
H  H24  1  0.29230000  0.21930000  0.46760000  1.0 0.1267983313
H  H25  1  0.46930000  0.04230000  0.96760000  1.0 0.1267983313
H  H26  1  0.07470000  0.50170000  0.03240000  1.0 0.1267983313
H  H27  1  0.75170000  0.21930000  0.92700000  1.0 0.1267983313
H  H28  1  0.29230000  0.82470000  0.07300000  1.0 0.1267983313
H  H29  1  0.78070000  0.24830000  0.07300000  1.0 0.1267983313
H  H30  1  0.17530000  0.70770000  0.92700000  1.0 0.1267983313
H  H31  1  0.49830000  0.92530000  0.96760000  1.0 0.1267983313
H  H32  1  0.95770000  0.53070000  0.03240000  1.0 0.1267983313
H  H33  1  0.92330000  0.71520000  0.63230000  1.0 0.1267983313
H  H34  1  0.08290000  0.29100000  0.36770000  1.0 0.1267983313
H  H35  1  0.54100000  0.67330000  0.70810000  1.0 0.1267983313
H  H36  1  0.96520000  0.83290000  0.29190000  1.0 0.1267983313
H  H37  1  0.32670000  0.45900000  0.29190000  1.0 0.1267983313
H  H38  1  0.16710000  0.03480000  0.70810000  1.0 0.1267983313
H  H39  1  0.70900000  0.91710000  0.63230000  1.0 0.1267983313
H  H40  1  0.28480000  0.07670000  0.36770000  1.0 0.1267983313
H  H41  1  0.32670000  0.03480000  0.86770000  1.0 0.1267983313
H  H42  1  0.16710000  0.45900000  0.13230000  1.0 0.1267983313
H  H43  1  0.70900000  0.07670000  0.79190000  1.0 0.1267983313
H  H44  1  0.28480000  0.91710000  0.20810000  1.0 0.1267983313
H  H45  1  0.92330000  0.29100000  0.20810000  1.0 0.1267983313
H  H46  1  0.08290000  0.71520000  0.79190000  1.0 0.1267983313
H  H47  1  0.54100000  0.83290000  0.86770000  1.0 0.1267983313
H  H48  1  0.96520000  0.67330000  0.13230000  1.0 0.1267983313
H  H49  1  0.79400000  0.74490000  0.69130000  1.0 0.1130382706
H  H50  1  0.05360000  0.10270000  0.30870000  1.0 0.1130382706
H  H51  1  0.35270000  0.54400000  0.54910000  1.0 0.1130382706
H  H52  1  0.99490000  0.80360000  0.45090000  1.0 0.1130382706
H  H53  1  0.45600000  0.64730000  0.45090000  1.0 0.1130382706
H  H54  1  0.19640000  0.00510000  0.54910000  1.0 0.1130382706
H  H55  1  0.89730000  0.94640000  0.69130000  1.0 0.1130382706
H  H56  1  0.25510000  0.20600000  0.30870000  1.0 0.1130382706
H  H57  1  0.45600000  0.00510000  0.80870000  1.0 0.1130382706
H  H58  1  0.19640000  0.64730000  0.19130000  1.0 0.1130382706
H  H59  1  0.89730000  0.20600000  0.95090000  1.0 0.1130382706
H  H60  1  0.25510000  0.94640000  0.04910000  1.0 0.1130382706
H  H61  1  0.79400000  0.10270000  0.04910000  1.0 0.1130382706
H  H62  1  0.05360000  0.74490000  0.95090000  1.0 0.1130382706
H  H63  1  0.35270000  0.80360000  0.80870000  1.0 0.1130382706
H  H64  1  0.99490000  0.54400000  0.19130000  1.0 0.1130382706
H  H65  1  0.86990000  0.82690000  0.66860000  1.0 0.1130382706
H  H66  1  0.15830000  0.20130000  0.33140000  1.0 0.1130382706
H  H67  1  0.45130000  0.61990000  0.54300000  1.0 0.1130382706
H  H68  1  0.07690000  0.90830000  0.45700000  1.0 0.1130382706
H  H69  1  0.38010000  0.54870000  0.45700000  1.0 0.1130382706
H  H70  1  0.09170000  0.92310000  0.54300000  1.0 0.1130382706
H  H71  1  0.79870000  0.84170000  0.66860000  1.0 0.1130382706
H  H72  1  0.17310000  0.13010000  0.33140000  1.0 0.1130382706
H  H73  1  0.38010000  0.92310000  0.83140000  1.0 0.1130382706
H  H74  1  0.09170000  0.54870000  0.16860000  1.0 0.1130382706
H  H75  1  0.79870000  0.13010000  0.95700000  1.0 0.1130382706
H  H76  1  0.17310000  0.84170000  0.04300000  1.0 0.1130382706
H  H77  1  0.86990000  0.20130000  0.04300000  1.0 0.1130382706
H  H78  1  0.15830000  0.82690000  0.95700000  1.0 0.1130382706
H  H79  1  0.45130000  0.90830000  0.83140000  1.0 0.1130382706
H  H80  1  0.07690000  0.61990000  0.16860000  1.0 0.1130382706
H  H81  1  0.82650000  0.67490000  0.58900000  1.0 0.1199862048
H  H82  1  0.08590000  0.23750000  0.41100000  1.0 0.1199862048
H  H83  1  0.48750000  0.57650000  0.65160000  1.0 0.1199862048
H  H84  1  0.92490000  0.83590000  0.34840000  1.0 0.1199862048
H  H85  1  0.42350000  0.51250000  0.34840000  1.0 0.1199862048
H  H86  1  0.16410000  0.07510000  0.65160000  1.0 0.1199862048
H  H87  1  0.76250000  0.91410000  0.58900000  1.0 0.1199862048
H  H88  1  0.32510000  0.17350000  0.41100000  1.0 0.1199862048
H  H89  1  0.42350000  0.07510000  0.91100000  1.0 0.1199862048
H  H90  1  0.16410000  0.51250000  0.08900000  1.0 0.1199862048
H  H91  1  0.76250000  0.17350000  0.84840000  1.0 0.1199862048
H  H92  1  0.32510000  0.91410000  0.15160000  1.0 0.1199862048
H  H93  1  0.82650000  0.23750000  0.15160000  1.0 0.1199862048
H  H94  1  0.08590000  0.67490000  0.84840000  1.0 0.1199862048
H  H95  1  0.48750000  0.83590000  0.91100000  1.0 0.1199862048
H  H96  1  0.92490000  0.57650000  0.08900000  1.0 0.1199862048
H  H97  1  0.59950000  0.65650000  0.59880000  1.0 0.1130382706
H  H98  1  0.05770000  0.00070000  0.40120000  1.0 0.1130382706
H  H99  1  0.25070000  0.34950000  0.44300000  1.0 0.1130382706
H  H100  1  0.90650000  0.80770000  0.55700000  1.0 0.1130382706
H  H101  1  0.65050000  0.74930000  0.55700000  1.0 0.1130382706
H  H102  1  0.19230000  0.09350000  0.44300000  1.0 0.1130382706
H  H103  1  0.99930000  0.94230000  0.59880000  1.0 0.1130382706
H  H104  1  0.34350000  0.40050000  0.40120000  1.0 0.1130382706
H  H105  1  0.65050000  0.09350000  0.90120000  1.0 0.1130382706
H  H106  1  0.19230000  0.74930000  0.09880000  1.0 0.1130382706
H  H107  1  0.99930000  0.40050000  0.05700000  1.0 0.1130382706
H  H108  1  0.34350000  0.94230000  0.94300000  1.0 0.1130382706
H  H109  1  0.59950000  0.00070000  0.94300000  1.0 0.1130382706
H  H110  1  0.05770000  0.65650000  0.05700000  1.0 0.1130382706
H  H111  1  0.25070000  0.80770000  0.90120000  1.0 0.1130382706
H  H112  1  0.90650000  0.34950000  0.09880000  1.0 0.1130382706
H  H113  1  0.66990000  0.68530000  0.75680000  1.0 0.1199862048
H  H114  1  0.92850000  0.91310000  0.24320000  1.0 0.1199862048
H  H115  1  0.16310000  0.41990000  0.48460000  1.0 0.1199862048
H  H116  1  0.93530000  0.67850000  0.51540000  1.0 0.1199862048
H  H117  1  0.58010000  0.83690000  0.51540000  1.0 0.1199862048
H  H118  1  0.32150000  0.06470000  0.48460000  1.0 0.1199862048
H  H119  1  0.08690000  0.07150000  0.75680000  1.0 0.1199862048
H  H120  1  0.31470000  0.33010000  0.24320000  1.0 0.1199862048
H  H121  1  0.58010000  0.06470000  0.74320000  1.0 0.1199862048
H  H122  1  0.32150000  0.83690000  0.25680000  1.0 0.1199862048
H  H123  1  0.08690000  0.33010000  0.01540000  1.0 0.1199862048
H  H124  1  0.31470000  0.07150000  0.98460000  1.0 0.1199862048
H  H125  1  0.66990000  0.91310000  0.98460000  1.0 0.1199862048
H  H126  1  0.92850000  0.68530000  0.01540000  1.0 0.1199862048
H  H127  1  0.16310000  0.67850000  0.74320000  1.0 0.1199862048
H  H128  1  0.93530000  0.41990000  0.25680000  1.0 0.1199862048
H  H129  1  0.82970000  0.82080000  0.76250000  1.0 0.1130382706
H  H130  1  0.05830000  0.06720000  0.23750000  1.0 0.1130382706
H  H131  1  0.31720000  0.57970000  0.50890000  1.0 0.1130382706
H  H132  1  0.07080000  0.80830000  0.49110000  1.0 0.1130382706
H  H133  1  0.42030000  0.68280000  0.49110000  1.0 0.1130382706
H  H134  1  0.19170000  0.92920000  0.50890000  1.0 0.1130382706
H  H135  1  0.93280000  0.94170000  0.76250000  1.0 0.1130382706
H  H136  1  0.17920000  0.17030000  0.23750000  1.0 0.1130382706
H  H137  1  0.42030000  0.92920000  0.73750000  1.0 0.1130382706
H  H138  1  0.19170000  0.68280000  0.26250000  1.0 0.1130382706
H  H139  1  0.93280000  0.17030000  0.99110000  1.0 0.1130382706
H  H140  1  0.17920000  0.94170000  0.00890000  1.0 0.1130382706
H  H141  1  0.82970000  0.06720000  0.00890000  1.0 0.1130382706
H  H142  1  0.05830000  0.82080000  0.99110000  1.0 0.1130382706
H  H143  1  0.31720000  0.80830000  0.73750000  1.0 0.1130382706
H  H144  1  0.07080000  0.57970000  0.26250000  1.0 0.1130382706
H  H145  1  0.63480000  0.69190000  0.68190000  1.0 0.1130382706
H  H146  1  0.01000000  0.95290000  0.31810000  1.0 0.1130382706
H  H147  1  0.20290000  0.38480000  0.44290000  1.0 0.1130382706
H  H148  1  0.94190000  0.76000000  0.55710000  1.0 0.1130382706
H  H149  1  0.61520000  0.79710000  0.55710000  1.0 0.1130382706
H  H150  1  0.24000000  0.05810000  0.44290000  1.0 0.1130382706
H  H151  1  0.04710000  0.99000000  0.68190000  1.0 0.1130382706
H  H152  1  0.30810000  0.36520000  0.31810000  1.0 0.1130382706
H  H153  1  0.61520000  0.05810000  0.81810000  1.0 0.1130382706
H  H154  1  0.24000000  0.79710000  0.18190000  1.0 0.1130382706
H  H155  1  0.04710000  0.36520000  0.05710000  1.0 0.1130382706
H  H156  1  0.30810000  0.99000000  0.94290000  1.0 0.1130382706
H  H157  1  0.63480000  0.95290000  0.94290000  1.0 0.1130382706
H  H158  1  0.01000000  0.69190000  0.05710000  1.0 0.1130382706
H  H159  1  0.20290000  0.76000000  0.81810000  1.0 0.1130382706
H  H160  1  0.94190000  0.38480000  0.18190000  1.0 0.1130382706
H  H161  1  0.86920000  0.86120000  0.84660000  1.0 0.1267983313
H  H162  1  0.01460000  0.02260000  0.15340000  1.0 0.1267983313
H  H163  1  0.27260000  0.61920000  0.50800000  1.0 0.1267983313
H  H164  1  0.11120000  0.76460000  0.49200000  1.0 0.1267983313
H  H165  1  0.38080000  0.72740000  0.49200000  1.0 0.1267983313
H  H166  1  0.23540000  0.88880000  0.50800000  1.0 0.1267983313
H  H167  1  0.97740000  0.98540000  0.84660000  1.0 0.1267983313
H  H168  1  0.13880000  0.13080000  0.15340000  1.0 0.1267983313
H  H169  1  0.38080000  0.88880000  0.65340000  1.0 0.1267983313
H  H170  1  0.23540000  0.72740000  0.34660000  1.0 0.1267983313
H  H171  1  0.97740000  0.13080000  0.99200000  1.0 0.1267983313
H  H172  1  0.13880000  0.98540000  0.00800000  1.0 0.1267983313
H  H173  1  0.86920000  0.02260000  0.00800000  1.0 0.1267983313
H  H174  1  0.01460000  0.86120000  0.99200000  1.0 0.1267983313
H  H175  1  0.27260000  0.76460000  0.65340000  1.0 0.1267983313
H  H176  1  0.11120000  0.61920000  0.34660000  1.0 0.1267983313
H  H177  1  0.70900000  0.72110000  0.84130000  1.0 0.1267983313
H  H178  1  0.87980000  0.86770000  0.15870000  1.0 0.1267983313
H  H179  1  0.11770000  0.45900000  0.48790000  1.0 0.1267983313
H  H180  1  0.97110000  0.62980000  0.51210000  1.0 0.1267983313
H  H181  1  0.54100000  0.88230000  0.51210000  1.0 0.1267983313
H  H182  1  0.37020000  0.02890000  0.48790000  1.0 0.1267983313
H  H183  1  0.13230000  0.12020000  0.84130000  1.0 0.1267983313
H  H184  1  0.27890000  0.29100000  0.15870000  1.0 0.1267983313
H  H185  1  0.54100000  0.02890000  0.65870000  1.0 0.1267983313
H  H186  1  0.37020000  0.88230000  0.34130000  1.0 0.1267983313
H  H187  1  0.13230000  0.29100000  0.01210000  1.0 0.1267983313
H  H188  1  0.27890000  0.12020000  0.98790000  1.0 0.1267983313
H  H189  1  0.70900000  0.86770000  0.98790000  1.0 0.1267983313
H  H190  1  0.87980000  0.72110000  0.01210000  1.0 0.1267983313
H  H191  1  0.11770000  0.62980000  0.65870000  1.0 0.1267983313
H  H192  1  0.97110000  0.45900000  0.34130000  1.0 0.1267983313
H  H193  1  0.71380000  0.62580000  0.45440000  1.0 0.0795660445
H  H194  1  0.17140000  0.25940000  0.54560000  1.0 0.0795660445
H  H195  1  0.50940000  0.46380000  0.58800000  1.0 0.0795660445
H  H196  1  0.87580000  0.92140000  0.41200000  1.0 0.0795660445
H  H197  1  0.53620000  0.49060000  0.41200000  1.0 0.0795660445
H  H198  1  0.07860000  0.12420000  0.58800000  1.0 0.0795660445
H  H199  1  0.74060000  0.82860000  0.45440000  1.0 0.0795660445
H  H200  1  0.37420000  0.28620000  0.54560000  1.0 0.0795660445
H  H201  1  0.53620000  0.12420000  0.04560000  1.0 0.0795660445
H  H202  1  0.07860000  0.49060000  0.95440000  1.0 0.0795660445
H  H203  1  0.74060000  0.28620000  0.91200000  1.0 0.0795660445
H  H204  1  0.37420000  0.82860000  0.08800000  1.0 0.0795660445
H  H205  1  0.71380000  0.25940000  0.08800000  1.0 0.0795660445
H  H206  1  0.17140000  0.62580000  0.91200000  1.0 0.0795660445
H  H207  1  0.50940000  0.92140000  0.04560000  1.0 0.0795660445
H  H208  1  0.87580000  0.46380000  0.95440000  1.0 0.0795660445
H  H209  1  0.74220000  0.68780000  0.44940000  1.0 0.0900202764
H  H210  1  0.23840000  0.29280000  0.55060000  1.0 0.0900202764
H  H211  1  0.54280000  0.49220000  0.55440000  1.0 0.0900202764
H  H212  1  0.93780000  0.98840000  0.44560000  1.0 0.0900202764
H  H213  1  0.50780000  0.45720000  0.44560000  1.0 0.0900202764
H  H214  1  0.01160000  0.06220000  0.55440000  1.0 0.0900202764
H  H215  1  0.70720000  0.76160000  0.44940000  1.0 0.0900202764
H  H216  1  0.31220000  0.25780000  0.55060000  1.0 0.0900202764
H  H217  1  0.50780000  0.06220000  0.05060000  1.0 0.0900202764
H  H218  1  0.01160000  0.45720000  0.94940000  1.0 0.0900202764
H  H219  1  0.70720000  0.25780000  0.94560000  1.0 0.0900202764
H  H220  1  0.31220000  0.76160000  0.05440000  1.0 0.0900202764
H  H221  1  0.74220000  0.29280000  0.05440000  1.0 0.0900202764
H  H222  1  0.23840000  0.68780000  0.94560000  1.0 0.0900202764
H  H223  1  0.54280000  0.98840000  0.05060000  1.0 0.0900202764
H  H224  1  0.93780000  0.49220000  0.94940000  1.0 0.0900202764
H  H225  1  0.62350000  0.58220000  0.38690000  1.0 0.1199862048
H  H226  1  0.19530000  0.23660000  0.61310000  1.0 0.1199862048
H  H227  1  0.48660000  0.37350000  0.54130000  1.0 0.1199862048
H  H228  1  0.83220000  0.94530000  0.45870000  1.0 0.1199862048
H  H229  1  0.62650000  0.51340000  0.45870000  1.0 0.1199862048
H  H230  1  0.05470000  0.16780000  0.54130000  1.0 0.1199862048
H  H231  1  0.76340000  0.80470000  0.38690000  1.0 0.1199862048
H  H232  1  0.41780000  0.37650000  0.61310000  1.0 0.1199862048
H  H233  1  0.62650000  0.16780000  0.11310000  1.0 0.1199862048
H  H234  1  0.05470000  0.51340000  0.88690000  1.0 0.1199862048
H  H235  1  0.76340000  0.37650000  0.95870000  1.0 0.1199862048
H  H236  1  0.41780000  0.80470000  0.04130000  1.0 0.1199862048
H  H237  1  0.62350000  0.23660000  0.04130000  1.0 0.1199862048
H  H238  1  0.19530000  0.58220000  0.95870000  1.0 0.1199862048
H  H239  1  0.48660000  0.94530000  0.11310000  1.0 0.1199862048
H  H240  1  0.83220000  0.37350000  0.88690000  1.0 0.1199862048
H  H241  1  0.67800000  0.59950000  0.37330000  1.0 0.1199862048
H  H242  1  0.22620000  0.30470000  0.62670000  1.0 0.1199862048
H  H243  1  0.55470000  0.42800000  0.57850000  1.0 0.1199862048
H  H244  1  0.84950000  0.97620000  0.42150000  1.0 0.1199862048
H  H245  1  0.57200000  0.44530000  0.42150000  1.0 0.1199862048
H  H246  1  0.02380000  0.15050000  0.57850000  1.0 0.1199862048
H  H247  1  0.69530000  0.77380000  0.37330000  1.0 0.1199862048
H  H248  1  0.40050000  0.32200000  0.62670000  1.0 0.1199862048
H  H249  1  0.57200000  0.15050000  0.12670000  1.0 0.1199862048
H  H250  1  0.02380000  0.44530000  0.87330000  1.0 0.1199862048
H  H251  1  0.69530000  0.32200000  0.92150000  1.0 0.1199862048
H  H252  1  0.40050000  0.77380000  0.07850000  1.0 0.1199862048
H  H253  1  0.67800000  0.30470000  0.07850000  1.0 0.1199862048
H  H254  1  0.22620000  0.59950000  0.92150000  1.0 0.1199862048
H  H255  1  0.55470000  0.97620000  0.12670000  1.0 0.1199862048
H  H256  1  0.84950000  0.42800000  0.87330000  1.0 0.1199862048
H  H257  1  0.66420000  0.64230000  0.37870000  1.0 0.1199862048
H  H258  1  0.26360000  0.28550000  0.62130000  1.0 0.1199862048
H  H259  1  0.53550000  0.41420000  0.52190000  1.0 0.1199862048
H  H260  1  0.89230000  0.01360000  0.47810000  1.0 0.1199862048
H  H261  1  0.58580000  0.46450000  0.47810000  1.0 0.1199862048
H  H262  1  0.98640000  0.10770000  0.52190000  1.0 0.1199862048
H  H263  1  0.71450000  0.73640000  0.37870000  1.0 0.1199862048
H  H264  1  0.35770000  0.33580000  0.62130000  1.0 0.1199862048
H  H265  1  0.58580000  0.10770000  0.12130000  1.0 0.1199862048
H  H266  1  0.98640000  0.46450000  0.87870000  1.0 0.1199862048
H  H267  1  0.71450000  0.33580000  0.97810000  1.0 0.1199862048
H  H268  1  0.35770000  0.73640000  0.02190000  1.0 0.1199862048
H  H269  1  0.66420000  0.28550000  0.02190000  1.0 0.1199862048
H  H270  1  0.26360000  0.64230000  0.97810000  1.0 0.1199862048
H  H271  1  0.53550000  0.01360000  0.12130000  1.0 0.1199862048
H  H272  1  0.89230000  0.41420000  0.87870000  1.0 0.1199862048
C  C1  1  0.01603000  0.81987000  0.70740000  1.0 0.5772439909
C  C2  1  0.11247000  0.30863000  0.29260000  1.0 0.5772439909
C  C3  1  0.55863000  0.76603000  0.69616000  1.0 0.5772439909
C  C4  1  0.06987000  0.86247000  0.30384000  1.0 0.5772439909
C  C5  1  0.23397000  0.44137000  0.30384000  1.0 0.5772439909
C  C6  1  0.13753000  0.93013000  0.69616000  1.0 0.5772439909
C  C7  1  0.69137000  0.88753000  0.70740000  1.0 0.5772439909
C  C8  1  0.18013000  0.98397000  0.29260000  1.0 0.5772439909
C  C9  1  0.23397000  0.93013000  0.79260000  1.0 0.5772439909
C  C10  1  0.13753000  0.44137000  0.20740000  1.0 0.5772439909
C  C11  1  0.69137000  0.98397000  0.80384000  1.0 0.5772439909
C  C12  1  0.18013000  0.88753000  0.19616000  1.0 0.5772439909
C  C13  1  0.01603000  0.30863000  0.19616000  1.0 0.5772439909
C  C14  1  0.11247000  0.81987000  0.80384000  1.0 0.5772439909
C  C15  1  0.55863000  0.86247000  0.79260000  1.0 0.5772439909
C  C16  1  0.06987000  0.76603000  0.20740000  1.0 0.5772439909
C  C17  1  0.95317000  0.79341000  0.67846000  1.0 -0.0112580074
C  C18  1  0.11495000  0.27471000  0.32154000  1.0 -0.0112580074
C  C19  1  0.52471000  0.70317000  0.65976000  1.0 -0.0112580074
C  C20  1  0.04341000  0.86495000  0.34024000  1.0 -0.0112580074
C  C21  1  0.29683000  0.47529000  0.34024000  1.0 -0.0112580074
C  C22  1  0.13505000  0.95659000  0.65976000  1.0 -0.0112580074
C  C23  1  0.72529000  0.88505000  0.67846000  1.0 -0.0112580074
C  C24  1  0.20659000  0.04683000  0.32154000  1.0 -0.0112580074
C  C25  1  0.29683000  0.95659000  0.82154000  1.0 -0.0112580074
C  C26  1  0.13505000  0.47529000  0.17846000  1.0 -0.0112580074
C  C27  1  0.72529000  0.04683000  0.84024000  1.0 -0.0112580074
C  C28  1  0.20659000  0.88505000  0.15976000  1.0 -0.0112580074
C  C29  1  0.95317000  0.27471000  0.15976000  1.0 -0.0112580074
C  C30  1  0.11495000  0.79341000  0.84024000  1.0 -0.0112580074
C  C31  1  0.52471000  0.86495000  0.82154000  1.0 -0.0112580074
C  C32  1  0.04341000  0.70317000  0.17846000  1.0 -0.0112580074
C  C33  1  0.67660000  0.68400000  0.59238000  1.0 0.0420827492
C  C34  1  0.09162000  0.08422000  0.40762000  1.0 0.0420827492
C  C35  1  0.33422000  0.42660000  0.49260000  1.0 0.0420827492
C  C36  1  0.93400000  0.84162000  0.50740000  1.0 0.0420827492
C  C37  1  0.57340000  0.66578000  0.50740000  1.0 0.0420827492
C  C38  1  0.15838000  0.06600000  0.49260000  1.0 0.0420827492
C  C39  1  0.91578000  0.90838000  0.59238000  1.0 0.0420827492
C  C40  1  0.31600000  0.32340000  0.40762000  1.0 0.0420827492
C  C41  1  0.57340000  0.06600000  0.90762000  1.0 0.0420827492
C  C42  1  0.15838000  0.66578000  0.09238000  1.0 0.0420827492
C  C43  1  0.91578000  0.32340000  0.00740000  1.0 0.0420827492
C  C44  1  0.31600000  0.90838000  0.99260000  1.0 0.0420827492
C  C45  1  0.67660000  0.08422000  0.99260000  1.0 0.0420827492
C  C46  1  0.09162000  0.68400000  0.00740000  1.0 0.0420827492
C  C47  1  0.33422000  0.84162000  0.90762000  1.0 0.0420827492
C  C48  1  0.93400000  0.42660000  0.09238000  1.0 0.0420827492
C  C49  1  0.93772000  0.82740000  0.68922000  1.0 -0.0990478674
C  C50  1  0.13818000  0.24850000  0.31078000  1.0 -0.0990478674
C  C51  1  0.49850000  0.68772000  0.61032000  1.0 -0.0990478674
C  C52  1  0.07740000  0.88818000  0.38968000  1.0 -0.0990478674
C  C53  1  0.31228000  0.50150000  0.38968000  1.0 -0.0990478674
C  C54  1  0.11182000  0.92260000  0.61032000  1.0 -0.0990478674
C  C55  1  0.75150000  0.86182000  0.68922000  1.0 -0.0990478674
C  C56  1  0.17260000  0.06228000  0.31078000  1.0 -0.0990478674
C  C57  1  0.31228000  0.92260000  0.81078000  1.0 -0.0990478674
C  C58  1  0.11182000  0.50150000  0.18922000  1.0 -0.0990478674
C  C59  1  0.75150000  0.06228000  0.88968000  1.0 -0.0990478674
C  C60  1  0.17260000  0.86182000  0.11032000  1.0 -0.0990478674
C  C61  1  0.93772000  0.24850000  0.11032000  1.0 -0.0990478674
C  C62  1  0.13818000  0.82740000  0.88968000  1.0 -0.0990478674
C  C63  1  0.49850000  0.88818000  0.81078000  1.0 -0.0990478674
C  C64  1  0.07740000  0.68772000  0.18922000  1.0 -0.0990478674
C  C65  1  0.75471000  0.70153000  0.54778000  1.0 -0.2797191537
C  C66  1  0.15375000  0.20693000  0.45222000  1.0 -0.2797191537
C  C67  1  0.45693000  0.50471000  0.55318000  1.0 -0.2797191537
C  C68  1  0.95153000  0.90375000  0.44682000  1.0 -0.2797191537
C  C69  1  0.49529000  0.54307000  0.44682000  1.0 -0.2797191537
C  C70  1  0.09625000  0.04847000  0.55318000  1.0 -0.2797191537
C  C71  1  0.79307000  0.84625000  0.54778000  1.0 -0.2797191537
C  C72  1  0.29847000  0.24529000  0.45222000  1.0 -0.2797191537
C  C73  1  0.49529000  0.04847000  0.95222000  1.0 -0.2797191537
C  C74  1  0.09625000  0.54307000  0.04778000  1.0 -0.2797191537
C  C75  1  0.79307000  0.24529000  0.94682000  1.0 -0.2797191537
C  C76  1  0.29847000  0.84625000  0.05318000  1.0 -0.2797191537
C  C77  1  0.75471000  0.20693000  0.05318000  1.0 -0.2797191537
C  C78  1  0.15375000  0.70153000  0.94682000  1.0 -0.2797191537
C  C79  1  0.45693000  0.90375000  0.95222000  1.0 -0.2797191537
C  C80  1  0.95153000  0.50471000  0.04778000  1.0 -0.2797191537
C  C81  1  0.69519000  0.67410000  0.51903000  1.0 0.2120395226
C  C82  1  0.15507000  0.17616000  0.48097000  1.0 0.2120395226
C  C83  1  0.42616000  0.44519000  0.52109000  1.0 0.2120395226
C  C84  1  0.92410000  0.90507000  0.47891000  1.0 0.2120395226
C  C85  1  0.55481000  0.57384000  0.47891000  1.0 0.2120395226
C  C86  1  0.09493000  0.07590000  0.52109000  1.0 0.2120395226
C  C87  1  0.82384000  0.84493000  0.51903000  1.0 0.2120395226
C  C88  1  0.32590000  0.30481000  0.48097000  1.0 0.2120395226
C  C89  1  0.55481000  0.07590000  0.98097000  1.0 0.2120395226
C  C90  1  0.09493000  0.57384000  0.01903000  1.0 0.2120395226
C  C91  1  0.82384000  0.30481000  0.97891000  1.0 0.2120395226
C  C92  1  0.32590000  0.84493000  0.02109000  1.0 0.2120395226
C  C93  1  0.69519000  0.17616000  0.02109000  1.0 0.2120395226
C  C94  1  0.15507000  0.67410000  0.97891000  1.0 0.2120395226
C  C95  1  0.42616000  0.90507000  0.98097000  1.0 0.2120395226
C  C96  1  0.92410000  0.44519000  0.01903000  1.0 0.2120395226
C  C97  1  0.73681000  0.71162000  0.62113000  1.0 0.0256099463
C  C98  1  0.09049000  0.11568000  0.37887000  1.0 0.0256099463
C  C99  1  0.36568000  0.48681000  0.52519000  1.0 0.0256099463
C  C100  1  0.96162000  0.84049000  0.47481000  1.0 0.0256099463
C  C101  1  0.51319000  0.63432000  0.47481000  1.0 0.0256099463
C  C102  1  0.15951000  0.03838000  0.52519000  1.0 0.0256099463
C  C103  1  0.88432000  0.90951000  0.62113000  1.0 0.0256099463
C  C104  1  0.28838000  0.26319000  0.37887000  1.0 0.0256099463
C  C105  1  0.51319000  0.03838000  0.87887000  1.0 0.0256099463
C  C106  1  0.15951000  0.63432000  0.12113000  1.0 0.0256099463
C  C107  1  0.88432000  0.26319000  0.97481000  1.0 0.0256099463
C  C108  1  0.28838000  0.90951000  0.02519000  1.0 0.0256099463
C  C109  1  0.73681000  0.11568000  0.02519000  1.0 0.0256099463
C  C110  1  0.09049000  0.71162000  0.97481000  1.0 0.0256099463
C  C111  1  0.36568000  0.84049000  0.87887000  1.0 0.0256099463
C  C112  1  0.96162000  0.48681000  0.12113000  1.0 0.0256099463
C  C113  1  0.91225000  0.73749000  0.64068000  1.0 -0.0990478674
C  C114  1  0.09681000  0.27157000  0.35932000  1.0 -0.0990478674
C  C115  1  0.52157000  0.66225000  0.67476000  1.0 -0.0990478674
C  C116  1  0.98749000  0.84681000  0.32524000  1.0 -0.0990478674
C  C117  1  0.33775000  0.47843000  0.32524000  1.0 -0.0990478674
C  C118  1  0.15319000  0.01251000  0.67476000  1.0 -0.0990478674
C  C119  1  0.72843000  0.90319000  0.64068000  1.0 -0.0990478674
C  C120  1  0.26251000  0.08775000  0.35932000  1.0 -0.0990478674
C  C121  1  0.33775000  0.01251000  0.85932000  1.0 -0.0990478674
C  C122  1  0.15319000  0.47843000  0.14068000  1.0 -0.0990478674
C  C123  1  0.72843000  0.08775000  0.82524000  1.0 -0.0990478674
C  C124  1  0.26251000  0.90319000  0.17476000  1.0 -0.0990478674
C  C125  1  0.91225000  0.27157000  0.17476000  1.0 -0.0990478674
C  C126  1  0.09681000  0.73749000  0.82524000  1.0 -0.0990478674
C  C127  1  0.52157000  0.84681000  0.85932000  1.0 -0.0990478674
C  C128  1  0.98749000  0.66225000  0.14068000  1.0 -0.0990478674
C  C129  1  0.75537000  0.72901000  0.67260000  1.0 -0.197620325
C  C130  1  0.05641000  0.08277000  0.32740000  1.0 -0.197620325
C  C131  1  0.33277000  0.50537000  0.52636000  1.0 -0.197620325
C  C132  1  0.97901000  0.80641000  0.47364000  1.0 -0.197620325
C  C133  1  0.49463000  0.66723000  0.47364000  1.0 -0.197620325
C  C134  1  0.19359000  0.02099000  0.52636000  1.0 -0.197620325
C  C135  1  0.91723000  0.94359000  0.67260000  1.0 -0.197620325
C  C136  1  0.27099000  0.24463000  0.32740000  1.0 -0.197620325
C  C137  1  0.49463000  0.02099000  0.82740000  1.0 -0.197620325
C  C138  1  0.19359000  0.66723000  0.17260000  1.0 -0.197620325
C  C139  1  0.91723000  0.24463000  0.97364000  1.0 -0.197620325
C  C140  1  0.27099000  0.94359000  0.02636000  1.0 -0.197620325
C  C141  1  0.75537000  0.08277000  0.02636000  1.0 -0.197620325
C  C142  1  0.05641000  0.72901000  0.97364000  1.0 -0.197620325
C  C143  1  0.33277000  0.80641000  0.82740000  1.0 -0.197620325
C  C144  1  0.97901000  0.50537000  0.17260000  1.0 -0.197620325
C  C145  1  0.83758000  0.74588000  0.62574000  1.0 0.0795660445
C  C146  1  0.12014000  0.21184000  0.37426000  1.0 0.0795660445
C  C147  1  0.46184000  0.58758000  0.59170000  1.0 0.0795660445
C  C148  1  0.99588000  0.87014000  0.40830000  1.0 0.0795660445
C  C149  1  0.41242000  0.53816000  0.40830000  1.0 0.0795660445
C  C150  1  0.12986000  0.00412000  0.59170000  1.0 0.0795660445
C  C151  1  0.78816000  0.87986000  0.62574000  1.0 0.0795660445
C  C152  1  0.25412000  0.16242000  0.37426000  1.0 0.0795660445
C  C153  1  0.41242000  0.00412000  0.87426000  1.0 0.0795660445
C  C154  1  0.12986000  0.53816000  0.12574000  1.0 0.0795660445
C  C155  1  0.78816000  0.16242000  0.90830000  1.0 0.0795660445
C  C156  1  0.25412000  0.87986000  0.09170000  1.0 0.0795660445
C  C157  1  0.83758000  0.21184000  0.09170000  1.0 0.0795660445
C  C158  1  0.12014000  0.74588000  0.90830000  1.0 0.0795660445
C  C159  1  0.46184000  0.87014000  0.87426000  1.0 0.0795660445
C  C160  1  0.99588000  0.58758000  0.12574000  1.0 0.0795660445
C  C161  1  0.65672000  0.66539000  0.54049000  1.0 -0.0797104754
C  C162  1  0.12490000  0.11623000  0.45951000  1.0 -0.0797104754
C  C163  1  0.36623000  0.40672000  0.49133000  1.0 -0.0797104754
C  C164  1  0.91539000  0.87490000  0.50867000  1.0 -0.0797104754
C  C165  1  0.59328000  0.63377000  0.50867000  1.0 -0.0797104754
C  C166  1  0.12510000  0.08461000  0.49133000  1.0 -0.0797104754
C  C167  1  0.88377000  0.87510000  0.54049000  1.0 -0.0797104754
C  C168  1  0.33461000  0.34328000  0.45951000  1.0 -0.0797104754
C  C169  1  0.59328000  0.08461000  0.95951000  1.0 -0.0797104754
C  C170  1  0.12510000  0.63377000  0.04049000  1.0 -0.0797104754
C  C171  1  0.88377000  0.34328000  0.00867000  1.0 -0.0797104754
C  C172  1  0.33461000  0.87510000  0.99133000  1.0 -0.0797104754
C  C173  1  0.65672000  0.11623000  0.99133000  1.0 -0.0797104754
C  C174  1  0.12490000  0.66539000  0.00867000  1.0 -0.0797104754
C  C175  1  0.36623000  0.87490000  0.95951000  1.0 -0.0797104754
C  C176  1  0.91539000  0.40672000  0.04049000  1.0 -0.0797104754
C  C177  1  0.77512000  0.71921000  0.59737000  1.0 0.0420827492
C  C178  1  0.12184000  0.17775000  0.40263000  1.0 0.0420827492
C  C179  1  0.42775000  0.52512000  0.55591000  1.0 0.0420827492
C  C180  1  0.96921000  0.87184000  0.44409000  1.0 0.0420827492
C  C181  1  0.47488000  0.57225000  0.44409000  1.0 0.0420827492
C  C182  1  0.12816000  0.03079000  0.55591000  1.0 0.0420827492
C  C183  1  0.82225000  0.87816000  0.59737000  1.0 0.0420827492
C  C184  1  0.28079000  0.22488000  0.40263000  1.0 0.0420827492
C  C185  1  0.47488000  0.03079000  0.90263000  1.0 0.0420827492
C  C186  1  0.12816000  0.57225000  0.09737000  1.0 0.0420827492
C  C187  1  0.82225000  0.22488000  0.94409000  1.0 0.0420827492
C  C188  1  0.28079000  0.87816000  0.05591000  1.0 0.0420827492
C  C189  1  0.77512000  0.17775000  0.05591000  1.0 0.0420827492
C  C190  1  0.12184000  0.71921000  0.94409000  1.0 0.0420827492
C  C191  1  0.42775000  0.87184000  0.90263000  1.0 0.0420827492
C  C192  1  0.96921000  0.52512000  0.09737000  1.0 0.0420827492
C  C193  1  0.88003000  0.80342000  0.66203000  1.0 -0.1622170631
C  C194  1  0.14139000  0.21800000  0.33797000  1.0 -0.1622170631
C  C195  1  0.46800000  0.63003000  0.57661000  1.0 -0.1622170631
C  C196  1  0.05342000  0.89139000  0.42339000  1.0 -0.1622170631
C  C197  1  0.36997000  0.53200000  0.42339000  1.0 -0.1622170631
C  C198  1  0.10861000  0.94658000  0.57661000  1.0 -0.1622170631
C  C199  1  0.78200000  0.85861000  0.66203000  1.0 -0.1622170631
C  C200  1  0.19658000  0.11997000  0.33797000  1.0 -0.1622170631
C  C201  1  0.36997000  0.94658000  0.83797000  1.0 -0.1622170631
C  C202  1  0.10861000  0.53200000  0.16203000  1.0 -0.1622170631
C  C203  1  0.78200000  0.11997000  0.92339000  1.0 -0.1622170631
C  C204  1  0.19658000  0.85861000  0.07661000  1.0 -0.1622170631
C  C205  1  0.88003000  0.21800000  0.07661000  1.0 -0.1622170631
C  C206  1  0.14139000  0.80342000  0.92339000  1.0 -0.1622170631
C  C207  1  0.46800000  0.89139000  0.83797000  1.0 -0.1622170631
C  C208  1  0.05342000  0.63003000  0.16203000  1.0 -0.1622170631
C  C209  1  0.85442000  0.71359000  0.61461000  1.0 -0.1499286632
C  C210  1  0.09898000  0.23981000  0.38539000  1.0 -0.1499286632
C  C211  1  0.48981000  0.60442000  0.64083000  1.0 -0.1499286632
C  C212  1  0.96359000  0.84898000  0.35917000  1.0 -0.1499286632
C  C213  1  0.39558000  0.51019000  0.35917000  1.0 -0.1499286632
C  C214  1  0.15102000  0.03641000  0.64083000  1.0 -0.1499286632
C  C215  1  0.76019000  0.90102000  0.61461000  1.0 -0.1499286632
C  C216  1  0.28641000  0.14558000  0.38539000  1.0 -0.1499286632
C  C217  1  0.39558000  0.03641000  0.88539000  1.0 -0.1499286632
C  C218  1  0.15102000  0.51019000  0.11461000  1.0 -0.1499286632
C  C219  1  0.76019000  0.14558000  0.85917000  1.0 -0.1499286632
C  C220  1  0.28641000  0.90102000  0.14083000  1.0 -0.1499286632
C  C221  1  0.85442000  0.23981000  0.14083000  1.0 -0.1499286632
C  C222  1  0.09898000  0.71359000  0.85917000  1.0 -0.1499286632
C  C223  1  0.48981000  0.84898000  0.88539000  1.0 -0.1499286632
C  C224  1  0.96359000  0.60442000  0.11461000  1.0 -0.1499286632
C  C225  1  0.71983000  0.72373000  0.69610000  1.0 0.0795660445
C  C226  1  0.02763000  0.02373000  0.30390000  1.0 0.0795660445
C  C227  1  0.27373000  0.46983000  0.49610000  1.0 0.0795660445
C  C228  1  0.97373000  0.77763000  0.50390000  1.0 0.0795660445
C  C229  1  0.53017000  0.72627000  0.50390000  1.0 0.0795660445
C  C230  1  0.22237000  0.02627000  0.49610000  1.0 0.0795660445
C  C231  1  0.97627000  0.97237000  0.69610000  1.0 0.0795660445
C  C232  1  0.27627000  0.28017000  0.30390000  1.0 0.0795660445
C  C233  1  0.53017000  0.02627000  0.80390000  1.0 0.0795660445
C  C234  1  0.22237000  0.72627000  0.19610000  1.0 0.0795660445
C  C235  1  0.97627000  0.28017000  0.00390000  1.0 0.0795660445
C  C236  1  0.27627000  0.97237000  0.99610000  1.0 0.0795660445
C  C237  1  0.71983000  0.02373000  0.99610000  1.0 0.0795660445
C  C238  1  0.02763000  0.72373000  0.00390000  1.0 0.0795660445
C  C239  1  0.27373000  0.77763000  0.80390000  1.0 0.0795660445
C  C240  1  0.97373000  0.46983000  0.19610000  1.0 0.0795660445
C  C241  1  0.63973000  0.67620000  0.61709000  1.0 -0.1405649672
C  C242  1  0.05911000  0.02264000  0.38291000  1.0 -0.1405649672
C  C243  1  0.27264000  0.38973000  0.46353000  1.0 -0.1405649672
C  C244  1  0.92620000  0.80911000  0.53647000  1.0 -0.1405649672
C  C245  1  0.61027000  0.72736000  0.53647000  1.0 -0.1405649672
C  C246  1  0.19089000  0.07380000  0.46353000  1.0 -0.1405649672
C  C247  1  0.97736000  0.94089000  0.61709000  1.0 -0.1405649672
C  C248  1  0.32380000  0.36027000  0.38291000  1.0 -0.1405649672
C  C249  1  0.61027000  0.07380000  0.88291000  1.0 -0.1405649672
C  C250  1  0.19089000  0.72736000  0.11709000  1.0 -0.1405649672
C  C251  1  0.97736000  0.36027000  0.03647000  1.0 -0.1405649672
C  C252  1  0.32380000  0.94089000  0.96353000  1.0 -0.1405649672
C  C253  1  0.63973000  0.02264000  0.96353000  1.0 -0.1405649672
C  C254  1  0.05911000  0.67620000  0.03647000  1.0 -0.1405649672
C  C255  1  0.27264000  0.80911000  0.88291000  1.0 -0.1405649672
C  C256  1  0.92620000  0.38973000  0.11709000  1.0 -0.1405649672
C  C257  1  0.82007000  0.82061000  0.90828000  1.0 0.5772439909
C  C258  1  0.91233000  0.91179000  0.09172000  1.0 0.5772439909
C  C259  1  0.16179000  0.57007000  0.49946000  1.0 0.5772439909
C  C260  1  0.07061000  0.66233000  0.50054000  1.0 0.5772439909
C  C261  1  0.42993000  0.83821000  0.50054000  1.0 0.5772439909
C  C262  1  0.33767000  0.92939000  0.49946000  1.0 0.5772439909
C  C263  1  0.08821000  0.08767000  0.90828000  1.0 0.5772439909
C  C264  1  0.17939000  0.17993000  0.09172000  1.0 0.5772439909
C  C265  1  0.42993000  0.92939000  0.59172000  1.0 0.5772439909
C  C266  1  0.33767000  0.83821000  0.40828000  1.0 0.5772439909
C  C267  1  0.08821000  0.17993000  0.00054000  1.0 0.5772439909
C  C268  1  0.17939000  0.08767000  0.99946000  1.0 0.5772439909
C  C269  1  0.82007000  0.91179000  0.99946000  1.0 0.5772439909
C  C270  1  0.91233000  0.82061000  0.00054000  1.0 0.5772439909
C  C271  1  0.16179000  0.66233000  0.59172000  1.0 0.5772439909
C  C272  1  0.07061000  0.57007000  0.40828000  1.0 0.5772439909
C  C273  1  0.71076000  0.72046000  0.77496000  1.0 -0.1499286632
C  C274  1  0.94550000  0.93580000  0.22504000  1.0 -0.1499286632
C  C275  1  0.18580000  0.46076000  0.49030000  1.0 -0.1499286632
C  C276  1  0.97046000  0.69550000  0.50970000  1.0 -0.1499286632
C  C277  1  0.53924000  0.81420000  0.50970000  1.0 -0.1499286632
C  C278  1  0.30450000  0.02954000  0.49030000  1.0 -0.1499286632
C  C279  1  0.06420000  0.05450000  0.77496000  1.0 -0.1499286632
C  C280  1  0.27954000  0.28924000  0.22504000  1.0 -0.1499286632
C  C281  1  0.53924000  0.02954000  0.72504000  1.0 -0.1499286632
C  C282  1  0.30450000  0.81420000  0.27496000  1.0 -0.1499286632
C  C283  1  0.06420000  0.28924000  0.00970000  1.0 -0.1499286632
C  C284  1  0.27954000  0.05450000  0.99030000  1.0 -0.1499286632
C  C285  1  0.71076000  0.93580000  0.99030000  1.0 -0.1499286632
C  C286  1  0.94550000  0.72046000  0.00970000  1.0 -0.1499286632
C  C287  1  0.18580000  0.69550000  0.72504000  1.0 -0.1499286632
C  C288  1  0.97046000  0.46076000  0.27496000  1.0 -0.1499286632
C  C289  1  0.80507000  0.80104000  0.77863000  1.0 -0.1622170631
C  C290  1  0.02241000  0.02644000  0.22137000  1.0 -0.1622170631
C  C291  1  0.27644000  0.55507000  0.50403000  1.0 -0.1622170631
C  C292  1  0.05104000  0.77241000  0.49597000  1.0 -0.1622170631
C  C293  1  0.44493000  0.72356000  0.49597000  1.0 -0.1622170631
C  C294  1  0.22759000  0.94896000  0.50403000  1.0 -0.1622170631
C  C295  1  0.97356000  0.97759000  0.77863000  1.0 -0.1622170631
C  C296  1  0.19896000  0.19493000  0.22137000  1.0 -0.1622170631
C  C297  1  0.44493000  0.94896000  0.72137000  1.0 -0.1622170631
C  C298  1  0.22759000  0.72356000  0.27863000  1.0 -0.1622170631
C  C299  1  0.97356000  0.19493000  0.99597000  1.0 -0.1622170631
C  C300  1  0.19896000  0.97759000  0.00403000  1.0 -0.1622170631
C  C301  1  0.80507000  0.02644000  0.00403000  1.0 -0.1622170631
C  C302  1  0.02241000  0.80104000  0.99597000  1.0 -0.1622170631
C  C303  1  0.27644000  0.77241000  0.72137000  1.0 -0.1622170631
C  C304  1  0.05104000  0.55507000  0.27863000  1.0 -0.1622170631
C  C305  1  0.79347000  0.79413000  0.85342000  1.0 -0.0281032407
C  C306  1  0.94071000  0.94005000  0.14658000  1.0 -0.0281032407
C  C307  1  0.19005000  0.54347000  0.49934000  1.0 -0.0281032407
C  C308  1  0.04413000  0.69071000  0.50066000  1.0 -0.0281032407
C  C309  1  0.45653000  0.80995000  0.50066000  1.0 -0.0281032407
C  C310  1  0.30929000  0.95587000  0.49934000  1.0 -0.0281032407
C  C311  1  0.05995000  0.05929000  0.85342000  1.0 -0.0281032407
C  C312  1  0.20587000  0.20653000  0.14658000  1.0 -0.0281032407
C  C313  1  0.45653000  0.95587000  0.64658000  1.0 -0.0281032407
C  C314  1  0.30929000  0.80995000  0.35342000  1.0 -0.0281032407
C  C315  1  0.05995000  0.20653000  0.00066000  1.0 -0.0281032407
C  C316  1  0.20587000  0.05929000  0.99934000  1.0 -0.0281032407
C  C317  1  0.79347000  0.94005000  0.99934000  1.0 -0.0281032407
C  C318  1  0.94071000  0.79413000  0.00066000  1.0 -0.0281032407
C  C319  1  0.19005000  0.69071000  0.64658000  1.0 -0.0281032407
C  C320  1  0.04413000  0.54347000  0.35342000  1.0 -0.0281032407
C  C321  1  0.74488000  0.74824000  0.75076000  1.0 0.0745281351
C  C322  1  0.99748000  0.99412000  0.24924000  1.0 0.0795660445
C  C323  1  0.24412000  0.49488000  0.49664000  1.0 0.0795660445
C  C324  1  0.99824000  0.74748000  0.50336000  1.0 0.0795660445
C  C325  1  0.50512000  0.75588000  0.50336000  1.0 0.0795660445
C  C326  1  0.25252000  0.00176000  0.49664000  1.0 0.0795660445
C  C327  1  0.00588000  0.00252000  0.75076000  1.0 0.0795660445
C  C328  1  0.25176000  0.25512000  0.24924000  1.0 0.0795660445
C  C329  1  0.50512000  0.00176000  0.74924000  1.0 0.0745281351
C  C330  1  0.25252000  0.75588000  0.25076000  1.0 0.0795660445
C  C331  1  0.00588000  0.25512000  0.00336000  1.0 0.0795660445
C  C332  1  0.25176000  0.00252000  0.99664000  1.0 0.0795660445
C  C333  1  0.74488000  0.99412000  0.99664000  1.0 0.0795660445
C  C334  1  0.99748000  0.74824000  0.00336000  1.0 0.0795660445
C  C335  1  0.24412000  0.74748000  0.74924000  1.0 0.0795660445
C  C336  1  0.99824000  0.49488000  0.25076000  1.0 0.0795660445
C  C337  1  0.66048000  0.69631000  0.66666667  1.0 -0.1499286632
C  C338  1  0.02960000  0.99377000  0.33329000  1.0 -0.1499286632
C  C339  1  0.24377000  0.41048000  0.46417000  1.0 -0.1499286632
C  C340  1  0.94631000  0.77960000  0.53583000  1.0 -0.1499286632
C  C341  1  0.58952000  0.75623000  0.53583000  1.0 -0.1499286632
C  C342  1  0.22040000  0.05369000  0.46417000  1.0 -0.1499286632
C  C343  1  0.00623000  0.97040000  0.66666667  1.0 -0.1499286632
C  C344  1  0.30369000  0.33952000  0.33329000  1.0 -0.1499286632
C  C345  1  0.58952000  0.05369000  0.83329000  1.0 -0.1499286632
C  C346  1  0.22040000  0.75623000  0.16671000  1.0 -0.1499286632
C  C347  1  0.00623000  0.33952000  0.03583000  1.0 -0.1499286632
C  C348  1  0.30369000  0.97040000  0.96417000  1.0 -0.1499286632
C  C349  1  0.66048000  0.99377000  0.96417000  1.0 -0.1499286632
C  C350  1  0.02960000  0.69631000  0.03583000  1.0 -0.1499286632
C  C351  1  0.24377000  0.77960000  0.83329000  1.0 -0.1499286632
C  C352  1  0.94631000  0.41048000  0.16671000  1.0 -0.1499286632
C  C353  1  0.82899000  0.82463000  0.82866000  1.0 -0.087644473
C  C354  1  0.99597000  0.00033000  0.17134000  1.0 -0.087644473
C  C355  1  0.25033000  0.57899000  0.50436000  1.0 -0.087644473
C  C356  1  0.07463000  0.74597000  0.49564000  1.0 -0.087644473
C  C357  1  0.42101000  0.74967000  0.49564000  1.0 -0.087644473
C  C358  1  0.25403000  0.92537000  0.50436000  1.0 -0.087644473
C  C359  1  0.99967000  0.00403000  0.82866000  1.0 -0.087644473
C  C360  1  0.17537000  0.17101000  0.17134000  1.0 -0.087644473
C  C361  1  0.42101000  0.92537000  0.67134000  1.0 -0.087644473
C  C362  1  0.25403000  0.74967000  0.32866000  1.0 -0.087644473
C  C363  1  0.99967000  0.17101000  0.99564000  1.0 -0.087644473
C  C364  1  0.17537000  0.00403000  0.00436000  1.0 -0.087644473
C  C365  1  0.82899000  0.00033000  0.00436000  1.0 -0.087644473
C  C366  1  0.99597000  0.82463000  0.99564000  1.0 -0.087644473
C  C367  1  0.25033000  0.74597000  0.67134000  1.0 -0.087644473
C  C368  1  0.07463000  0.57899000  0.32866000  1.0 -0.087644473
C  C369  1  0.73394000  0.74204000  0.82576000  1.0 -0.0797104754
C  C370  1  0.91628000  0.90818000  0.17424000  1.0 -0.0797104754
C  C371  1  0.15818000  0.48394000  0.49190000  1.0 -0.0797104754
C  C372  1  0.99204000  0.66628000  0.50810000  1.0 -0.0797104754
C  C373  1  0.51606000  0.84182000  0.50810000  1.0 -0.0797104754
C  C374  1  0.33372000  0.00796000  0.49190000  1.0 -0.0797104754
C  C375  1  0.09182000  0.08372000  0.82576000  1.0 -0.0797104754
C  C376  1  0.25796000  0.26606000  0.17424000  1.0 -0.0797104754
C  C377  1  0.51606000  0.00796000  0.67424000  1.0 -0.0797104754
C  C378  1  0.33372000  0.84182000  0.32576000  1.0 -0.0797104754
C  C379  1  0.09182000  0.26606000  0.00810000  1.0 -0.0797104754
C  C380  1  0.25796000  0.08372000  0.99190000  1.0 -0.0797104754
C  C381  1  0.73394000  0.90818000  0.99190000  1.0 -0.0797104754
C  C382  1  0.91628000  0.74204000  0.00810000  1.0 -0.0797104754
C  C383  1  0.15818000  0.66628000  0.67424000  1.0 -0.0797104754
C  C384  1  0.99204000  0.48394000  0.32576000  1.0 -0.0797104754
C  C385  1  0.70445000  0.64855000  0.44360000  1.0 0.0012442043
C  C386  1  0.20495000  0.26085000  0.55640000  1.0 0.0012442043
C  C387  1  0.51085000  0.45445000  0.55590000  1.0 0.0012442043
C  C388  1  0.89855000  0.95495000  0.44410000  1.0 0.0012442043
C  C389  1  0.54555000  0.48915000  0.44410000  1.0 0.0012442043
C  C390  1  0.04505000  0.10145000  0.55590000  1.0 0.0012442043
C  C391  1  0.73915000  0.79505000  0.44360000  1.0 0.0012442043
C  C392  1  0.35145000  0.29555000  0.55640000  1.0 0.0012442043
C  C393  1  0.54555000  0.10145000  0.05640000  1.0 0.0012442043
C  C394  1  0.04505000  0.48915000  0.94360000  1.0 0.0012442043
C  C395  1  0.73915000  0.29555000  0.94410000  1.0 0.0012442043
C  C396  1  0.35145000  0.79505000  0.05590000  1.0 0.0012442043
C  C397  1  0.70445000  0.26085000  0.05590000  1.0 0.0012442043
C  C398  1  0.20495000  0.64855000  0.94410000  1.0 0.0012442043
C  C399  1  0.51085000  0.95495000  0.05640000  1.0 0.0012442043
C  C400  1  0.89855000  0.45445000  0.94360000  1.0 0.0012442043
C  C401  1  0.66406000  0.61526000  0.39112000  1.0 -0.4016219697
C  C402  1  0.22414000  0.27294000  0.60888000  1.0 -0.4016219697
C  C403  1  0.52294000  0.41406000  0.54880000  1.0 -0.4016219697
C  C404  1  0.86526000  0.97414000  0.45120000  1.0 -0.4016219697
C  C405  1  0.58594000  0.47706000  0.45120000  1.0 -0.4016219697
C  C406  1  0.02586000  0.13474000  0.54880000  1.0 -0.4016219697
C  C407  1  0.72706000  0.77586000  0.39112000  1.0 -0.4016219697
C  C408  1  0.38474000  0.33594000  0.60888000  1.0 -0.4016219697
C  C409  1  0.58594000  0.13474000  0.10888000  1.0 -0.4016219697
C  C410  1  0.02586000  0.47706000  0.89112000  1.0 -0.4016219697
C  C411  1  0.72706000  0.33594000  0.95120000  1.0 -0.4016219697
C  C412  1  0.38474000  0.77586000  0.04880000  1.0 -0.4016219697
C  C413  1  0.66406000  0.27294000  0.04880000  1.0 -0.4016219697
C  C414  1  0.22414000  0.61526000  0.95120000  1.0 -0.4016219697
C  C415  1  0.52294000  0.97414000  0.10888000  1.0 -0.4016219697
C  C416  1  0.86526000  0.41406000  0.89112000  1.0 -0.4016219697
O  O1  1  0.03165000  0.79369000  0.68992000  1.0 -0.5008482861
O  O2  1  0.10377000  0.34173000  0.31008000  1.0 -0.5008482861
O  O3  1  0.59173000  0.78165000  0.73796000  1.0 -0.5008482861
O  O4  1  0.04369000  0.85377000  0.26204000  1.0 -0.5008482861
O  O5  1  0.21835000  0.40827000  0.26204000  1.0 -0.5008482861
O  O6  1  0.14623000  0.95631000  0.73796000  1.0 -0.5008482861
O  O7  1  0.65827000  0.89623000  0.68992000  1.0 -0.5008482861
O  O8  1  0.20631000  0.96835000  0.31008000  1.0 -0.5008482861
O  O9  1  0.21835000  0.95631000  0.81008000  1.0 -0.5008482861
O  O10  1  0.14623000  0.40827000  0.18992000  1.0 -0.5008482861
O  O11  1  0.65827000  0.96835000  0.76204000  1.0 -0.5008482861
O  O12  1  0.20631000  0.89623000  0.23796000  1.0 -0.5008482861
O  O13  1  0.03165000  0.34173000  0.23796000  1.0 -0.5008482861
O  O14  1  0.10377000  0.79369000  0.76204000  1.0 -0.5008482861
O  O15  1  0.59173000  0.85377000  0.81008000  1.0 -0.5008482861
O  O16  1  0.04369000  0.78165000  0.18992000  1.0 -0.5008482861
O  O17  1  0.87187000  0.87190000  0.92981000  1.0 -0.5108086395
O  O18  1  0.94209000  0.94206000  0.07019000  1.0 -0.5108086395
O  O19  1  0.19206000  0.62187000  0.49997000  1.0 -0.5108086395
O  O20  1  0.12190000  0.69209000  0.50003000  1.0 -0.5108086395
O  O21  1  0.37813000  0.80794000  0.50003000  1.0 -0.5108086395
O  O22  1  0.30791000  0.87810000  0.49997000  1.0 -0.5108086395
O  O23  1  0.05794000  0.05791000  0.92981000  1.0 -0.5108086395
O  O24  1  0.12810000  0.12813000  0.07019000  1.0 -0.5108086395
O  O25  1  0.37813000  0.87810000  0.57019000  1.0 -0.5108086395
O  O26  1  0.30791000  0.80794000  0.42981000  1.0 -0.5108086395
O  O27  1  0.05794000  0.12813000  0.00003000  1.0 -0.5108086395
O  O28  1  0.12810000  0.05791000  0.99997000  1.0 -0.5108086395
O  O29  1  0.87187000  0.94206000  0.99997000  1.0 -0.5108086395
O  O30  1  0.94209000  0.87190000  0.00003000  1.0 -0.5108086395
O  O31  1  0.19206000  0.69209000  0.57019000  1.0 -0.5108086395
O  O32  1  0.12190000  0.62187000  0.42981000  1.0 -0.5108086395
O  O33  1  0.04736000  0.86731000  0.74639000  1.0 -0.5311905074
O  O34  1  0.12092000  0.30097000  0.25361000  1.0 -0.5311905074
O  O35  1  0.55097000  0.79736000  0.68005000  1.0 -0.5311905074
O  O36  1  0.11731000  0.87092000  0.31995000  1.0 -0.5311905074
O  O37  1  0.20264000  0.44903000  0.31995000  1.0 -0.5311905074
O  O38  1  0.12908000  0.88269000  0.68005000  1.0 -0.5311905074
O  O39  1  0.69903000  0.87908000  0.74639000  1.0 -0.5311905074
O  O40  1  0.13269000  0.95264000  0.25361000  1.0 -0.5311905074
O  O41  1  0.20264000  0.88269000  0.75361000  1.0 -0.5311905074
O  O42  1  0.12908000  0.44903000  0.24639000  1.0 -0.5311905074
O  O43  1  0.69903000  0.95264000  0.81995000  1.0 -0.5311905074
O  O44  1  0.13269000  0.87908000  0.18005000  1.0 -0.5311905074
O  O45  1  0.04736000  0.30097000  0.18005000  1.0 -0.5311905074
O  O46  1  0.12092000  0.86731000  0.81995000  1.0 -0.5311905074
O  O47  1  0.55097000  0.87092000  0.75361000  1.0 -0.5311905074
O  O48  1  0.11731000  0.79736000  0.24639000  1.0 -0.5311905074
O  O49  1  0.00000000  0.00000000  0.00000000  1.0 -0.0587185419
O  O50  1  0.25000000  0.75000000  0.50000000  1.0 -0.0587185419
O  O51  1  0.78846000  0.78856000  0.92848000  1.0 -0.5246865677
O  O52  1  0.86008000  0.85998000  0.07152000  1.0 -0.5246865677
O  O53  1  0.10998000  0.53846000  0.49990000  1.0 -0.5246865677
O  O54  1  0.03856000  0.61008000  0.50010000  1.0 -0.5246865677
O  O55  1  0.46154000  0.89002000  0.50010000  1.0 -0.5246865677
O  O56  1  0.38992000  0.96144000  0.49990000  1.0 -0.5246865677
O  O57  1  0.14002000  0.13992000  0.92848000  1.0 -0.5246865677
O  O58  1  0.21144000  0.21154000  0.07152000  1.0 -0.5246865677
O  O59  1  0.46154000  0.96144000  0.57152000  1.0 -0.5246865677
O  O60  1  0.38992000  0.89002000  0.42848000  1.0 -0.5246865677
O  O61  1  0.14002000  0.21154000  0.00010000  1.0 -0.5246865677
O  O62  1  0.21144000  0.13992000  0.99990000  1.0 -0.5246865677
O  O63  1  0.78846000  0.85998000  0.99990000  1.0 -0.5246865677
O  O64  1  0.86008000  0.78856000  0.00010000  1.0 -0.5246865677
O  O65  1  0.10998000  0.61008000  0.57152000  1.0 -0.5246865677
O  O66  1  0.03856000  0.53846000  0.42848000  1.0 -0.5246865677
O  O67  1  0.67376000  0.65621000  0.46995000  1.0 -0.1810016374
O  O68  1  0.18626000  0.20381000  0.53005000  1.0 -0.1810016374
O  O69  1  0.45381000  0.42376000  0.51755000  1.0 -0.1810016374
O  O70  1  0.90621000  0.93626000  0.48245000  1.0 -0.1810016374
O  O71  1  0.57624000  0.54619000  0.48245000  1.0 -0.1810016374
O  O72  1  0.06374000  0.09379000  0.51755000  1.0 -0.1810016374
O  O73  1  0.79619000  0.81374000  0.46995000  1.0 -0.1810016374
O  O74  1  0.34379000  0.32624000  0.53005000  1.0 -0.1810016374
O  O75  1  0.57624000  0.09379000  0.03005000  1.0 -0.1810016374
O  O76  1  0.06374000  0.54619000  0.96995000  1.0 -0.1810016374
O  O77  1  0.79619000  0.32624000  0.98245000  1.0 -0.1810016374
O  O78  1  0.34379000  0.81374000  0.01755000  1.0 -0.1810016374
O  O79  1  0.67376000  0.20381000  0.01755000  1.0 -0.1810016374
O  O80  1  0.18626000  0.65621000  0.98245000  1.0 -0.1810016374
O  O81  1  0.45381000  0.93626000  0.03005000  1.0 -0.1810016374
O  O82  1  0.90621000  0.42376000  0.96995000  1.0 -0.1810016374
