# DDEC6 charges by PACMAN v1.1 (https://github.com/mtap-research/PACMAN-charge/)
data_SUNLAP_ASR_pacman
_symmetry_space_group_name_H-M   'P 1'
_cell_length_a   41.54870000
_cell_length_b   41.54870000
_cell_length_c   41.54870000
_cell_angle_alpha   146.74600000
_cell_angle_beta   146.74600000
_cell_angle_gamma   47.74030000
_symmetry_Int_Tables_number   1
_chemical_formula_structural   CuH12C28O5
_chemical_formula_sum   'Cu8 H96 C224 O40'
_cell_volume   21481.08924492
_cell_formula_units_Z   8
loop_
 _symmetry_equiv_pos_site_id
 _symmetry_equiv_pos_as_xyz
  1  'x, y, z'
loop_
 _atom_site_type_symbol
 _atom_site_label
 _atom_site_symmetry_multiplicity
 _atom_site_fract_x
 _atom_site_fract_y
 _atom_site_fract_z
 _atom_site_occupancy
 _atom_site_charge
Cu  Cu1  1  0.10443000  0.09589000  0.92210000  1.0 0.858645132
Cu  Cu2  1  0.17379000  0.18233000  0.07790000  1.0 0.858645132
Cu  Cu3  1  0.84589000  0.42379000  0.49146000  1.0 0.858645132
Cu  Cu4  1  0.93233000  0.35443000  0.50854000  1.0 0.858645132
Cu  Cu5  1  0.57621000  0.15411000  0.50854000  1.0 0.858645132
Cu  Cu6  1  0.64557000  0.06767000  0.49146000  1.0 0.858645132
Cu  Cu7  1  0.81767000  0.82621000  0.92210000  1.0 0.858645132
Cu  Cu8  1  0.90411000  0.89557000  0.07790000  1.0 0.858645132
H  H1  1  0.09940000  0.40650000  0.04170000  1.0 0.1304410996
H  H2  1  0.36480000  0.05770000  0.95830000  1.0 0.1304410996
H  H3  1  0.15650000  0.61480000  0.80710000  1.0 0.1304410996
H  H4  1  0.80770000  0.34940000  0.19290000  1.0 0.1304410996
H  H5  1  0.38520000  0.84350000  0.19290000  1.0 0.1304410996
H  H6  1  0.65060000  0.19230000  0.80710000  1.0 0.1304410996
H  H7  1  0.94230000  0.63520000  0.04170000  1.0 0.1304410996
H  H8  1  0.59350000  0.90060000  0.95830000  1.0 0.1304410996
H  H9  1  0.92770000  0.31090000  0.85720000  1.0 0.1113024866
H  H10  1  0.45370000  0.07050000  0.14280000  1.0 0.1113024866
H  H11  1  0.06090000  0.70370000  0.88320000  1.0 0.1113024866
H  H12  1  0.82050000  0.17770000  0.11680000  1.0 0.1113024866
H  H13  1  0.29630000  0.93910000  0.11680000  1.0 0.1113024866
H  H14  1  0.82230000  0.17950000  0.88320000  1.0 0.1113024866
H  H15  1  0.92950000  0.54630000  0.85720000  1.0 0.1113024866
H  H16  1  0.68910000  0.07230000  0.14280000  1.0 0.1113024866
H  H17  1  0.79920000  0.37320000  0.74860000  1.0 0.1113024866
H  H18  1  0.62460000  0.05060000  0.25140000  1.0 0.1113024866
H  H19  1  0.12320000  0.87460000  0.07400000  1.0 0.1113024866
H  H20  1  0.80060000  0.04920000  0.92600000  1.0 0.1113024866
H  H21  1  0.12540000  0.87680000  0.92600000  1.0 0.1113024866
H  H22  1  0.95080000  0.19940000  0.07400000  1.0 0.1113024866
H  H23  1  0.94940000  0.37540000  0.74860000  1.0 0.1113024866
H  H24  1  0.62680000  0.20080000  0.25140000  1.0 0.1113024866
H  H25  1  0.86620000  0.43610000  0.83230000  1.0 0.1207108794
H  H26  1  0.60380000  0.03390000  0.16770000  1.0 0.1207108794
H  H27  1  0.18610000  0.85380000  0.06990000  1.0 0.1207108794
H  H28  1  0.78390000  0.11620000  0.93010000  1.0 0.1207108794
H  H29  1  0.14620000  0.81390000  0.93010000  1.0 0.1207108794
H  H30  1  0.88380000  0.21610000  0.06990000  1.0 0.1207108794
H  H31  1  0.96610000  0.39620000  0.83230000  1.0 0.1207108794
H  H32  1  0.56390000  0.13380000  0.16770000  1.0 0.1207108794
H  H33  1  0.99960000  0.25120000  0.84720000  1.0 0.1113024866
H  H34  1  0.40400000  0.15240000  0.15280000  1.0 0.1113024866
H  H35  1  0.00120000  0.65400000  0.75160000  1.0 0.1113024866
H  H36  1  0.90240000  0.24960000  0.24840000  1.0 0.1113024866
H  H37  1  0.34600000  0.99880000  0.24840000  1.0 0.1113024866
H  H38  1  0.75040000  0.09760000  0.75160000  1.0 0.1113024866
H  H39  1  0.84760000  0.59600000  0.84720000  1.0 0.1113024866
H  H40  1  0.74880000  0.00040000  0.15280000  1.0 0.1113024866
H  H41  1  0.03300000  0.18830000  0.86110000  1.0 0.1207108794
H  H42  1  0.32720000  0.17190000  0.13890000  1.0 0.1207108794
H  H43  1  0.93830000  0.57720000  0.65530000  1.0 0.1207108794
H  H44  1  0.92190000  0.28300000  0.34470000  1.0 0.1207108794
H  H45  1  0.42280000  0.06170000  0.34470000  1.0 0.1207108794
H  H46  1  0.71700000  0.07810000  0.65530000  1.0 0.1207108794
H  H47  1  0.82810000  0.67280000  0.86110000  1.0 0.1207108794
H  H48  1  0.81170000  0.96700000  0.13890000  1.0 0.1207108794
H  H49  1  0.12490000  0.32580000  0.09550000  1.0 0.1207108794
H  H50  1  0.23030000  0.02940000  0.90450000  1.0 0.1207108794
H  H51  1  0.07580000  0.48030000  0.70090000  1.0 0.1207108794
H  H52  1  0.77940000  0.37490000  0.29910000  1.0 0.1207108794
H  H53  1  0.51970000  0.92420000  0.29910000  1.0 0.1207108794
H  H54  1  0.62510000  0.22060000  0.70090000  1.0 0.1207108794
H  H55  1  0.97060000  0.76970000  0.09550000  1.0 0.1207108794
H  H56  1  0.67420000  0.87510000  0.90450000  1.0 0.1207108794
H  H57  1  0.09150000  0.38860000  0.08170000  1.0 0.1207108794
H  H58  1  0.30690000  0.00980000  0.91830000  1.0 0.1207108794
H  H59  1  0.13860000  0.55690000  0.79710000  1.0 0.1207108794
H  H60  1  0.75980000  0.34150000  0.20290000  1.0 0.1207108794
H  H61  1  0.44310000  0.86140000  0.20290000  1.0 0.1207108794
H  H62  1  0.65850000  0.24020000  0.79710000  1.0 0.1207108794
H  H63  1  0.99020000  0.69310000  0.08170000  1.0 0.1207108794
H  H64  1  0.61140000  0.90850000  0.91830000  1.0 0.1207108794
H  H65  1  0.75050000  0.35260000  0.74310000  1.0 0.1113024866
H  H66  1  0.60950000  0.00740000  0.25690000  1.0 0.1113024866
H  H67  1  0.10260000  0.85950000  0.10210000  1.0 0.1113024866
H  H68  1  0.75740000  0.00050000  0.89790000  1.0 0.1113024866
H  H69  1  0.14050000  0.89740000  0.89790000  1.0 0.1113024866
H  H70  1  0.99950000  0.24260000  0.10210000  1.0 0.1113024866
H  H71  1  0.99260000  0.39050000  0.74310000  1.0 0.1113024866
H  H72  1  0.64740000  0.24950000  0.25690000  1.0 0.1113024866
H  H73  1  0.68410000  0.29180000  0.66650000  1.0 0.1304410996
H  H74  1  0.62530000  0.01760000  0.33350000  1.0 0.1304410996
H  H75  1  0.04180000  0.87530000  0.10770000  1.0 0.1304410996
H  H76  1  0.76760000  0.93410000  0.89230000  1.0 0.1304410996
H  H77  1  0.12470000  0.95820000  0.89230000  1.0 0.1304410996
H  H78  1  0.06590000  0.23240000  0.10770000  1.0 0.1304410996
H  H79  1  0.98240000  0.37470000  0.66650000  1.0 0.1304410996
H  H80  1  0.70820000  0.31590000  0.33350000  1.0 0.1304410996
H  H81  1  0.79550000  0.16470000  0.65180000  1.0 0.1304410996
H  H82  1  0.51290000  0.14370000  0.34820000  1.0 0.1304410996
H  H83  1  0.91470000  0.76290000  0.86920000  1.0 0.1304410996
H  H84  1  0.89370000  0.04550000  0.13080000  1.0 0.1304410996
H  H85  1  0.23710000  0.08530000  0.13080000  1.0 0.1304410996
H  H86  1  0.95450000  0.10630000  0.86920000  1.0 0.1304410996
H  H87  1  0.85630000  0.48710000  0.65180000  1.0 0.1304410996
H  H88  1  0.83530000  0.20450000  0.34820000  1.0 0.1304410996
H  H89  1  0.86190000  0.22550000  0.72820000  1.0 0.1207108794
H  H90  1  0.49730000  0.13370000  0.27180000  1.0 0.1207108794
H  H91  1  0.97550000  0.74730000  0.86360000  1.0 0.1207108794
H  H92  1  0.88370000  0.11190000  0.13640000  1.0 0.1207108794
H  H93  1  0.25270000  0.02450000  0.13640000  1.0 0.1207108794
H  H94  1  0.88810000  0.11630000  0.86360000  1.0 0.1207108794
H  H95  1  0.86630000  0.50270000  0.72820000  1.0 0.1207108794
H  H96  1  0.77450000  0.13810000  0.27180000  1.0 0.1207108794
C  C1  1  0.01799000  0.37037000  0.95516000  1.0 0.029165087
C  C2  1  0.41521000  0.06283000  0.04484000  1.0 0.029165087
C  C3  1  0.12037000  0.66521000  0.85238000  1.0 0.029165087
C  C4  1  0.81283000  0.26799000  0.14762000  1.0 0.029165087
C  C5  1  0.33479000  0.87963000  0.14762000  1.0 0.029165087
C  C6  1  0.73201000  0.18717000  0.85238000  1.0 0.029165087
C  C7  1  0.93717000  0.58479000  0.95516000  1.0 0.029165087
C  C8  1  0.62963000  0.98201000  0.04484000  1.0 0.029165087
C  C9  1  0.05954000  0.40786000  0.00508000  1.0 -0.2697407695
C  C10  1  0.40278000  0.05446000  0.99492000  1.0 -0.2697407695
C  C11  1  0.15786000  0.65278000  0.84832000  1.0 -0.2697407695
C  C12  1  0.80446000  0.30954000  0.15168000  1.0 -0.2697407695
C  C13  1  0.34722000  0.84214000  0.15168000  1.0 -0.2697407695
C  C14  1  0.69046000  0.19554000  0.84832000  1.0 -0.2697407695
C  C15  1  0.94554000  0.59722000  0.00508000  1.0 -0.2697407695
C  C16  1  0.59214000  0.94046000  0.99492000  1.0 -0.2697407695
C  C17  1  0.04144000  0.44734000  0.00030000  1.0 0.2126070337
C  C18  1  0.44704000  0.04114000  0.99970000  1.0 0.2126070337
C  C19  1  0.19734000  0.69704000  0.90590000  1.0 0.2126070337
C  C20  1  0.79114000  0.29144000  0.09410000  1.0 0.2126070337
C  C21  1  0.30296000  0.80266000  0.09410000  1.0 0.2126070337
C  C22  1  0.70856000  0.20886000  0.90590000  1.0 0.2126070337
C  C23  1  0.95886000  0.55296000  0.00030000  1.0 0.2126070337
C  C24  1  0.55266000  0.95856000  0.99970000  1.0 0.2126070337
C  C25  1  0.98180000  0.44930000  0.94556000  1.0 -0.0681224537
C  C26  1  0.50374000  0.03624000  0.05444000  1.0 -0.0681224537
C  C27  1  0.19930000  0.75374000  0.96750000  1.0 -0.0681224537
C  C28  1  0.78624000  0.23180000  0.03250000  1.0 -0.0681224537
C  C29  1  0.24626000  0.80070000  0.03250000  1.0 -0.0681224537
C  C30  1  0.76820000  0.21376000  0.96750000  1.0 -0.0681224537
C  C31  1  0.96376000  0.49626000  0.94556000  1.0 -0.0681224537
C  C32  1  0.55070000  0.01820000  0.05444000  1.0 -0.0681224537
C  C33  1  0.94026000  0.41183000  0.89565000  1.0 0.0182738809
C  C34  1  0.51618000  0.04461000  0.10435000  1.0 0.0182738809
C  C35  1  0.16183000  0.76618000  0.97157000  1.0 0.0182738809
C  C36  1  0.79461000  0.19026000  0.02843000  1.0 0.0182738809
C  C37  1  0.23382000  0.83817000  0.02843000  1.0 0.0182738809
C  C38  1  0.80974000  0.20539000  0.97157000  1.0 0.0182738809
C  C39  1  0.95539000  0.48382000  0.89565000  1.0 0.0182738809
C  C40  1  0.58817000  0.05974000  0.10435000  1.0 0.0182738809
C  C41  1  0.95835000  0.37236000  0.90045000  1.0 0.0182738809
C  C42  1  0.47191000  0.05790000  0.09955000  1.0 0.0182738809
C  C43  1  0.12236000  0.72191000  0.91401000  1.0 0.0182738809
C  C44  1  0.80790000  0.20835000  0.08599000  1.0 0.0182738809
C  C45  1  0.27809000  0.87764000  0.08599000  1.0 0.0182738809
C  C46  1  0.79165000  0.19210000  0.91401000  1.0 0.0182738809
C  C47  1  0.94210000  0.52809000  0.90045000  1.0 0.0182738809
C  C48  1  0.62764000  0.04165000  0.09955000  1.0 0.0182738809
C  C49  1  0.91551000  0.33521000  0.85110000  1.0 -0.2022704127
C  C50  1  0.48411000  0.06441000  0.14890000  1.0 -0.2022704127
C  C51  1  0.08521000  0.73411000  0.91970000  1.0 -0.2022704127
C  C52  1  0.81441000  0.16551000  0.08030000  1.0 -0.2022704127
C  C53  1  0.26589000  0.91479000  0.08030000  1.0 -0.2022704127
C  C54  1  0.83449000  0.18559000  0.91970000  1.0 -0.2022704127
C  C55  1  0.93559000  0.51589000  0.85110000  1.0 -0.2022704127
C  C56  1  0.66479000  0.08449000  0.14890000  1.0 -0.2022704127
C  C57  1  0.85589000  0.33499000  0.79410000  1.0 0.0732298858
C  C58  1  0.54089000  0.06179000  0.20590000  1.0 0.0732298858
C  C59  1  0.08499000  0.79089000  0.97910000  1.0 0.0732298858
C  C60  1  0.81179000  0.10589000  0.02090000  1.0 0.0732298858
C  C61  1  0.20911000  0.91501000  0.02090000  1.0 0.0732298858
C  C62  1  0.89411000  0.18821000  0.97910000  1.0 0.0732298858
C  C63  1  0.93821000  0.45911000  0.79410000  1.0 0.0732298858
C  C64  1  0.66501000  0.14411000  0.20590000  1.0 0.0732298858
C  C65  1  0.83870000  0.37350000  0.78740000  1.0 -0.1406243812
C  C66  1  0.58610000  0.05130000  0.21260000  1.0 -0.1406243812
C  C67  1  0.12350000  0.83610000  0.03480000  1.0 -0.1406243812
C  C68  1  0.80130000  0.08870000  0.96520000  1.0 -0.1406243812
C  C69  1  0.16390000  0.87650000  0.96520000  1.0 -0.1406243812
C  C70  1  0.91130000  0.19870000  0.03480000  1.0 -0.1406243812
C  C71  1  0.94870000  0.41390000  0.78740000  1.0 -0.1406243812
C  C72  1  0.62650000  0.16130000  0.21260000  1.0 -0.1406243812
C  C73  1  0.87901000  0.41041000  0.83680000  1.0 -0.1406243812
C  C74  1  0.57361000  0.04221000  0.16320000  1.0 -0.1406243812
C  C75  1  0.16041000  0.82361000  0.03140000  1.0 -0.1406243812
C  C76  1  0.79221000  0.12901000  0.96860000  1.0 -0.1349993663
C  C77  1  0.17639000  0.83959000  0.96860000  1.0 -0.1349993663
C  C78  1  0.87099000  0.20779000  0.03140000  1.0 -0.1406243812
C  C79  1  0.95779000  0.42639000  0.83680000  1.0 -0.1406243812
C  C80  1  0.58959000  0.12099000  0.16320000  1.0 -0.1406243812
C  C81  1  0.04228000  0.32618000  0.96310000  1.0 0.1015945451
C  C82  1  0.36308000  0.07918000  0.03690000  1.0 0.1015945451
C  C83  1  0.07618000  0.61308000  0.78390000  1.0 0.1015945451
C  C84  1  0.82918000  0.29228000  0.21610000  1.0 0.1015945451
C  C85  1  0.38692000  0.92382000  0.21610000  1.0 0.1015945451
C  C86  1  0.70772000  0.17082000  0.78390000  1.0 0.1015945451
C  C87  1  0.92082000  0.63692000  0.96310000  1.0 0.1015945451
C  C88  1  0.67382000  0.95772000  0.03690000  1.0 0.1015945451
C  C89  1  0.02476000  0.26616000  0.89700000  1.0 -0.1689730937
C  C90  1  0.36916000  0.12776000  0.10300000  1.0 -0.1689730937
C  C91  1  0.01616000  0.61916000  0.74140000  1.0 -0.1689730937
C  C92  1  0.87776000  0.27476000  0.25860000  1.0 -0.1689730937
C  C93  1  0.38084000  0.98384000  0.25860000  1.0 -0.1689730937
C  C94  1  0.72524000  0.12224000  0.74140000  1.0 -0.1689730937
C  C95  1  0.87224000  0.63084000  0.89700000  1.0 -0.1689730937
C  C96  1  0.73384000  0.97524000  0.10300000  1.0 -0.1689730937
C  C97  1  0.04477000  0.22852000  0.90535000  1.0 -0.0821011829
C  C98  1  0.32317000  0.13942000  0.09465000  1.0 -0.0821011829
C  C99  1  0.97852000  0.57317000  0.68375000  1.0 -0.0821011829
C  C100  1  0.88942000  0.29477000  0.31625000  1.0 -0.0821011829
C  C101  1  0.42683000  0.02148000  0.31625000  1.0 -0.0821011829
C  C102  1  0.70523000  0.11058000  0.68375000  1.0 -0.0821011829
C  C103  1  0.86058000  0.67683000  0.90535000  1.0 -0.0821011829
C  C104  1  0.77148000  0.95523000  0.09465000  1.0 -0.0821011829
C  C105  1  0.08223000  0.25081000  0.97962000  1.0 -0.0681224537
C  C106  1  0.27119000  0.10261000  0.02038000  1.0 -0.0681224537
C  C107  1  0.00081000  0.52119000  0.66858000  1.0 -0.0681224537
C  C108  1  0.85261000  0.33223000  0.33142000  1.0 -0.0681224537
C  C109  1  0.47881000  0.99919000  0.33142000  1.0 -0.0681224537
C  C110  1  0.66777000  0.14739000  0.66858000  1.0 -0.0681224537
C  C111  1  0.89739000  0.72881000  0.97962000  1.0 -0.0681224537
C  C112  1  0.74919000  0.91777000  0.02038000  1.0 -0.0681224537
C  C113  1  0.09975000  0.31083000  0.04572000  1.0 -0.0681224537
C  C114  1  0.26511000  0.05403000  0.95428000  1.0 -0.0681224537
C  C115  1  0.06083000  0.51511000  0.71108000  1.0 -0.0681224537
C  C116  1  0.80403000  0.34975000  0.28892000  1.0 -0.0681224537
C  C117  1  0.48489000  0.93917000  0.28892000  1.0 -0.0681224537
C  C118  1  0.65025000  0.19597000  0.71108000  1.0 -0.0681224537
C  C119  1  0.94597000  0.73489000  0.04572000  1.0 -0.0681224537
C  C120  1  0.68917000  0.90025000  0.95428000  1.0 -0.0681224537
C  C121  1  0.07981000  0.34847000  0.03746000  1.0 -0.1580314625
C  C122  1  0.31101000  0.04235000  0.96254000  1.0 -0.1580314625
C  C123  1  0.09847000  0.56101000  0.76866000  1.0 -0.1580314625
C  C124  1  0.79235000  0.32981000  0.23134000  1.0 -0.1580314625
C  C125  1  0.43899000  0.90153000  0.23134000  1.0 -0.1580314625
C  C126  1  0.67019000  0.20765000  0.76866000  1.0 -0.1580314625
C  C127  1  0.95765000  0.68899000  0.03746000  1.0 -0.1580314625
C  C128  1  0.65153000  0.92019000  0.96254000  1.0 -0.1580314625
C  C129  1  0.81284000  0.29504000  0.74320000  1.0 0.0793827937
C  C130  1  0.55184000  0.06964000  0.25680000  1.0 0.0793827937
C  C131  1  0.04504000  0.80184000  0.98220000  1.0 0.0793827937
C  C132  1  0.81964000  0.06284000  0.01780000  1.0 0.0793827937
C  C133  1  0.19816000  0.95496000  0.01780000  1.0 0.0793827937
C  C134  1  0.93716000  0.18036000  0.98220000  1.0 0.0793827937
C  C135  1  0.93036000  0.44816000  0.74320000  1.0 0.0793827937
C  C136  1  0.70496000  0.18716000  0.25680000  1.0 0.0793827937
C  C137  1  0.75947000  0.31494000  0.72467000  1.0 -0.1517634409
C  C138  1  0.59027000  0.03480000  0.27533000  1.0 -0.1517634409
C  C139  1  0.06494000  0.84027000  0.05547000  1.0 -0.1517634409
C  C140  1  0.78480000  0.00947000  0.94453000  1.0 -0.1517634409
C  C141  1  0.15973000  0.93506000  0.94453000  1.0 -0.1517634409
C  C142  1  0.99053000  0.21520000  0.05547000  1.0 -0.1517634409
C  C143  1  0.96520000  0.40973000  0.72467000  1.0 -0.1517634409
C  C144  1  0.68506000  0.24053000  0.27533000  1.0 -0.1517634409
C  C145  1  0.71970000  0.27856000  0.67894000  1.0 -0.089301707
C  C146  1  0.59962000  0.04076000  0.32106000  1.0 -0.089301707
C  C147  1  0.02856000  0.84962000  0.05886000  1.0 -0.089301707
C  C148  1  0.79076000  0.96970000  0.94114000  1.0 -0.089301707
C  C149  1  0.15038000  0.97144000  0.94114000  1.0 -0.089301707
C  C150  1  0.03030000  0.20924000  0.05886000  1.0 -0.089301707
C  C151  1  0.95924000  0.40038000  0.67894000  1.0 -0.089301707
C  C152  1  0.72144000  0.28030000  0.32106000  1.0 -0.089301707
C  C153  1  0.73323000  0.22223000  0.65160000  1.0 -0.0363878653
C  C154  1  0.57063000  0.08163000  0.34840000  1.0 -0.0363878653
C  C155  1  0.97223000  0.82063000  0.98900000  1.0 -0.0363878653
C  C156  1  0.83163000  0.98323000  0.01100000  1.0 -0.0363878653
C  C157  1  0.17937000  0.02777000  0.01100000  1.0 -0.0363878653
C  C158  1  0.01677000  0.16837000  0.98900000  1.0 -0.0363878653
C  C159  1  0.91837000  0.42937000  0.65160000  1.0 -0.0363878653
C  C160  1  0.77777000  0.26677000  0.34840000  1.0 -0.0363878653
C  C161  1  0.78651000  0.20239000  0.67008000  1.0 -0.089301707
C  C162  1  0.53231000  0.11643000  0.32992000  1.0 -0.089301707
C  C163  1  0.95239000  0.78231000  0.91588000  1.0 -0.089301707
C  C164  1  0.86643000  0.03651000  0.08412000  1.0 -0.089301707
C  C165  1  0.21769000  0.04761000  0.08412000  1.0 -0.089301707
C  C166  1  0.96349000  0.13357000  0.91588000  1.0 -0.089301707
C  C167  1  0.88357000  0.46769000  0.67008000  1.0 -0.089301707
C  C168  1  0.79761000  0.21349000  0.32992000  1.0 -0.089301707
C  C169  1  0.82630000  0.23881000  0.71589000  1.0 -0.1580314625
C  C170  1  0.52292000  0.11041000  0.28411000  1.0 -0.1580314625
C  C171  1  0.98881000  0.77292000  0.91251000  1.0 -0.1580314625
C  C172  1  0.86041000  0.07630000  0.08749000  1.0 -0.1580314625
C  C173  1  0.22708000  0.01119000  0.08749000  1.0 -0.1580314625
C  C174  1  0.92370000  0.13959000  0.91251000  1.0 -0.1580314625
C  C175  1  0.88959000  0.47708000  0.71589000  1.0 -0.1580314625
C  C176  1  0.76119000  0.17370000  0.28411000  1.0 -0.1580314625
C  C177  1  0.10268000  0.21088000  0.98740000  1.0 0.5698304867
C  C178  1  0.22348000  0.11528000  0.01260000  1.0 0.5698304867
C  C179  1  0.96088000  0.47348000  0.60820000  1.0 0.5698304867
C  C180  1  0.86528000  0.35268000  0.39180000  1.0 0.5698304867
C  C181  1  0.52652000  0.03912000  0.39180000  1.0 0.5698304867
C  C182  1  0.64732000  0.13472000  0.60820000  1.0 0.5698304867
C  C183  1  0.88472000  0.77652000  0.98740000  1.0 0.5698304867
C  C184  1  0.78912000  0.89732000  0.01260000  1.0 0.5698304867
C  C185  1  0.68775000  0.18585000  0.60170000  1.0 0.5698304867
C  C186  1  0.58415000  0.08605000  0.39830000  1.0 0.5698304867
C  C187  1  0.93585000  0.83415000  0.99810000  1.0 0.5698304867
C  C188  1  0.83605000  0.93775000  0.00190000  1.0 0.5698304867
C  C189  1  0.16585000  0.06415000  0.00190000  1.0 0.5698304867
C  C190  1  0.06225000  0.16395000  0.99810000  1.0 0.5698304867
C  C191  1  0.91395000  0.41585000  0.60170000  1.0 0.5698304867
C  C192  1  0.81415000  0.31225000  0.39830000  1.0 0.5698304867
C  C193  1  0.14880000  0.47080000  0.09460000  1.0 0.0407924332
C  C194  1  0.37620000  0.05420000  0.90540000  1.0 0.0407924332
C  C195  1  0.22080000  0.62620000  0.82200000  1.0 0.0407924332
C  C196  1  0.80420000  0.39880000  0.17800000  1.0 0.0407924332
C  C197  1  0.37380000  0.77920000  0.17800000  1.0 0.0407924332
C  C198  1  0.60120000  0.19580000  0.82200000  1.0 0.0407924332
C  C199  1  0.94580000  0.62380000  0.09460000  1.0 0.0407924332
C  C200  1  0.52920000  0.85120000  0.90540000  1.0 0.0407924332
C  C201  1  0.17930000  0.46630000  0.09900000  1.0 -0.089301707
C  C202  1  0.36730000  0.08030000  0.90100000  1.0 -0.089301707
C  C203  1  0.21630000  0.61730000  0.78700000  1.0 -0.089301707
C  C204  1  0.83030000  0.42930000  0.21300000  1.0 -0.089301707
C  C205  1  0.38270000  0.78370000  0.21300000  1.0 -0.089301707
C  C206  1  0.57070000  0.16970000  0.78700000  1.0 -0.089301707
C  C207  1  0.91970000  0.63270000  0.09900000  1.0 -0.089301707
C  C208  1  0.53370000  0.82070000  0.90100000  1.0 -0.089301707
C  C209  1  0.37400000  0.75030000  0.13850000  1.0 0.0141457414
C  C210  1  0.61180000  0.23550000  0.86150000  1.0 0.0006847376
C  C211  1  0.50030000  0.86180000  0.87630000  1.0 -0.0008275714
C  C212  1  0.98550000  0.62400000  0.12370000  1.0 0.0006847376
C  C213  1  0.13820000  0.49970000  0.12370000  1.0 0.0006847376
C  C214  1  0.37600000  0.01450000  0.87630000  1.0 0.0006847376
C  C215  1  0.76450000  0.38820000  0.13850000  1.0 0.0182738809
C  C216  1  0.24970000  0.62600000  0.86150000  1.0 -0.0008275714
C  C217  1  0.37550000  0.71800000  0.14570000  1.0 0.0793827937
C  C218  1  0.57230000  0.22980000  0.85430000  1.0 0.0793827937
C  C219  1  0.46800000  0.82230000  0.84250000  1.0 0.0793827937
C  C220  1  0.97980000  0.62550000  0.15750000  1.0 0.0793827937
C  C221  1  0.17770000  0.53200000  0.15750000  1.0 0.0793827937
C  C222  1  0.37450000  0.02020000  0.84250000  1.0 0.0793827937
C  C223  1  0.77020000  0.42770000  0.14570000  1.0 0.0793827937
C  C224  1  0.28200000  0.62450000  0.85430000  1.0 0.0793827937
O  O1  1  0.08305000  0.15745000  0.92520000  1.0 -0.5156211572
O  O2  1  0.23225000  0.15785000  0.07480000  1.0 -0.510163526
O  O3  1  0.90745000  0.48225000  0.57440000  1.0 -0.510163526
O  O4  1  0.90785000  0.33305000  0.42560000  1.0 -0.510163526
O  O5  1  0.51775000  0.09255000  0.42560000  1.0 -0.510163526
O  O6  1  0.66695000  0.09215000  0.57440000  1.0 -0.510163526
O  O7  1  0.84215000  0.76775000  0.92520000  1.0 -0.510163526
O  O8  1  0.84255000  0.91695000  0.07480000  1.0 -0.510163526
O  O9  1  0.70183000  0.13243000  0.57540000  1.0 -0.5517499613
O  O10  1  0.55703000  0.12643000  0.42460000  1.0 -0.5517499613
O  O11  1  0.88243000  0.80703000  0.93060000  1.0 -0.5517499613
O  O12  1  0.87643000  0.95183000  0.06940000  1.0 -0.5517499613
O  O13  1  0.19297000  0.11757000  0.06940000  1.0 -0.5517499613
O  O14  1  0.04817000  0.12357000  0.93060000  1.0 -0.5517499613
O  O15  1  0.87357000  0.44297000  0.57540000  1.0 -0.5517499613
O  O16  1  0.86757000  0.29817000  0.42460000  1.0 -0.5517499613
O  O17  1  0.64136000  0.20266000  0.58430000  1.0 -0.4544982182
O  O18  1  0.61836000  0.05706000  0.41570000  1.0 -0.4544982182
O  O19  1  0.95266000  0.86836000  0.06130000  1.0 -0.4544982182
O  O20  1  0.80706000  0.89136000  0.93870000  1.0 -0.4544982182
O  O21  1  0.13164000  0.04734000  0.93870000  1.0 -0.4544982182
O  O22  1  0.10864000  0.19294000  0.06130000  1.0 -0.4544982182
O  O23  1  0.94294000  0.38164000  0.58430000  1.0 -0.4544982182
O  O24  1  0.79734000  0.35864000  0.41570000  1.0 -0.4544982182
O  O25  1  0.13840000  0.22940000  0.05400000  1.0 -0.510163526
O  O26  1  0.17540000  0.08440000  0.94600000  1.0 -0.510163526
O  O27  1  0.97940000  0.42540000  0.59100000  1.0 -0.510163526
O  O28  1  0.83440000  0.38840000  0.40900000  1.0 -0.510163526
O  O29  1  0.57460000  0.02060000  0.40900000  1.0 -0.510163526
O  O30  1  0.61160000  0.16560000  0.59100000  1.0 -0.510163526
O  O31  1  0.91560000  0.82460000  0.05400000  1.0 -0.510163526
O  O32  1  0.77060000  0.86160000  0.94600000  1.0 -0.5046450215
O  O33  1  0.08003000  0.48503000  0.04820000  1.0 -0.089301707
O  O34  1  0.43683000  0.03183000  0.95180000  1.0 -0.089301707
O  O35  1  0.23503000  0.68683000  0.90500000  1.0 -0.089301707
O  O36  1  0.78183000  0.33003000  0.09500000  1.0 -0.089301707
O  O37  1  0.31317000  0.76497000  0.09500000  1.0 -0.089301707
O  O38  1  0.66997000  0.21817000  0.90500000  1.0 -0.089301707
O  O39  1  0.96817000  0.56317000  0.04820000  1.0 -0.089301707
O  O40  1  0.51497000  0.91997000  0.95180000  1.0 -0.089301707
