# DDEC6 charges by PACMAN v1.1 (https://github.com/mtap-research/PACMAN-charge/)
data_SUPKIA_ASR_pacman
_chemical_formula_sum              "O112 C96 H64 Co16 Zn8 K8"
_cell_length_a       12.7869
_cell_length_b       12.7869
_cell_length_c       30.2946
_cell_angle_alpha    90
_cell_angle_beta     90
_cell_angle_gamma    90

_symmetry_space_group_name_H-M    "P 1"
_symmetry_Int_Tables_number       1

loop_
  _symmetry_equiv_pos_as_xyz
  'x, y, z'

loop_
  _atom_site_type_symbol
  _atom_site_label
  _atom_site_symmetry_multiplicity
  _atom_site_fract_x
  _atom_site_fract_y
  _atom_site_fract_z
  _atom_site_occupancy
 _atom_site_charge
O   O1        1.0  0.98960  0.61040  0.64128  1.0000 -0.5995076297
O   O2        1.0  0.10110  0.55640  0.72136  1.0000 -0.6324781159
O   O3        1.0  0.26580  0.54180  0.79198  1.0000 -0.5905415619
O   O4        1.0  0.20270  0.39510  0.68822  1.0000 -0.5995076297
O   O5        1.0  0.11110  0.57150  0.59124  1.0000 -0.5437869186
O   O6        1.0  0.41990  0.58420  0.76478  1.0000 -0.5217424312
O   O7        1.0  0.33750  0.49180  0.66543  1.0000 -0.4533039795
C   C1        1.0  0.24820  0.48230  0.68282  1.0000 0.5421713909
C   C2        1.0  0.32120  0.58620  0.76353  1.0000 0.684066484
C   C3        1.0  0.19220  0.58320  0.69832  1.0000 0.2944635844
C   C4        1.0  0.08280  0.60800  0.62861  1.0000 0.6862787439
C   C5        1.0  0.26870  0.64780  0.72694  1.0000 -0.4184920283
H   H1        1.0  0.32347  0.67758  0.70755  1.0000 0.1668065006
H   H2        1.0  0.22997  0.70699  0.74026  1.0000 0.1668065006
C   C6        1.0  0.16710  0.65260  0.65815  1.0000 -0.4184920283
H   H3        1.0  0.14459  0.72228  0.66872  1.0000 0.1668065006
H   H4        1.0  0.23164  0.66221  0.64057  1.0000 0.1608265435
Co  Co1       1.0  0.10521  0.55083  0.79027  1.0000 0.9554699009
O   O8        1.0  0.48960  0.11040  0.14128  1.0000 -0.5995076297
O   O9        1.0  0.60110  0.05640  0.22136  1.0000 -0.6324781159
O   O10       1.0  0.76580  0.04180  0.29198  1.0000 -0.5905415619
O   O11       1.0  0.70270  0.89510  0.18822  1.0000 -0.5995076297
O   O12       1.0  0.61110  0.07150  0.09124  1.0000 -0.5437869186
O   O13       1.0  0.91990  0.08420  0.26478  1.0000 -0.5217424312
O   O14       1.0  0.83750  0.99180  0.16543  1.0000 -0.4533039795
C   C7        1.0  0.74820  0.98230  0.18282  1.0000 0.5421713909
C   C8        1.0  0.82120  0.08620  0.26353  1.0000 0.684066484
C   C9        1.0  0.69220  0.08320  0.19832  1.0000 0.2944635844
C   C10       1.0  0.58280  0.10800  0.12861  1.0000 0.6862787439
C   C11       1.0  0.76870  0.14780  0.22694  1.0000 -0.4184920283
H   H5        1.0  0.82347  0.17758  0.20755  1.0000 0.1668065006
H   H6        1.0  0.72997  0.20699  0.24026  1.0000 0.1668065006
C   C12       1.0  0.66710  0.15260  0.15815  1.0000 -0.4184920283
H   H7        1.0  0.64459  0.22228  0.16872  1.0000 0.1668065006
H   H8        1.0  0.73164  0.16221  0.14057  1.0000 0.1608265435
Co  Co2       1.0  0.60521  0.05083  0.29027  1.0000 0.9554699009
O   O15       1.0  0.01040  0.38960  0.64128  1.0000 -0.5995076297
O   O16       1.0  0.89890  0.44360  0.72136  1.0000 -0.6324781159
O   O17       1.0  0.73420  0.45820  0.79198  1.0000 -0.5905415619
O   O18       1.0  0.79730  0.60490  0.68822  1.0000 -0.5995076297
O   O19       1.0  0.88890  0.42850  0.59124  1.0000 -0.5437869186
O   O20       1.0  0.58010  0.41580  0.76478  1.0000 -0.5217424312
O   O21       1.0  0.66250  0.50820  0.66543  1.0000 -0.4533039795
C   C13       1.0  0.75180  0.51770  0.68282  1.0000 0.5421713909
C   C14       1.0  0.67880  0.41380  0.76353  1.0000 0.684066484
C   C15       1.0  0.80780  0.41680  0.69832  1.0000 0.2944635844
C   C16       1.0  0.91720  0.39200  0.62861  1.0000 0.6862787439
C   C17       1.0  0.73130  0.35220  0.72694  1.0000 -0.4184920283
H   H9        1.0  0.67653  0.32242  0.70755  1.0000 0.1668065006
H   H10       1.0  0.77003  0.29301  0.74026  1.0000 0.1668065006
C   C18       1.0  0.83290  0.34740  0.65815  1.0000 -0.4184920283
H   H11       1.0  0.85541  0.27772  0.66872  1.0000 0.1668065006
H   H12       1.0  0.76836  0.33779  0.64057  1.0000 0.1608265435
Co  Co3       1.0  0.89479  0.44917  0.79027  1.0000 0.9554699009
O   O22       1.0  0.51040  0.88960  0.14128  1.0000 -0.5995076297
O   O23       1.0  0.39890  0.94360  0.22136  1.0000 -0.6324781159
O   O24       1.0  0.23420  0.95820  0.29198  1.0000 -0.5905415619
O   O25       1.0  0.29730  0.10490  0.18822  1.0000 -0.5995076297
O   O26       1.0  0.38890  0.92850  0.09124  1.0000 -0.5437869186
O   O27       1.0  0.08010  0.91580  0.26478  1.0000 -0.5217424312
O   O28       1.0  0.16250  0.00820  0.16543  1.0000 -0.4533039795
C   C19       1.0  0.25180  0.01770  0.18282  1.0000 0.5421713909
C   C20       1.0  0.17880  0.91380  0.26353  1.0000 0.684066484
C   C21       1.0  0.30780  0.91680  0.19832  1.0000 0.2944635844
C   C22       1.0  0.41720  0.89200  0.12861  1.0000 0.6862787439
C   C23       1.0  0.23130  0.85220  0.22694  1.0000 -0.4184920283
H   H13       1.0  0.17653  0.82242  0.20755  1.0000 0.1668065006
H   H14       1.0  0.27003  0.79301  0.24026  1.0000 0.1668065006
C   C24       1.0  0.33290  0.84740  0.15815  1.0000 -0.4184920283
H   H15       1.0  0.35541  0.77772  0.16872  1.0000 0.1668065006
H   H16       1.0  0.26836  0.83779  0.14057  1.0000 0.1608265435
Co  Co4       1.0  0.39479  0.94917  0.29027  1.0000 0.9554699009
O   O29       1.0  0.61040  0.01040  0.35872  1.0000 -0.5995076297
O   O30       1.0  0.55640  0.89890  0.27864  1.0000 -0.6324781159
O   O31       1.0  0.54180  0.73420  0.20802  1.0000 -0.5905415619
O   O32       1.0  0.39510  0.79730  0.31178  1.0000 -0.5995076297
O   O33       1.0  0.57150  0.88890  0.40876  1.0000 -0.5437869186
O   O34       1.0  0.58420  0.58010  0.23522  1.0000 -0.5217424312
O   O35       1.0  0.49180  0.66250  0.33457  1.0000 -0.4533039795
C   C25       1.0  0.48230  0.75180  0.31718  1.0000 0.5421713909
C   C26       1.0  0.58620  0.67880  0.23647  1.0000 0.684066484
C   C27       1.0  0.58320  0.80780  0.30168  1.0000 0.2944635844
C   C28       1.0  0.60800  0.91720  0.37139  1.0000 0.6862787439
C   C29       1.0  0.64780  0.73130  0.27306  1.0000 -0.4184920283
H   H17       1.0  0.67758  0.67653  0.29245  1.0000 0.1668065006
H   H18       1.0  0.70699  0.77003  0.25974  1.0000 0.1668065006
C   C30       1.0  0.65260  0.83290  0.34185  1.0000 -0.4184920283
H   H19       1.0  0.72228  0.85541  0.33128  1.0000 0.1668065006
H   H20       1.0  0.66221  0.76836  0.35943  1.0000 0.1608265435
Co  Co5       1.0  0.55083  0.89479  0.20973  1.0000 0.9554699009
O   O36       1.0  0.11040  0.51040  0.85872  1.0000 -0.5995076297
O   O37       1.0  0.05640  0.39890  0.77864  1.0000 -0.6324781159
O   O38       1.0  0.04180  0.23420  0.70802  1.0000 -0.5905415619
O   O39       1.0  0.89510  0.29730  0.81178  1.0000 -0.5995076297
O   O40       1.0  0.07150  0.38890  0.90876  1.0000 -0.5437869186
O   O41       1.0  0.08420  0.08010  0.73522  1.0000 -0.5217424312
O   O42       1.0  0.99180  0.16250  0.83457  1.0000 -0.4533039795
C   C31       1.0  0.98230  0.25180  0.81718  1.0000 0.5421713909
C   C32       1.0  0.08620  0.17880  0.73647  1.0000 0.684066484
C   C33       1.0  0.08320  0.30780  0.80168  1.0000 0.2944635844
C   C34       1.0  0.10800  0.41720  0.87139  1.0000 0.6862787439
C   C35       1.0  0.14780  0.23130  0.77306  1.0000 -0.4184920283
H   H21       1.0  0.17758  0.17653  0.79245  1.0000 0.1668065006
H   H22       1.0  0.20699  0.27003  0.75974  1.0000 0.1668065006
C   C36       1.0  0.15260  0.33290  0.84185  1.0000 -0.4184920283
H   H23       1.0  0.22228  0.35541  0.83128  1.0000 0.1668065006
H   H24       1.0  0.16221  0.26836  0.85943  1.0000 0.1608265435
Co  Co6       1.0  0.05083  0.39479  0.70973  1.0000 0.9554699009
O   O43       1.0  0.38960  0.98960  0.35872  1.0000 -0.5995076297
O   O44       1.0  0.44360  0.10110  0.27864  1.0000 -0.6324781159
O   O45       1.0  0.45820  0.26580  0.20802  1.0000 -0.5905415619
O   O46       1.0  0.60490  0.20270  0.31178  1.0000 -0.5995076297
O   O47       1.0  0.42850  0.11110  0.40876  1.0000 -0.5437869186
O   O48       1.0  0.41580  0.41990  0.23522  1.0000 -0.5217424312
O   O49       1.0  0.50820  0.33750  0.33457  1.0000 -0.4533039795
C   C37       1.0  0.51770  0.24820  0.31718  1.0000 0.5421713909
C   C38       1.0  0.41380  0.32120  0.23647  1.0000 0.684066484
C   C39       1.0  0.41680  0.19220  0.30168  1.0000 0.2944635844
C   C40       1.0  0.39200  0.08280  0.37139  1.0000 0.6862787439
C   C41       1.0  0.35220  0.26870  0.27306  1.0000 -0.4184920283
H   H25       1.0  0.32242  0.32347  0.29245  1.0000 0.1668065006
H   H26       1.0  0.29301  0.22997  0.25974  1.0000 0.1668065006
C   C42       1.0  0.34740  0.16710  0.34185  1.0000 -0.4184920283
H   H27       1.0  0.27772  0.14459  0.33128  1.0000 0.1668065006
H   H28       1.0  0.33779  0.23164  0.35943  1.0000 0.1608265435
Co  Co7       1.0  0.44917  0.10521  0.20973  1.0000 0.9554699009
O   O50       1.0  0.88960  0.48960  0.85872  1.0000 -0.5995076297
O   O51       1.0  0.94360  0.60110  0.77864  1.0000 -0.6324781159
O   O52       1.0  0.95820  0.76580  0.70802  1.0000 -0.5905415619
O   O53       1.0  0.10490  0.70270  0.81178  1.0000 -0.5995076297
O   O54       1.0  0.92850  0.61110  0.90876  1.0000 -0.5437869186
O   O55       1.0  0.91580  0.91990  0.73522  1.0000 -0.5217424312
O   O56       1.0  0.00820  0.83750  0.83457  1.0000 -0.4533039795
C   C43       1.0  0.01770  0.74820  0.81718  1.0000 0.5421713909
C   C44       1.0  0.91380  0.82120  0.73647  1.0000 0.684066484
C   C45       1.0  0.91680  0.69220  0.80168  1.0000 0.2944635844
C   C46       1.0  0.89200  0.58280  0.87139  1.0000 0.6862787439
C   C47       1.0  0.85220  0.76870  0.77306  1.0000 -0.4184920283
H   H29       1.0  0.82242  0.82347  0.79245  1.0000 0.1668065006
H   H30       1.0  0.79301  0.72997  0.75974  1.0000 0.1668065006
C   C48       1.0  0.84740  0.66710  0.84185  1.0000 -0.4184920283
H   H31       1.0  0.77772  0.64459  0.83128  1.0000 0.1668065006
H   H32       1.0  0.83779  0.73164  0.85943  1.0000 0.1608265435
Co  Co8       1.0  0.94917  0.60521  0.70973  1.0000 0.9554699009
O   O57       1.0  0.51040  0.61040  0.10872  1.0000 -0.5995076297
O   O58       1.0  0.39890  0.55640  0.02864  1.0000 -0.6324781159
O   O59       1.0  0.23420  0.54180  0.95802  1.0000 -0.5905415619
O   O60       1.0  0.29730  0.39510  0.06178  1.0000 -0.5995076297
O   O61       1.0  0.38890  0.57150  0.15876  1.0000 -0.5437869186
O   O62       1.0  0.08010  0.58420  0.98522  1.0000 -0.5217424312
O   O63       1.0  0.16250  0.49180  0.08457  1.0000 -0.4533039795
C   C49       1.0  0.25180  0.48230  0.06718  1.0000 0.5421713909
C   C50       1.0  0.17880  0.58620  0.98647  1.0000 0.684066484
C   C51       1.0  0.30780  0.58320  0.05168  1.0000 0.2944635844
C   C52       1.0  0.41720  0.60800  0.12139  1.0000 0.6862787439
C   C53       1.0  0.23130  0.64780  0.02306  1.0000 -0.4184920283
H   H33       1.0  0.17653  0.67758  0.04245  1.0000 0.1668065006
H   H34       1.0  0.27003  0.70699  0.00974  1.0000 0.1668065006
C   C54       1.0  0.33290  0.65260  0.09185  1.0000 -0.4184920283
H   H35       1.0  0.35541  0.72228  0.08128  1.0000 0.1668065006
H   H36       1.0  0.26836  0.66221  0.10943  1.0000 0.1608265435
Co  Co9       1.0  0.39479  0.55083  0.95973  1.0000 0.9554699009
O   O64       1.0  0.01040  0.11040  0.60872  1.0000 -0.5995076297
O   O65       1.0  0.89890  0.05640  0.52864  1.0000 -0.6324781159
O   O66       1.0  0.73420  0.04180  0.45802  1.0000 -0.5905415619
O   O67       1.0  0.79730  0.89510  0.56178  1.0000 -0.5995076297
O   O68       1.0  0.88890  0.07150  0.65876  1.0000 -0.5437869186
O   O69       1.0  0.58010  0.08420  0.48522  1.0000 -0.5217424312
O   O70       1.0  0.66250  0.99180  0.58457  1.0000 -0.4533039795
C   C55       1.0  0.75180  0.98230  0.56718  1.0000 0.5421713909
C   C56       1.0  0.67880  0.08620  0.48647  1.0000 0.684066484
C   C57       1.0  0.80780  0.08320  0.55168  1.0000 0.2944635844
C   C58       1.0  0.91720  0.10800  0.62139  1.0000 0.6862787439
C   C59       1.0  0.73130  0.14780  0.52306  1.0000 -0.4184920283
H   H37       1.0  0.67653  0.17758  0.54245  1.0000 0.1668065006
H   H38       1.0  0.77003  0.20699  0.50974  1.0000 0.1668065006
C   C60       1.0  0.83290  0.15260  0.59185  1.0000 -0.4184920283
H   H39       1.0  0.85541  0.22228  0.58128  1.0000 0.1668065006
H   H40       1.0  0.76836  0.16221  0.60943  1.0000 0.1608265435
Co  Co10      1.0  0.89479  0.05083  0.45973  1.0000 0.9554699009
O   O71       1.0  0.48960  0.38960  0.10872  1.0000 -0.5995076297
O   O72       1.0  0.60110  0.44360  0.02864  1.0000 -0.6324781159
O   O73       1.0  0.76580  0.45820  0.95802  1.0000 -0.5905415619
O   O74       1.0  0.70270  0.60490  0.06178  1.0000 -0.5995076297
O   O75       1.0  0.61110  0.42850  0.15876  1.0000 -0.5437869186
O   O76       1.0  0.91990  0.41580  0.98522  1.0000 -0.5217424312
O   O77       1.0  0.83750  0.50820  0.08457  1.0000 -0.4533039795
C   C61       1.0  0.74820  0.51770  0.06718  1.0000 0.5421713909
C   C62       1.0  0.82120  0.41380  0.98647  1.0000 0.684066484
C   C63       1.0  0.69220  0.41680  0.05168  1.0000 0.2944635844
C   C64       1.0  0.58280  0.39200  0.12139  1.0000 0.6862787439
C   C65       1.0  0.76870  0.35220  0.02306  1.0000 -0.4184920283
H   H41       1.0  0.82347  0.32242  0.04245  1.0000 0.1668065006
H   H42       1.0  0.72997  0.29301  0.00974  1.0000 0.1668065006
C   C66       1.0  0.66710  0.34740  0.09185  1.0000 -0.4184920283
H   H43       1.0  0.64459  0.27772  0.08128  1.0000 0.1668065006
H   H44       1.0  0.73164  0.33779  0.10943  1.0000 0.1608265435
Co  Co11      1.0  0.60521  0.44917  0.95973  1.0000 0.9554699009
O   O78       1.0  0.98960  0.88960  0.60872  1.0000 -0.5995076297
O   O79       1.0  0.10110  0.94360  0.52864  1.0000 -0.6324781159
O   O80       1.0  0.26580  0.95820  0.45802  1.0000 -0.5905415619
O   O81       1.0  0.20270  0.10490  0.56178  1.0000 -0.5995076297
O   O82       1.0  0.11110  0.92850  0.65876  1.0000 -0.5437869186
O   O83       1.0  0.41990  0.91580  0.48522  1.0000 -0.5217424312
O   O84       1.0  0.33750  0.00820  0.58457  1.0000 -0.4533039795
C   C67       1.0  0.24820  0.01770  0.56718  1.0000 0.5421713909
C   C68       1.0  0.32120  0.91380  0.48647  1.0000 0.684066484
C   C69       1.0  0.19220  0.91680  0.55168  1.0000 0.2944635844
C   C70       1.0  0.08280  0.89200  0.62139  1.0000 0.6862787439
C   C71       1.0  0.26870  0.85220  0.52306  1.0000 -0.4184920283
H   H45       1.0  0.32347  0.82242  0.54245  1.0000 0.1668065006
H   H46       1.0  0.22997  0.79301  0.50974  1.0000 0.1668065006
C   C72       1.0  0.16710  0.84740  0.59185  1.0000 -0.4184920283
H   H47       1.0  0.14459  0.77772  0.58128  1.0000 0.1668065006
H   H48       1.0  0.23164  0.83779  0.60943  1.0000 0.1608265435
Co  Co12      1.0  0.10521  0.94917  0.45973  1.0000 0.9554699009
O   O85       1.0  0.88960  0.01040  0.39128  1.0000 -0.5995076297
O   O86       1.0  0.94360  0.89890  0.47136  1.0000 -0.6324781159
O   O87       1.0  0.95820  0.73420  0.54198  1.0000 -0.5905415619
O   O88       1.0  0.10490  0.79730  0.43822  1.0000 -0.5995076297
O   O89       1.0  0.92850  0.88890  0.34124  1.0000 -0.5437869186
O   O90       1.0  0.91580  0.58010  0.51478  1.0000 -0.5217424312
O   O91       1.0  0.00820  0.66250  0.41543  1.0000 -0.4533039795
C   C73       1.0  0.01770  0.75180  0.43282  1.0000 0.5421713909
C   C74       1.0  0.91380  0.67880  0.51353  1.0000 0.684066484
C   C75       1.0  0.91680  0.80780  0.44832  1.0000 0.2944635844
C   C76       1.0  0.89200  0.91720  0.37861  1.0000 0.6862787439
C   C77       1.0  0.85220  0.73130  0.47694  1.0000 -0.4184920283
H   H49       1.0  0.82242  0.67653  0.45755  1.0000 0.1668065006
H   H50       1.0  0.79301  0.77003  0.49026  1.0000 0.1668065006
C   C78       1.0  0.84740  0.83290  0.40815  1.0000 -0.4184920283
H   H51       1.0  0.77772  0.85541  0.41872  1.0000 0.1668065006
H   H52       1.0  0.83779  0.76836  0.39057  1.0000 0.1608265435
Co  Co13      1.0  0.94917  0.89479  0.54027  1.0000 0.9554699009
O   O92       1.0  0.38960  0.51040  0.89128  1.0000 -0.5995076297
O   O93       1.0  0.44360  0.39890  0.97136  1.0000 -0.6324781159
O   O94       1.0  0.45820  0.23420  0.04198  1.0000 -0.5905415619
O   O95       1.0  0.60490  0.29730  0.93822  1.0000 -0.5995076297
O   O96       1.0  0.42850  0.38890  0.84124  1.0000 -0.5437869186
O   O97       1.0  0.41580  0.08010  0.01478  1.0000 -0.5217424312
O   O98       1.0  0.50820  0.16250  0.91543  1.0000 -0.4533039795
C   C79       1.0  0.51770  0.25180  0.93282  1.0000 0.5421713909
C   C80       1.0  0.41380  0.17880  0.01353  1.0000 0.684066484
C   C81       1.0  0.41680  0.30780  0.94832  1.0000 0.2944635844
C   C82       1.0  0.39200  0.41720  0.87861  1.0000 0.6862787439
C   C83       1.0  0.35220  0.23130  0.97694  1.0000 -0.4184920283
H   H53       1.0  0.32242  0.17653  0.95755  1.0000 0.1668065006
H   H54       1.0  0.29301  0.27003  0.99026  1.0000 0.1668065006
C   C84       1.0  0.34740  0.33290  0.90815  1.0000 -0.4184920283
H   H55       1.0  0.27772  0.35541  0.91872  1.0000 0.1668065006
H   H56       1.0  0.33779  0.26836  0.89057  1.0000 0.1608265435
Co  Co14      1.0  0.44917  0.39479  0.04027  1.0000 0.9554699009
O   O99       1.0  0.11040  0.98960  0.39128  1.0000 -0.5995076297
O   O100      1.0  0.05640  0.10110  0.47136  1.0000 -0.6324781159
O   O101      1.0  0.04180  0.26580  0.54198  1.0000 -0.5905415619
O   O102      1.0  0.89510  0.20270  0.43822  1.0000 -0.5995076297
O   O103      1.0  0.07150  0.11110  0.34124  1.0000 -0.5437869186
O   O104      1.0  0.08420  0.41990  0.51478  1.0000 -0.5217424312
O   O105      1.0  0.99180  0.33750  0.41543  1.0000 -0.4533039795
C   C85       1.0  0.98230  0.24820  0.43282  1.0000 0.5421713909
C   C86       1.0  0.08620  0.32120  0.51353  1.0000 0.684066484
C   C87       1.0  0.08320  0.19220  0.44832  1.0000 0.2944635844
C   C88       1.0  0.10800  0.08280  0.37861  1.0000 0.6862787439
C   C89       1.0  0.14780  0.26870  0.47694  1.0000 -0.4184920283
H   H57       1.0  0.17758  0.32347  0.45755  1.0000 0.1668065006
H   H58       1.0  0.20699  0.22997  0.49026  1.0000 0.1668065006
C   C90       1.0  0.15260  0.16710  0.40815  1.0000 -0.4184920283
H   H59       1.0  0.22228  0.14459  0.41872  1.0000 0.1668065006
H   H60       1.0  0.16221  0.23164  0.39057  1.0000 0.1608265435
Co  Co15      1.0  0.05083  0.10521  0.54027  1.0000 0.9554699009
O   O106      1.0  0.61040  0.48960  0.89128  1.0000 -0.5995076297
O   O107      1.0  0.55640  0.60110  0.97136  1.0000 -0.6324781159
O   O108      1.0  0.54180  0.76580  0.04198  1.0000 -0.5905415619
O   O109      1.0  0.39510  0.70270  0.93822  1.0000 -0.5995076297
O   O110      1.0  0.57150  0.61110  0.84124  1.0000 -0.5437869186
O   O111      1.0  0.58420  0.91990  0.01478  1.0000 -0.5217424312
O   O112      1.0  0.49180  0.83750  0.91543  1.0000 -0.4533039795
C   C91       1.0  0.48230  0.74820  0.93282  1.0000 0.5421713909
C   C92       1.0  0.58620  0.82120  0.01353  1.0000 0.684066484
C   C93       1.0  0.58320  0.69220  0.94832  1.0000 0.2944635844
C   C94       1.0  0.60800  0.58280  0.87861  1.0000 0.6862787439
C   C95       1.0  0.64780  0.76870  0.97694  1.0000 -0.4184920283
H   H61       1.0  0.67758  0.82347  0.95755  1.0000 0.1668065006
H   H62       1.0  0.70699  0.72997  0.99026  1.0000 0.1668065006
C   C96       1.0  0.65260  0.66710  0.90815  1.0000 -0.4184920283
H   H63       1.0  0.72228  0.64459  0.91872  1.0000 0.1668065006
H   H64       1.0  0.66221  0.73164  0.89057  1.0000 0.1608265435
Co  Co16      1.0  0.55083  0.60521  0.04027  1.0000 0.9554699009
Zn  Zn1       1.0  0.00000  0.50000  0.55845  1.0000 0.9947504262
Zn  Zn2       1.0  0.50000  0.00000  0.05845  1.0000 0.9947504262
Zn  Zn3       1.0  0.50000  0.00000  0.44155  1.0000 0.9947504262
Zn  Zn4       1.0  0.00000  0.50000  0.94155  1.0000 0.9947504262
Zn  Zn5       1.0  0.50000  0.50000  0.19155  1.0000 0.9947504262
Zn  Zn6       1.0  0.00000  0.00000  0.69155  1.0000 0.9947504262
Zn  Zn7       1.0  0.00000  0.00000  0.30845  1.0000 0.9954146093
Zn  Zn8       1.0  0.50000  0.50000  0.80845  1.0000 0.9947504262
K   K1        1.0  0.16956  0.25000  0.62500  1.0000 0.9134788981
K   K2        1.0  0.83044  0.75000  0.62500  1.0000 0.9134788981
K   K3        1.0  0.25000  0.83044  0.37500  1.0000 0.9134788981
K   K4        1.0  0.75000  0.33044  0.87500  1.0000 0.9134788981
K   K5        1.0  0.75000  0.16956  0.37500  1.0000 0.9134788981
K   K6        1.0  0.25000  0.66956  0.87500  1.0000 0.9134788981
K   K7        1.0  0.33044  0.25000  0.12500  1.0000 0.9134788981
K   K8        1.0  0.66956  0.75000  0.12500  1.0000 0.9134788981
  Co  Co17      1.0  0.00000  0.50000  0.55845  1.0000
  Co  Co18      1.0  0.50000  0.00000  0.05845  1.0000
  Co  Co19      1.0  0.50000  0.00000  0.44155  1.0000
  Co  Co20      1.0  0.00000  0.50000  0.94155  1.0000
  Co  Co21      1.0  0.50000  0.50000  0.19155  1.0000
  Co  Co22      1.0  0.00000  0.00000  0.69155  1.0000
  Co  Co23      1.0  0.00000  0.00000  0.30845  1.0000
  Co  Co24      1.0  0.50000  0.50000  0.80845  1.0000
