# DDEC6 charges by PACMAN v1.1 (https://github.com/mtap-research/PACMAN-charge/)
data_SUPQAW_ASR_pacman
_symmetry_space_group_name_H-M   'P 1'
_cell_length_a   26.45890000
_cell_length_b   26.45890000
_cell_length_c   26.45890000
_cell_angle_alpha   109.47100000
_cell_angle_beta   109.47100000
_cell_angle_gamma   109.47100000
_symmetry_Int_Tables_number   1
_chemical_formula_structural   Cu2H22C37N3O8
_chemical_formula_sum   'Cu12 H132 C222 N18 O48'
_cell_volume   14259.26077683
_cell_formula_units_Z   6
loop_
 _symmetry_equiv_pos_site_id
 _symmetry_equiv_pos_as_xyz
  1  'x, y, z'
loop_
 _atom_site_type_symbol
 _atom_site_label
 _atom_site_symmetry_multiplicity
 _atom_site_fract_x
 _atom_site_fract_y
 _atom_site_fract_z
 _atom_site_occupancy
 _atom_site_charge
Cu  Cu1  1  0.22846000  0.00000000  0.22846000  1.0 0.8129500215
Cu  Cu2  1  0.00000000  0.77154000  0.77154000  1.0 0.8129500215
Cu  Cu3  1  0.00000000  0.22846000  0.22846000  1.0 0.8129500215
Cu  Cu4  1  0.22846000  0.22846000  0.00000000  1.0 0.8129500215
Cu  Cu5  1  0.77154000  0.77154000  0.00000000  1.0 0.8129500215
Cu  Cu6  1  0.77154000  0.00000000  0.77154000  1.0 0.8129500215
Cu  Cu7  1  0.31419000  0.00000000  0.31419000  1.0 0.7077455287
Cu  Cu8  1  0.00000000  0.68581000  0.68581000  1.0 0.7077455287
Cu  Cu9  1  0.00000000  0.31419000  0.31419000  1.0 0.7077455287
Cu  Cu10  1  0.31419000  0.31419000  0.00000000  1.0 0.7077455287
Cu  Cu11  1  0.68581000  0.68581000  0.00000000  1.0 0.7077455287
Cu  Cu12  1  0.68581000  0.00000000  0.68581000  1.0 0.7077455287
H  H1  1  0.57260000  0.28630000  0.28630000  1.0 0.2714141821
H  H2  1  0.28630000  0.00000000  0.71370000  1.0 0.2714141821
H  H3  1  0.28630000  0.57260000  0.28630000  1.0 0.2714141821
H  H4  1  0.00000000  0.28630000  0.71370000  1.0 0.2714141821
H  H5  1  0.00000000  0.71370000  0.28630000  1.0 0.2714141821
H  H6  1  0.28630000  0.28630000  0.57260000  1.0 0.2714141821
H  H7  1  0.28630000  0.71370000  0.00000000  1.0 0.2714141821
H  H8  1  0.71370000  0.00000000  0.28630000  1.0 0.2714141821
H  H9  1  0.71370000  0.28630000  0.00000000  1.0 0.2714141821
H  H10  1  0.42740000  0.71370000  0.71370000  1.0 0.2714141821
H  H11  1  0.71370000  0.71370000  0.42740000  1.0 0.2714141821
H  H12  1  0.71370000  0.42740000  0.71370000  1.0 0.2714141821
H  H13  1  0.34200000  0.13780000  0.20420000  1.0 0.1366421645
H  H14  1  0.13780000  0.93360000  0.79580000  1.0 0.1366421645
H  H15  1  0.13780000  0.34200000  0.20420000  1.0 0.1366421645
H  H16  1  0.06640000  0.20420000  0.86220000  1.0 0.1366421645
H  H17  1  0.93360000  0.79580000  0.13780000  1.0 0.1366421645
H  H18  1  0.20420000  0.13780000  0.34200000  1.0 0.1366421645
H  H19  1  0.20420000  0.86220000  0.06640000  1.0 0.1366421645
H  H20  1  0.20420000  0.34200000  0.13780000  1.0 0.1366421645
H  H21  1  0.13780000  0.20420000  0.34200000  1.0 0.1366421645
H  H22  1  0.86220000  0.06640000  0.20420000  1.0 0.1366421645
H  H23  1  0.34200000  0.20420000  0.13780000  1.0 0.1366421645
H  H24  1  0.79580000  0.13780000  0.93360000  1.0 0.1366421645
H  H25  1  0.93360000  0.13780000  0.79580000  1.0 0.1366421645
H  H26  1  0.65800000  0.86220000  0.79580000  1.0 0.1366421645
H  H27  1  0.06640000  0.86220000  0.20420000  1.0 0.1366421645
H  H28  1  0.86220000  0.79580000  0.65800000  1.0 0.1366421645
H  H29  1  0.79580000  0.93360000  0.13780000  1.0 0.1366421645
H  H30  1  0.13780000  0.79580000  0.93360000  1.0 0.1366421645
H  H31  1  0.20420000  0.06640000  0.86220000  1.0 0.1366421645
H  H32  1  0.79580000  0.65800000  0.86220000  1.0 0.1366421645
H  H33  1  0.86220000  0.20420000  0.06640000  1.0 0.1366421645
H  H34  1  0.86220000  0.65800000  0.79580000  1.0 0.1366421645
H  H35  1  0.65800000  0.79580000  0.86220000  1.0 0.1366421645
H  H36  1  0.79580000  0.86220000  0.65800000  1.0 0.1366421645
H  H37  1  0.55280000  0.21680000  0.33600000  1.0 0.1212339888
H  H38  1  0.21680000  0.88080000  0.66400000  1.0 0.1212339888
H  H39  1  0.21680000  0.55280000  0.33600000  1.0 0.1212339888
H  H40  1  0.11920000  0.33600000  0.78320000  1.0 0.1212339888
H  H41  1  0.88080000  0.66400000  0.21680000  1.0 0.1212339888
H  H42  1  0.33600000  0.21680000  0.55280000  1.0 0.1212339888
H  H43  1  0.33600000  0.78320000  0.11920000  1.0 0.1212339888
H  H44  1  0.33600000  0.55280000  0.21680000  1.0 0.1212339888
H  H45  1  0.21680000  0.33600000  0.55280000  1.0 0.1212339888
H  H46  1  0.78320000  0.11920000  0.33600000  1.0 0.1212339888
H  H47  1  0.55280000  0.33600000  0.21680000  1.0 0.1212339888
H  H48  1  0.66400000  0.21680000  0.88080000  1.0 0.1212339888
H  H49  1  0.88080000  0.21680000  0.66400000  1.0 0.1212339888
H  H50  1  0.44720000  0.78320000  0.66400000  1.0 0.1212339888
H  H51  1  0.11920000  0.78320000  0.33600000  1.0 0.1212339888
H  H52  1  0.78320000  0.66400000  0.44720000  1.0 0.1212339888
H  H53  1  0.66400000  0.88080000  0.21680000  1.0 0.1212339888
H  H54  1  0.21680000  0.66400000  0.88080000  1.0 0.1212339888
H  H55  1  0.33600000  0.11920000  0.78320000  1.0 0.1212339888
H  H56  1  0.66400000  0.44720000  0.78320000  1.0 0.1212339888
H  H57  1  0.78320000  0.33600000  0.11920000  1.0 0.1212339888
H  H58  1  0.78320000  0.44720000  0.66400000  1.0 0.1212339888
H  H59  1  0.44720000  0.66400000  0.78320000  1.0 0.1212339888
H  H60  1  0.66400000  0.78320000  0.44720000  1.0 0.1212339888
H  H61  1  0.47930000  0.14030000  0.33900000  1.0 0.1212339888
H  H62  1  0.14030000  0.80130000  0.66100000  1.0 0.1212339888
H  H63  1  0.14030000  0.47930000  0.33900000  1.0 0.1212339888
H  H64  1  0.19870000  0.33900000  0.85970000  1.0 0.1212339888
H  H65  1  0.80130000  0.66100000  0.14030000  1.0 0.1212339888
H  H66  1  0.33900000  0.14030000  0.47930000  1.0 0.1212339888
H  H67  1  0.33900000  0.85970000  0.19870000  1.0 0.1212339888
H  H68  1  0.33900000  0.47930000  0.14030000  1.0 0.1212339888
H  H69  1  0.14030000  0.33900000  0.47930000  1.0 0.1212339888
H  H70  1  0.85970000  0.19870000  0.33900000  1.0 0.1212339888
H  H71  1  0.47930000  0.33900000  0.14030000  1.0 0.1212339888
H  H72  1  0.66100000  0.14030000  0.80130000  1.0 0.1212339888
H  H73  1  0.80130000  0.14030000  0.66100000  1.0 0.1212339888
H  H74  1  0.52070000  0.85970000  0.66100000  1.0 0.1212339888
H  H75  1  0.19870000  0.85970000  0.33900000  1.0 0.1212339888
H  H76  1  0.85970000  0.66100000  0.52070000  1.0 0.1212339888
H  H77  1  0.66100000  0.80130000  0.14030000  1.0 0.1212339888
H  H78  1  0.14030000  0.66100000  0.80130000  1.0 0.1212339888
H  H79  1  0.33900000  0.19870000  0.85970000  1.0 0.1212339888
H  H80  1  0.66100000  0.52070000  0.85970000  1.0 0.1212339888
H  H81  1  0.85970000  0.33900000  0.19870000  1.0 0.1212339888
H  H82  1  0.85970000  0.52070000  0.66100000  1.0 0.1212339888
H  H83  1  0.52070000  0.66100000  0.85970000  1.0 0.1212339888
H  H84  1  0.66100000  0.85970000  0.52070000  1.0 0.1212339888
H  H85  1  0.38910000  0.06160000  0.45070000  1.0 0.1010847399
H  H86  1  0.06160000  0.61090000  0.67250000  1.0 0.1010847399
H  H87  1  0.93840000  0.38910000  0.32750000  1.0 0.1010847399
H  H88  1  0.38910000  0.45070000  0.06160000  1.0 0.1010847399
H  H89  1  0.61090000  0.67250000  0.06160000  1.0 0.1010847399
H  H90  1  0.32750000  0.93840000  0.38910000  1.0 0.1010847399
H  H91  1  0.45070000  0.06160000  0.38910000  1.0 0.1010847399
H  H92  1  0.45070000  0.38910000  0.06160000  1.0 0.1010847399
H  H93  1  0.06160000  0.45070000  0.38910000  1.0 0.1010847399
H  H94  1  0.06160000  0.38910000  0.45070000  1.0 0.1010847399
H  H95  1  0.38910000  0.32750000  0.93840000  1.0 0.1010847399
H  H96  1  0.67250000  0.06160000  0.61090000  1.0 0.1010847399
H  H97  1  0.61090000  0.93840000  0.54930000  1.0 0.1010847399
H  H98  1  0.61090000  0.06160000  0.67250000  1.0 0.1010847399
H  H99  1  0.38910000  0.93840000  0.32750000  1.0 0.1010847399
H  H100  1  0.06160000  0.67250000  0.61090000  1.0 0.1010847399
H  H101  1  0.54930000  0.61090000  0.93840000  1.0 0.1010847399
H  H102  1  0.93840000  0.54930000  0.61090000  1.0 0.1010847399
H  H103  1  0.32750000  0.38910000  0.93840000  1.0 0.1010847399
H  H104  1  0.67250000  0.61090000  0.06160000  1.0 0.1010847399
H  H105  1  0.93840000  0.32750000  0.38910000  1.0 0.1010847399
H  H106  1  0.93840000  0.61090000  0.54930000  1.0 0.1010847399
H  H107  1  0.61090000  0.54930000  0.93840000  1.0 0.1010847399
H  H108  1  0.54930000  0.93840000  0.61090000  1.0 0.1010847399
H  H109  1  0.46450000  0.06300000  0.52750000  1.0 0.1010847399
H  H110  1  0.06300000  0.53550000  0.59850000  1.0 0.1010847399
H  H111  1  0.93700000  0.46450000  0.40150000  1.0 0.1010847399
H  H112  1  0.46450000  0.52750000  0.06300000  1.0 0.1010847399
H  H113  1  0.53550000  0.59850000  0.06300000  1.0 0.1010847399
H  H114  1  0.40150000  0.93700000  0.46450000  1.0 0.1010847399
H  H115  1  0.52750000  0.06300000  0.46450000  1.0 0.1010847399
H  H116  1  0.52750000  0.46450000  0.06300000  1.0 0.1010847399
H  H117  1  0.06300000  0.52750000  0.46450000  1.0 0.1010847399
H  H118  1  0.06300000  0.46450000  0.52750000  1.0 0.1010847399
H  H119  1  0.46450000  0.40150000  0.93700000  1.0 0.1010847399
H  H120  1  0.59850000  0.06300000  0.53550000  1.0 0.1010847399
H  H121  1  0.53550000  0.93700000  0.47250000  1.0 0.1010847399
H  H122  1  0.53550000  0.06300000  0.59850000  1.0 0.1010847399
H  H123  1  0.46450000  0.93700000  0.40150000  1.0 0.1010847399
H  H124  1  0.06300000  0.59850000  0.53550000  1.0 0.1010847399
H  H125  1  0.47250000  0.53550000  0.93700000  1.0 0.1010847399
H  H126  1  0.93700000  0.47250000  0.53550000  1.0 0.1010847399
H  H127  1  0.40150000  0.46450000  0.93700000  1.0 0.1010847399
H  H128  1  0.59850000  0.53550000  0.06300000  1.0 0.1010847399
H  H129  1  0.93700000  0.40150000  0.46450000  1.0 0.1010847399
H  H130  1  0.93700000  0.53550000  0.47250000  1.0 0.1010847399
H  H131  1  0.53550000  0.47250000  0.93700000  1.0 0.1010847399
H  H132  1  0.47250000  0.93700000  0.53550000  1.0 0.1010847399
C  C1  1  0.35320000  0.08083000  0.27237000  1.0 0.5521866049
C  C2  1  0.08083000  0.80846000  0.72763000  1.0 0.5521866049
C  C3  1  0.08083000  0.35320000  0.27237000  1.0 0.5521866049
C  C4  1  0.19154000  0.27237000  0.91917000  1.0 0.5521866049
C  C5  1  0.80846000  0.72763000  0.08083000  1.0 0.5521866049
C  C6  1  0.27237000  0.08083000  0.35320000  1.0 0.5521866049
C  C7  1  0.27237000  0.91917000  0.19154000  1.0 0.5521866049
C  C8  1  0.27237000  0.35320000  0.08083000  1.0 0.5521866049
C  C9  1  0.08083000  0.27237000  0.35320000  1.0 0.5521866049
C  C10  1  0.91917000  0.19154000  0.27237000  1.0 0.5521866049
C  C11  1  0.35320000  0.27237000  0.08083000  1.0 0.5521866049
C  C12  1  0.72763000  0.08083000  0.80846000  1.0 0.5521866049
C  C13  1  0.80846000  0.08083000  0.72763000  1.0 0.5521866049
C  C14  1  0.64680000  0.91917000  0.72763000  1.0 0.5521866049
C  C15  1  0.19154000  0.91917000  0.27237000  1.0 0.5521866049
C  C16  1  0.91917000  0.72763000  0.64680000  1.0 0.5521866049
C  C17  1  0.72763000  0.80846000  0.08083000  1.0 0.5521866049
C  C18  1  0.08083000  0.72763000  0.80846000  1.0 0.5521866049
C  C19  1  0.27237000  0.19154000  0.91917000  1.0 0.5521866049
C  C20  1  0.72763000  0.64680000  0.91917000  1.0 0.5521866049
C  C21  1  0.91917000  0.27237000  0.19154000  1.0 0.5521866049
C  C22  1  0.91917000  0.64680000  0.72763000  1.0 0.5521866049
C  C23  1  0.64680000  0.72763000  0.91917000  1.0 0.5521866049
C  C24  1  0.72763000  0.91917000  0.64680000  1.0 0.5521866049
C  C25  1  0.39849000  0.12815000  0.27034000  1.0 -0.0665150107
C  C26  1  0.12815000  0.85781000  0.72966000  1.0 -0.0665150107
C  C27  1  0.12815000  0.39849000  0.27034000  1.0 -0.0665150107
C  C28  1  0.14219000  0.27034000  0.87185000  1.0 -0.0665150107
C  C29  1  0.85781000  0.72966000  0.12815000  1.0 -0.0665150107
C  C30  1  0.27034000  0.12815000  0.39849000  1.0 -0.0665150107
C  C31  1  0.27034000  0.87185000  0.14219000  1.0 -0.0665150107
C  C32  1  0.27034000  0.39849000  0.12815000  1.0 -0.0665150107
C  C33  1  0.12815000  0.27034000  0.39849000  1.0 -0.0665150107
C  C34  1  0.87185000  0.14219000  0.27034000  1.0 -0.0665150107
C  C35  1  0.39849000  0.27034000  0.12815000  1.0 -0.0665150107
C  C36  1  0.72966000  0.12815000  0.85781000  1.0 -0.0665150107
C  C37  1  0.85781000  0.12815000  0.72966000  1.0 -0.0665150107
C  C38  1  0.60151000  0.87185000  0.72966000  1.0 -0.0665150107
C  C39  1  0.14219000  0.87185000  0.27034000  1.0 -0.0665150107
C  C40  1  0.87185000  0.72966000  0.60151000  1.0 -0.0665150107
C  C41  1  0.72966000  0.85781000  0.12815000  1.0 -0.0665150107
C  C42  1  0.12815000  0.72966000  0.85781000  1.0 -0.0665150107
C  C43  1  0.27034000  0.14219000  0.87185000  1.0 -0.0665150107
C  C44  1  0.72966000  0.60151000  0.87185000  1.0 -0.0665150107
C  C45  1  0.87185000  0.27034000  0.14219000  1.0 -0.0665150107
C  C46  1  0.87185000  0.60151000  0.72966000  1.0 -0.0665150107
C  C47  1  0.60151000  0.72966000  0.87185000  1.0 -0.0665150107
C  C48  1  0.72966000  0.87185000  0.60151000  1.0 -0.0665150107
C  C49  1  0.38497000  0.15356000  0.23141000  1.0 -0.136703332
C  C50  1  0.15356000  0.92215000  0.76859000  1.0 -0.136703332
C  C51  1  0.15356000  0.38497000  0.23141000  1.0 -0.136703332
C  C52  1  0.07785000  0.23141000  0.84644000  1.0 -0.136703332
C  C53  1  0.92215000  0.76859000  0.15356000  1.0 -0.136703332
C  C54  1  0.23141000  0.15356000  0.38497000  1.0 -0.136703332
C  C55  1  0.23141000  0.84644000  0.07785000  1.0 -0.136703332
C  C56  1  0.23141000  0.38497000  0.15356000  1.0 -0.136703332
C  C57  1  0.15356000  0.23141000  0.38497000  1.0 -0.136703332
C  C58  1  0.84644000  0.07785000  0.23141000  1.0 -0.136703332
C  C59  1  0.38497000  0.23141000  0.15356000  1.0 -0.136703332
C  C60  1  0.76859000  0.15356000  0.92215000  1.0 -0.136703332
C  C61  1  0.92215000  0.15356000  0.76859000  1.0 -0.136703332
C  C62  1  0.61503000  0.84644000  0.76859000  1.0 -0.136703332
C  C63  1  0.07785000  0.84644000  0.23141000  1.0 -0.136703332
C  C64  1  0.84644000  0.76859000  0.61503000  1.0 -0.136703332
C  C65  1  0.76859000  0.92215000  0.15356000  1.0 -0.136703332
C  C66  1  0.15356000  0.76859000  0.92215000  1.0 -0.136703332
C  C67  1  0.23141000  0.07785000  0.84644000  1.0 -0.136703332
C  C68  1  0.76859000  0.61503000  0.84644000  1.0 -0.136703332
C  C69  1  0.84644000  0.23141000  0.07785000  1.0 -0.136703332
C  C70  1  0.84644000  0.61503000  0.76859000  1.0 -0.136703332
C  C71  1  0.61503000  0.76859000  0.84644000  1.0 -0.136703332
C  C72  1  0.76859000  0.84644000  0.61503000  1.0 -0.136703332
C  C73  1  0.43126000  0.19914000  0.23212000  1.0 -0.0334636189
C  C74  1  0.19914000  0.96702000  0.76788000  1.0 -0.0334636189
C  C75  1  0.19914000  0.43126000  0.23212000  1.0 -0.0334636189
C  C76  1  0.03298000  0.23212000  0.80086000  1.0 -0.0334636189
C  C77  1  0.96702000  0.76788000  0.19914000  1.0 -0.0334636189
C  C78  1  0.23212000  0.19914000  0.43126000  1.0 -0.0334636189
C  C79  1  0.23212000  0.80086000  0.03298000  1.0 -0.0334636189
C  C80  1  0.23212000  0.43126000  0.19914000  1.0 -0.0334636189
C  C81  1  0.19914000  0.23212000  0.43126000  1.0 -0.0334636189
C  C82  1  0.80086000  0.03298000  0.23212000  1.0 -0.0334636189
C  C83  1  0.43126000  0.23212000  0.19914000  1.0 -0.0334636189
C  C84  1  0.76788000  0.19914000  0.96702000  1.0 -0.0334636189
C  C85  1  0.96702000  0.19914000  0.76788000  1.0 -0.0334636189
C  C86  1  0.56874000  0.80086000  0.76788000  1.0 -0.0334636189
C  C87  1  0.03298000  0.80086000  0.23212000  1.0 -0.0334636189
C  C88  1  0.80086000  0.76788000  0.56874000  1.0 -0.0334636189
C  C89  1  0.76788000  0.96702000  0.19914000  1.0 -0.0334636189
C  C90  1  0.19914000  0.76788000  0.96702000  1.0 -0.0334636189
C  C91  1  0.23212000  0.03298000  0.80086000  1.0 -0.0334636189
C  C92  1  0.76788000  0.56874000  0.80086000  1.0 -0.0334636189
C  C93  1  0.80086000  0.23212000  0.03298000  1.0 -0.0334636189
C  C94  1  0.80086000  0.56874000  0.76788000  1.0 -0.0334636189
C  C95  1  0.56874000  0.76788000  0.80086000  1.0 -0.0334636189
C  C96  1  0.76788000  0.80086000  0.56874000  1.0 -0.0334636189
C  C97  1  0.49742000  0.22407000  0.27335000  1.0 0.1675365185
C  C98  1  0.22407000  0.95072000  0.72665000  1.0 0.1675365185
C  C99  1  0.22407000  0.49742000  0.27335000  1.0 0.1675365185
C  C100  1  0.04928000  0.27335000  0.77593000  1.0 0.1675365185
C  C101  1  0.95072000  0.72665000  0.22407000  1.0 0.1675365185
C  C102  1  0.27335000  0.22407000  0.49742000  1.0 0.1675365185
C  C103  1  0.27335000  0.77593000  0.04928000  1.0 0.1675365185
C  C104  1  0.27335000  0.49742000  0.22407000  1.0 0.1675365185
C  C105  1  0.22407000  0.27335000  0.49742000  1.0 0.1675365185
C  C106  1  0.77593000  0.04928000  0.27335000  1.0 0.1675365185
C  C107  1  0.49742000  0.27335000  0.22407000  1.0 0.1675365185
C  C108  1  0.72665000  0.22407000  0.95072000  1.0 0.1675365185
C  C109  1  0.95072000  0.22407000  0.72665000  1.0 0.1675365185
C  C110  1  0.50258000  0.77593000  0.72665000  1.0 0.1675365185
C  C111  1  0.04928000  0.77593000  0.27335000  1.0 0.1675365185
C  C112  1  0.77593000  0.72665000  0.50258000  1.0 0.1675365185
C  C113  1  0.72665000  0.95072000  0.22407000  1.0 0.1675365185
C  C114  1  0.22407000  0.72665000  0.95072000  1.0 0.1675365185
C  C115  1  0.27335000  0.04928000  0.77593000  1.0 0.1675365185
C  C116  1  0.72665000  0.50258000  0.77593000  1.0 0.1675365185
C  C117  1  0.77593000  0.27335000  0.04928000  1.0 0.1675365185
C  C118  1  0.77593000  0.50258000  0.72665000  1.0 0.1675365185
C  C119  1  0.50258000  0.72665000  0.77593000  1.0 0.1675365185
C  C120  1  0.72665000  0.77593000  0.50258000  1.0 0.1675365185
C  C121  1  0.50973000  0.20069000  0.30904000  1.0 -0.1893957236
C  C122  1  0.20069000  0.89165000  0.69096000  1.0 -0.1893957236
C  C123  1  0.20069000  0.50973000  0.30904000  1.0 -0.1893957236
C  C124  1  0.10835000  0.30904000  0.79931000  1.0 -0.1893957236
C  C125  1  0.89165000  0.69096000  0.20069000  1.0 -0.1893957236
C  C126  1  0.30904000  0.20069000  0.50973000  1.0 -0.1893957236
C  C127  1  0.30904000  0.79931000  0.10835000  1.0 -0.1893957236
C  C128  1  0.30904000  0.50973000  0.20069000  1.0 -0.1893957236
C  C129  1  0.20069000  0.30904000  0.50973000  1.0 -0.1893957236
C  C130  1  0.79931000  0.10835000  0.30904000  1.0 -0.1893957236
C  C131  1  0.50973000  0.30904000  0.20069000  1.0 -0.1893957236
C  C132  1  0.69096000  0.20069000  0.89165000  1.0 -0.1893957236
C  C133  1  0.89165000  0.20069000  0.69096000  1.0 -0.1893957236
C  C134  1  0.49027000  0.79931000  0.69096000  1.0 -0.1893957236
C  C135  1  0.10835000  0.79931000  0.30904000  1.0 -0.1893957236
C  C136  1  0.79931000  0.69096000  0.49027000  1.0 -0.1893957236
C  C137  1  0.69096000  0.89165000  0.20069000  1.0 -0.1893957236
C  C138  1  0.20069000  0.69096000  0.89165000  1.0 -0.1893957236
C  C139  1  0.30904000  0.10835000  0.79931000  1.0 -0.1893957236
C  C140  1  0.69096000  0.49027000  0.79931000  1.0 -0.1893957236
C  C141  1  0.79931000  0.30904000  0.10835000  1.0 -0.1893957236
C  C142  1  0.79931000  0.49027000  0.69096000  1.0 -0.1893957236
C  C143  1  0.49027000  0.69096000  0.79931000  1.0 -0.1893957236
C  C144  1  0.69096000  0.79931000  0.49027000  1.0 -0.1893957236
C  C145  1  0.46680000  0.15539000  0.31141000  1.0 -0.0939827633
C  C146  1  0.15539000  0.84398000  0.68859000  1.0 -0.0939827633
C  C147  1  0.15539000  0.46680000  0.31141000  1.0 -0.0939827633
C  C148  1  0.15602000  0.31141000  0.84461000  1.0 -0.0939827633
C  C149  1  0.84398000  0.68859000  0.15539000  1.0 -0.0939827633
C  C150  1  0.31141000  0.15539000  0.46680000  1.0 -0.0939827633
C  C151  1  0.31141000  0.84461000  0.15602000  1.0 -0.0939827633
C  C152  1  0.31141000  0.46680000  0.15539000  1.0 -0.0939827633
C  C153  1  0.15539000  0.31141000  0.46680000  1.0 -0.0939827633
C  C154  1  0.84461000  0.15602000  0.31141000  1.0 -0.0939827633
C  C155  1  0.46680000  0.31141000  0.15539000  1.0 -0.0939827633
C  C156  1  0.68859000  0.15539000  0.84398000  1.0 -0.0939827633
C  C157  1  0.84398000  0.15539000  0.68859000  1.0 -0.0939827633
C  C158  1  0.53320000  0.84461000  0.68859000  1.0 -0.0939827633
C  C159  1  0.15602000  0.84461000  0.31141000  1.0 -0.0939827633
C  C160  1  0.84461000  0.68859000  0.53320000  1.0 -0.0939827633
C  C161  1  0.68859000  0.84398000  0.15539000  1.0 -0.0939827633
C  C162  1  0.15539000  0.68859000  0.84398000  1.0 -0.0939827633
C  C163  1  0.31141000  0.15602000  0.84461000  1.0 -0.0939827633
C  C164  1  0.68859000  0.53320000  0.84461000  1.0 -0.0939827633
C  C165  1  0.84461000  0.31141000  0.15602000  1.0 -0.0939827633
C  C166  1  0.84461000  0.53320000  0.68859000  1.0 -0.0939827633
C  C167  1  0.53320000  0.68859000  0.84461000  1.0 -0.0939827633
C  C168  1  0.68859000  0.84461000  0.53320000  1.0 -0.0939827633
C  C169  1  0.40558000  0.03488000  0.44046000  1.0 0.0048392247
C  C170  1  0.03488000  0.59442000  0.62930000  1.0 0.0053668152
C  C171  1  0.96512000  0.40558000  0.37070000  1.0 0.0053668152
C  C172  1  0.40558000  0.44046000  0.03488000  1.0 0.0048392247
C  C173  1  0.59442000  0.62930000  0.03488000  1.0 0.0048392247
C  C174  1  0.37070000  0.96512000  0.40558000  1.0 0.0053668152
C  C175  1  0.44046000  0.03488000  0.40558000  1.0 0.0048392247
C  C176  1  0.44046000  0.40558000  0.03488000  1.0 0.0048392247
C  C177  1  0.03488000  0.44046000  0.40558000  1.0 0.0048392247
C  C178  1  0.03488000  0.40558000  0.44046000  1.0 0.0048392247
C  C179  1  0.40558000  0.37070000  0.96512000  1.0 0.0053668152
C  C180  1  0.62930000  0.03488000  0.59442000  1.0 0.0053668152
C  C181  1  0.59442000  0.96512000  0.55954000  1.0 0.0053668152
C  C182  1  0.59442000  0.03488000  0.62930000  1.0 0.0053668152
C  C183  1  0.40558000  0.96512000  0.37070000  1.0 0.0053668152
C  C184  1  0.03488000  0.62930000  0.59442000  1.0 0.0053668152
C  C185  1  0.55954000  0.59442000  0.96512000  1.0 0.0053668152
C  C186  1  0.96512000  0.55954000  0.59442000  1.0 0.0053668152
C  C187  1  0.37070000  0.40558000  0.96512000  1.0 0.0053668152
C  C188  1  0.62930000  0.59442000  0.03488000  1.0 0.0048392247
C  C189  1  0.96512000  0.37070000  0.40558000  1.0 0.0053668152
C  C190  1  0.96512000  0.59442000  0.55954000  1.0 0.0053668152
C  C191  1  0.59442000  0.55954000  0.96512000  1.0 0.0053668152
C  C192  1  0.55954000  0.96512000  0.59442000  1.0 0.0053668152
C  C193  1  0.45110000  0.03460000  0.48570000  1.0 -0.1013066033
C  C194  1  0.03460000  0.54890000  0.58350000  1.0 -0.1013066033
C  C195  1  0.96540000  0.45110000  0.41650000  1.0 -0.1013066033
C  C196  1  0.45110000  0.48570000  0.03460000  1.0 -0.1013066033
C  C197  1  0.54890000  0.58350000  0.03460000  1.0 -0.1013066033
C  C198  1  0.41650000  0.96540000  0.45110000  1.0 -0.1013066033
C  C199  1  0.48570000  0.03460000  0.45110000  1.0 -0.1013066033
C  C200  1  0.48570000  0.45110000  0.03460000  1.0 -0.1013066033
C  C201  1  0.03460000  0.48570000  0.45110000  1.0 -0.1013066033
C  C202  1  0.03460000  0.45110000  0.48570000  1.0 -0.1013066033
C  C203  1  0.45110000  0.41650000  0.96540000  1.0 -0.1013066033
C  C204  1  0.58350000  0.03460000  0.54890000  1.0 -0.1013066033
C  C205  1  0.54890000  0.96540000  0.51430000  1.0 -0.1013066033
C  C206  1  0.54890000  0.03460000  0.58350000  1.0 -0.1013066033
C  C207  1  0.45110000  0.96540000  0.41650000  1.0 -0.1013066033
C  C208  1  0.03460000  0.58350000  0.54890000  1.0 -0.1013066033
C  C209  1  0.51430000  0.54890000  0.96540000  1.0 -0.1013066033
C  C210  1  0.96540000  0.51430000  0.54890000  1.0 -0.1013066033
C  C211  1  0.41650000  0.45110000  0.96540000  1.0 -0.1013066033
C  C212  1  0.58350000  0.54890000  0.03460000  1.0 -0.1013066033
C  C213  1  0.96540000  0.41650000  0.45110000  1.0 -0.1013066033
C  C214  1  0.96540000  0.54890000  0.51430000  1.0 -0.1013066033
C  C215  1  0.54890000  0.51430000  0.96540000  1.0 -0.1013066033
C  C216  1  0.51430000  0.96540000  0.54890000  1.0 -0.1013066033
C  C217  1  0.47579000  0.00000000  0.47579000  1.0 -0.0030589404
C  C218  1  0.00000000  0.52421000  0.52421000  1.0 -0.0030589404
C  C219  1  0.00000000  0.47579000  0.47579000  1.0 -0.0030589404
C  C220  1  0.47579000  0.47579000  0.00000000  1.0 -0.0030589404
C  C221  1  0.52421000  0.52421000  0.00000000  1.0 -0.0030589404
C  C222  1  0.52421000  0.00000000  0.52421000  1.0 -0.0030589404
N  N1  1  0.53090000  0.26545000  0.26545000  1.0 -0.3215840345
N  N2  1  0.26545000  0.00000000  0.73455000  1.0 -0.3215840345
N  N3  1  0.26545000  0.53090000  0.26545000  1.0 -0.3215840345
N  N4  1  0.00000000  0.26545000  0.73455000  1.0 -0.3215840345
N  N5  1  0.00000000  0.73455000  0.26545000  1.0 -0.3215840345
N  N6  1  0.26545000  0.26545000  0.53090000  1.0 -0.3215840345
N  N7  1  0.26545000  0.73455000  0.00000000  1.0 -0.3215840345
N  N8  1  0.73455000  0.00000000  0.26545000  1.0 -0.3215840345
N  N9  1  0.73455000  0.26545000  0.00000000  1.0 -0.3215840345
N  N10  1  0.46910000  0.73455000  0.73455000  1.0 -0.3215840345
N  N11  1  0.73455000  0.73455000  0.46910000  1.0 -0.3215840345
N  N12  1  0.73455000  0.46910000  0.73455000  1.0 -0.3215840345
N  N13  1  0.38297000  0.00000000  0.38297000  1.0 -0.1115869815
N  N14  1  0.00000000  0.61703000  0.61703000  1.0 -0.1115869815
N  N15  1  0.00000000  0.38297000  0.38297000  1.0 -0.1115869815
N  N16  1  0.38297000  0.38297000  0.00000000  1.0 -0.1115869815
N  N17  1  0.61703000  0.61703000  0.00000000  1.0 -0.1115869815
N  N18  1  0.61703000  0.00000000  0.61703000  1.0 -0.1115869815
O  O1  1  0.29929000  0.06444000  0.23485000  1.0 -0.4988797018
O  O2  1  0.06444000  0.82959000  0.76515000  1.0 -0.4988797018
O  O3  1  0.06444000  0.29929000  0.23485000  1.0 -0.4988797018
O  O4  1  0.17041000  0.23485000  0.93556000  1.0 -0.4988797018
O  O5  1  0.82959000  0.76515000  0.06444000  1.0 -0.4988797018
O  O6  1  0.23485000  0.06444000  0.29929000  1.0 -0.4988797018
O  O7  1  0.23485000  0.93556000  0.17041000  1.0 -0.4988797018
O  O8  1  0.23485000  0.29929000  0.06444000  1.0 -0.4988797018
O  O9  1  0.06444000  0.23485000  0.29929000  1.0 -0.4988797018
O  O10  1  0.93556000  0.17041000  0.23485000  1.0 -0.4988797018
O  O11  1  0.29929000  0.23485000  0.06444000  1.0 -0.4988797018
O  O12  1  0.76515000  0.06444000  0.82959000  1.0 -0.4988797018
O  O13  1  0.82959000  0.06444000  0.76515000  1.0 -0.4988797018
O  O14  1  0.70071000  0.93556000  0.76515000  1.0 -0.4988797018
O  O15  1  0.17041000  0.93556000  0.23485000  1.0 -0.4988797018
O  O16  1  0.93556000  0.76515000  0.70071000  1.0 -0.4988797018
O  O17  1  0.76515000  0.82959000  0.06444000  1.0 -0.4988797018
O  O18  1  0.06444000  0.76515000  0.82959000  1.0 -0.4988797018
O  O19  1  0.23485000  0.17041000  0.93556000  1.0 -0.4988797018
O  O20  1  0.76515000  0.70071000  0.93556000  1.0 -0.4988797018
O  O21  1  0.93556000  0.23485000  0.17041000  1.0 -0.4988797018
O  O22  1  0.93556000  0.70071000  0.76515000  1.0 -0.4988797018
O  O23  1  0.70071000  0.76515000  0.93556000  1.0 -0.4988797018
O  O24  1  0.76515000  0.93556000  0.70071000  1.0 -0.4988797018
O  O25  1  0.37139000  0.06278000  0.30861000  1.0 -0.5123744244
O  O26  1  0.06278000  0.75417000  0.69139000  1.0 -0.5123744244
O  O27  1  0.06278000  0.37139000  0.30861000  1.0 -0.5123744244
O  O28  1  0.24583000  0.30861000  0.93722000  1.0 -0.5123744244
O  O29  1  0.75417000  0.69139000  0.06278000  1.0 -0.5123744244
O  O30  1  0.30861000  0.06278000  0.37139000  1.0 -0.5123744244
O  O31  1  0.30861000  0.93722000  0.24583000  1.0 -0.5123744244
O  O32  1  0.30861000  0.37139000  0.06278000  1.0 -0.5123744244
O  O33  1  0.06278000  0.30861000  0.37139000  1.0 -0.5123744244
O  O34  1  0.93722000  0.24583000  0.30861000  1.0 -0.5123744244
O  O35  1  0.37139000  0.30861000  0.06278000  1.0 -0.5123744244
O  O36  1  0.69139000  0.06278000  0.75417000  1.0 -0.5123744244
O  O37  1  0.75417000  0.06278000  0.69139000  1.0 -0.5123744244
O  O38  1  0.62861000  0.93722000  0.69139000  1.0 -0.5123744244
O  O39  1  0.24583000  0.93722000  0.30861000  1.0 -0.5123744244
O  O40  1  0.93722000  0.69139000  0.62861000  1.0 -0.5123744244
O  O41  1  0.69139000  0.75417000  0.06278000  1.0 -0.5123744244
O  O42  1  0.06278000  0.69139000  0.75417000  1.0 -0.5123744244
O  O43  1  0.30861000  0.24583000  0.93722000  1.0 -0.5123744244
O  O44  1  0.69139000  0.62861000  0.93722000  1.0 -0.5123744244
O  O45  1  0.93722000  0.30861000  0.24583000  1.0 -0.5123744244
O  O46  1  0.93722000  0.62861000  0.69139000  1.0 -0.5123744244
O  O47  1  0.62861000  0.69139000  0.93722000  1.0 -0.5123744244
O  O48  1  0.69139000  0.93722000  0.62861000  1.0 -0.5123744244
