# DDEC6 charges by PACMAN v1.1 (https://github.com/mtap-research/PACMAN-charge/)
data_SUQJEV_ASR_pacman
_symmetry_space_group_name_H-M   'P 1'
_cell_length_a   10.74350000
_cell_length_b   21.48190000
_cell_length_c   10.77210000
_cell_angle_alpha   90.00000000
_cell_angle_beta   105.11300000
_cell_angle_gamma   90.00000000
_symmetry_Int_Tables_number   1
_chemical_formula_structural   In2H5C13O12
_chemical_formula_sum   'In8 H20 C52 O48'
_cell_volume   2400.11594665
_cell_formula_units_Z   4
loop_
 _symmetry_equiv_pos_site_id
 _symmetry_equiv_pos_as_xyz
  1  'x, y, z'
loop_
 _atom_site_type_symbol
 _atom_site_label
 _atom_site_symmetry_multiplicity
 _atom_site_fract_x
 _atom_site_fract_y
 _atom_site_fract_z
 _atom_site_occupancy
 _atom_site_charge
In  In1  1  0.67853000  0.94193000  0.81393000  1.0 1.5911013289
In  In2  1  0.32147000  0.44193000  0.18607000  1.0 1.5911013289
In  In3  1  0.32147000  0.05807000  0.18607000  1.0 1.5911013289
In  In4  1  0.67853000  0.55807000  0.81393000  1.0 1.5911013289
In  In5  1  0.00000000  0.00000000  0.00000000  1.0 1.5222014292
In  In6  1  0.00000000  0.50000000  0.00000000  1.0 1.5222014292
In  In7  1  0.50000000  0.00000000  0.50000000  1.0 1.5768134698
In  In8  1  0.50000000  0.50000000  0.50000000  1.0 1.5768134698
H  H1  1  0.04370000  0.90680000  0.67480000  1.0 0.1721685707
H  H2  1  0.95630000  0.40680000  0.32520000  1.0 0.1721685707
H  H3  1  0.95630000  0.09320000  0.32520000  1.0 0.1721685707
H  H4  1  0.04370000  0.59320000  0.67480000  1.0 0.1721685707
H  H5  1  0.17850000  0.89350000  0.51650000  1.0 0.1635092377
H  H6  1  0.82150000  0.39350000  0.48350000  1.0 0.1635092377
H  H7  1  0.82150000  0.10650000  0.48350000  1.0 0.1635092377
H  H8  1  0.17850000  0.60650000  0.51650000  1.0 0.1635092377
H  H9  1  0.16460000  0.80830000  0.07780000  1.0 0.1491365238
H  H10  1  0.83540000  0.30830000  0.92220000  1.0 0.1491365238
H  H11  1  0.83540000  0.19170000  0.92220000  1.0 0.1491365238
H  H12  1  0.16460000  0.69170000  0.07780000  1.0 0.1491365238
H  H13  1  0.28550000  0.80830000  0.39060000  1.0 0.1635092377
H  H14  1  0.71450000  0.30830000  0.60940000  1.0 0.1635092377
H  H15  1  0.71450000  0.19170000  0.60940000  1.0 0.1635092377
H  H16  1  0.28550000  0.69170000  0.39060000  1.0 0.1635092377
H  H17  1  0.17050000  0.80880000  0.92560000  1.0 0.1491365238
H  H18  1  0.82950000  0.30880000  0.07440000  1.0 0.1491365238
H  H19  1  0.82950000  0.19120000  0.07440000  1.0 0.1491365238
H  H20  1  0.17050000  0.69120000  0.92560000  1.0 0.1491365238
C  C1  1  0.78220000  0.94450000  0.55890000  1.0 0.5742124423
C  C2  1  0.21780000  0.44450000  0.44110000  1.0 0.5742124423
C  C3  1  0.21780000  0.05550000  0.44110000  1.0 0.5742124423
C  C4  1  0.78220000  0.55550000  0.55890000  1.0 0.5742124423
C  C5  1  0.89890000  0.93030000  0.51860000  1.0 0.0868484435
C  C6  1  0.10110000  0.43030000  0.48140000  1.0 0.0868484435
C  C7  1  0.10110000  0.06970000  0.48140000  1.0 0.0868484435
C  C8  1  0.89890000  0.56970000  0.51860000  1.0 0.0868484435
C  C9  1  0.01700000  0.91310000  0.58640000  1.0 -0.1309342504
C  C10  1  0.98300000  0.41310000  0.41360000  1.0 -0.1309342504
C  C11  1  0.98300000  0.08690000  0.41360000  1.0 -0.1309342504
C  C12  1  0.01700000  0.58690000  0.58640000  1.0 -0.1309342504
C  C13  1  0.09300000  0.90630000  0.49850000  1.0 -0.1508857654
C  C14  1  0.90700000  0.40630000  0.50150000  1.0 -0.1508857654
C  C15  1  0.90700000  0.09370000  0.50150000  1.0 -0.1508857654
C  C16  1  0.09300000  0.59370000  0.49850000  1.0 -0.1508857654
C  C17  1  0.01700000  0.92210000  0.38470000  1.0 0.1176603726
C  C18  1  0.98300000  0.42210000  0.61530000  1.0 0.1176603726
C  C19  1  0.98300000  0.07790000  0.61530000  1.0 0.1176603726
C  C20  1  0.01700000  0.57790000  0.38470000  1.0 0.1176603726
C  C21  1  0.04450000  0.92910000  0.25560000  1.0 0.5415512129
C  C22  1  0.95550000  0.42910000  0.74440000  1.0 0.5415512129
C  C23  1  0.95550000  0.07090000  0.74440000  1.0 0.5415512129
C  C24  1  0.04450000  0.57090000  0.25560000  1.0 0.5415512129
C  C25  1  0.92320000  0.86280000  0.92440000  1.0 0.5415512129
C  C26  1  0.07680000  0.36280000  0.07560000  1.0 0.5415512129
C  C27  1  0.07680000  0.13720000  0.07560000  1.0 0.5415512129
C  C28  1  0.92320000  0.63720000  0.92440000  1.0 0.5415512129
C  C29  1  0.98190000  0.80090000  0.95030000  1.0 0.072039473
C  C30  1  0.01810000  0.30090000  0.04970000  1.0 0.072039473
C  C31  1  0.01810000  0.19910000  0.04970000  1.0 0.072039473
C  C32  1  0.98190000  0.69910000  0.95030000  1.0 0.072039473
C  C33  1  0.09920000  0.78240000  0.03210000  1.0 -0.0595495635
C  C34  1  0.90080000  0.28240000  0.96790000  1.0 -0.0595495635
C  C35  1  0.90080000  0.21760000  0.96790000  1.0 -0.0595495635
C  C36  1  0.09920000  0.71760000  0.03210000  1.0 -0.0595495635
C  C37  1  0.47790000  0.86250000  0.60480000  1.0 0.5877577766
C  C38  1  0.52210000  0.36250000  0.39520000  1.0 0.5877577766
C  C39  1  0.52210000  0.13750000  0.39520000  1.0 0.5877577766
C  C40  1  0.47790000  0.63750000  0.60480000  1.0 0.5877577766
C  C41  1  0.42550000  0.80060000  0.55890000  1.0 0.0868484435
C  C42  1  0.57450000  0.30060000  0.44110000  1.0 0.0868484435
C  C43  1  0.57450000  0.19940000  0.44110000  1.0 0.0868484435
C  C44  1  0.42550000  0.69940000  0.55890000  1.0 0.0868484435
C  C45  1  0.33700000  0.78250000  0.45250000  1.0 -0.1579272792
C  C46  1  0.66300000  0.28250000  0.54750000  1.0 -0.1579272792
C  C47  1  0.66300000  0.21750000  0.54750000  1.0 -0.1579272792
C  C48  1  0.33700000  0.71750000  0.45250000  1.0 -0.1579272792
C  C49  1  0.10420000  0.78270000  0.93400000  1.0 -0.052813393
C  C50  1  0.89580000  0.28270000  0.06600000  1.0 -0.052813393
C  C51  1  0.89580000  0.21730000  0.06600000  1.0 -0.052813393
C  C52  1  0.10420000  0.71730000  0.93400000  1.0 -0.052813393
O  O1  1  0.56090000  0.00994000  0.69870000  1.0 -0.9377152369
O  O2  1  0.43910000  0.50994000  0.30130000  1.0 -0.9377152369
O  O3  1  0.43910000  0.99006000  0.30130000  1.0 -0.9377152369
O  O4  1  0.56090000  0.49006000  0.69870000  1.0 -0.9377152369
O  O5  1  0.79940000  0.01010000  0.92360000  1.0 -0.8649492756
O  O6  1  0.20060000  0.51010000  0.07640000  1.0 -0.866868724
O  O7  1  0.20060000  0.98990000  0.07640000  1.0 -0.866868724
O  O8  1  0.79940000  0.48990000  0.92360000  1.0 -0.866868724
O  O9  1  0.79100000  0.93484000  0.67570000  1.0 -0.5304883913
O  O10  1  0.20900000  0.43484000  0.32430000  1.0 -0.5304883913
O  O11  1  0.20900000  0.06516000  0.32430000  1.0 -0.5304883913
O  O12  1  0.79100000  0.56516000  0.67570000  1.0 -0.5304883913
O  O13  1  0.68310000  0.96497000  0.47800000  1.0 -0.4980833427
O  O14  1  0.31690000  0.46497000  0.52200000  1.0 -0.4980833427
O  O15  1  0.31690000  0.03503000  0.52200000  1.0 -0.4980833427
O  O16  1  0.68310000  0.53503000  0.47800000  1.0 -0.4980833427
O  O17  1  0.96200000  0.96098000  0.17270000  1.0 -0.5115005866
O  O18  1  0.03800000  0.46098000  0.82730000  1.0 -0.5115005866
O  O19  1  0.03800000  0.03902000  0.82730000  1.0 -0.5115005866
O  O20  1  0.96200000  0.53902000  0.17270000  1.0 -0.5115005866
O  O21  1  0.14480000  0.90576000  0.24210000  1.0 -0.4195682228
O  O22  1  0.85520000  0.40576000  0.75790000  1.0 -0.4195682228
O  O23  1  0.85520000  0.09424000  0.75790000  1.0 -0.4195682228
O  O24  1  0.14480000  0.59424000  0.24210000  1.0 -0.4195682228
O  O25  1  0.00260000  0.90608000  0.92720000  1.0 -0.478489031
O  O26  1  0.99740000  0.40608000  0.07280000  1.0 -0.478489031
O  O27  1  0.99740000  0.09392000  0.07280000  1.0 -0.478489031
O  O28  1  0.00260000  0.59392000  0.92720000  1.0 -0.478489031
O  O29  1  0.80340000  0.86679000  0.90400000  1.0 -0.5115005866
O  O30  1  0.19660000  0.36679000  0.09600000  1.0 -0.5115005866
O  O31  1  0.19660000  0.13321000  0.09600000  1.0 -0.5115005866
O  O32  1  0.80340000  0.63321000  0.90400000  1.0 -0.5115005866
O  O33  1  0.55740000  0.86673000  0.71310000  1.0 -0.5522936181
O  O34  1  0.44260000  0.36673000  0.28690000  1.0 -0.5522936181
O  O35  1  0.44260000  0.13327000  0.28690000  1.0 -0.5522936181
O  O36  1  0.55740000  0.63327000  0.71310000  1.0 -0.5522936181
O  O37  1  0.43680000  0.90647000  0.52740000  1.0 -0.5185220883
O  O38  1  0.56320000  0.40647000  0.47260000  1.0 -0.5185220883
O  O39  1  0.56320000  0.09353000  0.47260000  1.0 -0.5185220883
O  O40  1  0.43680000  0.59353000  0.52740000  1.0 -0.5185220883
O  O41  1  0.89620000  0.93698000  0.39180000  1.0 -0.0696072711
O  O42  1  0.10380000  0.43698000  0.60820000  1.0 -0.0696072711
O  O43  1  0.10380000  0.06302000  0.60820000  1.0 -0.0696072711
O  O44  1  0.89620000  0.56302000  0.39180000  1.0 -0.0696072711
O  O45  1  0.90460000  0.75000000  0.91990000  1.0 -0.1309342504
O  O46  1  0.09540000  0.25000000  0.08010000  1.0 -0.1309342504
O  O47  1  0.48250000  0.75000000  0.62870000  1.0 -0.0696072711
O  O48  1  0.51750000  0.25000000  0.37130000  1.0 -0.0696072711
