# DDEC6 charges by PACMAN v1.1 (https://github.com/mtap-research/PACMAN-charge/)
data_SURHEU02_FSR_pacman
_symmetry_space_group_name_H-M   'P 1'
_cell_length_a   14.66300000
_cell_length_b   14.66300000
_cell_length_c   14.66300000
_cell_angle_alpha   60.00000000
_cell_angle_beta   60.00000000
_cell_angle_gamma   60.00000000
_symmetry_Int_Tables_number   1
_chemical_formula_structural   Zr3H16(C3O4)8
_chemical_formula_sum   'Zr6 H32 C48 O64'
_cell_volume   2229.22295198
_cell_formula_units_Z   2
loop_
 _symmetry_equiv_pos_site_id
 _symmetry_equiv_pos_as_xyz
  1  'x, y, z'
loop_
 _atom_site_type_symbol
 _atom_site_label
 _atom_site_symmetry_multiplicity
 _atom_site_fract_x
 _atom_site_fract_y
 _atom_site_fract_z
 _atom_site_occupancy
 _atom_site_charge
Zr  Zr1  1  0.88059000  0.11941000  0.11941000  1.0 1.7509727912
Zr  Zr2  1  0.11941000  0.88059000  0.88059000  1.0 1.7509727912
Zr  Zr3  1  0.11941000  0.88059000  0.11941000  1.0 1.7509727912
Zr  Zr4  1  0.88059000  0.11941000  0.88059000  1.0 1.7509727912
Zr  Zr5  1  0.11941000  0.11941000  0.88059000  1.0 1.7509727912
Zr  Zr6  1  0.88059000  0.88059000  0.11941000  1.0 1.7509727912
H  H1  1  0.86250000  0.13750000  0.42010000  1.0 0.1370775438
H  H2  1  0.13750000  0.86250000  0.57990000  1.0 0.1370775438
H  H3  1  0.42010000  0.57990000  0.86250000  1.0 0.1370775438
H  H4  1  0.57990000  0.42010000  0.13750000  1.0 0.1370775438
H  H5  1  0.42010000  0.86250000  0.13750000  1.0 0.1370775438
H  H6  1  0.57990000  0.13750000  0.86250000  1.0 0.1370775438
H  H7  1  0.86250000  0.42010000  0.57990000  1.0 0.1370775438
H  H8  1  0.13750000  0.57990000  0.42010000  1.0 0.1370775438
H  H9  1  0.13750000  0.42010000  0.86250000  1.0 0.1370775438
H  H10  1  0.86250000  0.57990000  0.13750000  1.0 0.1370775438
H  H11  1  0.57990000  0.86250000  0.42010000  1.0 0.1370775438
H  H12  1  0.42010000  0.13750000  0.57990000  1.0 0.1370775438
H  H13  1  0.13750000  0.86250000  0.42010000  1.0 0.1370775438
H  H14  1  0.86250000  0.13750000  0.57990000  1.0 0.1370775438
H  H15  1  0.57990000  0.42010000  0.86250000  1.0 0.1370775438
H  H16  1  0.42010000  0.57990000  0.13750000  1.0 0.1370775438
H  H17  1  0.57990000  0.13750000  0.42010000  1.0 0.1370775438
H  H18  1  0.42010000  0.86250000  0.57990000  1.0 0.1370775438
H  H19  1  0.13750000  0.57990000  0.86250000  1.0 0.1370775438
H  H20  1  0.86250000  0.42010000  0.13750000  1.0 0.1370775438
H  H21  1  0.86250000  0.57990000  0.42010000  1.0 0.1370775438
H  H22  1  0.13750000  0.42010000  0.57990000  1.0 0.1370775438
H  H23  1  0.42010000  0.13750000  0.86250000  1.0 0.1370775438
H  H24  1  0.57990000  0.86250000  0.13750000  1.0 0.1370775438
H  H25  1  0.09450000  0.09450000  0.09450000  1.0 0.2756520446
H  H26  1  0.09450000  0.09450000  0.71650000  1.0 0.2756520446
H  H27  1  0.09450000  0.71650000  0.09450000  1.0 0.2756520446
H  H28  1  0.71650000  0.09450000  0.09450000  1.0 0.2756520446
H  H29  1  0.90550000  0.90550000  0.28350000  1.0 0.2756520446
H  H30  1  0.90550000  0.90550000  0.90550000  1.0 0.2756520446
H  H31  1  0.90550000  0.28350000  0.90550000  1.0 0.2756520446
H  H32  1  0.28350000  0.90550000  0.90550000  1.0 0.2756520446
C  C1  1  0.00000000  0.00000000  0.30320000  1.0 0.1784134829
C  C2  1  0.00000000  0.00000000  0.69680000  1.0 0.1784134829
C  C3  1  0.30320000  0.69680000  0.00000000  1.0 0.1784134829
C  C4  1  0.69680000  0.30320000  0.00000000  1.0 0.1784134829
C  C5  1  0.30320000  0.00000000  0.00000000  1.0 0.1784134829
C  C6  1  0.69680000  0.00000000  0.00000000  1.0 0.1784134829
C  C7  1  0.00000000  0.30320000  0.69680000  1.0 0.1784134829
C  C8  1  0.00000000  0.69680000  0.30320000  1.0 0.1784134829
C  C9  1  0.00000000  0.30320000  0.00000000  1.0 0.1784134829
C  C10  1  0.00000000  0.69680000  0.00000000  1.0 0.1784134829
C  C11  1  0.69680000  0.00000000  0.30320000  1.0 0.1784134829
C  C12  1  0.30320000  0.00000000  0.69680000  1.0 0.1784134829
C  C13  1  0.00000000  0.00000000  0.40540000  1.0 -0.0052327387
C  C14  1  0.00000000  0.00000000  0.59460000  1.0 -0.0039334972
C  C15  1  0.40540000  0.59460000  0.00000000  1.0 -0.0052327387
C  C16  1  0.59460000  0.40540000  0.00000000  1.0 -0.0052327387
C  C17  1  0.40540000  0.00000000  0.00000000  1.0 -0.0039334972
C  C18  1  0.59460000  0.00000000  0.00000000  1.0 -0.0039334972
C  C19  1  0.00000000  0.40540000  0.59460000  1.0 -0.0052327387
C  C20  1  0.00000000  0.59460000  0.40540000  1.0 -0.0039334972
C  C21  1  0.00000000  0.40540000  0.00000000  1.0 -0.0039334972
C  C22  1  0.00000000  0.59460000  0.00000000  1.0 -0.0052327387
C  C23  1  0.59460000  0.00000000  0.40540000  1.0 -0.0039334972
C  C24  1  0.40540000  0.00000000  0.59460000  1.0 -0.0039334972
C  C25  1  0.91850000  0.08150000  0.45250000  1.0 -0.0991390517
C  C26  1  0.08150000  0.91850000  0.54750000  1.0 -0.0991390517
C  C27  1  0.45250000  0.54750000  0.91850000  1.0 -0.0991390517
C  C28  1  0.54750000  0.45250000  0.08150000  1.0 -0.0991390517
C  C29  1  0.45250000  0.91850000  0.08150000  1.0 -0.0991390517
C  C30  1  0.54750000  0.08150000  0.91850000  1.0 -0.0991390517
C  C31  1  0.91850000  0.45250000  0.54750000  1.0 -0.0991390517
C  C32  1  0.08150000  0.54750000  0.45250000  1.0 -0.0991390517
C  C33  1  0.08150000  0.45250000  0.91850000  1.0 -0.0991390517
C  C34  1  0.91850000  0.54750000  0.08150000  1.0 -0.0991390517
C  C35  1  0.54750000  0.91850000  0.45250000  1.0 -0.0991390517
C  C36  1  0.45250000  0.08150000  0.54750000  1.0 -0.0991390517
C  C37  1  0.08150000  0.91850000  0.45250000  1.0 -0.0991390517
C  C38  1  0.91850000  0.08150000  0.54750000  1.0 -0.0991390517
C  C39  1  0.54750000  0.45250000  0.91850000  1.0 -0.0991390517
C  C40  1  0.45250000  0.54750000  0.08150000  1.0 -0.0991390517
C  C41  1  0.54750000  0.08150000  0.45250000  1.0 -0.0991390517
C  C42  1  0.45250000  0.91850000  0.54750000  1.0 -0.0991390517
C  C43  1  0.08150000  0.54750000  0.91850000  1.0 -0.0991390517
C  C44  1  0.91850000  0.45250000  0.08150000  1.0 -0.0991390517
C  C45  1  0.91850000  0.54750000  0.45250000  1.0 -0.0991390517
C  C46  1  0.08150000  0.45250000  0.54750000  1.0 -0.0991390517
C  C47  1  0.45250000  0.08150000  0.91850000  1.0 -0.0991390517
C  C48  1  0.54750000  0.91850000  0.08150000  1.0 -0.0991390517
O  O1  1  0.92262000  0.07738000  0.26446000  1.0 -0.1666971893
O  O2  1  0.07738000  0.92262000  0.73554000  1.0 -0.1666971893
O  O3  1  0.26446000  0.73554000  0.92262000  1.0 -0.1666971893
O  O4  1  0.73554000  0.26446000  0.07738000  1.0 -0.1666971893
O  O5  1  0.26446000  0.92262000  0.07738000  1.0 -0.1666971893
O  O6  1  0.73554000  0.07738000  0.92262000  1.0 -0.1666971893
O  O7  1  0.92262000  0.26446000  0.73554000  1.0 -0.1666971893
O  O8  1  0.07738000  0.73554000  0.26446000  1.0 -0.1666971893
O  O9  1  0.07738000  0.26446000  0.92262000  1.0 -0.1635040764
O  O10  1  0.92262000  0.73554000  0.07738000  1.0 -0.1635040764
O  O11  1  0.73554000  0.92262000  0.26446000  1.0 -0.1666971893
O  O12  1  0.26446000  0.07738000  0.73554000  1.0 -0.1666971893
O  O13  1  0.07738000  0.92262000  0.26446000  1.0 -0.1666971893
O  O14  1  0.92262000  0.07738000  0.73554000  1.0 -0.1666971893
O  O15  1  0.73554000  0.26446000  0.92262000  1.0 -0.1635040764
O  O16  1  0.26446000  0.73554000  0.07738000  1.0 -0.1666971893
O  O17  1  0.73554000  0.07738000  0.26446000  1.0 -0.1666971893
O  O18  1  0.26446000  0.92262000  0.73554000  1.0 -0.1666971893
O  O19  1  0.07738000  0.73554000  0.92262000  1.0 -0.1666971893
O  O20  1  0.92262000  0.26446000  0.07738000  1.0 -0.1666971893
O  O21  1  0.92262000  0.73554000  0.26446000  1.0 -0.1635040764
O  O22  1  0.07738000  0.26446000  0.73554000  1.0 -0.1666971893
O  O23  1  0.26446000  0.07738000  0.92262000  1.0 -0.1635040764
O  O24  1  0.73554000  0.92262000  0.07738000  1.0 -0.1666971893
O  O25  1  0.06720000  0.06720000  0.06720000  1.0 -0.4104063127
O  O26  1  0.06720000  0.06720000  0.79840000  1.0 -0.4104063127
O  O27  1  0.06720000  0.79840000  0.06720000  1.0 -0.4104063127
O  O28  1  0.79840000  0.06720000  0.06720000  1.0 -0.4104063127
O  O29  1  0.93280000  0.93280000  0.20160000  1.0 -0.4104063127
O  O30  1  0.93280000  0.93280000  0.93280000  1.0 -0.4104063127
O  O31  1  0.93280000  0.20160000  0.93280000  1.0 -0.4104063127
O  O32  1  0.20160000  0.93280000  0.93280000  1.0 -0.4104063127
O  O33  1  0.87800000  0.12200000  0.27200000  1.0 -0.2236700661
O  O34  1  0.12200000  0.87800000  0.72800000  1.0 -0.2236700661
O  O35  1  0.27200000  0.72800000  0.87800000  1.0 -0.2236700661
O  O36  1  0.72800000  0.27200000  0.12200000  1.0 -0.2236700661
O  O37  1  0.27200000  0.87800000  0.12200000  1.0 -0.2236700661
O  O38  1  0.72800000  0.12200000  0.87800000  1.0 -0.2236700661
O  O39  1  0.87800000  0.27200000  0.72800000  1.0 -0.2236700661
O  O40  1  0.12200000  0.72800000  0.27200000  1.0 -0.2236700661
O  O41  1  0.12200000  0.27200000  0.87800000  1.0 -0.2236700661
O  O42  1  0.87800000  0.72800000  0.12200000  1.0 -0.2236700661
O  O43  1  0.72800000  0.87800000  0.27200000  1.0 -0.2236700661
O  O44  1  0.27200000  0.12200000  0.72800000  1.0 -0.2236700661
O  O45  1  0.12200000  0.87800000  0.27200000  1.0 -0.2236700661
O  O46  1  0.87800000  0.12200000  0.72800000  1.0 -0.2236700661
O  O47  1  0.72800000  0.27200000  0.87800000  1.0 -0.2236700661
O  O48  1  0.27200000  0.72800000  0.12200000  1.0 -0.2236700661
O  O49  1  0.72800000  0.12200000  0.27200000  1.0 -0.2236700661
O  O50  1  0.27200000  0.87800000  0.72800000  1.0 -0.2236700661
O  O51  1  0.12200000  0.72800000  0.87800000  1.0 -0.2236700661
O  O52  1  0.87800000  0.27200000  0.12200000  1.0 -0.2236700661
O  O53  1  0.87800000  0.72800000  0.27200000  1.0 -0.2236700661
O  O54  1  0.12200000  0.27200000  0.72800000  1.0 -0.2236700661
O  O55  1  0.27200000  0.12200000  0.87800000  1.0 -0.2236700661
O  O56  1  0.72800000  0.87800000  0.12200000  1.0 -0.2236700661
O  O57  1  0.05020000  0.05020000  0.05020000  1.0 -0.3837150548
O  O58  1  0.05020000  0.05020000  0.84940000  1.0 -0.3837150548
O  O59  1  0.05020000  0.84940000  0.05020000  1.0 -0.3852255706
O  O60  1  0.84940000  0.05020000  0.05020000  1.0 -0.3837150548
O  O61  1  0.94980000  0.94980000  0.15060000  1.0 -0.3837150548
O  O62  1  0.94980000  0.94980000  0.94980000  1.0 -0.3837150548
O  O63  1  0.94980000  0.15060000  0.94980000  1.0 -0.3837150548
O  O64  1  0.15060000  0.94980000  0.94980000  1.0 -0.3852255706
