# DDEC6 charges by PACMAN v1.1 (https://github.com/mtap-research/PACMAN-charge/)
data_SURHEU_FSR_pacman
_symmetry_space_group_name_H-M   'P 1'
_cell_length_a   14.67740000
_cell_length_b   14.67740000
_cell_length_c   14.67740000
_cell_angle_alpha   60.00000000
_cell_angle_beta   60.00000000
_cell_angle_gamma   60.00000000
_symmetry_Int_Tables_number   1
_chemical_formula_structural   Zr3H16(C3O4)8
_chemical_formula_sum   'Zr6 H32 C48 O64'
_cell_volume   2235.79712082
_cell_formula_units_Z   2
loop_
 _symmetry_equiv_pos_site_id
 _symmetry_equiv_pos_as_xyz
  1  'x, y, z'
loop_
 _atom_site_type_symbol
 _atom_site_label
 _atom_site_symmetry_multiplicity
 _atom_site_fract_x
 _atom_site_fract_y
 _atom_site_fract_z
 _atom_site_occupancy
 _atom_site_charge
Zr  Zr1  1  0.88071000  0.11929000  0.11929000  1.0 1.7424339676
Zr  Zr2  1  0.11929000  0.88071000  0.88071000  1.0 1.7424339676
Zr  Zr3  1  0.11929000  0.88071000  0.11929000  1.0 1.7424339676
Zr  Zr4  1  0.88071000  0.11929000  0.88071000  1.0 1.7424339676
Zr  Zr5  1  0.11929000  0.11929000  0.88071000  1.0 1.7460022354
Zr  Zr6  1  0.88071000  0.88071000  0.11929000  1.0 1.7424339676
H  H1  1  0.13600000  0.86400000  0.42100000  1.0 0.1296399133
H  H2  1  0.86400000  0.13600000  0.57900000  1.0 0.1296399133
H  H3  1  0.42100000  0.57900000  0.13600000  1.0 0.1296399133
H  H4  1  0.57900000  0.42100000  0.86400000  1.0 0.1296399133
H  H5  1  0.42100000  0.13600000  0.86400000  1.0 0.1296399133
H  H6  1  0.57900000  0.86400000  0.13600000  1.0 0.1296399133
H  H7  1  0.13600000  0.42100000  0.57900000  1.0 0.1296399133
H  H8  1  0.86400000  0.57900000  0.42100000  1.0 0.1296399133
H  H9  1  0.86400000  0.42100000  0.13600000  1.0 0.1296399133
H  H10  1  0.13600000  0.57900000  0.86400000  1.0 0.1296399133
H  H11  1  0.57900000  0.13600000  0.42100000  1.0 0.1296399133
H  H12  1  0.42100000  0.86400000  0.57900000  1.0 0.1296399133
H  H13  1  0.86400000  0.13600000  0.42100000  1.0 0.1296399133
H  H14  1  0.13600000  0.86400000  0.57900000  1.0 0.1296399133
H  H15  1  0.57900000  0.42100000  0.13600000  1.0 0.1296399133
H  H16  1  0.42100000  0.57900000  0.86400000  1.0 0.1296399133
H  H17  1  0.57900000  0.86400000  0.42100000  1.0 0.1296399133
H  H18  1  0.42100000  0.13600000  0.57900000  1.0 0.1296399133
H  H19  1  0.86400000  0.57900000  0.13600000  1.0 0.1296399133
H  H20  1  0.13600000  0.42100000  0.86400000  1.0 0.1296399133
H  H21  1  0.13600000  0.57900000  0.42100000  1.0 0.1296399133
H  H22  1  0.86400000  0.42100000  0.57900000  1.0 0.1296399133
H  H23  1  0.42100000  0.86400000  0.13600000  1.0 0.1296399133
H  H24  1  0.57900000  0.13600000  0.86400000  1.0 0.1296399133
H  H25  1  0.09450000  0.09450000  0.09450000  1.0 0.2454106976
H  H26  1  0.09450000  0.09450000  0.71650000  1.0 0.2439070725
H  H27  1  0.09450000  0.71650000  0.09450000  1.0 0.2454106976
H  H28  1  0.71650000  0.09450000  0.09450000  1.0 0.2454106976
H  H29  1  0.90550000  0.90550000  0.28350000  1.0 0.2454106976
H  H30  1  0.90550000  0.90550000  0.90550000  1.0 0.2454106976
H  H31  1  0.90550000  0.28350000  0.90550000  1.0 0.2454106976
H  H32  1  0.28350000  0.90550000  0.90550000  1.0 0.2454106976
C  C1  1  0.00000000  0.00000000  0.30314000  1.0 0.2722560052
C  C2  1  0.00000000  0.00000000  0.69686000  1.0 0.2750716591
C  C3  1  0.30314000  0.69686000  0.00000000  1.0 0.2722560052
C  C4  1  0.69686000  0.30314000  0.00000000  1.0 0.2722560052
C  C5  1  0.30314000  0.00000000  0.00000000  1.0 0.2722560052
C  C6  1  0.69686000  0.00000000  0.00000000  1.0 0.2722560052
C  C7  1  0.00000000  0.30314000  0.69686000  1.0 0.2750716591
C  C8  1  0.00000000  0.69686000  0.30314000  1.0 0.2722560052
C  C9  1  0.00000000  0.30314000  0.00000000  1.0 0.2722560052
C  C10  1  0.00000000  0.69686000  0.00000000  1.0 0.2722560052
C  C11  1  0.69686000  0.00000000  0.30314000  1.0 0.2722560052
C  C12  1  0.30314000  0.00000000  0.69686000  1.0 0.2750716591
C  C13  1  0.00000000  0.00000000  0.40558000  1.0 -0.023347563
C  C14  1  0.00000000  0.00000000  0.59442000  1.0 -0.023347563
C  C15  1  0.40558000  0.59442000  0.00000000  1.0 -0.0256036626
C  C16  1  0.59442000  0.40558000  0.00000000  1.0 -0.0256036626
C  C17  1  0.40558000  0.00000000  0.00000000  1.0 -0.0256036626
C  C18  1  0.59442000  0.00000000  0.00000000  1.0 -0.0256036626
C  C19  1  0.00000000  0.40558000  0.59442000  1.0 -0.0256036626
C  C20  1  0.00000000  0.59442000  0.40558000  1.0 -0.0256036626
C  C21  1  0.00000000  0.40558000  0.00000000  1.0 -0.0256036626
C  C22  1  0.00000000  0.59442000  0.00000000  1.0 -0.023347563
C  C23  1  0.59442000  0.00000000  0.40558000  1.0 -0.023347563
C  C24  1  0.40558000  0.00000000  0.59442000  1.0 -0.023347563
C  C25  1  0.08110000  0.91890000  0.45270000  1.0 -0.1066029846
C  C26  1  0.91890000  0.08110000  0.54730000  1.0 -0.1066029846
C  C27  1  0.45270000  0.54730000  0.08110000  1.0 -0.1066029846
C  C28  1  0.54730000  0.45270000  0.91890000  1.0 -0.1066029846
C  C29  1  0.45270000  0.08110000  0.91890000  1.0 -0.1066029846
C  C30  1  0.54730000  0.91890000  0.08110000  1.0 -0.1066029846
C  C31  1  0.08110000  0.45270000  0.54730000  1.0 -0.1066029846
C  C32  1  0.91890000  0.54730000  0.45270000  1.0 -0.1066029846
C  C33  1  0.91890000  0.45270000  0.08110000  1.0 -0.1066029846
C  C34  1  0.08110000  0.54730000  0.91890000  1.0 -0.1066029846
C  C35  1  0.54730000  0.08110000  0.45270000  1.0 -0.1066029846
C  C36  1  0.45270000  0.91890000  0.54730000  1.0 -0.1066029846
C  C37  1  0.91890000  0.08110000  0.45270000  1.0 -0.1066029846
C  C38  1  0.08110000  0.91890000  0.54730000  1.0 -0.1066029846
C  C39  1  0.54730000  0.45270000  0.08110000  1.0 -0.1066029846
C  C40  1  0.45270000  0.54730000  0.91890000  1.0 -0.1066029846
C  C41  1  0.54730000  0.91890000  0.45270000  1.0 -0.1066029846
C  C42  1  0.45270000  0.08110000  0.54730000  1.0 -0.1066029846
C  C43  1  0.91890000  0.54730000  0.08110000  1.0 -0.1066029846
C  C44  1  0.08110000  0.45270000  0.91890000  1.0 -0.1066029846
C  C45  1  0.08110000  0.54730000  0.45270000  1.0 -0.1066029846
C  C46  1  0.91890000  0.45270000  0.54730000  1.0 -0.1066029846
C  C47  1  0.45270000  0.91890000  0.08110000  1.0 -0.1066029846
C  C48  1  0.54730000  0.08110000  0.91890000  1.0 -0.1066029846
O  O1  1  0.92300000  0.07700000  0.26468000  1.0 -0.1926962482
O  O2  1  0.07700000  0.92300000  0.73532000  1.0 -0.1926962482
O  O3  1  0.26468000  0.73532000  0.92300000  1.0 -0.1926962482
O  O4  1  0.73532000  0.26468000  0.07700000  1.0 -0.1926962482
O  O5  1  0.26468000  0.92300000  0.07700000  1.0 -0.1926962482
O  O6  1  0.73532000  0.07700000  0.92300000  1.0 -0.1926962482
O  O7  1  0.92300000  0.26468000  0.73532000  1.0 -0.1926962482
O  O8  1  0.07700000  0.73532000  0.26468000  1.0 -0.1926962482
O  O9  1  0.07700000  0.26468000  0.92300000  1.0 -0.1926962482
O  O10  1  0.92300000  0.73532000  0.07700000  1.0 -0.1926962482
O  O11  1  0.73532000  0.92300000  0.26468000  1.0 -0.1926962482
O  O12  1  0.26468000  0.07700000  0.73532000  1.0 -0.1926962482
O  O13  1  0.07700000  0.92300000  0.26468000  1.0 -0.1926962482
O  O14  1  0.92300000  0.07700000  0.73532000  1.0 -0.1926962482
O  O15  1  0.73532000  0.26468000  0.92300000  1.0 -0.1926962482
O  O16  1  0.26468000  0.73532000  0.07700000  1.0 -0.1926962482
O  O17  1  0.73532000  0.07700000  0.26468000  1.0 -0.1926962482
O  O18  1  0.26468000  0.92300000  0.73532000  1.0 -0.1926962482
O  O19  1  0.07700000  0.73532000  0.92300000  1.0 -0.1926962482
O  O20  1  0.92300000  0.26468000  0.07700000  1.0 -0.1926962482
O  O21  1  0.92300000  0.73532000  0.26468000  1.0 -0.1926962482
O  O22  1  0.07700000  0.26468000  0.73532000  1.0 -0.1926962482
O  O23  1  0.26468000  0.07700000  0.92300000  1.0 -0.1926962482
O  O24  1  0.73532000  0.92300000  0.07700000  1.0 -0.1926962482
O  O25  1  0.06760000  0.06760000  0.06760000  1.0 -0.4009371838
O  O26  1  0.06760000  0.06760000  0.79720000  1.0 -0.4009371838
O  O27  1  0.06760000  0.79720000  0.06760000  1.0 -0.4009371838
O  O28  1  0.79720000  0.06760000  0.06760000  1.0 -0.3949052012
O  O29  1  0.93240000  0.93240000  0.20280000  1.0 -0.3949052012
O  O30  1  0.93240000  0.93240000  0.93240000  1.0 -0.3949052012
O  O31  1  0.93240000  0.20280000  0.93240000  1.0 -0.3949052012
O  O32  1  0.20280000  0.93240000  0.93240000  1.0 -0.4009371838
O  O33  1  0.88600000  0.11400000  0.27400000  1.0 -0.206009043
O  O34  1  0.11400000  0.88600000  0.72600000  1.0 -0.206009043
O  O35  1  0.27400000  0.72600000  0.88600000  1.0 -0.206009043
O  O36  1  0.72600000  0.27400000  0.11400000  1.0 -0.206009043
O  O37  1  0.27400000  0.88600000  0.11400000  1.0 -0.206009043
O  O38  1  0.72600000  0.11400000  0.88600000  1.0 -0.206009043
O  O39  1  0.88600000  0.27400000  0.72600000  1.0 -0.206009043
O  O40  1  0.11400000  0.72600000  0.27400000  1.0 -0.206009043
O  O41  1  0.11400000  0.27400000  0.88600000  1.0 -0.206009043
O  O42  1  0.88600000  0.72600000  0.11400000  1.0 -0.2023099876
O  O43  1  0.72600000  0.88600000  0.27400000  1.0 -0.206009043
O  O44  1  0.27400000  0.11400000  0.72600000  1.0 -0.206009043
O  O45  1  0.11400000  0.88600000  0.27400000  1.0 -0.206009043
O  O46  1  0.88600000  0.11400000  0.72600000  1.0 -0.206009043
O  O47  1  0.72600000  0.27400000  0.88600000  1.0 -0.206009043
O  O48  1  0.27400000  0.72600000  0.11400000  1.0 -0.206009043
O  O49  1  0.72600000  0.11400000  0.27400000  1.0 -0.206009043
O  O50  1  0.27400000  0.88600000  0.72600000  1.0 -0.206009043
O  O51  1  0.11400000  0.72600000  0.88600000  1.0 -0.206009043
O  O52  1  0.88600000  0.27400000  0.11400000  1.0 -0.206009043
O  O53  1  0.88600000  0.72600000  0.27400000  1.0 -0.206009043
O  O54  1  0.11400000  0.27400000  0.72600000  1.0 -0.206009043
O  O55  1  0.27400000  0.11400000  0.88600000  1.0 -0.206009043
O  O56  1  0.72600000  0.88600000  0.11400000  1.0 -0.2023099876
O  O57  1  0.05040000  0.05040000  0.05040000  1.0 -0.4009371838
O  O58  1  0.05040000  0.05040000  0.84880000  1.0 -0.4009371838
O  O59  1  0.05040000  0.84880000  0.05040000  1.0 -0.4009371838
O  O60  1  0.84880000  0.05040000  0.05040000  1.0 -0.4009371838
O  O61  1  0.94960000  0.94960000  0.15120000  1.0 -0.4009371838
O  O62  1  0.94960000  0.94960000  0.94960000  1.0 -0.4009371838
O  O63  1  0.94960000  0.15120000  0.94960000  1.0 -0.4009371838
O  O64  1  0.15120000  0.94960000  0.94960000  1.0 -0.4009371838
