# DDEC6 charges by PACMAN v1.1 (https://github.com/mtap-research/PACMAN-charge/)
data_SUSNUR_ion_pacman
_symmetry_space_group_name_H-M   'P 1'
_cell_length_a   12.63150000
_cell_length_b   13.33430000
_cell_length_c   16.16710000
_cell_angle_alpha   106.35300000
_cell_angle_beta   110.60000000
_cell_angle_gamma   87.38500000
_symmetry_Int_Tables_number   1
_chemical_formula_structural   Co3H84C104(N2O3)8
_chemical_formula_sum   'Co3 H84 C104 N16 O24'
_cell_volume   2441.49710532
_cell_formula_units_Z   1
loop_
 _symmetry_equiv_pos_site_id
 _symmetry_equiv_pos_as_xyz
  1  'x, y, z'
loop_
 _atom_site_type_symbol
 _atom_site_label
 _atom_site_symmetry_multiplicity
 _atom_site_fract_x
 _atom_site_fract_y
 _atom_site_fract_z
 _atom_site_occupancy
 _atom_site_charge
Co  Co1  1  0.85928000  0.31067000  0.78792000  1.0 0.962256824
Co  Co2  1  0.14072000  0.68933000  0.21208000  1.0 0.962256824
Co  Co3  1  0.00000000  0.50000000  0.00000000  1.0 1.0736751308
H  H1  1  0.99300000  0.29700000  0.93600000  1.0 0.330866297
H  H2  1  0.00700000  0.70300000  0.06400000  1.0 0.330866297
H  H3  1  0.89500000  0.31900000  0.94900000  1.0 0.330866297
H  H4  1  0.10500000  0.68100000  0.05100000  1.0 0.330866297
H  H5  1  0.26540000  0.53120000  0.95370000  1.0 0.130911597
H  H6  1  0.73460000  0.46880000  0.04630000  1.0 0.130911597
H  H7  1  0.15660000  0.34430000  0.69490000  1.0 0.1189503343
H  H8  1  0.84340000  0.65570000  0.30510000  1.0 0.1189503343
H  H9  1  0.50490000  0.20920000  0.72370000  1.0 0.1098000288
H  H10  1  0.49510000  0.79080000  0.27630000  1.0 0.1098000288
H  H11  1  0.61760000  0.21420000  0.98990000  1.0 0.1189503343
H  H12  1  0.38240000  0.78580000  0.01010000  1.0 0.1189503343
H  H13  1  0.90430000  0.95210000  0.70750000  1.0 0.1189503343
H  H14  1  0.09570000  0.04790000  0.29250000  1.0 0.1189503343
H  H15  1  0.10310000  0.03410000  0.97350000  1.0 0.1098000288
H  H16  1  0.89690000  0.96590000  0.02650000  1.0 0.1098000288
H  H17  1  0.75200000  0.69930000  0.95960000  1.0 0.130911597
H  H18  1  0.24800000  0.30070000  0.04040000  1.0 0.130911597
H  H19  1  0.74380000  0.61330000  0.69880000  1.0 0.1098000288
H  H20  1  0.25620000  0.38670000  0.30120000  1.0 0.1098000288
H  H21  1  0.43810000  0.55950000  0.94300000  1.0 0.1189503343
H  H22  1  0.56190000  0.44050000  0.05700000  1.0 0.1189503343
H  H23  1  0.32950000  0.37140000  0.68330000  1.0 0.1189503343
H  H24  1  0.67050000  0.62860000  0.31670000  1.0 0.1189503343
H  H25  1  0.33190000  0.13720000  0.70300000  1.0 0.1189503343
H  H26  1  0.66810000  0.86280000  0.29700000  1.0 0.1189503343
H  H27  1  0.44470000  0.14270000  0.96980000  1.0 0.1189503343
H  H28  1  0.55530000  0.85730000  0.03020000  1.0 0.1189503343
H  H29  1  0.94390000  0.77810000  0.69800000  1.0 0.1098000288
H  H30  1  0.05610000  0.22190000  0.30200000  1.0 0.1098000288
H  H31  1  0.14220000  0.86210000  0.96450000  1.0 0.130911597
H  H32  1  0.85780000  0.13790000  0.03550000  1.0 0.130911597
H  H33  1  0.68590000  0.85830000  0.94250000  1.0 0.1189503343
H  H34  1  0.31410000  0.14170000  0.05750000  1.0 0.1189503343
H  H35  1  0.68550000  0.77590000  0.68400000  1.0 0.1189503343
H  H36  1  0.31450000  0.22410000  0.31600000  1.0 0.1189503343
H  H37  1  0.55320000  0.55030000  0.85350000  1.0 0.130911597
H  H38  1  0.44680000  0.44970000  0.14650000  1.0 0.130911597
H  H39  1  0.56470000  0.42890000  0.82520000  1.0 0.1387602885
H  H40  1  0.43530000  0.57110000  0.17480000  1.0 0.1387602885
H  H41  1  0.27440000  0.02200000  0.84770000  1.0 0.130911597
H  H42  1  0.72560000  0.97800000  0.15230000  1.0 0.130911597
H  H43  1  0.22700000  0.13370000  0.86740000  1.0 0.1387602885
H  H44  1  0.77300000  0.86630000  0.13260000  1.0 0.1387602885
H  H45  1  0.15550000  0.69050000  0.86750000  1.0 0.1387602885
H  H46  1  0.84450000  0.30950000  0.13250000  1.0 0.1387602885
H  H47  1  0.03010000  0.66150000  0.85350000  1.0 0.1479133342
H  H48  1  0.96990000  0.33850000  0.14650000  1.0 0.1479133342
H  H49  1  0.58300000  0.95890000  0.83620000  1.0 0.130911597
H  H50  1  0.41700000  0.04110000  0.16380000  1.0 0.130911597
H  H51  1  0.70650000  0.99310000  0.85020000  1.0 0.1387602885
H  H52  1  0.29350000  0.00690000  0.14980000  1.0 0.1387602885
H  H53  1  0.42610000  0.61600000  0.71890000  1.0 0.1098000288
H  H54  1  0.57390000  0.38400000  0.28110000  1.0 0.1098000288
H  H55  1  0.59520000  0.36170000  0.69130000  1.0 0.130911597
H  H56  1  0.40480000  0.63830000  0.30870000  1.0 0.130911597
H  H57  1  0.23300000  0.91730000  0.69320000  1.0 0.1098000288
H  H58  1  0.76700000  0.08270000  0.30680000  1.0 0.1098000288
H  H59  1  0.09830000  0.18880000  0.74520000  1.0 0.130911597
H  H60  1  0.90170000  0.81120000  0.25480000  1.0 0.130911597
H  H61  1  0.92960000  0.53830000  0.71920000  1.0 0.130911597
H  H62  1  0.07040000  0.46170000  0.28080000  1.0 0.130911597
H  H63  1  0.18850000  0.69390000  0.72500000  1.0 0.1098000288
H  H64  1  0.81150000  0.30610000  0.27500000  1.0 0.1098000288
H  H65  1  0.73270000  0.05080000  0.73940000  1.0 0.130911597
H  H66  1  0.26730000  0.94920000  0.26060000  1.0 0.130911597
H  H67  1  0.45960000  0.87300000  0.67350000  1.0 0.1098000288
H  H68  1  0.54040000  0.12700000  0.32650000  1.0 0.1098000288
H  H69  1  0.41410000  0.62490000  0.57650000  1.0 0.1387602885
H  H70  1  0.58590000  0.37510000  0.42350000  1.0 0.1387602885
H  H71  1  0.58750000  0.36610000  0.54900000  1.0 0.1387602885
H  H72  1  0.41250000  0.63390000  0.45100000  1.0 0.1387602885
H  H73  1  0.11510000  0.87590000  0.54230000  1.0 0.1387602885
H  H74  1  0.88490000  0.12410000  0.45770000  1.0 0.1387602885
H  H75  1  0.98090000  0.15330000  0.59540000  1.0 0.1479133342
H  H76  1  0.01910000  0.84670000  0.40460000  1.0 0.1479133342
H  H77  1  0.89050000  0.45220000  0.56720000  1.0 0.1387602885
H  H78  1  0.10950000  0.54780000  0.43280000  1.0 0.1387602885
H  H79  1  0.15430000  0.61070000  0.57210000  1.0 0.1387602885
H  H80  1  0.84570000  0.38930000  0.42790000  1.0 0.1387602885
H  H81  1  0.66950000  0.07690000  0.59620000  1.0 0.1387602885
H  H82  1  0.33050000  0.92310000  0.40380000  1.0 0.1387602885
H  H83  1  0.39030000  0.89810000  0.53050000  1.0 0.130911597
H  H84  1  0.60970000  0.10190000  0.46950000  1.0 0.130911597
C  C1  1  0.08010000  0.42270000  0.83410000  1.0 0.5734926214
C  C2  1  0.91990000  0.57730000  0.16590000  1.0 0.5734926214
C  C3  1  0.69650000  0.25950000  0.87130000  1.0 0.550068428
C  C4  1  0.30350000  0.74050000  0.12870000  1.0 0.550068428
C  C5  1  0.98520000  0.12620000  0.84860000  1.0 0.550068428
C  C6  1  0.01480000  0.87380000  0.15140000  1.0 0.550068428
C  C7  1  0.80460000  0.53720000  0.84690000  1.0 0.5647296657
C  C8  1  0.19540000  0.46280000  0.15310000  1.0 0.5647296657
C  C9  1  0.19280000  0.43490000  0.82550000  1.0 -0.0387337407
C  C10  1  0.80720000  0.56510000  0.17450000  1.0 -0.0387337407
C  C11  1  0.58010000  0.21760000  0.85830000  1.0 -0.0387337407
C  C12  1  0.41990000  0.78240000  0.14170000  1.0 -0.0387337407
C  C13  1  0.00120000  0.01160000  0.84100000  1.0 -0.0387337407
C  C14  1  0.99880000  0.98840000  0.15900000  1.0 -0.0387337407
C  C15  1  0.75650000  0.63960000  0.83090000  1.0 -0.0330604191
C  C16  1  0.24350000  0.36040000  0.16910000  1.0 -0.0330604191
C  C17  1  0.27810000  0.49910000  0.89930000  1.0 -0.0921660687
C  C18  1  0.72190000  0.50090000  0.10070000  1.0 -0.0921660687
C  C19  1  0.21330000  0.38750000  0.74490000  1.0 -0.118639444
C  C20  1  0.78670000  0.61250000  0.25510000  1.0 -0.118639444
C  C21  1  0.49290000  0.19520000  0.77300000  1.0 -0.118639444
C  C22  1  0.50710000  0.80480000  0.22700000  1.0 -0.118639444
C  C23  1  0.56050000  0.19840000  0.93220000  1.0 -0.1109912768
C  C24  1  0.43950000  0.80160000  0.06780000  1.0 -0.1109912768
C  C25  1  0.95270000  0.93440000  0.75910000  1.0 -0.1286847915
C  C26  1  0.04730000  0.06560000  0.24090000  1.0 -0.1286847915
C  C27  1  0.07130000  0.98280000  0.91770000  1.0 -0.118639444
C  C28  1  0.92870000  0.01720000  0.08230000  1.0 -0.1109912768
C  C29  1  0.73800000  0.71420000  0.90400000  1.0 -0.0921660687
C  C30  1  0.26200000  0.28580000  0.09600000  1.0 -0.0921660687
C  C31  1  0.73410000  0.66330000  0.74850000  1.0 -0.118639444
C  C32  1  0.26590000  0.33670000  0.25150000  1.0 -0.118639444
C  C33  1  0.38160000  0.51590000  0.89320000  1.0 -0.159990717
C  C34  1  0.61840000  0.48410000  0.10680000  1.0 -0.159990717
C  C35  1  0.31680000  0.40350000  0.73780000  1.0 -0.1692136079
C  C36  1  0.68320000  0.59650000  0.26220000  1.0 -0.1692136079
C  C37  1  0.38910000  0.15270000  0.76060000  1.0 -0.1692136079
C  C38  1  0.61090000  0.84730000  0.23940000  1.0 -0.1692136079
C  C39  1  0.45700000  0.15610000  0.92030000  1.0 -0.1490755926
C  C40  1  0.54300000  0.84390000  0.07970000  1.0 -0.1490755926
C  C41  1  0.97600000  0.82970000  0.75350000  1.0 -0.159990717
C  C42  1  0.02400000  0.17030000  0.24650000  1.0 -0.159990717
C  C43  1  0.09450000  0.87980000  0.91260000  1.0 -0.1490755926
C  C44  1  0.90550000  0.12020000  0.08740000  1.0 -0.1490755926
C  C45  1  0.69910000  0.80970000  0.89370000  1.0 -0.1490755926
C  C46  1  0.30090000  0.19030000  0.10630000  1.0 -0.159990717
C  C47  1  0.69770000  0.76020000  0.73900000  1.0 -0.1692136079
C  C48  1  0.30230000  0.23980000  0.26100000  1.0 -0.1692136079
C  C49  1  0.40140000  0.46740000  0.81200000  1.0 0.1003740107
C  C50  1  0.59860000  0.53260000  0.18800000  1.0 0.1003740107
C  C51  1  0.37030000  0.13320000  0.83400000  1.0 0.1098000288
C  C52  1  0.62970000  0.86680000  0.16600000  1.0 0.1098000288
C  C53  1  0.04680000  0.80280000  0.83030000  1.0 0.1098000288
C  C54  1  0.95320000  0.19720000  0.16970000  1.0 0.1098000288
C  C55  1  0.67920000  0.83460000  0.81250000  1.0 0.1003740107
C  C56  1  0.32080000  0.16540000  0.18750000  1.0 0.1003740107
C  C57  1  0.51770000  0.48480000  0.80850000  1.0 -0.1825578846
C  C58  1  0.48230000  0.51520000  0.19150000  1.0 -0.1825578846
C  C59  1  0.25940000  0.08470000  0.82720000  1.0 -0.189457067
C  C60  1  0.74060000  0.91530000  0.17280000  1.0 -0.189457067
C  C61  1  0.07690000  0.69090000  0.82880000  1.0 -0.1825578846
C  C62  1  0.92310000  0.30910000  0.17120000  1.0 -0.1825578846
C  C63  1  0.64290000  0.94350000  0.81070000  1.0 -0.1980085472
C  C64  1  0.35710000  0.05650000  0.18930000  1.0 -0.1980085472
C  C65  1  0.45860000  0.56580000  0.68380000  1.0 0.0098967832
C  C66  1  0.54140000  0.43420000  0.31620000  1.0 0.0098967832
C  C67  1  0.55900000  0.41510000  0.66750000  1.0 0.0391623129
C  C68  1  0.44100000  0.58490000  0.33250000  1.0 0.0391623129
C  C69  1  0.18180000  0.96500000  0.67240000  1.0 -0.0007161957
C  C70  1  0.81820000  0.03500000  0.32760000  1.0 -0.0007161957
C  C71  1  0.10230000  0.12600000  0.70320000  1.0 0.0285949514
C  C72  1  0.89770000  0.87400000  0.29680000  1.0 0.0285949514
C  C73  1  0.97380000  0.55390000  0.68850000  1.0 0.0285949514
C  C74  1  0.02620000  0.44610000  0.31150000  1.0 0.0285949514
C  C75  1  0.12680000  0.64580000  0.69180000  1.0 0.0098967832
C  C76  1  0.87320000  0.35420000  0.30820000  1.0 0.0098967832
C  C77  1  0.66350000  0.01950000  0.69630000  1.0 0.0238109504
C  C78  1  0.33650000  0.98050000  0.30370000  1.0 0.0238109504
C  C79  1  0.50170000  0.91460000  0.65730000  1.0 0.0003513139
C  C80  1  0.49830000  0.08540000  0.34270000  1.0 -0.0007161957
C  C81  1  0.45210000  0.57140000  0.59910000  1.0 -0.189457067
C  C82  1  0.54790000  0.42860000  0.40090000  1.0 -0.189457067
C  C83  1  0.55470000  0.41790000  0.58260000  1.0 -0.1825578846
C  C84  1  0.44530000  0.58210000  0.41740000  1.0 -0.1825578846
C  C85  1  0.11190000  0.94050000  0.58240000  1.0 -0.189457067
C  C86  1  0.88810000  0.05950000  0.41760000  1.0 -0.189457067
C  C87  1  0.03230000  0.10470000  0.61400000  1.0 -0.1825578846
C  C88  1  0.96770000  0.89530000  0.38600000  1.0 -0.1825578846
C  C89  1  0.95040000  0.50270000  0.59760000  1.0 -0.1825578846
C  C90  1  0.04960000  0.49730000  0.40240000  1.0 -0.1825578846
C  C91  1  0.10640000  0.59620000  0.60030000  1.0 -0.189457067
C  C92  1  0.89360000  0.40380000  0.39970000  1.0 -0.189457067
C  C93  1  0.62530000  0.03560000  0.61080000  1.0 -0.1825578846
C  C94  1  0.37470000  0.96440000  0.38920000  1.0 -0.1825578846
C  C95  1  0.46030000  0.92940000  0.57200000  1.0 -0.1980085472
C  C96  1  0.53970000  0.07060000  0.42800000  1.0 -0.1980085472
C  C97  1  0.50210000  0.49740000  0.54600000  1.0 0.1098000288
C  C98  1  0.49790000  0.50260000  0.45400000  1.0 0.1098000288
C  C99  1  0.03610000  0.01160000  0.55010000  1.0 0.1098000288
C  C100  1  0.96390000  0.98840000  0.44990000  1.0 0.1098000288
C  C101  1  0.01400000  0.52440000  0.54980000  1.0 0.1098000288
C  C102  1  0.98600000  0.47560000  0.45020000  1.0 0.1098000288
C  C103  1  0.52220000  0.99150000  0.54620000  1.0 0.1003740107
C  C104  1  0.47780000  0.00850000  0.45380000  1.0 0.1003740107
N  N1  1  0.77840000  0.25090000  0.64010000  1.0 -0.3722549851
N  N2  1  0.22160000  0.74910000  0.35990000  1.0 -0.3722549851
N  N3  1  0.78100000  0.26830000  0.58480000  1.0 0.4208733191
N  N4  1  0.21900000  0.73170000  0.41520000  1.0 0.4208733191
N  N5  1  0.77290000  0.28490000  0.50970000  1.0 -0.5572013359
N  N6  1  0.22710000  0.71510000  0.49030000  1.0 -0.5572013359
N  N7  1  0.51190000  0.48790000  0.71670000  1.0 0.089543545
N  N8  1  0.48810000  0.51210000  0.28330000  1.0 0.089543545
N  N9  1  0.17700000  0.05740000  0.73120000  1.0 0.089543545
N  N10  1  0.82300000  0.94260000  0.26880000  1.0 0.089543545
N  N11  1  0.05950000  0.62590000  0.73370000  1.0 0.089543545
N  N12  1  0.94050000  0.37410000  0.26630000  1.0 0.089543545
N  N13  1  0.60220000  0.95910000  0.71830000  1.0 0.089543545
N  N14  1  0.39780000  0.04090000  0.28170000  1.0 0.089543545
N  N15  1  0.61710000  0.19000000  0.19020000  1.0 0.4415218283
N  N16  1  0.38290000  0.81000000  0.80980000  1.0 0.4415218283
O  O1  1  0.94580000  0.34680000  0.93760000  1.0 -0.7312623511
O  O2  1  0.05420000  0.65320000  0.06240000  1.0 -0.7312623511
O  O3  1  0.01490000  0.34380000  0.78060000  1.0 -0.5731720577
O  O4  1  0.98510000  0.65620000  0.21940000  1.0 -0.5731720577
O  O5  1  0.70710000  0.28120000  0.80360000  1.0 -0.577390338
O  O6  1  0.29290000  0.71880000  0.19640000  1.0 -0.577390338
O  O7  1  0.89930000  0.15130000  0.79020000  1.0 -0.5851181994
O  O8  1  0.10070000  0.84870000  0.20980000  1.0 -0.5851181994
O  O9  1  0.80660000  0.46420000  0.77830000  1.0 -0.577390338
O  O10  1  0.19340000  0.53580000  0.22170000  1.0 -0.577390338
O  O11  1  0.05800000  0.49540000  0.89380000  1.0 -0.5731720577
O  O12  1  0.94200000  0.50460000  0.10620000  1.0 -0.5731720577
O  O13  1  0.83720000  0.53460000  0.92850000  1.0 -0.5572013359
O  O14  1  0.16280000  0.46540000  0.07150000  1.0 -0.5572013359
O  O15  1  0.77150000  0.26840000  0.94830000  1.0 -0.5291793893
O  O16  1  0.22850000  0.73160000  0.05170000  1.0 -0.5291793893
O  O17  1  0.06110000  0.18780000  0.91220000  1.0 -0.5291793893
O  O18  1  0.93890000  0.81220000  0.08780000  1.0 -0.5291793893
O  O19  1  0.57700000  0.10390000  0.13890000  1.0 -0.3460397969
O  O20  1  0.64230000  0.20680000  0.26080000  1.0 -0.2270267184
O  O21  1  0.61010000  0.26470000  0.15590000  1.0 -0.3722549851
O  O22  1  0.42300000  0.89610000  0.86110000  1.0 -0.3460397969
O  O23  1  0.35770000  0.79320000  0.73920000  1.0 -0.2270267184
O  O24  1  0.38990000  0.73530000  0.84410000  1.0 -0.3722549851
