# DDEC6 charges by PACMAN v1.1 (https://github.com/mtap-research/PACMAN-charge/)
data_SUSZIQ_ASR_pacman
_symmetry_space_group_name_H-M   'P 1'
_cell_length_a   16.10350000
_cell_length_b   16.10350000
_cell_length_c   16.10350000
_cell_angle_alpha   149.96700000
_cell_angle_beta   125.30600000
_cell_angle_gamma   63.66130000
_symmetry_Int_Tables_number   1
_chemical_formula_structural   AlPO4
_chemical_formula_sum   'Al16 P16 O64'
_cell_volume   1689.17256766
_cell_formula_units_Z   16
loop_
 _symmetry_equiv_pos_site_id
 _symmetry_equiv_pos_as_xyz
  1  'x, y, z'
loop_
 _atom_site_type_symbol
 _atom_site_label
 _atom_site_symmetry_multiplicity
 _atom_site_fract_x
 _atom_site_fract_y
 _atom_site_fract_z
 _atom_site_occupancy
 _atom_site_charge
Al  Al1  1  0.68638000  0.56748000  0.69450000  1.0 1.7101573478
Al  Al2  1  0.87298000  0.06748000  0.38110000  1.0 1.7101573478
Al  Al3  1  0.12702000  0.50812000  0.19450000  1.0 1.7101573478
Al  Al4  1  0.31362000  0.00812000  0.88110000  1.0 1.7101573478
Al  Al5  1  0.77386000  0.45756000  0.88390000  1.0 1.7101573478
Al  Al6  1  0.57366000  0.95756000  0.18370000  1.0 1.7101573478
Al  Al7  1  0.42634000  0.61004000  0.38390000  1.0 1.7101573478
Al  Al8  1  0.22614000  0.11004000  0.68370000  1.0 1.7101573478
Al  Al9  1  0.85212000  0.72292000  0.68460000  1.0 1.7101573478
Al  Al10  1  0.03832000  0.22292000  0.37080000  1.0 1.716724826
Al  Al11  1  0.96168000  0.33248000  0.18460000  1.0 1.7101573478
Al  Al12  1  0.14788000  0.83248000  0.87080000  1.0 1.716724826
Al  Al13  1  0.09559000  0.65019000  0.01300000  1.0 1.7101573478
Al  Al14  1  0.63719000  0.15019000  0.05460000  1.0 1.7101573478
Al  Al15  1  0.36281000  0.41741000  0.51300000  1.0 1.7101573478
Al  Al16  1  0.90441000  0.91741000  0.55460000  1.0 1.7101573478
P  P1  1  0.88094000  0.45024000  0.76470000  1.0 1.5328087937
P  P2  1  0.68554000  0.95024000  0.06930000  1.0 1.5328087937
P  P3  1  0.31446000  0.38376000  0.26470000  1.0 1.5328087937
P  P4  1  0.11906000  0.88376000  0.56930000  1.0 1.5328087937
P  P5  1  0.57588000  0.33308000  0.56900000  1.0 1.5470223756
P  P6  1  0.76408000  0.83308000  0.25720000  1.0 1.5385994048
P  P7  1  0.23592000  0.49312000  0.06900000  1.0 1.5470223756
P  P8  1  0.42412000  0.99312000  0.75720000  1.0 1.5470223756
P  P9  1  0.64101000  0.51741000  0.43620000  1.0 1.5385994048
P  P10  1  0.08121000  0.01741000  0.37640000  1.0 1.5385994048
P  P11  1  0.91879000  0.29519000  0.93620000  1.0 1.5385994048
P  P12  1  0.35899000  0.79519000  0.87640000  1.0 1.5385994048
P  P13  1  0.04991000  0.60401000  0.75850000  1.0 1.5385994048
P  P14  1  0.84551000  0.10401000  0.05410000  1.0 1.5385994048
P  P15  1  0.15449000  0.20859000  0.25850000  1.0 1.5385994048
P  P16  1  0.95009000  0.70859000  0.55410000  1.0 1.5385994048
O  O1  1  0.84832000  0.47362000  0.85470000  1.0 -0.8206309297
O  O2  1  0.61892000  0.97362000  0.12530000  1.0 -0.8206309297
O  O3  1  0.38108000  0.50638000  0.35470000  1.0 -0.8206309297
O  O4  1  0.15168000  0.00638000  0.62530000  1.0 -0.8206309297
O  O5  1  0.81183000  0.53233000  0.73810000  1.0 -0.8380944151
O  O6  1  0.79423000  0.03233000  0.22050000  1.0 -0.8380944151
O  O7  1  0.20577000  0.42627000  0.23810000  1.0 -0.8380944151
O  O8  1  0.18817000  0.92627000  0.72050000  1.0 -0.8380944151
O  O9  1  0.99106000  0.53376000  0.89410000  1.0 -0.7893237043
O  O10  1  0.63966000  0.03376000  0.04270000  1.0 -0.7893237043
O  O11  1  0.36034000  0.40304000  0.39410000  1.0 -0.7893237043
O  O12  1  0.00894000  0.90304000  0.54270000  1.0 -0.7893237043
O  O13  1  0.88090000  0.26980000  0.58930000  1.0 -0.8206309297
O  O14  1  0.68050000  0.76980000  0.88890000  1.0 -0.8206309297
O  O15  1  0.31950000  0.20840000  0.08930000  1.0 -0.8206309297
O  O16  1  0.11910000  0.70840000  0.38890000  1.0 -0.8206309297
O  O17  1  0.61445000  0.44315000  0.61490000  1.0 -0.8274200726
O  O18  1  0.82825000  0.94315000  0.32870000  1.0 -0.8274200726
O  O19  1  0.17175000  0.50045000  0.11490000  1.0 -0.8274200726
O  O20  1  0.38555000  0.00045000  0.82870000  1.0 -0.8274200726
O  O21  1  0.47500000  0.37810000  0.58330000  1.0 -0.7893237043
O  O22  1  0.79480000  0.87810000  0.40310000  1.0 -0.7893237043
O  O23  1  0.20520000  0.60830000  0.08330000  1.0 -0.7893237043
O  O24  1  0.52500000  0.10830000  0.90310000  1.0 -0.7893237043
O  O25  1  0.56431000  0.15241000  0.38270000  1.0 -0.8044857252
O  O26  1  0.76971000  0.65241000  0.08810000  1.0 -0.8044857252
O  O27  1  0.23029000  0.31839000  0.88270000  1.0 -0.8044857252
O  O28  1  0.43569000  0.81839000  0.58810000  1.0 -0.8044857252
O  O29  1  0.65270000  0.36010000  0.70820000  1.0 -0.8206309297
O  O30  1  0.65190000  0.86010000  0.20740000  1.0 -0.8206309297
O  O31  1  0.34810000  0.55550000  0.20820000  1.0 -0.8206309297
O  O32  1  0.34730000  0.05550000  0.70740000  1.0 -0.8206309297
O  O33  1  0.54415000  0.56505000  0.38390000  1.0 -0.8110337649
O  O34  1  0.18115000  0.06505000  0.52090000  1.0 -0.8110337649
O  O35  1  0.81885000  0.33975000  0.88390000  1.0 -0.8110337649
O  O36  1  0.45585000  0.83975000  0.02090000  1.0 -0.8110337649
O  O37  1  0.63541000  0.51301000  0.52260000  1.0 -0.8110337649
O  O38  1  0.99041000  0.01301000  0.37760000  1.0 -0.8110337649
O  O39  1  0.00959000  0.38719000  0.02260000  1.0 -0.8110337649
O  O40  1  0.36459000  0.88719000  0.87760000  1.0 -0.8110337649
O  O41  1  0.65950000  0.35420000  0.27010000  1.0 -0.7893237043
O  O42  1  0.08410000  0.85420000  0.19470000  1.0 -0.7893237043
O  O43  1  0.91590000  0.11060000  0.77010000  1.0 -0.7893237043
O  O44  1  0.34050000  0.61060000  0.69470000  1.0 -0.7893237043
O  O45  1  0.72950000  0.64260000  0.56650000  1.0 -0.8110337649
O  O46  1  0.07610000  0.14260000  0.41310000  1.0 -0.8110337649
O  O47  1  0.92390000  0.33700000  0.06650000  1.0 -0.8110337649
O  O48  1  0.27050000  0.83700000  0.91310000  1.0 -0.8110337649
O  O49  1  0.94245000  0.65095000  0.73670000  1.0 -0.8380944151
O  O50  1  0.91425000  0.15095000  0.20850000  1.0 -0.8380944151
O  O51  1  0.08575000  0.29425000  0.23670000  1.0 -0.8380944151
O  O52  1  0.05755000  0.79425000  0.70850000  1.0 -0.8380944151
O  O53  1  0.12099000  0.70679000  0.82960000  1.0 -0.8274200726
O  O54  1  0.87719000  0.20679000  0.08580000  1.0 -0.8274200726
O  O55  1  0.12281000  0.20861000  0.32960000  1.0 -0.8274200726
O  O56  1  0.87901000  0.70861000  0.58580000  1.0 -0.8274200726
O  O57  1  0.09917000  0.60907000  0.87590000  1.0 -0.8110337649
O  O58  1  0.73317000  0.10907000  0.00990000  1.0 -0.8110337649
O  O59  1  0.26683000  0.27673000  0.37590000  1.0 -0.8110337649
O  O60  1  0.90083000  0.77673000  0.50990000  1.0 -0.8110337649
O  O61  1  0.04215000  0.43115000  0.57080000  1.0 -0.7893237043
O  O62  1  0.86035000  0.93115000  0.88900000  1.0 -0.7893237043
O  O63  1  0.13965000  0.02865000  0.07080000  1.0 -0.7893237043
O  O64  1  0.95785000  0.52865000  0.38900000  1.0 -0.7893237043
