# DDEC6 charges by PACMAN v1.1 (https://github.com/mtap-research/PACMAN-charge/)
data_SUVNEE_ASR_pacman
_symmetry_space_group_name_H-M   'P 1'
_cell_length_a   29.32330000
_cell_length_b   29.32330000
_cell_length_c   29.32330000
_cell_angle_alpha   60.00000000
_cell_angle_beta   60.00000000
_cell_angle_gamma   60.00000000
_symmetry_Int_Tables_number   1
_chemical_formula_structural   Ni9H48C84(N3O22)2
_chemical_formula_sum   'Ni36 H192 C336 N24 O176'
_cell_volume   17828.85828175
_cell_formula_units_Z   4
loop_
 _symmetry_equiv_pos_site_id
 _symmetry_equiv_pos_as_xyz
  1  'x, y, z'
loop_
 _atom_site_type_symbol
 _atom_site_label
 _atom_site_symmetry_multiplicity
 _atom_site_fract_x
 _atom_site_fract_y
 _atom_site_fract_z
 _atom_site_occupancy
 _atom_site_charge
Ni  Ni1  1  0.07025000  0.18773000  0.18773000  1.0 0.9685582475
Ni  Ni2  1  0.18773000  0.07025000  0.55429000  1.0 0.9685582475
Ni  Ni3  1  0.18773000  0.55429000  0.07025000  1.0 0.9685582475
Ni  Ni4  1  0.55429000  0.18773000  0.18773000  1.0 0.9685582475
Ni  Ni5  1  0.18773000  0.07025000  0.18773000  1.0 0.9685582475
Ni  Ni6  1  0.55429000  0.18773000  0.07025000  1.0 0.9685582475
Ni  Ni7  1  0.07025000  0.18773000  0.55429000  1.0 0.9685582475
Ni  Ni8  1  0.18773000  0.55429000  0.18773000  1.0 0.9685582475
Ni  Ni9  1  0.18773000  0.18773000  0.07025000  1.0 0.9685582475
Ni  Ni10  1  0.07025000  0.55429000  0.18773000  1.0 0.9685582475
Ni  Ni11  1  0.55429000  0.07025000  0.18773000  1.0 0.9685582475
Ni  Ni12  1  0.18773000  0.18773000  0.55429000  1.0 0.9685582475
Ni  Ni13  1  0.92975000  0.81227000  0.44571000  1.0 0.9685582475
Ni  Ni14  1  0.81227000  0.92975000  0.81227000  1.0 0.9685582475
Ni  Ni15  1  0.81227000  0.44571000  0.81227000  1.0 0.9685582475
Ni  Ni16  1  0.44571000  0.81227000  0.92975000  1.0 0.9685582475
Ni  Ni17  1  0.81227000  0.92975000  0.44571000  1.0 0.9685582475
Ni  Ni18  1  0.44571000  0.81227000  0.81227000  1.0 0.9685582475
Ni  Ni19  1  0.92975000  0.81227000  0.81227000  1.0 0.9685582475
Ni  Ni20  1  0.81227000  0.44571000  0.92975000  1.0 0.9685582475
Ni  Ni21  1  0.81227000  0.81227000  0.44571000  1.0 0.9685582475
Ni  Ni22  1  0.92975000  0.44571000  0.81227000  1.0 0.9685582475
Ni  Ni23  1  0.44571000  0.92975000  0.81227000  1.0 0.9685582475
Ni  Ni24  1  0.81227000  0.81227000  0.92975000  1.0 0.9685582475
Ni  Ni25  1  0.79590000  0.20410000  0.20410000  1.0 0.7876983789
Ni  Ni26  1  0.20410000  0.79590000  0.79590000  1.0 0.7876983789
Ni  Ni27  1  0.20410000  0.79590000  0.20410000  1.0 0.7876983789
Ni  Ni28  1  0.79590000  0.20410000  0.79590000  1.0 0.7876983789
Ni  Ni29  1  0.20410000  0.20410000  0.79590000  1.0 0.7876983789
Ni  Ni30  1  0.79590000  0.79590000  0.20410000  1.0 0.7876983789
Ni  Ni31  1  0.72780000  0.27220000  0.27220000  1.0 0.8362592068
Ni  Ni32  1  0.27220000  0.72780000  0.72780000  1.0 0.8362592068
Ni  Ni33  1  0.27220000  0.72780000  0.27220000  1.0 0.8362592068
Ni  Ni34  1  0.72780000  0.27220000  0.72780000  1.0 0.8362592068
Ni  Ni35  1  0.27220000  0.27220000  0.72780000  1.0 0.8362592068
Ni  Ni36  1  0.72780000  0.72780000  0.27220000  1.0 0.8362592068
H  H1  1  0.95910000  0.09690000  0.26910000  1.0 0.1206974892
H  H2  1  0.09690000  0.95910000  0.67490000  1.0 0.1206974892
H  H3  1  0.26910000  0.67490000  0.95910000  1.0 0.1206974892
H  H4  1  0.67490000  0.26910000  0.09690000  1.0 0.1206974892
H  H5  1  0.26910000  0.95910000  0.09690000  1.0 0.1206974892
H  H6  1  0.67490000  0.09690000  0.95910000  1.0 0.1206974892
H  H7  1  0.95910000  0.26910000  0.67490000  1.0 0.1206974892
H  H8  1  0.09690000  0.67490000  0.26910000  1.0 0.1206974892
H  H9  1  0.09690000  0.26910000  0.95910000  1.0 0.1206974892
H  H10  1  0.95910000  0.67490000  0.09690000  1.0 0.1206974892
H  H11  1  0.67490000  0.95910000  0.26910000  1.0 0.1206974892
H  H12  1  0.26910000  0.09690000  0.67490000  1.0 0.1206974892
H  H13  1  0.04090000  0.90310000  0.32510000  1.0 0.1206974892
H  H14  1  0.90310000  0.04090000  0.73090000  1.0 0.1206974892
H  H15  1  0.73090000  0.32510000  0.90310000  1.0 0.1206974892
H  H16  1  0.32510000  0.73090000  0.04090000  1.0 0.1206974892
H  H17  1  0.73090000  0.04090000  0.32510000  1.0 0.1206974892
H  H18  1  0.32510000  0.90310000  0.73090000  1.0 0.1206974892
H  H19  1  0.04090000  0.73090000  0.90310000  1.0 0.1206974892
H  H20  1  0.90310000  0.32510000  0.04090000  1.0 0.1206974892
H  H21  1  0.90310000  0.73090000  0.32510000  1.0 0.1206974892
H  H22  1  0.04090000  0.32510000  0.73090000  1.0 0.1206974892
H  H23  1  0.32510000  0.04090000  0.90310000  1.0 0.1206974892
H  H24  1  0.73090000  0.90310000  0.04090000  1.0 0.1206974892
H  H25  1  0.04090000  0.90310000  0.73090000  1.0 0.1206974892
H  H26  1  0.90310000  0.04090000  0.32510000  1.0 0.1206974892
H  H27  1  0.73090000  0.32510000  0.04090000  1.0 0.1206974892
H  H28  1  0.32510000  0.73090000  0.90310000  1.0 0.1206974892
H  H29  1  0.73090000  0.04090000  0.90310000  1.0 0.1206974892
H  H30  1  0.32510000  0.90310000  0.04090000  1.0 0.1206974892
H  H31  1  0.04090000  0.73090000  0.32510000  1.0 0.1206974892
H  H32  1  0.90310000  0.32510000  0.73090000  1.0 0.1206974892
H  H33  1  0.90310000  0.73090000  0.04090000  1.0 0.1206974892
H  H34  1  0.04090000  0.32510000  0.90310000  1.0 0.1206974892
H  H35  1  0.32510000  0.04090000  0.73090000  1.0 0.1206974892
H  H36  1  0.73090000  0.90310000  0.32510000  1.0 0.1206974892
H  H37  1  0.95910000  0.09690000  0.67490000  1.0 0.1206974892
H  H38  1  0.09690000  0.95910000  0.26910000  1.0 0.1206974892
H  H39  1  0.26910000  0.67490000  0.09690000  1.0 0.1206974892
H  H40  1  0.67490000  0.26910000  0.95910000  1.0 0.1206974892
H  H41  1  0.26910000  0.95910000  0.67490000  1.0 0.1206974892
H  H42  1  0.67490000  0.09690000  0.26910000  1.0 0.1206974892
H  H43  1  0.95910000  0.26910000  0.09690000  1.0 0.1206974892
H  H44  1  0.09690000  0.67490000  0.95910000  1.0 0.1206974892
H  H45  1  0.09690000  0.26910000  0.67490000  1.0 0.1206974892
H  H46  1  0.95910000  0.67490000  0.26910000  1.0 0.1206974892
H  H47  1  0.67490000  0.95910000  0.09690000  1.0 0.1206974892
H  H48  1  0.26910000  0.09690000  0.95910000  1.0 0.1206974892
H  H49  1  0.19090000  0.33650000  0.05650000  1.0 0.1206974892
H  H50  1  0.33650000  0.19090000  0.41610000  1.0 0.1206974892
H  H51  1  0.05650000  0.41610000  0.19090000  1.0 0.1206974892
H  H52  1  0.41610000  0.05650000  0.33650000  1.0 0.1206974892
H  H53  1  0.05650000  0.19090000  0.33650000  1.0 0.1206974892
H  H54  1  0.41610000  0.33650000  0.19090000  1.0 0.1206974892
H  H55  1  0.19090000  0.05650000  0.41610000  1.0 0.1206974892
H  H56  1  0.33650000  0.41610000  0.05650000  1.0 0.1206974892
H  H57  1  0.33650000  0.05650000  0.19090000  1.0 0.1206974892
H  H58  1  0.19090000  0.41610000  0.33650000  1.0 0.1206974892
H  H59  1  0.41610000  0.19090000  0.05650000  1.0 0.1206974892
H  H60  1  0.05650000  0.33650000  0.41610000  1.0 0.1206974892
H  H61  1  0.80910000  0.66350000  0.58390000  1.0 0.1206974892
H  H62  1  0.66350000  0.80910000  0.94350000  1.0 0.1206974892
H  H63  1  0.94350000  0.58390000  0.66350000  1.0 0.1206974892
H  H64  1  0.58390000  0.94350000  0.80910000  1.0 0.1206974892
H  H65  1  0.94350000  0.80910000  0.58390000  1.0 0.1206974892
H  H66  1  0.58390000  0.66350000  0.94350000  1.0 0.1206974892
H  H67  1  0.80910000  0.94350000  0.66350000  1.0 0.1206974892
H  H68  1  0.66350000  0.58390000  0.80910000  1.0 0.1206974892
H  H69  1  0.66350000  0.94350000  0.58390000  1.0 0.1206974892
H  H70  1  0.80910000  0.58390000  0.94350000  1.0 0.1206974892
H  H71  1  0.58390000  0.80910000  0.66350000  1.0 0.1206974892
H  H72  1  0.94350000  0.66350000  0.80910000  1.0 0.1206974892
H  H73  1  0.80910000  0.66350000  0.94350000  1.0 0.1206974892
H  H74  1  0.66350000  0.80910000  0.58390000  1.0 0.1206974892
H  H75  1  0.94350000  0.58390000  0.80910000  1.0 0.1206974892
H  H76  1  0.58390000  0.94350000  0.66350000  1.0 0.1206974892
H  H77  1  0.94350000  0.80910000  0.66350000  1.0 0.1206974892
H  H78  1  0.58390000  0.66350000  0.80910000  1.0 0.1206974892
H  H79  1  0.80910000  0.94350000  0.58390000  1.0 0.1206974892
H  H80  1  0.66350000  0.58390000  0.94350000  1.0 0.1206974892
H  H81  1  0.66350000  0.94350000  0.80910000  1.0 0.1206974892
H  H82  1  0.80910000  0.58390000  0.66350000  1.0 0.1206974892
H  H83  1  0.58390000  0.80910000  0.94350000  1.0 0.1206974892
H  H84  1  0.94350000  0.66350000  0.58390000  1.0 0.1206974892
H  H85  1  0.19090000  0.33650000  0.41610000  1.0 0.1206974892
H  H86  1  0.33650000  0.19090000  0.05650000  1.0 0.1206974892
H  H87  1  0.05650000  0.41610000  0.33650000  1.0 0.1206974892
H  H88  1  0.41610000  0.05650000  0.19090000  1.0 0.1206974892
H  H89  1  0.05650000  0.19090000  0.41610000  1.0 0.1206974892
H  H90  1  0.41610000  0.33650000  0.05650000  1.0 0.1206974892
H  H91  1  0.19090000  0.05650000  0.33650000  1.0 0.1206974892
H  H92  1  0.33650000  0.41610000  0.19090000  1.0 0.1206974892
H  H93  1  0.33650000  0.05650000  0.41610000  1.0 0.1206974892
H  H94  1  0.19090000  0.41610000  0.05650000  1.0 0.1206974892
H  H95  1  0.41610000  0.19090000  0.33650000  1.0 0.1206974892
H  H96  1  0.05650000  0.33650000  0.19090000  1.0 0.1206974892
H  H97  1  0.83980000  0.30060000  0.30060000  1.0 0.1112992282
H  H98  1  0.30060000  0.83980000  0.55900000  1.0 0.1112992282
H  H99  1  0.30060000  0.55900000  0.83980000  1.0 0.1112992282
H  H100  1  0.55900000  0.30060000  0.30060000  1.0 0.1206974892
H  H101  1  0.30060000  0.83980000  0.30060000  1.0 0.1112992282
H  H102  1  0.55900000  0.30060000  0.83980000  1.0 0.1112992282
H  H103  1  0.83980000  0.30060000  0.55900000  1.0 0.1112992282
H  H104  1  0.30060000  0.55900000  0.30060000  1.0 0.1112992282
H  H105  1  0.30060000  0.30060000  0.83980000  1.0 0.1112992282
H  H106  1  0.83980000  0.55900000  0.30060000  1.0 0.1112992282
H  H107  1  0.55900000  0.83980000  0.30060000  1.0 0.1206974892
H  H108  1  0.30060000  0.30060000  0.55900000  1.0 0.1112992282
H  H109  1  0.16020000  0.69940000  0.44100000  1.0 0.1112992282
H  H110  1  0.69940000  0.16020000  0.69940000  1.0 0.1112992282
H  H111  1  0.69940000  0.44100000  0.69940000  1.0 0.1112992282
H  H112  1  0.44100000  0.69940000  0.16020000  1.0 0.1206974892
H  H113  1  0.69940000  0.16020000  0.44100000  1.0 0.1112992282
H  H114  1  0.44100000  0.69940000  0.69940000  1.0 0.1112992282
H  H115  1  0.16020000  0.69940000  0.69940000  1.0 0.1112992282
H  H116  1  0.69940000  0.44100000  0.16020000  1.0 0.1206974892
H  H117  1  0.69940000  0.69940000  0.44100000  1.0 0.1112992282
H  H118  1  0.16020000  0.44100000  0.69940000  1.0 0.1112992282
H  H119  1  0.44100000  0.16020000  0.69940000  1.0 0.1112992282
H  H120  1  0.69940000  0.69940000  0.16020000  1.0 0.1206974892
H  H121  1  0.95220000  0.20440000  0.20440000  1.0 0.1206974892
H  H122  1  0.20440000  0.95220000  0.63900000  1.0 0.1112992282
H  H123  1  0.20440000  0.63900000  0.95220000  1.0 0.1112992282
H  H124  1  0.63900000  0.20440000  0.20440000  1.0 0.1112992282
H  H125  1  0.20440000  0.95220000  0.20440000  1.0 0.1206974892
H  H126  1  0.63900000  0.20440000  0.95220000  1.0 0.1112992282
H  H127  1  0.95220000  0.20440000  0.63900000  1.0 0.1112992282
H  H128  1  0.20440000  0.63900000  0.20440000  1.0 0.1112992282
H  H129  1  0.20440000  0.20440000  0.95220000  1.0 0.1112992282
H  H130  1  0.95220000  0.63900000  0.20440000  1.0 0.1112992282
H  H131  1  0.63900000  0.95220000  0.20440000  1.0 0.1112992282
H  H132  1  0.20440000  0.20440000  0.63900000  1.0 0.1112992282
H  H133  1  0.04780000  0.79560000  0.36100000  1.0 0.1206974892
H  H134  1  0.79560000  0.04780000  0.79560000  1.0 0.1112992282
H  H135  1  0.79560000  0.36100000  0.79560000  1.0 0.1112992282
H  H136  1  0.36100000  0.79560000  0.04780000  1.0 0.1206974892
H  H137  1  0.79560000  0.04780000  0.36100000  1.0 0.1112992282
H  H138  1  0.36100000  0.79560000  0.79560000  1.0 0.1112992282
H  H139  1  0.04780000  0.79560000  0.79560000  1.0 0.1112992282
H  H140  1  0.79560000  0.36100000  0.04780000  1.0 0.1206974892
H  H141  1  0.79560000  0.79560000  0.36100000  1.0 0.1206974892
H  H142  1  0.04780000  0.36100000  0.79560000  1.0 0.1112992282
H  H143  1  0.36100000  0.04780000  0.79560000  1.0 0.1206974892
H  H144  1  0.79560000  0.79560000  0.04780000  1.0 0.1206974892
H  H145  1  0.91120000  0.30700000  0.30700000  1.0 0.1251541929
H  H146  1  0.30700000  0.91120000  0.47480000  1.0 0.1251541929
H  H147  1  0.30700000  0.47480000  0.91120000  1.0 0.1251541929
H  H148  1  0.47480000  0.30700000  0.30700000  1.0 0.1251541929
H  H149  1  0.30700000  0.91120000  0.30700000  1.0 0.1251541929
H  H150  1  0.47480000  0.30700000  0.91120000  1.0 0.1251541929
H  H151  1  0.91120000  0.30700000  0.47480000  1.0 0.1251541929
H  H152  1  0.30700000  0.47480000  0.30700000  1.0 0.1251541929
H  H153  1  0.30700000  0.30700000  0.91120000  1.0 0.1251541929
H  H154  1  0.91120000  0.47480000  0.30700000  1.0 0.1251541929
H  H155  1  0.47480000  0.91120000  0.30700000  1.0 0.1251541929
H  H156  1  0.30700000  0.30700000  0.47480000  1.0 0.1251541929
H  H157  1  0.08880000  0.69300000  0.52520000  1.0 0.1251541929
H  H158  1  0.69300000  0.08880000  0.69300000  1.0 0.1251541929
H  H159  1  0.69300000  0.52520000  0.69300000  1.0 0.1251541929
H  H160  1  0.52520000  0.69300000  0.08880000  1.0 0.1251541929
H  H161  1  0.69300000  0.08880000  0.52520000  1.0 0.1251541929
H  H162  1  0.52520000  0.69300000  0.69300000  1.0 0.1251541929
H  H163  1  0.08880000  0.69300000  0.69300000  1.0 0.1251541929
H  H164  1  0.69300000  0.52520000  0.08880000  1.0 0.1251541929
H  H165  1  0.69300000  0.69300000  0.52520000  1.0 0.1251541929
H  H166  1  0.08880000  0.52520000  0.69300000  1.0 0.1251541929
H  H167  1  0.52520000  0.08880000  0.69300000  1.0 0.1251541929
H  H168  1  0.69300000  0.69300000  0.08880000  1.0 0.1251541929
H  H169  1  0.00290000  0.26290000  0.26290000  1.0 0.1112992282
H  H170  1  0.26290000  0.00290000  0.47130000  1.0 0.1112992282
H  H171  1  0.26290000  0.47130000  0.00290000  1.0 0.1112992282
H  H172  1  0.47130000  0.26290000  0.26290000  1.0 0.1112992282
H  H173  1  0.26290000  0.00290000  0.26290000  1.0 0.1112992282
H  H174  1  0.47130000  0.26290000  0.00290000  1.0 0.1112992282
H  H175  1  0.00290000  0.26290000  0.47130000  1.0 0.1112992282
H  H176  1  0.26290000  0.47130000  0.26290000  1.0 0.1112992282
H  H177  1  0.26290000  0.26290000  0.00290000  1.0 0.1112992282
H  H178  1  0.00290000  0.47130000  0.26290000  1.0 0.1112992282
H  H179  1  0.47130000  0.00290000  0.26290000  1.0 0.1112992282
H  H180  1  0.26290000  0.26290000  0.47130000  1.0 0.1112992282
H  H181  1  0.99710000  0.73710000  0.52870000  1.0 0.1112992282
H  H182  1  0.73710000  0.99710000  0.73710000  1.0 0.1112992282
H  H183  1  0.73710000  0.52870000  0.73710000  1.0 0.1112992282
H  H184  1  0.52870000  0.73710000  0.99710000  1.0 0.1112992282
H  H185  1  0.73710000  0.99710000  0.52870000  1.0 0.1112992282
H  H186  1  0.52870000  0.73710000  0.73710000  1.0 0.1112992282
H  H187  1  0.99710000  0.73710000  0.73710000  1.0 0.1112992282
H  H188  1  0.73710000  0.52870000  0.99710000  1.0 0.1112992282
H  H189  1  0.73710000  0.73710000  0.52870000  1.0 0.1112992282
H  H190  1  0.99710000  0.52870000  0.73710000  1.0 0.1112992282
H  H191  1  0.52870000  0.99710000  0.73710000  1.0 0.1112992282
H  H192  1  0.73710000  0.73710000  0.99710000  1.0 0.1112992282
C  C1  1  0.03349000  0.03349000  0.26549000  1.0 -0.0121992053
C  C2  1  0.03349000  0.03349000  0.66753000  1.0 -0.0121992053
C  C3  1  0.26549000  0.66753000  0.03349000  1.0 -0.0121992053
C  C4  1  0.66753000  0.26549000  0.03349000  1.0 -0.0121992053
C  C5  1  0.26549000  0.03349000  0.03349000  1.0 -0.0121992053
C  C6  1  0.66753000  0.03349000  0.03349000  1.0 -0.0121992053
C  C7  1  0.03349000  0.26549000  0.66753000  1.0 -0.0121992053
C  C8  1  0.03349000  0.66753000  0.26549000  1.0 -0.0121992053
C  C9  1  0.03349000  0.26549000  0.03349000  1.0 -0.0121992053
C  C10  1  0.03349000  0.66753000  0.03349000  1.0 -0.0121992053
C  C11  1  0.66753000  0.03349000  0.26549000  1.0 -0.0121992053
C  C12  1  0.26549000  0.03349000  0.66753000  1.0 -0.0121992053
C  C13  1  0.96651000  0.96651000  0.33247000  1.0 -0.0121992053
C  C14  1  0.96651000  0.96651000  0.73451000  1.0 -0.0121992053
C  C15  1  0.73451000  0.33247000  0.96651000  1.0 -0.0121992053
C  C16  1  0.33247000  0.73451000  0.96651000  1.0 -0.0121992053
C  C17  1  0.73451000  0.96651000  0.33247000  1.0 -0.0121992053
C  C18  1  0.33247000  0.96651000  0.73451000  1.0 -0.0121992053
C  C19  1  0.96651000  0.73451000  0.96651000  1.0 -0.0121992053
C  C20  1  0.96651000  0.33247000  0.96651000  1.0 -0.0121992053
C  C21  1  0.96651000  0.73451000  0.33247000  1.0 -0.0121992053
C  C22  1  0.96651000  0.33247000  0.73451000  1.0 -0.0121992053
C  C23  1  0.33247000  0.96651000  0.96651000  1.0 -0.0121992053
C  C24  1  0.73451000  0.96651000  0.96651000  1.0 -0.0121992053
C  C25  1  0.12400000  0.27508000  0.12400000  1.0 0.5632178293
C  C26  1  0.27508000  0.12400000  0.47692000  1.0 0.5632178293
C  C27  1  0.12400000  0.47692000  0.12400000  1.0 0.5632178293
C  C28  1  0.47692000  0.12400000  0.27508000  1.0 0.5632178293
C  C29  1  0.12400000  0.12400000  0.27508000  1.0 0.5632178293
C  C30  1  0.47692000  0.27508000  0.12400000  1.0 0.5632178293
C  C31  1  0.12400000  0.12400000  0.47692000  1.0 0.5632178293
C  C32  1  0.27508000  0.47692000  0.12400000  1.0 0.5632178293
C  C33  1  0.27508000  0.12400000  0.12400000  1.0 0.5632178293
C  C34  1  0.12400000  0.47692000  0.27508000  1.0 0.5632178293
C  C35  1  0.47692000  0.12400000  0.12400000  1.0 0.5632178293
C  C36  1  0.12400000  0.27508000  0.47692000  1.0 0.5632178293
C  C37  1  0.87600000  0.72492000  0.52308000  1.0 0.5632178293
C  C38  1  0.72492000  0.87600000  0.87600000  1.0 0.5632178293
C  C39  1  0.87600000  0.52308000  0.72492000  1.0 0.5632178293
C  C40  1  0.52308000  0.87600000  0.87600000  1.0 0.5632178293
C  C41  1  0.87600000  0.87600000  0.52308000  1.0 0.5632178293
C  C42  1  0.52308000  0.72492000  0.87600000  1.0 0.5632178293
C  C43  1  0.87600000  0.87600000  0.72492000  1.0 0.5632178293
C  C44  1  0.72492000  0.52308000  0.87600000  1.0 0.5632178293
C  C45  1  0.72492000  0.87600000  0.52308000  1.0 0.5632178293
C  C46  1  0.87600000  0.52308000  0.87600000  1.0 0.5632178293
C  C47  1  0.52308000  0.87600000  0.72492000  1.0 0.5632178293
C  C48  1  0.87600000  0.72492000  0.87600000  1.0 0.5632178293
C  C49  1  0.06983000  0.06983000  0.23085000  1.0 0.580563968
C  C50  1  0.06983000  0.06983000  0.62949000  1.0 0.580563968
C  C51  1  0.23085000  0.62949000  0.06983000  1.0 0.580563968
C  C52  1  0.62949000  0.23085000  0.06983000  1.0 0.580563968
C  C53  1  0.23085000  0.06983000  0.06983000  1.0 0.580563968
C  C54  1  0.62949000  0.06983000  0.06983000  1.0 0.580563968
C  C55  1  0.06983000  0.23085000  0.62949000  1.0 0.580563968
C  C56  1  0.06983000  0.62949000  0.23085000  1.0 0.580563968
C  C57  1  0.06983000  0.23085000  0.06983000  1.0 0.580563968
C  C58  1  0.06983000  0.62949000  0.06983000  1.0 0.580563968
C  C59  1  0.62949000  0.06983000  0.23085000  1.0 0.580563968
C  C60  1  0.23085000  0.06983000  0.62949000  1.0 0.580563968
C  C61  1  0.93017000  0.93017000  0.37051000  1.0 0.580563968
C  C62  1  0.93017000  0.93017000  0.76915000  1.0 0.580563968
C  C63  1  0.76915000  0.37051000  0.93017000  1.0 0.580563968
C  C64  1  0.37051000  0.76915000  0.93017000  1.0 0.580563968
C  C65  1  0.76915000  0.93017000  0.37051000  1.0 0.580563968
C  C66  1  0.37051000  0.93017000  0.76915000  1.0 0.580563968
C  C67  1  0.93017000  0.76915000  0.93017000  1.0 0.580563968
C  C68  1  0.93017000  0.37051000  0.93017000  1.0 0.580563968
C  C69  1  0.93017000  0.76915000  0.37051000  1.0 0.580563968
C  C70  1  0.93017000  0.37051000  0.76915000  1.0 0.580563968
C  C71  1  0.37051000  0.93017000  0.93017000  1.0 0.580563968
C  C72  1  0.76915000  0.93017000  0.93017000  1.0 0.580563968
C  C73  1  0.97528000  0.05826000  0.28110000  1.0 -0.1081660638
C  C74  1  0.05826000  0.97528000  0.68536000  1.0 -0.1081660638
C  C75  1  0.28110000  0.68536000  0.97528000  1.0 -0.1081660638
C  C76  1  0.68536000  0.28110000  0.05826000  1.0 -0.1081660638
C  C77  1  0.28110000  0.97528000  0.05826000  1.0 -0.1081660638
C  C78  1  0.68536000  0.05826000  0.97528000  1.0 -0.1081660638
C  C79  1  0.97528000  0.28110000  0.68536000  1.0 -0.1081660638
C  C80  1  0.05826000  0.68536000  0.28110000  1.0 -0.1081660638
C  C81  1  0.05826000  0.28110000  0.97528000  1.0 -0.1081660638
C  C82  1  0.97528000  0.68536000  0.05826000  1.0 -0.1081660638
C  C83  1  0.68536000  0.97528000  0.28110000  1.0 -0.1081660638
C  C84  1  0.28110000  0.05826000  0.68536000  1.0 -0.1081660638
C  C85  1  0.02472000  0.94174000  0.31464000  1.0 -0.1081660638
C  C86  1  0.94174000  0.02472000  0.71890000  1.0 -0.1081660638
C  C87  1  0.71890000  0.31464000  0.94174000  1.0 -0.1081660638
C  C88  1  0.31464000  0.71890000  0.02472000  1.0 -0.1081660638
C  C89  1  0.71890000  0.02472000  0.31464000  1.0 -0.1081660638
C  C90  1  0.31464000  0.94174000  0.71890000  1.0 -0.1081660638
C  C91  1  0.02472000  0.71890000  0.94174000  1.0 -0.1081660638
C  C92  1  0.94174000  0.31464000  0.02472000  1.0 -0.1081660638
C  C93  1  0.94174000  0.71890000  0.31464000  1.0 -0.1081660638
C  C94  1  0.02472000  0.31464000  0.71890000  1.0 -0.1081660638
C  C95  1  0.31464000  0.02472000  0.94174000  1.0 -0.1081660638
C  C96  1  0.71890000  0.94174000  0.02472000  1.0 -0.1081660638
C  C97  1  0.02472000  0.94174000  0.71890000  1.0 -0.1081660638
C  C98  1  0.94174000  0.02472000  0.31464000  1.0 -0.1081660638
C  C99  1  0.71890000  0.31464000  0.02472000  1.0 -0.1081660638
C  C100  1  0.31464000  0.71890000  0.94174000  1.0 -0.1081660638
C  C101  1  0.71890000  0.02472000  0.94174000  1.0 -0.1081660638
C  C102  1  0.31464000  0.94174000  0.02472000  1.0 -0.1081660638
C  C103  1  0.02472000  0.71890000  0.31464000  1.0 -0.1081660638
C  C104  1  0.94174000  0.31464000  0.71890000  1.0 -0.1081660638
C  C105  1  0.94174000  0.71890000  0.02472000  1.0 -0.1081660638
C  C106  1  0.02472000  0.31464000  0.94174000  1.0 -0.1081660638
C  C107  1  0.31464000  0.02472000  0.71890000  1.0 -0.1081660638
C  C108  1  0.71890000  0.94174000  0.31464000  1.0 -0.1081660638
C  C109  1  0.97528000  0.05826000  0.68536000  1.0 -0.1081660638
C  C110  1  0.05826000  0.97528000  0.28110000  1.0 -0.1081660638
C  C111  1  0.28110000  0.68536000  0.05826000  1.0 -0.1081660638
C  C112  1  0.68536000  0.28110000  0.97528000  1.0 -0.1081660638
C  C113  1  0.28110000  0.97528000  0.68536000  1.0 -0.1081660638
C  C114  1  0.68536000  0.05826000  0.28110000  1.0 -0.1081660638
C  C115  1  0.97528000  0.28110000  0.05826000  1.0 -0.1081660638
C  C116  1  0.05826000  0.68536000  0.97528000  1.0 -0.1081660638
C  C117  1  0.05826000  0.28110000  0.68536000  1.0 -0.1081660638
C  C118  1  0.97528000  0.68536000  0.28110000  1.0 -0.1081660638
C  C119  1  0.68536000  0.97528000  0.05826000  1.0 -0.1081660638
C  C120  1  0.28110000  0.05826000  0.97528000  1.0 -0.1081660638
C  C121  1  0.12270000  0.32966000  0.12270000  1.0 0.0080320971
C  C122  1  0.32966000  0.12270000  0.42494000  1.0 0.0080320971
C  C123  1  0.12270000  0.42494000  0.12270000  1.0 0.0080320971
C  C124  1  0.42494000  0.12270000  0.32966000  1.0 0.0080320971
C  C125  1  0.12270000  0.12270000  0.32966000  1.0 0.0080320971
C  C126  1  0.42494000  0.32966000  0.12270000  1.0 0.0080320971
C  C127  1  0.12270000  0.12270000  0.42494000  1.0 0.0080320971
C  C128  1  0.32966000  0.42494000  0.12270000  1.0 0.0080320971
C  C129  1  0.32966000  0.12270000  0.12270000  1.0 0.0080320971
C  C130  1  0.12270000  0.42494000  0.32966000  1.0 0.0080320971
C  C131  1  0.42494000  0.12270000  0.12270000  1.0 0.0080320971
C  C132  1  0.12270000  0.32966000  0.42494000  1.0 0.0080320971
C  C133  1  0.87730000  0.67034000  0.57506000  1.0 0.0080320971
C  C134  1  0.67034000  0.87730000  0.87730000  1.0 0.0080320971
C  C135  1  0.87730000  0.57506000  0.67034000  1.0 0.0080320971
C  C136  1  0.57506000  0.87730000  0.87730000  1.0 0.0080320971
C  C137  1  0.87730000  0.87730000  0.57506000  1.0 0.0080320971
C  C138  1  0.57506000  0.67034000  0.87730000  1.0 0.0080320971
C  C139  1  0.87730000  0.87730000  0.67034000  1.0 0.0080320971
C  C140  1  0.67034000  0.57506000  0.87730000  1.0 0.0080320971
C  C141  1  0.67034000  0.87730000  0.57506000  1.0 0.0080320971
C  C142  1  0.87730000  0.57506000  0.87730000  1.0 0.0080320971
C  C143  1  0.57506000  0.87730000  0.67034000  1.0 0.0080320971
C  C144  1  0.87730000  0.67034000  0.87730000  1.0 0.0080320971
C  C145  1  0.16280000  0.35260000  0.08380000  1.0 -0.1028381161
C  C146  1  0.35260000  0.16280000  0.40080000  1.0 -0.1028381161
C  C147  1  0.08380000  0.40080000  0.16280000  1.0 -0.1028381161
C  C148  1  0.40080000  0.08380000  0.35260000  1.0 -0.1028381161
C  C149  1  0.08380000  0.16280000  0.35260000  1.0 -0.1028381161
C  C150  1  0.40080000  0.35260000  0.16280000  1.0 -0.1028381161
C  C151  1  0.16280000  0.08380000  0.40080000  1.0 -0.1028381161
C  C152  1  0.35260000  0.40080000  0.08380000  1.0 -0.1028381161
C  C153  1  0.35260000  0.08380000  0.16280000  1.0 -0.1028381161
C  C154  1  0.16280000  0.40080000  0.35260000  1.0 -0.1028381161
C  C155  1  0.40080000  0.16280000  0.08380000  1.0 -0.1028381161
C  C156  1  0.08380000  0.35260000  0.40080000  1.0 -0.1028381161
C  C157  1  0.83720000  0.64740000  0.59920000  1.0 -0.1028381161
C  C158  1  0.64740000  0.83720000  0.91620000  1.0 -0.1028381161
C  C159  1  0.91620000  0.59920000  0.64740000  1.0 -0.1028381161
C  C160  1  0.59920000  0.91620000  0.83720000  1.0 -0.1028381161
C  C161  1  0.91620000  0.83720000  0.59920000  1.0 -0.1028381161
C  C162  1  0.59920000  0.64740000  0.91620000  1.0 -0.1028381161
C  C163  1  0.83720000  0.91620000  0.64740000  1.0 -0.1028381161
C  C164  1  0.64740000  0.59920000  0.83720000  1.0 -0.1028381161
C  C165  1  0.64740000  0.91620000  0.59920000  1.0 -0.1028381161
C  C166  1  0.83720000  0.59920000  0.91620000  1.0 -0.1028381161
C  C167  1  0.59920000  0.83720000  0.64740000  1.0 -0.1028381161
C  C168  1  0.91620000  0.64740000  0.83720000  1.0 -0.1028381161
C  C169  1  0.83720000  0.64740000  0.91620000  1.0 -0.1028381161
C  C170  1  0.64740000  0.83720000  0.59920000  1.0 -0.1028381161
C  C171  1  0.91620000  0.59920000  0.83720000  1.0 -0.1028381161
C  C172  1  0.59920000  0.91620000  0.64740000  1.0 -0.1028381161
C  C173  1  0.91620000  0.83720000  0.64740000  1.0 -0.1028381161
C  C174  1  0.59920000  0.64740000  0.83720000  1.0 -0.1028381161
C  C175  1  0.83720000  0.91620000  0.59920000  1.0 -0.1028381161
C  C176  1  0.64740000  0.59920000  0.91620000  1.0 -0.1028381161
C  C177  1  0.64740000  0.91620000  0.83720000  1.0 -0.1028381161
C  C178  1  0.83720000  0.59920000  0.64740000  1.0 -0.1028381161
C  C179  1  0.59920000  0.83720000  0.91620000  1.0 -0.1028381161
C  C180  1  0.91620000  0.64740000  0.59920000  1.0 -0.1028381161
C  C181  1  0.16280000  0.35260000  0.40080000  1.0 -0.1028381161
C  C182  1  0.35260000  0.16280000  0.08380000  1.0 -0.1028381161
C  C183  1  0.08380000  0.40080000  0.35260000  1.0 -0.1028381161
C  C184  1  0.40080000  0.08380000  0.16280000  1.0 -0.1028381161
C  C185  1  0.08380000  0.16280000  0.40080000  1.0 -0.1028381161
C  C186  1  0.40080000  0.35260000  0.08380000  1.0 -0.1028381161
C  C187  1  0.16280000  0.08380000  0.35260000  1.0 -0.1028381161
C  C188  1  0.35260000  0.40080000  0.16280000  1.0 -0.1028381161
C  C189  1  0.35260000  0.08380000  0.40080000  1.0 -0.1028381161
C  C190  1  0.16280000  0.40080000  0.08380000  1.0 -0.1028381161
C  C191  1  0.40080000  0.16280000  0.35260000  1.0 -0.1028381161
C  C192  1  0.08380000  0.35260000  0.16280000  1.0 -0.1028381161
C  C193  1  0.87670000  0.28250000  0.28250000  1.0 -0.0317987778
C  C194  1  0.28250000  0.87670000  0.55830000  1.0 -0.0317987778
C  C195  1  0.28250000  0.55830000  0.87670000  1.0 -0.0317987778
C  C196  1  0.55830000  0.28250000  0.28250000  1.0 -0.0317987778
C  C197  1  0.28250000  0.87670000  0.28250000  1.0 -0.0317987778
C  C198  1  0.55830000  0.28250000  0.87670000  1.0 -0.0317987778
C  C199  1  0.87670000  0.28250000  0.55830000  1.0 -0.0317987778
C  C200  1  0.28250000  0.55830000  0.28250000  1.0 -0.0317987778
C  C201  1  0.28250000  0.28250000  0.87670000  1.0 -0.0317987778
C  C202  1  0.87670000  0.55830000  0.28250000  1.0 -0.0317987778
C  C203  1  0.55830000  0.87670000  0.28250000  1.0 -0.0317987778
C  C204  1  0.28250000  0.28250000  0.55830000  1.0 -0.0317987778
C  C205  1  0.12330000  0.71750000  0.44170000  1.0 -0.0317987778
C  C206  1  0.71750000  0.12330000  0.71750000  1.0 -0.0317987778
C  C207  1  0.71750000  0.44170000  0.71750000  1.0 -0.0317987778
C  C208  1  0.44170000  0.71750000  0.12330000  1.0 -0.0317987778
C  C209  1  0.71750000  0.12330000  0.44170000  1.0 -0.0317987778
C  C210  1  0.44170000  0.71750000  0.71750000  1.0 -0.0317987778
C  C211  1  0.12330000  0.71750000  0.71750000  1.0 -0.0317987778
C  C212  1  0.71750000  0.44170000  0.12330000  1.0 -0.0317987778
C  C213  1  0.71750000  0.71750000  0.44170000  1.0 -0.0317987778
C  C214  1  0.12330000  0.44170000  0.71750000  1.0 -0.0317987778
C  C215  1  0.44170000  0.12330000  0.71750000  1.0 -0.0317987778
C  C216  1  0.71750000  0.71750000  0.12330000  1.0 -0.0317987778
C  C217  1  0.94390000  0.22510000  0.22510000  1.0 0.0785134857
C  C218  1  0.22510000  0.94390000  0.60590000  1.0 0.0785134857
C  C219  1  0.22510000  0.60590000  0.94390000  1.0 0.0785134857
C  C220  1  0.60590000  0.22510000  0.22510000  1.0 0.0785134857
C  C221  1  0.22510000  0.94390000  0.22510000  1.0 0.0785134857
C  C222  1  0.60590000  0.22510000  0.94390000  1.0 0.0785134857
C  C223  1  0.94390000  0.22510000  0.60590000  1.0 0.0785134857
C  C224  1  0.22510000  0.60590000  0.22510000  1.0 0.0785134857
C  C225  1  0.22510000  0.22510000  0.94390000  1.0 0.0785134857
C  C226  1  0.94390000  0.60590000  0.22510000  1.0 0.0785134857
C  C227  1  0.60590000  0.94390000  0.22510000  1.0 0.0785134857
C  C228  1  0.22510000  0.22510000  0.60590000  1.0 0.0785134857
C  C229  1  0.05610000  0.77490000  0.39410000  1.0 0.0785134857
C  C230  1  0.77490000  0.05610000  0.77490000  1.0 0.0785134857
C  C231  1  0.77490000  0.39410000  0.77490000  1.0 0.0785134857
C  C232  1  0.39410000  0.77490000  0.05610000  1.0 0.0785134857
C  C233  1  0.77490000  0.05610000  0.39410000  1.0 0.0785134857
C  C234  1  0.39410000  0.77490000  0.77490000  1.0 0.0785134857
C  C235  1  0.05610000  0.77490000  0.77490000  1.0 0.0785134857
C  C236  1  0.77490000  0.39410000  0.05610000  1.0 0.0785134857
C  C237  1  0.77490000  0.77490000  0.39410000  1.0 0.0785134857
C  C238  1  0.05610000  0.39410000  0.77490000  1.0 0.0785134857
C  C239  1  0.39410000  0.05610000  0.77490000  1.0 0.0785134857
C  C240  1  0.77490000  0.77490000  0.05610000  1.0 0.0785134857
C  C241  1  0.88780000  0.25200000  0.25200000  1.0 -0.1028381161
C  C242  1  0.25200000  0.88780000  0.60820000  1.0 -0.1028381161
C  C243  1  0.25200000  0.60820000  0.88780000  1.0 -0.1028381161
C  C244  1  0.60820000  0.25200000  0.25200000  1.0 -0.1028381161
C  C245  1  0.25200000  0.88780000  0.25200000  1.0 -0.1028381161
C  C246  1  0.60820000  0.25200000  0.88780000  1.0 -0.1028381161
C  C247  1  0.88780000  0.25200000  0.60820000  1.0 -0.1028381161
C  C248  1  0.25200000  0.60820000  0.25200000  1.0 -0.1028381161
C  C249  1  0.25200000  0.25200000  0.88780000  1.0 -0.1028381161
C  C250  1  0.88780000  0.60820000  0.25200000  1.0 -0.1028381161
C  C251  1  0.60820000  0.88780000  0.25200000  1.0 -0.1028381161
C  C252  1  0.25200000  0.25200000  0.60820000  1.0 -0.1028381161
C  C253  1  0.11220000  0.74800000  0.39180000  1.0 -0.1028381161
C  C254  1  0.74800000  0.11220000  0.74800000  1.0 -0.1028381161
C  C255  1  0.74800000  0.39180000  0.74800000  1.0 -0.1028381161
C  C256  1  0.39180000  0.74800000  0.11220000  1.0 -0.1028381161
C  C257  1  0.74800000  0.11220000  0.39180000  1.0 -0.1028381161
C  C258  1  0.39180000  0.74800000  0.74800000  1.0 -0.1028381161
C  C259  1  0.11220000  0.74800000  0.74800000  1.0 -0.1028381161
C  C260  1  0.74800000  0.39180000  0.11220000  1.0 -0.1028381161
C  C261  1  0.74800000  0.74800000  0.39180000  1.0 -0.1028381161
C  C262  1  0.11220000  0.39180000  0.74800000  1.0 -0.1028381161
C  C263  1  0.39180000  0.11220000  0.74800000  1.0 -0.1028381161
C  C264  1  0.74800000  0.74800000  0.11220000  1.0 -0.1028381161
C  C265  1  0.85170000  0.24830000  0.24830000  1.0 0.4061288679
C  C266  1  0.24830000  0.85170000  0.65170000  1.0 0.4061288679
C  C267  1  0.24830000  0.65170000  0.85170000  1.0 0.4061288679
C  C268  1  0.65170000  0.24830000  0.24830000  1.0 0.4061288679
C  C269  1  0.24830000  0.85170000  0.24830000  1.0 0.4061288679
C  C270  1  0.65170000  0.24830000  0.85170000  1.0 0.4061288679
C  C271  1  0.85170000  0.24830000  0.65170000  1.0 0.4061288679
C  C272  1  0.24830000  0.65170000  0.24830000  1.0 0.4061288679
C  C273  1  0.24830000  0.24830000  0.85170000  1.0 0.4061288679
C  C274  1  0.85170000  0.65170000  0.24830000  1.0 0.4061288679
C  C275  1  0.65170000  0.85170000  0.24830000  1.0 0.4061288679
C  C276  1  0.24830000  0.24830000  0.65170000  1.0 0.4061288679
C  C277  1  0.14830000  0.75170000  0.34830000  1.0 0.4061288679
C  C278  1  0.75170000  0.14830000  0.75170000  1.0 0.4061288679
C  C279  1  0.75170000  0.34830000  0.75170000  1.0 0.4061288679
C  C280  1  0.34830000  0.75170000  0.14830000  1.0 0.4061288679
C  C281  1  0.75170000  0.14830000  0.34830000  1.0 0.4061288679
C  C282  1  0.34830000  0.75170000  0.75170000  1.0 0.4061288679
C  C283  1  0.14830000  0.75170000  0.75170000  1.0 0.4061288679
C  C284  1  0.75170000  0.34830000  0.14830000  1.0 0.4061288679
C  C285  1  0.75170000  0.75170000  0.34830000  1.0 0.4061288679
C  C286  1  0.14830000  0.34830000  0.75170000  1.0 0.4061288679
C  C287  1  0.34830000  0.14830000  0.75170000  1.0 0.4061288679
C  C288  1  0.75170000  0.75170000  0.14830000  1.0 0.4061288679
C  C289  1  0.91940000  0.28640000  0.28640000  1.0 -0.1684351824
C  C290  1  0.28640000  0.91940000  0.50780000  1.0 -0.1684351824
C  C291  1  0.28640000  0.50780000  0.91940000  1.0 -0.1684351824
C  C292  1  0.50780000  0.28640000  0.28640000  1.0 -0.1684351824
C  C293  1  0.28640000  0.91940000  0.28640000  1.0 -0.1684351824
C  C294  1  0.50780000  0.28640000  0.91940000  1.0 -0.1684351824
C  C295  1  0.91940000  0.28640000  0.50780000  1.0 -0.1684351824
C  C296  1  0.28640000  0.50780000  0.28640000  1.0 -0.1684351824
C  C297  1  0.28640000  0.28640000  0.91940000  1.0 -0.1684351824
C  C298  1  0.91940000  0.50780000  0.28640000  1.0 -0.1684351824
C  C299  1  0.50780000  0.91940000  0.28640000  1.0 -0.1684351824
C  C300  1  0.28640000  0.28640000  0.50780000  1.0 -0.1684351824
C  C301  1  0.08060000  0.71360000  0.49220000  1.0 -0.1684351824
C  C302  1  0.71360000  0.08060000  0.71360000  1.0 -0.1684351824
C  C303  1  0.71360000  0.49220000  0.71360000  1.0 -0.1684351824
C  C304  1  0.49220000  0.71360000  0.08060000  1.0 -0.1684351824
C  C305  1  0.71360000  0.08060000  0.49220000  1.0 -0.1684351824
C  C306  1  0.49220000  0.71360000  0.71360000  1.0 -0.1684351824
C  C307  1  0.08060000  0.71360000  0.71360000  1.0 -0.1684351824
C  C308  1  0.71360000  0.49220000  0.08060000  1.0 -0.1684351824
C  C309  1  0.71360000  0.71360000  0.49220000  1.0 -0.1684351824
C  C310  1  0.08060000  0.49220000  0.71360000  1.0 -0.1684351824
C  C311  1  0.49220000  0.08060000  0.71360000  1.0 -0.1684351824
C  C312  1  0.71360000  0.71360000  0.08060000  1.0 -0.1684351824
C  C313  1  0.97430000  0.25990000  0.25990000  1.0 0.085936687
C  C314  1  0.25990000  0.97430000  0.50590000  1.0 0.085936687
C  C315  1  0.25990000  0.50590000  0.97430000  1.0 0.085936687
C  C316  1  0.50590000  0.25990000  0.25990000  1.0 0.085936687
C  C317  1  0.25990000  0.97430000  0.25990000  1.0 0.085936687
C  C318  1  0.50590000  0.25990000  0.97430000  1.0 0.085936687
C  C319  1  0.97430000  0.25990000  0.50590000  1.0 0.085936687
C  C320  1  0.25990000  0.50590000  0.25990000  1.0 0.085936687
C  C321  1  0.25990000  0.25990000  0.97430000  1.0 0.085936687
C  C322  1  0.97430000  0.50590000  0.25990000  1.0 0.085936687
C  C323  1  0.50590000  0.97430000  0.25990000  1.0 0.085936687
C  C324  1  0.25990000  0.25990000  0.50590000  1.0 0.085936687
C  C325  1  0.02570000  0.74010000  0.49410000  1.0 0.085936687
C  C326  1  0.74010000  0.02570000  0.74010000  1.0 0.085936687
C  C327  1  0.74010000  0.49410000  0.74010000  1.0 0.085936687
C  C328  1  0.49410000  0.74010000  0.02570000  1.0 0.085936687
C  C329  1  0.74010000  0.02570000  0.49410000  1.0 0.085936687
C  C330  1  0.49410000  0.74010000  0.74010000  1.0 0.085936687
C  C331  1  0.02570000  0.74010000  0.74010000  1.0 0.085936687
C  C332  1  0.74010000  0.49410000  0.02570000  1.0 0.085936687
C  C333  1  0.74010000  0.74010000  0.49410000  1.0 0.085936687
C  C334  1  0.02570000  0.49410000  0.74010000  1.0 0.085936687
C  C335  1  0.49410000  0.02570000  0.74010000  1.0 0.085936687
C  C336  1  0.74010000  0.74010000  0.02570000  1.0 0.085936687
N  N1  1  0.98770000  0.22910000  0.22910000  1.0 -0.2406203144
N  N2  1  0.22910000  0.98770000  0.55410000  1.0 -0.2406203144
N  N3  1  0.22910000  0.55410000  0.98770000  1.0 -0.2406203144
N  N4  1  0.55410000  0.22910000  0.22910000  1.0 -0.2406203144
N  N5  1  0.22910000  0.98770000  0.22910000  1.0 -0.2406203144
N  N6  1  0.55410000  0.22910000  0.98770000  1.0 -0.2406203144
N  N7  1  0.98770000  0.22910000  0.55410000  1.0 -0.2406203144
N  N8  1  0.22910000  0.55410000  0.22910000  1.0 -0.2406203144
N  N9  1  0.22910000  0.22910000  0.98770000  1.0 -0.2406203144
N  N10  1  0.98770000  0.55410000  0.22910000  1.0 -0.2406203144
N  N11  1  0.55410000  0.98770000  0.22910000  1.0 -0.2406203144
N  N12  1  0.22910000  0.22910000  0.55410000  1.0 -0.2406203144
N  N13  1  0.01230000  0.77090000  0.44590000  1.0 -0.2406203144
N  N14  1  0.77090000  0.01230000  0.77090000  1.0 -0.2406203144
N  N15  1  0.77090000  0.44590000  0.77090000  1.0 -0.2406203144
N  N16  1  0.44590000  0.77090000  0.01230000  1.0 -0.2406203144
N  N17  1  0.77090000  0.01230000  0.44590000  1.0 -0.2406203144
N  N18  1  0.44590000  0.77090000  0.77090000  1.0 -0.2406203144
N  N19  1  0.01230000  0.77090000  0.77090000  1.0 -0.2406203144
N  N20  1  0.77090000  0.44590000  0.01230000  1.0 -0.2406203144
N  N21  1  0.77090000  0.77090000  0.44590000  1.0 -0.2406203144
N  N22  1  0.01230000  0.44590000  0.77090000  1.0 -0.2406203144
N  N23  1  0.44590000  0.01230000  0.77090000  1.0 -0.2406203144
N  N24  1  0.77090000  0.77090000  0.01230000  1.0 -0.2406203144
O  O1  1  0.04540000  0.12134000  0.21876000  1.0 -0.5073015956
O  O2  1  0.12134000  0.04540000  0.61450000  1.0 -0.5073015956
O  O3  1  0.21876000  0.61450000  0.04540000  1.0 -0.5073015956
O  O4  1  0.61450000  0.21876000  0.12134000  1.0 -0.5073015956
O  O5  1  0.21876000  0.04540000  0.12134000  1.0 -0.5073015956
O  O6  1  0.61450000  0.12134000  0.04540000  1.0 -0.5073015956
O  O7  1  0.04540000  0.21876000  0.61450000  1.0 -0.5073015956
O  O8  1  0.12134000  0.61450000  0.21876000  1.0 -0.5073015956
O  O9  1  0.12134000  0.21876000  0.04540000  1.0 -0.5073015956
O  O10  1  0.04540000  0.61450000  0.12134000  1.0 -0.5073015956
O  O11  1  0.61450000  0.04540000  0.21876000  1.0 -0.5073015956
O  O12  1  0.21876000  0.12134000  0.61450000  1.0 -0.5073015956
O  O13  1  0.95460000  0.87866000  0.38550000  1.0 -0.5073015956
O  O14  1  0.87866000  0.95460000  0.78124000  1.0 -0.5073015956
O  O15  1  0.78124000  0.38550000  0.87866000  1.0 -0.5073015956
O  O16  1  0.38550000  0.78124000  0.95460000  1.0 -0.5073015956
O  O17  1  0.78124000  0.95460000  0.38550000  1.0 -0.5073015956
O  O18  1  0.38550000  0.87866000  0.78124000  1.0 -0.5073015956
O  O19  1  0.95460000  0.78124000  0.87866000  1.0 -0.5073015956
O  O20  1  0.87866000  0.38550000  0.95460000  1.0 -0.5073015956
O  O21  1  0.87866000  0.78124000  0.38550000  1.0 -0.5073015956
O  O22  1  0.95460000  0.38550000  0.78124000  1.0 -0.5073015956
O  O23  1  0.38550000  0.95460000  0.87866000  1.0 -0.5073015956
O  O24  1  0.78124000  0.87866000  0.95460000  1.0 -0.5073015956
O  O25  1  0.95460000  0.87866000  0.78124000  1.0 -0.5073015956
O  O26  1  0.87866000  0.95460000  0.38550000  1.0 -0.5073015956
O  O27  1  0.78124000  0.38550000  0.95460000  1.0 -0.5073015956
O  O28  1  0.38550000  0.78124000  0.87866000  1.0 -0.5073015956
O  O29  1  0.78124000  0.95460000  0.87866000  1.0 -0.5073015956
O  O30  1  0.38550000  0.87866000  0.95460000  1.0 -0.5073015956
O  O31  1  0.95460000  0.78124000  0.38550000  1.0 -0.5073015956
O  O32  1  0.87866000  0.38550000  0.78124000  1.0 -0.5073015956
O  O33  1  0.87866000  0.78124000  0.95460000  1.0 -0.5073015956
O  O34  1  0.95460000  0.38550000  0.87866000  1.0 -0.5073015956
O  O35  1  0.38550000  0.95460000  0.78124000  1.0 -0.5073015956
O  O36  1  0.78124000  0.87866000  0.38550000  1.0 -0.5073015956
O  O37  1  0.04540000  0.12134000  0.61450000  1.0 -0.5073015956
O  O38  1  0.12134000  0.04540000  0.21876000  1.0 -0.5073015956
O  O39  1  0.21876000  0.61450000  0.12134000  1.0 -0.5073015956
O  O40  1  0.61450000  0.21876000  0.04540000  1.0 -0.5073015956
O  O41  1  0.21876000  0.04540000  0.61450000  1.0 -0.5073015956
O  O42  1  0.61450000  0.12134000  0.21876000  1.0 -0.5073015956
O  O43  1  0.04540000  0.21876000  0.12134000  1.0 -0.5073015956
O  O44  1  0.12134000  0.61450000  0.04540000  1.0 -0.5073015956
O  O45  1  0.12134000  0.21876000  0.61450000  1.0 -0.5073015956
O  O46  1  0.04540000  0.61450000  0.21876000  1.0 -0.5073015956
O  O47  1  0.61450000  0.04540000  0.12134000  1.0 -0.5073015956
O  O48  1  0.21876000  0.12134000  0.04540000  1.0 -0.5073015956
O  O49  1  0.14659000  0.14659000  0.14659000  1.0 -0.7491697762
O  O50  1  0.14659000  0.14659000  0.56023000  1.0 -0.7491697762
O  O51  1  0.14659000  0.56023000  0.14659000  1.0 -0.7491697762
O  O52  1  0.56023000  0.14659000  0.14659000  1.0 -0.7491697762
O  O53  1  0.85341000  0.85341000  0.43977000  1.0 -0.7491697762
O  O54  1  0.85341000  0.85341000  0.85341000  1.0 -0.7491697762
O  O55  1  0.85341000  0.43977000  0.85341000  1.0 -0.7491697762
O  O56  1  0.43977000  0.85341000  0.85341000  1.0 -0.7491697762
O  O57  1  0.08690000  0.25838000  0.16122000  1.0 -0.4675215265
O  O58  1  0.25838000  0.08690000  0.49350000  1.0 -0.4675215265
O  O59  1  0.16122000  0.49350000  0.08690000  1.0 -0.4675215265
O  O60  1  0.49350000  0.16122000  0.25838000  1.0 -0.4675215265
O  O61  1  0.16122000  0.08690000  0.25838000  1.0 -0.4675215265
O  O62  1  0.49350000  0.25838000  0.08690000  1.0 -0.4675215265
O  O63  1  0.08690000  0.16122000  0.49350000  1.0 -0.4675215265
O  O64  1  0.25838000  0.49350000  0.16122000  1.0 -0.4675215265
O  O65  1  0.25838000  0.16122000  0.08690000  1.0 -0.4675215265
O  O66  1  0.08690000  0.49350000  0.25838000  1.0 -0.4675215265
O  O67  1  0.49350000  0.08690000  0.16122000  1.0 -0.4675215265
O  O68  1  0.16122000  0.25838000  0.49350000  1.0 -0.4675215265
O  O69  1  0.91310000  0.74162000  0.50650000  1.0 -0.4675215265
O  O70  1  0.74162000  0.91310000  0.83878000  1.0 -0.4675215265
O  O71  1  0.83878000  0.50650000  0.74162000  1.0 -0.4675215265
O  O72  1  0.50650000  0.83878000  0.91310000  1.0 -0.4675215265
O  O73  1  0.83878000  0.91310000  0.50650000  1.0 -0.4675215265
O  O74  1  0.50650000  0.74162000  0.83878000  1.0 -0.4675215265
O  O75  1  0.91310000  0.83878000  0.74162000  1.0 -0.4675215265
O  O76  1  0.74162000  0.50650000  0.91310000  1.0 -0.4675215265
O  O77  1  0.74162000  0.83878000  0.50650000  1.0 -0.4675215265
O  O78  1  0.91310000  0.50650000  0.83878000  1.0 -0.4675215265
O  O79  1  0.50650000  0.91310000  0.74162000  1.0 -0.4675215265
O  O80  1  0.83878000  0.74162000  0.91310000  1.0 -0.4675215265
O  O81  1  0.91310000  0.74162000  0.83878000  1.0 -0.4675215265
O  O82  1  0.74162000  0.91310000  0.50650000  1.0 -0.4675215265
O  O83  1  0.83878000  0.50650000  0.91310000  1.0 -0.4675215265
O  O84  1  0.50650000  0.83878000  0.74162000  1.0 -0.4675215265
O  O85  1  0.83878000  0.91310000  0.74162000  1.0 -0.4675215265
O  O86  1  0.50650000  0.74162000  0.91310000  1.0 -0.4675215265
O  O87  1  0.91310000  0.83878000  0.50650000  1.0 -0.4675215265
O  O88  1  0.74162000  0.50650000  0.83878000  1.0 -0.4675215265
O  O89  1  0.74162000  0.83878000  0.91310000  1.0 -0.4675215265
O  O90  1  0.91310000  0.50650000  0.74162000  1.0 -0.4675215265
O  O91  1  0.50650000  0.91310000  0.83878000  1.0 -0.4675215265
O  O92  1  0.83878000  0.74162000  0.50650000  1.0 -0.4675215265
O  O93  1  0.08690000  0.25838000  0.49350000  1.0 -0.4675215265
O  O94  1  0.25838000  0.08690000  0.16122000  1.0 -0.4675215265
O  O95  1  0.16122000  0.49350000  0.25838000  1.0 -0.4675215265
O  O96  1  0.49350000  0.16122000  0.08690000  1.0 -0.4675215265
O  O97  1  0.16122000  0.08690000  0.49350000  1.0 -0.4675215265
O  O98  1  0.49350000  0.25838000  0.16122000  1.0 -0.4675215265
O  O99  1  0.08690000  0.16122000  0.25838000  1.0 -0.4675215265
O  O100  1  0.25838000  0.49350000  0.08690000  1.0 -0.4675215265
O  O101  1  0.25838000  0.16122000  0.49350000  1.0 -0.4675215265
O  O102  1  0.08690000  0.49350000  0.16122000  1.0 -0.4675215265
O  O103  1  0.49350000  0.08690000  0.25838000  1.0 -0.4675215265
O  O104  1  0.16122000  0.25838000  0.08690000  1.0 -0.4675215265
O  O105  1  0.85370000  0.22190000  0.22190000  1.0 -0.4352203104
O  O106  1  0.22190000  0.85370000  0.70250000  1.0 -0.4344881903
O  O107  1  0.22190000  0.70250000  0.85370000  1.0 -0.4344881903
O  O108  1  0.70250000  0.22190000  0.22190000  1.0 -0.4344881903
O  O109  1  0.22190000  0.85370000  0.22190000  1.0 -0.4352203104
O  O110  1  0.70250000  0.22190000  0.85370000  1.0 -0.4344881903
O  O111  1  0.85370000  0.22190000  0.70250000  1.0 -0.4344881903
O  O112  1  0.22190000  0.70250000  0.22190000  1.0 -0.4352203104
O  O113  1  0.22190000  0.22190000  0.85370000  1.0 -0.4344881903
O  O114  1  0.85370000  0.70250000  0.22190000  1.0 -0.4352203104
O  O115  1  0.70250000  0.85370000  0.22190000  1.0 -0.4352203104
O  O116  1  0.22190000  0.22190000  0.70250000  1.0 -0.4344881903
O  O117  1  0.14630000  0.77810000  0.29750000  1.0 -0.4352203104
O  O118  1  0.77810000  0.14630000  0.77810000  1.0 -0.4344881903
O  O119  1  0.77810000  0.29750000  0.77810000  1.0 -0.4344881903
O  O120  1  0.29750000  0.77810000  0.14630000  1.0 -0.4344881903
O  O121  1  0.77810000  0.14630000  0.29750000  1.0 -0.4344881903
O  O122  1  0.29750000  0.77810000  0.77810000  1.0 -0.4344881903
O  O123  1  0.14630000  0.77810000  0.77810000  1.0 -0.4344881903
O  O124  1  0.77810000  0.29750000  0.14630000  1.0 -0.4344881903
O  O125  1  0.77810000  0.77810000  0.29750000  1.0 -0.4352203104
O  O126  1  0.14630000  0.29750000  0.77810000  1.0 -0.4344881903
O  O127  1  0.29750000  0.14630000  0.77810000  1.0 -0.4352203104
O  O128  1  0.77810000  0.77810000  0.14630000  1.0 -0.4344881903
O  O129  1  0.79710000  0.26890000  0.26890000  1.0 -0.4107574317
O  O130  1  0.26890000  0.79710000  0.66510000  1.0 -0.4107574317
O  O131  1  0.26890000  0.66510000  0.79710000  1.0 -0.4107574317
O  O132  1  0.66510000  0.26890000  0.26890000  1.0 -0.4107574317
O  O133  1  0.26890000  0.79710000  0.26890000  1.0 -0.4107574317
O  O134  1  0.66510000  0.26890000  0.79710000  1.0 -0.4107574317
O  O135  1  0.79710000  0.26890000  0.66510000  1.0 -0.4107574317
O  O136  1  0.26890000  0.66510000  0.26890000  1.0 -0.4107574317
O  O137  1  0.26890000  0.26890000  0.79710000  1.0 -0.4107574317
O  O138  1  0.79710000  0.66510000  0.26890000  1.0 -0.4107574317
O  O139  1  0.66510000  0.79710000  0.26890000  1.0 -0.4107574317
O  O140  1  0.26890000  0.26890000  0.66510000  1.0 -0.4107574317
O  O141  1  0.20290000  0.73110000  0.33490000  1.0 -0.4107574317
O  O142  1  0.73110000  0.20290000  0.73110000  1.0 -0.4107574317
O  O143  1  0.73110000  0.33490000  0.73110000  1.0 -0.4107574317
O  O144  1  0.33490000  0.73110000  0.20290000  1.0 -0.4107574317
O  O145  1  0.73110000  0.20290000  0.33490000  1.0 -0.4107574317
O  O146  1  0.33490000  0.73110000  0.73110000  1.0 -0.4107574317
O  O147  1  0.20290000  0.73110000  0.73110000  1.0 -0.4107574317
O  O148  1  0.73110000  0.33490000  0.20290000  1.0 -0.4107574317
O  O149  1  0.73110000  0.73110000  0.33490000  1.0 -0.4107574317
O  O150  1  0.20290000  0.33490000  0.73110000  1.0 -0.4107574317
O  O151  1  0.33490000  0.20290000  0.73110000  1.0 -0.4107574317
O  O152  1  0.73110000  0.73110000  0.20290000  1.0 -0.4107574317
O  O153  1  0.85570000  0.14430000  0.20390000  1.0 -0.0211140172
O  O154  1  0.14430000  0.85570000  0.79610000  1.0 -0.0211140172
O  O155  1  0.20390000  0.79610000  0.85570000  1.0 -0.0211140172
O  O156  1  0.79610000  0.20390000  0.14430000  1.0 -0.0211140172
O  O157  1  0.20390000  0.85570000  0.14430000  1.0 -0.0211140172
O  O158  1  0.79610000  0.14430000  0.85570000  1.0 -0.0211140172
O  O159  1  0.85570000  0.20390000  0.79610000  1.0 -0.0211140172
O  O160  1  0.14430000  0.79610000  0.20390000  1.0 -0.0211140172
O  O161  1  0.14430000  0.20390000  0.85570000  1.0 -0.0211140172
O  O162  1  0.85570000  0.79610000  0.14430000  1.0 -0.0211140172
O  O163  1  0.79610000  0.85570000  0.20390000  1.0 -0.0211140172
O  O164  1  0.20390000  0.14430000  0.79610000  1.0 -0.0211140172
O  O165  1  0.14430000  0.85570000  0.20390000  1.0 -0.0211140172
O  O166  1  0.85570000  0.14430000  0.79610000  1.0 -0.0211140172
O  O167  1  0.79610000  0.20390000  0.85570000  1.0 -0.0211140172
O  O168  1  0.20390000  0.79610000  0.14430000  1.0 -0.0211140172
O  O169  1  0.79610000  0.14430000  0.20390000  1.0 -0.0211140172
O  O170  1  0.20390000  0.85570000  0.79610000  1.0 -0.0211140172
O  O171  1  0.14430000  0.79610000  0.85570000  1.0 -0.0211140172
O  O172  1  0.85570000  0.20390000  0.14430000  1.0 -0.0211140172
O  O173  1  0.85570000  0.79610000  0.20390000  1.0 -0.0211140172
O  O174  1  0.14430000  0.20390000  0.79610000  1.0 -0.0211140172
O  O175  1  0.20390000  0.14430000  0.85570000  1.0 -0.0211140172
O  O176  1  0.79610000  0.85570000  0.14430000  1.0 -0.0211140172
