# DDEC6 charges by PACMAN v1.1 (https://github.com/mtap-research/PACMAN-charge/)
data_SUVPUW_FSR_pacman
_symmetry_space_group_name_H-M   'P 1'
_cell_length_a   15.60690000
_cell_length_b   26.43250000
_cell_length_c   22.76980000
_cell_angle_alpha   90.00000000
_cell_angle_beta   133.11300000
_cell_angle_gamma   90.00000000
_symmetry_Int_Tables_number   1
_chemical_formula_structural   Co3H32C73N7O15
_chemical_formula_sum   'Co12 H128 C292 N28 O60'
_cell_volume   6857.11234209
_cell_formula_units_Z   4
loop_
 _symmetry_equiv_pos_site_id
 _symmetry_equiv_pos_as_xyz
  1  'x, y, z'
loop_
 _atom_site_type_symbol
 _atom_site_label
 _atom_site_symmetry_multiplicity
 _atom_site_fract_x
 _atom_site_fract_y
 _atom_site_fract_z
 _atom_site_occupancy
 _atom_site_charge
Co  Co1  1  0.66630000  0.36329000  0.25048000  1.0 0.9320572301
Co  Co2  1  0.33370000  0.86329000  0.24952000  1.0 0.9320572301
Co  Co3  1  0.33370000  0.63671000  0.74952000  1.0 0.9320572301
Co  Co4  1  0.66630000  0.13671000  0.75048000  1.0 0.9320572301
Co  Co5  1  0.79320000  0.25655000  0.24809000  1.0 1.0007074161
Co  Co6  1  0.20680000  0.75655000  0.25191000  1.0 1.0007074161
Co  Co7  1  0.20680000  0.74345000  0.75191000  1.0 1.0007074161
Co  Co8  1  0.79320000  0.24345000  0.74809000  1.0 1.0007074161
Co  Co9  1  0.88871000  0.12329000  0.74988000  1.0 1.0007074161
Co  Co10  1  0.11129000  0.62329000  0.75012000  1.0 1.0007074161
Co  Co11  1  0.11129000  0.87671000  0.25012000  1.0 1.0007074161
Co  Co12  1  0.88871000  0.37671000  0.24988000  1.0 1.0007074161
H  H1  1  0.51040000  0.30560000  0.68930000  1.0 0.1221742667
H  H2  1  0.48960000  0.80560000  0.81070000  1.0 0.1221742667
H  H3  1  0.48960000  0.69440000  0.31070000  1.0 0.1221742667
H  H4  1  0.51040000  0.19440000  0.18930000  1.0 0.1221742667
H  H5  1  0.43060000  0.37010000  0.70420000  1.0 0.1003746422
H  H6  1  0.56940000  0.87010000  0.79580000  1.0 0.1003746422
H  H7  1  0.56940000  0.62990000  0.29580000  1.0 0.1003746422
H  H8  1  0.43060000  0.12990000  0.20420000  1.0 0.1003746422
H  H9  1  0.23990000  0.39790000  0.59680000  1.0 0.1104018801
H  H10  1  0.76010000  0.89790000  0.90320000  1.0 0.1104018801
H  H11  1  0.76010000  0.60210000  0.40320000  1.0 0.1104018801
H  H12  1  0.23990000  0.10210000  0.09680000  1.0 0.1104018801
H  H13  1  0.12230000  0.35670000  0.47590000  1.0 0.1268214966
H  H14  1  0.87770000  0.85670000  0.02410000  1.0 0.1268214966
H  H15  1  0.87770000  0.64330000  0.52410000  1.0 0.1268214966
H  H16  1  0.12230000  0.14330000  0.97590000  1.0 0.1268214966
H  H17  1  0.06900000  0.21600000  0.30760000  1.0 0.1221742667
H  H18  1  0.93100000  0.71600000  0.19240000  1.0 0.1221742667
H  H19  1  0.93100000  0.78400000  0.69240000  1.0 0.1221742667
H  H20  1  0.06900000  0.28400000  0.80760000  1.0 0.1221742667
H  H21  1  0.14130000  0.14590000  0.29660000  1.0 0.1003746422
H  H22  1  0.85870000  0.64590000  0.20340000  1.0 0.1003746422
H  H23  1  0.85870000  0.85410000  0.70340000  1.0 0.1003746422
H  H24  1  0.14130000  0.35410000  0.79660000  1.0 0.1003746422
H  H25  1  0.33210000  0.11740000  0.40460000  1.0 0.1104018801
H  H26  1  0.66790000  0.61740000  0.09540000  1.0 0.1104018801
H  H27  1  0.66790000  0.88260000  0.59540000  1.0 0.1104018801
H  H28  1  0.33210000  0.38260000  0.90460000  1.0 0.1104018801
H  H29  1  0.45240000  0.16180000  0.52190000  1.0 0.1268214966
H  H30  1  0.54760000  0.66180000  0.97810000  1.0 0.1268214966
H  H31  1  0.54760000  0.83820000  0.47810000  1.0 0.1268214966
H  H32  1  0.45240000  0.33820000  0.02190000  1.0 0.1268214966
H  H33  1  0.60410000  0.22310000  0.52520000  1.0 0.1221742667
H  H34  1  0.39590000  0.72310000  0.97480000  1.0 0.1221742667
H  H35  1  0.39590000  0.77690000  0.47480000  1.0 0.1221742667
H  H36  1  0.60410000  0.27690000  0.02520000  1.0 0.1221742667
H  H37  1  0.42020000  0.23600000  0.40160000  1.0 0.1003746422
H  H38  1  0.57980000  0.73600000  0.09840000  1.0 0.1003746422
H  H39  1  0.57980000  0.76400000  0.59840000  1.0 0.1003746422
H  H40  1  0.42020000  0.26400000  0.90160000  1.0 0.1003746422
H  H41  1  0.39360000  0.25470000  0.28900000  1.0 0.1104018801
H  H42  1  0.60640000  0.75470000  0.21100000  1.0 0.1104018801
H  H43  1  0.60640000  0.74530000  0.71100000  1.0 0.1104018801
H  H44  1  0.39360000  0.24530000  0.78900000  1.0 0.1104018801
H  H45  1  0.55160000  0.26130000  0.30170000  1.0 0.1221742667
H  H46  1  0.44840000  0.76130000  0.19830000  1.0 0.1221742667
H  H47  1  0.44840000  0.73870000  0.69830000  1.0 0.1221742667
H  H48  1  0.55160000  0.23870000  0.80170000  1.0 0.1221742667
H  H49  1  0.98500000  0.26310000  0.47600000  1.0 0.1268214966
H  H50  1  0.01500000  0.76310000  0.02400000  1.0 0.1268214966
H  H51  1  0.01500000  0.73690000  0.52400000  1.0 0.1268214966
H  H52  1  0.98500000  0.23690000  0.97600000  1.0 0.1268214966
H  H53  1  0.16680000  0.25170000  0.59850000  1.0 0.1104018801
H  H54  1  0.83320000  0.75170000  0.90150000  1.0 0.1104018801
H  H55  1  0.83320000  0.74830000  0.40150000  1.0 0.1104018801
H  H56  1  0.16680000  0.24830000  0.09850000  1.0 0.1104018801
H  H57  1  0.19370000  0.22520000  0.70870000  1.0 0.1104018801
H  H58  1  0.80630000  0.72520000  0.79130000  1.0 0.1104018801
H  H59  1  0.80630000  0.77480000  0.29130000  1.0 0.1104018801
H  H60  1  0.19370000  0.27480000  0.20870000  1.0 0.1104018801
H  H61  1  0.03550000  0.21030000  0.69330000  1.0 0.1221742667
H  H62  1  0.96450000  0.71030000  0.80670000  1.0 0.1221742667
H  H63  1  0.96450000  0.78970000  0.30670000  1.0 0.1221742667
H  H64  1  0.03550000  0.28970000  0.19330000  1.0 0.1221742667
H  H65  1  0.56380000  0.13510000  0.40650000  1.0 0.1003746422
H  H66  1  0.43620000  0.63510000  0.09350000  1.0 0.1003746422
H  H67  1  0.43620000  0.86490000  0.59350000  1.0 0.1003746422
H  H68  1  0.56380000  0.36490000  0.90650000  1.0 0.1003746422
H  H69  1  0.63020000  0.11280000  0.52870000  1.0 0.1221742667
H  H70  1  0.36980000  0.61280000  0.97130000  1.0 0.1221742667
H  H71  1  0.36980000  0.88720000  0.47130000  1.0 0.1221742667
H  H72  1  0.63020000  0.38720000  0.02870000  1.0 0.1221742667
H  H73  1  0.62860000  0.99220000  0.69460000  1.0 0.1221742667
H  H74  1  0.37140000  0.49220000  0.80540000  1.0 0.1221742667
H  H75  1  0.37140000  0.00780000  0.30540000  1.0 0.1221742667
H  H76  1  0.62860000  0.50780000  0.19460000  1.0 0.1221742667
H  H77  1  0.56720000  0.91750000  0.70570000  1.0 0.1104018801
H  H78  1  0.43280000  0.41750000  0.79430000  1.0 0.1104018801
H  H79  1  0.43280000  0.08250000  0.29430000  1.0 0.1104018801
H  H80  1  0.56720000  0.58250000  0.20570000  1.0 0.1104018801
H  H81  1  0.87940000  0.98960000  0.80710000  1.0 0.1221742667
H  H82  1  0.12060000  0.48960000  0.69290000  1.0 0.1221742667
H  H83  1  0.12060000  0.01040000  0.19290000  1.0 0.1221742667
H  H84  1  0.87940000  0.51040000  0.30710000  1.0 0.1221742667
H  H85  1  0.89480000  0.90770000  0.78860000  1.0 0.1003746422
H  H86  1  0.10520000  0.40770000  0.71140000  1.0 0.1003746422
H  H87  1  0.10520000  0.09230000  0.21140000  1.0 0.1003746422
H  H88  1  0.89480000  0.59230000  0.28860000  1.0 0.1003746422
H  H89  1  0.99250000  0.84900000  0.89500000  1.0 0.1104018801
H  H90  1  0.00750000  0.34900000  0.60500000  1.0 0.1104018801
H  H91  1  0.00750000  0.15100000  0.10500000  1.0 0.1104018801
H  H92  1  0.99250000  0.65100000  0.39500000  1.0 0.1104018801
H  H93  1  0.05960000  0.87350000  0.01680000  1.0 0.1221742667
H  H94  1  0.94040000  0.37350000  0.48320000  1.0 0.1221742667
H  H95  1  0.94040000  0.12650000  0.98320000  1.0 0.1221742667
H  H96  1  0.05960000  0.62650000  0.51680000  1.0 0.1221742667
H  H97  1  0.93060000  0.16690000  0.36300000  1.0 0.1104018801
H  H98  1  0.06940000  0.66690000  0.13700000  1.0 0.1104018801
H  H99  1  0.06940000  0.83310000  0.63700000  1.0 0.1104018801
H  H100  1  0.93060000  0.33310000  0.86300000  1.0 0.1104018801
H  H101  1  0.98540000  0.08570000  0.36740000  1.0 0.1268214966
H  H102  1  0.01460000  0.58570000  0.13260000  1.0 0.1268214966
H  H103  1  0.01460000  0.91430000  0.63260000  1.0 0.1268214966
H  H104  1  0.98540000  0.41430000  0.86740000  1.0 0.1268214966
H  H105  1  0.76460000  0.08880000  0.12860000  1.0 0.1268214966
H  H106  1  0.23540000  0.58880000  0.37140000  1.0 0.1268214966
H  H107  1  0.23540000  0.91120000  0.87140000  1.0 0.1268214966
H  H108  1  0.76460000  0.41120000  0.62860000  1.0 0.1268214966
H  H109  1  0.70940000  0.16920000  0.13070000  1.0 0.1104018801
H  H110  1  0.29060000  0.66920000  0.36930000  1.0 0.1104018801
H  H111  1  0.29060000  0.83080000  0.86930000  1.0 0.1104018801
H  H112  1  0.70940000  0.33080000  0.63070000  1.0 0.1104018801
H  H113  1  0.05660000  0.01710000  0.37010000  1.0 0.1268214966
H  H114  1  0.94340000  0.51710000  0.12990000  1.0 0.1268214966
H  H115  1  0.94340000  0.98290000  0.62990000  1.0 0.1268214966
H  H116  1  0.05660000  0.48290000  0.87010000  1.0 0.1268214966
H  H117  1  0.11970000  0.94080000  0.36570000  1.0 0.1104018801
H  H118  1  0.88030000  0.44080000  0.13430000  1.0 0.1104018801
H  H119  1  0.88030000  0.05920000  0.63430000  1.0 0.1104018801
H  H120  1  0.11970000  0.55920000  0.86570000  1.0 0.1104018801
H  H121  1  0.87960000  0.93800000  0.13280000  1.0 0.1104018801
H  H122  1  0.12040000  0.43800000  0.36720000  1.0 0.1104018801
H  H123  1  0.12040000  0.06200000  0.86720000  1.0 0.1104018801
H  H124  1  0.87960000  0.56200000  0.63280000  1.0 0.1104018801
H  H125  1  0.80020000  0.01240000  0.12890000  1.0 0.1268214966
H  H126  1  0.19980000  0.51240000  0.37110000  1.0 0.1221742667
H  H127  1  0.19980000  0.98760000  0.87110000  1.0 0.1221742667
H  H128  1  0.80020000  0.48760000  0.62890000  1.0 0.1268214966
C  C1  1  0.04780000  0.29190000  0.36470000  1.0 0.5878610048
C  C2  1  0.95220000  0.79190000  0.13530000  1.0 0.5878610048
C  C3  1  0.95220000  0.70810000  0.63530000  1.0 0.5878610048
C  C4  1  0.04780000  0.20810000  0.86470000  1.0 0.5878610048
C  C5  1  0.52940000  0.22660000  0.63360000  1.0 0.5878610048
C  C6  1  0.47060000  0.72660000  0.86640000  1.0 0.5878610048
C  C7  1  0.47060000  0.77340000  0.36640000  1.0 0.5878610048
C  C8  1  0.52940000  0.27340000  0.13360000  1.0 0.5878610048
C  C9  1  0.40670000  0.24450000  0.56310000  1.0 -0.111073639
C  C10  1  0.59330000  0.74450000  0.93690000  1.0 -0.111073639
C  C11  1  0.59330000  0.75550000  0.43690000  1.0 -0.111073639
C  C12  1  0.40670000  0.25550000  0.06310000  1.0 -0.111073639
C  C13  1  0.36230000  0.28710000  0.57250000  1.0 0.0560388474
C  C14  1  0.63770000  0.78710000  0.92750000  1.0 0.0560388474
C  C15  1  0.63770000  0.71290000  0.42750000  1.0 0.0560388474
C  C16  1  0.36230000  0.21290000  0.07250000  1.0 0.0560388474
C  C17  1  0.43160000  0.31460000  0.64620000  1.0 -0.1392072136
C  C18  1  0.56840000  0.81460000  0.85380000  1.0 -0.1392072136
C  C19  1  0.56840000  0.68540000  0.35380000  1.0 -0.1392072136
C  C20  1  0.43160000  0.18540000  0.14620000  1.0 -0.1392072136
C  C21  1  0.38490000  0.35340000  0.65430000  1.0 -0.0881993455
C  C22  1  0.61510000  0.85340000  0.84570000  1.0 -0.0881993455
C  C23  1  0.61510000  0.64660000  0.34570000  1.0 -0.0881993455
C  C24  1  0.38490000  0.14660000  0.15430000  1.0 -0.0881993455
C  C25  1  0.26920000  0.36980000  0.59000000  1.0 -0.111073639
C  C26  1  0.73080000  0.86980000  0.91000000  1.0 -0.111073639
C  C27  1  0.73080000  0.63020000  0.41000000  1.0 -0.111073639
C  C28  1  0.26920000  0.13020000  0.09000000  1.0 -0.111073639
C  C29  1  0.19960000  0.34540000  0.51830000  1.0 -0.1327298193
C  C30  1  0.80040000  0.84540000  0.98170000  1.0 -0.1327298193
C  C31  1  0.80040000  0.65460000  0.48170000  1.0 -0.1327298193
C  C32  1  0.19960000  0.15460000  0.01830000  1.0 -0.1327298193
C  C33  1  0.24270000  0.30290000  0.50670000  1.0 0.0491595965
C  C34  1  0.75730000  0.80290000  0.99330000  1.0 0.0491595965
C  C35  1  0.75730000  0.69710000  0.49330000  1.0 0.0491595965
C  C36  1  0.24270000  0.19710000  0.00670000  1.0 0.0491595965
C  C37  1  0.17290000  0.27590000  0.43420000  1.0 -0.1010521007
C  C38  1  0.82710000  0.77590000  0.06580000  1.0 -0.1010521007
C  C39  1  0.82710000  0.72410000  0.56580000  1.0 -0.1010521007
C  C40  1  0.17290000  0.22410000  0.93420000  1.0 -0.1010521007
C  C41  1  0.21620000  0.23370000  0.42530000  1.0 0.0491595965
C  C42  1  0.78380000  0.73370000  0.07470000  1.0 0.0491595965
C  C43  1  0.78380000  0.76630000  0.57470000  1.0 0.0491595965
C  C44  1  0.21620000  0.26630000  0.92530000  1.0 0.0491595965
C  C45  1  0.14610000  0.20550000  0.35180000  1.0 -0.1392072136
C  C46  1  0.85390000  0.70550000  0.14820000  1.0 -0.1392072136
C  C47  1  0.85390000  0.79450000  0.64820000  1.0 -0.1392072136
C  C48  1  0.14610000  0.29450000  0.85180000  1.0 -0.1392072136
C  C49  1  0.18920000  0.16390000  0.34540000  1.0 -0.1010521007
C  C50  1  0.81080000  0.66390000  0.15460000  1.0 -0.1010521007
C  C51  1  0.81080000  0.83610000  0.65460000  1.0 -0.1010521007
C  C52  1  0.18920000  0.33610000  0.84540000  1.0 -0.1010521007
C  C53  1  0.30440000  0.14690000  0.41000000  1.0 -0.1010521007
C  C54  1  0.69560000  0.64690000  0.09000000  1.0 -0.1010521007
C  C55  1  0.69560000  0.85310000  0.59000000  1.0 -0.1010521007
C  C56  1  0.30440000  0.35310000  0.91000000  1.0 -0.1010521007
C  C57  1  0.37500000  0.17290000  0.47980000  1.0 -0.150751015
C  C58  1  0.62500000  0.67290000  0.02020000  1.0 -0.150751015
C  C59  1  0.62500000  0.82710000  0.52020000  1.0 -0.150751015
C  C60  1  0.37500000  0.32710000  0.97980000  1.0 -0.150751015
C  C61  1  0.33460000  0.21710000  0.49110000  1.0 0.042289665
C  C62  1  0.66540000  0.71710000  0.00890000  1.0 0.042289665
C  C63  1  0.66540000  0.78290000  0.50890000  1.0 0.042289665
C  C64  1  0.33460000  0.28290000  0.99110000  1.0 0.042289665
C  C65  1  0.75910000  0.27410000  0.36220000  1.0 0.5878610048
C  C66  1  0.24090000  0.77410000  0.13780000  1.0 0.5878610048
C  C67  1  0.24090000  0.72590000  0.63780000  1.0 0.5878610048
C  C68  1  0.75910000  0.22590000  0.86220000  1.0 0.5878610048
C  C69  1  0.82730000  0.20510000  0.63600000  1.0 0.5810560121
C  C70  1  0.17270000  0.70510000  0.86400000  1.0 0.5810560121
C  C71  1  0.17270000  0.79490000  0.36400000  1.0 0.5810560121
C  C72  1  0.82730000  0.29490000  0.13600000  1.0 0.5810560121
C  C73  1  0.80900000  0.22250000  0.56440000  1.0 -0.1010521007
C  C74  1  0.19100000  0.72250000  0.93560000  1.0 -0.1010521007
C  C75  1  0.19100000  0.77750000  0.43560000  1.0 -0.1010521007
C  C76  1  0.80900000  0.27750000  0.06440000  1.0 -0.1010521007
C  C77  1  0.69770000  0.23300000  0.49190000  1.0 0.0491595965
C  C78  1  0.30230000  0.73300000  0.00810000  1.0 0.0491595965
C  C79  1  0.30230000  0.76700000  0.50810000  1.0 0.0491595965
C  C80  1  0.69770000  0.26700000  0.99190000  1.0 0.0491595965
C  C81  1  0.59520000  0.23040000  0.48090000  1.0 -0.1327298193
C  C82  1  0.40480000  0.73040000  0.01910000  1.0 -0.1327298193
C  C83  1  0.40480000  0.76960000  0.51910000  1.0 -0.1327298193
C  C84  1  0.59520000  0.26960000  0.98090000  1.0 -0.1327298193
C  C85  1  0.48580000  0.23830000  0.40740000  1.0 -0.0881993455
C  C86  1  0.51420000  0.73830000  0.09260000  1.0 -0.0881993455
C  C87  1  0.51420000  0.76170000  0.59260000  1.0 -0.0881993455
C  C88  1  0.48580000  0.26170000  0.90740000  1.0 -0.0881993455
C  C89  1  0.46980000  0.24990000  0.33960000  1.0 -0.111073639
C  C90  1  0.53020000  0.74990000  0.16040000  1.0 -0.111073639
C  C91  1  0.53020000  0.75010000  0.66040000  1.0 -0.111073639
C  C92  1  0.46980000  0.25010000  0.83960000  1.0 -0.111073639
C  C93  1  0.56360000  0.25400000  0.34730000  1.0 -0.150751015
C  C94  1  0.43640000  0.75400000  0.15270000  1.0 -0.150751015
C  C95  1  0.43640000  0.74600000  0.65270000  1.0 -0.150751015
C  C96  1  0.56360000  0.24600000  0.84730000  1.0 -0.150751015
C  C97  1  0.68060000  0.24750000  0.42350000  1.0 0.0491595965
C  C98  1  0.31940000  0.74750000  0.07650000  1.0 0.0491595965
C  C99  1  0.31940000  0.75250000  0.57650000  1.0 0.042289665
C  C100  1  0.68060000  0.25250000  0.92350000  1.0 0.0491595965
C  C101  1  0.77870000  0.25410000  0.43380000  1.0 -0.0814492412
C  C102  1  0.22130000  0.75410000  0.06620000  1.0 -0.0814492412
C  C103  1  0.22130000  0.74590000  0.56620000  1.0 -0.0814492412
C  C104  1  0.77870000  0.24590000  0.93380000  1.0 -0.0814492412
C  C105  1  0.89120000  0.24560000  0.50710000  1.0 0.0491595965
C  C106  1  0.10880000  0.74560000  0.99290000  1.0 0.0491595965
C  C107  1  0.10880000  0.75440000  0.49290000  1.0 0.0491595965
C  C108  1  0.89120000  0.25440000  0.00710000  1.0 0.0491595965
C  C109  1  0.99360000  0.25310000  0.51940000  1.0 -0.1327298193
C  C110  1  0.00640000  0.75310000  0.98060000  1.0 -0.1392072136
C  C111  1  0.00640000  0.74690000  0.48060000  1.0 -0.1327298193
C  C112  1  0.99360000  0.24690000  0.01940000  1.0 -0.1392072136
C  C113  1  0.10090000  0.24600000  0.59160000  1.0 -0.0881993455
C  C114  1  0.89910000  0.74600000  0.90840000  1.0 -0.0881993455
C  C115  1  0.89910000  0.75400000  0.40840000  1.0 -0.0881993455
C  C116  1  0.10090000  0.25400000  0.09160000  1.0 -0.0881993455
C  C117  1  0.11750000  0.23000000  0.65820000  1.0 -0.0881993455
C  C118  1  0.88250000  0.73000000  0.84180000  1.0 -0.0881993455
C  C119  1  0.88250000  0.77000000  0.34180000  1.0 -0.0881993455
C  C120  1  0.11750000  0.27000000  0.15820000  1.0 -0.0881993455
C  C121  1  0.02340000  0.22150000  0.64890000  1.0 -0.1392072136
C  C122  1  0.97660000  0.72150000  0.85110000  1.0 -0.1392072136
C  C123  1  0.97660000  0.77850000  0.35110000  1.0 -0.1392072136
C  C124  1  0.02340000  0.27850000  0.14890000  1.0 -0.1392072136
C  C125  1  0.90760000  0.22890000  0.57450000  1.0 0.0491595965
C  C126  1  0.09240000  0.72890000  0.92550000  1.0 0.0491595965
C  C127  1  0.09240000  0.77110000  0.42550000  1.0 0.0491595965
C  C128  1  0.90760000  0.27110000  0.07450000  1.0 0.0491595965
C  C129  1  0.64650000  0.06820000  0.63710000  1.0 0.598175673
C  C130  1  0.35350000  0.56820000  0.86290000  1.0 0.598175673
C  C131  1  0.35350000  0.93180000  0.36290000  1.0 0.598175673
C  C132  1  0.64650000  0.43180000  0.13710000  1.0 0.598175673
C  C133  1  0.53840000  0.10460000  0.41180000  1.0 -0.0814492412
C  C134  1  0.46160000  0.60460000  0.08820000  1.0 -0.0814492412
C  C135  1  0.46160000  0.89540000  0.58820000  1.0 -0.0814492412
C  C136  1  0.53840000  0.39540000  0.91180000  1.0 -0.0814492412
C  C137  1  0.57730000  0.09140000  0.48420000  1.0 -0.1327298193
C  C138  1  0.42270000  0.59140000  0.01580000  1.0 -0.1327298193
C  C139  1  0.42270000  0.90860000  0.51580000  1.0 -0.1327298193
C  C140  1  0.57730000  0.40860000  0.98420000  1.0 -0.1327298193
C  C141  1  0.53990000  0.04630000  0.49410000  1.0 0.0491595965
C  C142  1  0.46010000  0.54630000  0.00590000  1.0 0.0491595965
C  C143  1  0.46010000  0.95370000  0.50590000  1.0 0.0491595965
C  C144  1  0.53990000  0.45370000  0.99410000  1.0 0.0491595965
C  C145  1  0.57240000  0.03250000  0.56600000  1.0 -0.0881993455
C  C146  1  0.42760000  0.53250000  0.93400000  1.0 -0.0881993455
C  C147  1  0.42760000  0.96750000  0.43400000  1.0 -0.0881993455
C  C148  1  0.57240000  0.46750000  0.06600000  1.0 -0.0881993455
C  C149  1  0.53730000  0.98690000  0.57380000  1.0 0.0491595965
C  C150  1  0.46270000  0.48690000  0.92620000  1.0 0.0491595965
C  C151  1  0.46270000  0.01310000  0.42620000  1.0 0.0491595965
C  C152  1  0.53730000  0.51310000  0.07380000  1.0 0.0491595965
C  C153  1  0.57670000  0.97150000  0.64910000  1.0 -0.1629205958
C  C154  1  0.42330000  0.47150000  0.85090000  1.0 -0.1629205958
C  C155  1  0.42330000  0.02850000  0.35090000  1.0 -0.1629205958
C  C156  1  0.57670000  0.52850000  0.14910000  1.0 -0.1629205958
C  C157  1  0.54000000  0.92720000  0.65560000  1.0 -0.1010521007
C  C158  1  0.46000000  0.42720000  0.84440000  1.0 -0.1010521007
C  C159  1  0.46000000  0.07280000  0.34440000  1.0 -0.1010521007
C  C160  1  0.54000000  0.57280000  0.15560000  1.0 -0.1010521007
C  C161  1  0.88360000  0.07118000  0.86750000  1.0 0.5810560121
C  C162  1  0.11640000  0.57118000  0.63250000  1.0 0.5810560121
C  C163  1  0.11640000  0.92882000  0.13250000  1.0 0.5810560121
C  C164  1  0.88360000  0.42882000  0.36750000  1.0 0.5810560121
C  C165  1  0.98600000  0.05150000  0.01010000  1.0 0.0089477995
C  C166  1  0.01400000  0.55150000  0.48990000  1.0 0.0089477995
C  C167  1  0.01400000  0.94850000  0.98990000  1.0 0.0089477995
C  C168  1  0.98600000  0.44850000  0.51010000  1.0 0.0089477995
C  C169  1  0.94560000  0.03500000  0.93660000  1.0 -0.1219763446
C  C170  1  0.05440000  0.53500000  0.56340000  1.0 -0.1219763446
C  C171  1  0.05440000  0.96500000  0.06340000  1.0 -0.1219763446
C  C172  1  0.94560000  0.46500000  0.43660000  1.0 -0.1219763446
C  C173  1  0.95670000  0.98460000  0.92400000  1.0 0.0184032789
C  C174  1  0.04330000  0.48460000  0.57600000  1.0 0.0184032789
C  C175  1  0.04330000  0.01540000  0.07600000  1.0 0.0184032789
C  C176  1  0.95670000  0.51540000  0.42400000  1.0 0.0184032789
C  C177  1  0.91520000  0.96680000  0.84990000  1.0 -0.1780907081
C  C178  1  0.08480000  0.46680000  0.65010000  1.0 -0.1780907081
C  C179  1  0.08480000  0.03320000  0.15010000  1.0 -0.1780907081
C  C180  1  0.91520000  0.53320000  0.34990000  1.0 -0.1780907081
C  C181  1  0.92580000  0.91850000  0.83930000  1.0 -0.1010521007
C  C182  1  0.07420000  0.41850000  0.66070000  1.0 -0.1010521007
C  C183  1  0.07420000  0.08150000  0.16070000  1.0 -0.1010521007
C  C184  1  0.92580000  0.58150000  0.33930000  1.0 -0.1010521007
C  C185  1  0.98310000  0.88260000  0.90300000  1.0 -0.1010521007
C  C186  1  0.01690000  0.38260000  0.59700000  1.0 -0.1010521007
C  C187  1  0.01690000  0.11740000  0.09700000  1.0 -0.1010521007
C  C188  1  0.98310000  0.61740000  0.40300000  1.0 -0.1010521007
C  C189  1  0.02390000  0.89750000  0.97530000  1.0 -0.1780907081
C  C190  1  0.97610000  0.39750000  0.52470000  1.0 -0.1780907081
C  C191  1  0.97610000  0.10250000  0.02470000  1.0 -0.1780907081
C  C192  1  0.02390000  0.60250000  0.47530000  1.0 -0.1780907081
C  C193  1  0.89590000  0.15090000  0.31420000  1.0 0.0917738168
C  C194  1  0.10410000  0.65090000  0.18580000  1.0 0.0917738168
C  C195  1  0.10410000  0.84910000  0.68580000  1.0 0.0917738168
C  C196  1  0.89590000  0.34910000  0.81420000  1.0 0.0917738168
C  C197  1  0.92960000  0.10210000  0.31750000  1.0 -0.1937743665
C  C198  1  0.07040000  0.60210000  0.18250000  1.0 -0.1937743665
C  C199  1  0.07040000  0.89790000  0.68250000  1.0 -0.1937743665
C  C200  1  0.92960000  0.39790000  0.81750000  1.0 -0.1937743665
C  C201  1  0.88160000  0.07750000  0.24800000  1.0 0.1104018801
C  C202  1  0.11840000  0.57750000  0.25200000  1.0 0.1104018801
C  C203  1  0.11840000  0.92250000  0.75200000  1.0 0.1104018801
C  C204  1  0.88160000  0.42250000  0.74800000  1.0 0.1104018801
C  C205  1  0.79980000  0.10380000  0.17810000  1.0 -0.199486667
C  C206  1  0.20020000  0.60380000  0.32190000  1.0 -0.199486667
C  C207  1  0.20020000  0.89620000  0.82190000  1.0 -0.199486667
C  C208  1  0.79980000  0.39620000  0.67810000  1.0 -0.199486667
C  C209  1  0.76860000  0.15260000  0.17980000  1.0 0.1003746422
C  C210  1  0.23140000  0.65260000  0.32020000  1.0 0.1003746422
C  C211  1  0.23140000  0.84740000  0.82020000  1.0 0.1003746422
C  C212  1  0.76860000  0.34740000  0.67980000  1.0 0.1003746422
C  C213  1  0.92210000  0.02600000  0.24910000  1.0 0.1221742667
C  C214  1  0.07790000  0.52600000  0.25090000  1.0 0.1221742667
C  C215  1  0.07790000  0.97400000  0.75090000  1.0 0.1221742667
C  C216  1  0.92210000  0.47400000  0.74910000  1.0 0.1221742667
C  C217  1  0.01830000  0.00200000  0.32010000  1.0 -0.199486667
C  C218  1  0.98170000  0.50200000  0.17990000  1.0 -0.199486667
C  C219  1  0.98170000  0.99800000  0.67990000  1.0 -0.199486667
C  C220  1  0.01830000  0.49800000  0.82010000  1.0 -0.199486667
C  C221  1  0.05660000  0.95660000  0.31690000  1.0 0.0917738168
C  C222  1  0.94340000  0.45660000  0.18310000  1.0 0.0917738168
C  C223  1  0.94340000  0.04340000  0.68310000  1.0 0.0917738168
C  C224  1  0.05660000  0.54340000  0.81690000  1.0 0.0917738168
C  C225  1  0.91610000  0.95460000  0.18150000  1.0 0.1003746422
C  C226  1  0.08390000  0.45460000  0.31850000  1.0 0.1003746422
C  C227  1  0.08390000  0.04540000  0.81850000  1.0 0.1003746422
C  C228  1  0.91610000  0.54540000  0.68150000  1.0 0.1003746422
C  C229  1  0.86870000  0.99960000  0.17860000  1.0 -0.199486667
C  C230  1  0.13130000  0.49960000  0.32140000  1.0 -0.199486667
C  C231  1  0.13130000  0.00040000  0.82140000  1.0 -0.199486667
C  C232  1  0.86870000  0.50040000  0.67860000  1.0 -0.199486667
C  C233  1  0.59520000  0.49230000  0.30720000  1.0 -0.0148265071
C  C234  1  0.40480000  0.99230000  0.19280000  1.0 -0.020670695
C  C235  1  0.40480000  0.50770000  0.69280000  1.0 -0.020670695
C  C236  1  0.59520000  0.00770000  0.80720000  1.0 -0.020670695
C  C237  1  0.59180000  0.43400000  0.32180000  1.0 0.1268214966
C  C238  1  0.40820000  0.93400000  0.17820000  1.0 0.1268214966
C  C239  1  0.40820000  0.56600000  0.67820000  1.0 0.1268214966
C  C240  1  0.59180000  0.06600000  0.82180000  1.0 0.1268214966
C  C241  1  0.69360000  0.46380000  0.45860000  1.0 0.0293698237
C  C242  1  0.30640000  0.96380000  0.04140000  1.0 0.0293698237
C  C243  1  0.30640000  0.53620000  0.54140000  1.0 0.0293698237
C  C244  1  0.69360000  0.03620000  0.95860000  1.0 0.0293698237
C  C245  1  0.65100000  0.37410000  0.42700000  1.0 0.0089477995
C  C246  1  0.34900000  0.87410000  0.07300000  1.0 0.0089477995
C  C247  1  0.34900000  0.62590000  0.57300000  1.0 0.0089477995
C  C248  1  0.65100000  0.12590000  0.92700000  1.0 0.0089477995
C  C249  1  0.28150000  0.35510000  0.10510000  1.0 0.1221742667
C  C250  1  0.71850000  0.85510000  0.39490000  1.0 0.1268214966
C  C251  1  0.71850000  0.64490000  0.89490000  1.0 0.1221742667
C  C252  1  0.28150000  0.14490000  0.60510000  1.0 0.1221742667
C  C253  1  0.30680000  0.42510000  0.04650000  1.0 0.0293698237
C  C254  1  0.69320000  0.92510000  0.45350000  1.0 0.0293698237
C  C255  1  0.69320000  0.57490000  0.95350000  1.0 0.0293698237
C  C256  1  0.30680000  0.07490000  0.54650000  1.0 0.0293698237
C  C257  1  0.60370000  0.41110000  0.34270000  1.0 0.1400452426
C  C258  1  0.39630000  0.91110000  0.15730000  1.0 0.1400452426
C  C259  1  0.39630000  0.58890000  0.65730000  1.0 0.1400452426
C  C260  1  0.60370000  0.08890000  0.84270000  1.0 0.1400452426
C  C261  1  0.62200000  0.37430000  0.40300000  1.0 0.0028469038
C  C262  1  0.37800000  0.87430000  0.09700000  1.0 0.0028469038
C  C263  1  0.37800000  0.62570000  0.59700000  1.0 0.0028469038
C  C264  1  0.62200000  0.12570000  0.90300000  1.0 0.0028469038
C  C265  1  0.71890000  0.47460000  0.45390000  1.0 0.0293698237
C  C266  1  0.28110000  0.97460000  0.04610000  1.0 0.0293698237
C  C267  1  0.28110000  0.52540000  0.54610000  1.0 0.042289665
C  C268  1  0.71890000  0.02540000  0.95390000  1.0 0.0293698237
C  C269  1  0.70140000  0.39080000  0.45340000  1.0 -0.0040472105
C  C270  1  0.29860000  0.89080000  0.04660000  1.0 -0.0040472105
C  C271  1  0.29860000  0.60920000  0.54660000  1.0 -0.0040472105
C  C272  1  0.70140000  0.10920000  0.95340000  1.0 -0.0040472105
C  C273  1  0.67700000  0.48250000  0.40700000  1.0 0.0811921044
C  C274  1  0.32300000  0.98250000  0.09300000  1.0 0.0811921044
C  C275  1  0.32300000  0.51750000  0.59300000  1.0 0.0811921044
C  C276  1  0.67700000  0.01750000  0.90700000  1.0 0.0811921044
C  C277  1  0.41930000  0.38380000  0.17690000  1.0 0.2188099122
C  C278  1  0.58070000  0.88380000  0.32310000  1.0 0.2188099122
C  C279  1  0.58070000  0.61620000  0.82310000  1.0 0.2188099122
C  C280  1  0.41930000  0.11620000  0.67690000  1.0 0.2188099122
C  C281  1  0.36600000  0.33610000  0.18500000  1.0 -0.2731472866
C  C282  1  0.63400000  0.83610000  0.31500000  1.0 -0.2792647
C  C283  1  0.63400000  0.66390000  0.81500000  1.0 -0.2792647
C  C284  1  0.36600000  0.16390000  0.68500000  1.0 -0.2792647
C  C285  1  0.34390000  0.44470000  0.06890000  1.0 -0.1219763446
C  C286  1  0.65610000  0.94470000  0.43110000  1.0 -0.1219763446
C  C287  1  0.65610000  0.55530000  0.93110000  1.0 -0.1219763446
C  C288  1  0.34390000  0.05530000  0.56890000  1.0 -0.1219763446
C  C289  1  0.23300000  0.37140000  0.05500000  1.0 -0.0670878531
C  C290  1  0.76700000  0.87140000  0.44500000  1.0 -0.0670878531
C  C291  1  0.76700000  0.62860000  0.94500000  1.0 -0.0670878531
C  C292  1  0.23300000  0.12860000  0.55500000  1.0 -0.0670878531
N  N1  1  0.81840000  0.17673000  0.24740000  1.0 -0.224399423
N  N2  1  0.18160000  0.67673000  0.25260000  1.0 -0.224399423
N  N3  1  0.18160000  0.82327000  0.75260000  1.0 -0.224399423
N  N4  1  0.81840000  0.32327000  0.74740000  1.0 -0.224399423
N  N5  1  0.00970000  0.93346000  0.24870000  1.0 -0.2257800715
N  N6  1  0.99030000  0.43346000  0.25130000  1.0 -0.2257800715
N  N7  1  0.99030000  0.06654000  0.75130000  1.0 -0.2257800715
N  N8  1  0.00970000  0.56654000  0.74870000  1.0 -0.2257800715
N  N9  1  0.63310000  0.42490000  0.39490000  1.0 0.042289665
N  N10  1  0.36690000  0.92490000  0.10510000  1.0 0.042289665
N  N11  1  0.36690000  0.57510000  0.60510000  1.0 0.042289665
N  N12  1  0.63310000  0.07510000  0.89490000  1.0 0.0491595965
N  N13  1  0.35790000  0.38630000  0.10870000  1.0 0.0811921044
N  N14  1  0.64210000  0.88630000  0.39130000  1.0 0.0917738168
N  N15  1  0.64210000  0.61370000  0.89130000  1.0 0.0811921044
N  N16  1  0.35790000  0.11370000  0.60870000  1.0 0.0917738168
N  N17  1  0.63660000  0.45800000  0.37060000  1.0 0.0089477995
N  N18  1  0.36340000  0.95800000  0.12940000  1.0 0.0089477995
N  N19  1  0.36340000  0.54200000  0.62940000  1.0 0.0089477995
N  N20  1  0.63660000  0.04200000  0.87060000  1.0 0.0089477995
N  N21  1  0.67400000  0.42740000  0.39670000  1.0 0.0491595965
N  N22  1  0.32600000  0.92740000  0.10330000  1.0 0.042289665
N  N23  1  0.32600000  0.57260000  0.60330000  1.0 0.042289665
N  N24  1  0.67400000  0.07260000  0.89670000  1.0 0.042289665
N  N25  1  0.34130000  0.40250000  0.10630000  1.0 0.042289665
N  N26  1  0.65870000  0.90250000  0.39370000  1.0 0.0491595965
N  N27  1  0.65870000  0.59750000  0.89370000  1.0 0.042289665
N  N28  1  0.34130000  0.09750000  0.60630000  1.0 0.042289665
O  O1  1  0.97020000  0.26428000  0.35030000  1.0 -0.5305670764
O  O2  1  0.02980000  0.76428000  0.14970000  1.0 -0.5305670764
O  O3  1  0.02980000  0.73572000  0.64970000  1.0 -0.5305670764
O  O4  1  0.97020000  0.23572000  0.85030000  1.0 -0.5305670764
O  O5  1  0.03380000  0.33095000  0.32740000  1.0 -0.5305670764
O  O6  1  0.96620000  0.83095000  0.17260000  1.0 -0.5305670764
O  O7  1  0.96620000  0.66905000  0.67260000  1.0 -0.5305670764
O  O8  1  0.03380000  0.16905000  0.82740000  1.0 -0.5305670764
O  O9  1  0.53640000  0.18929000  0.67080000  1.0 -0.5305670764
O  O10  1  0.46360000  0.68929000  0.82920000  1.0 -0.5305670764
O  O11  1  0.46360000  0.81071000  0.32920000  1.0 -0.5305670764
O  O12  1  0.53640000  0.31071000  0.17080000  1.0 -0.5305670764
O  O13  1  0.61220000  0.24993000  0.64860000  1.0 -0.5206893301
O  O14  1  0.38780000  0.74993000  0.85140000  1.0 -0.5206893301
O  O15  1  0.38780000  0.75007000  0.35140000  1.0 -0.5206893301
O  O16  1  0.61220000  0.25007000  0.14860000  1.0 -0.5206893301
O  O17  1  0.76760000  0.24311000  0.32530000  1.0 -0.5133055564
O  O18  1  0.23240000  0.74311000  0.17470000  1.0 -0.5133055564
O  O19  1  0.23240000  0.75689000  0.67470000  1.0 -0.5133055564
O  O20  1  0.76760000  0.25689000  0.82530000  1.0 -0.5133055564
O  O21  1  0.73580000  0.31998000  0.34870000  1.0 -0.5133055564
O  O22  1  0.26420000  0.81998000  0.15130000  1.0 -0.5133055564
O  O23  1  0.26420000  0.68002000  0.65130000  1.0 -0.5133055564
O  O24  1  0.73580000  0.18002000  0.84870000  1.0 -0.5133055564
O  O25  1  0.82230000  0.23879000  0.67170000  1.0 -0.5305670764
O  O26  1  0.17770000  0.73879000  0.82830000  1.0 -0.5305670764
O  O27  1  0.17770000  0.76121000  0.32830000  1.0 -0.5305670764
O  O28  1  0.82230000  0.26121000  0.17170000  1.0 -0.5305670764
O  O29  1  0.84180000  0.15870000  0.65010000  1.0 -0.5305670764
O  O30  1  0.15820000  0.65870000  0.84990000  1.0 -0.5305670764
O  O31  1  0.15820000  0.84130000  0.34990000  1.0 -0.5305670764
O  O32  1  0.84180000  0.34130000  0.15010000  1.0 -0.5305670764
O  O33  1  0.75360000  0.07119000  0.67510000  1.0 -0.5206893301
O  O34  1  0.24640000  0.57119000  0.82490000  1.0 -0.5206893301
O  O35  1  0.24640000  0.92881000  0.32490000  1.0 -0.5206893301
O  O36  1  0.75360000  0.42881000  0.17510000  1.0 -0.5206893301
O  O37  1  0.59300000  0.09169000  0.65190000  1.0 -0.5206893301
O  O38  1  0.40700000  0.59169000  0.84810000  1.0 -0.5206893301
O  O39  1  0.40700000  0.90831000  0.34810000  1.0 -0.5206893301
O  O40  1  0.59300000  0.40831000  0.15190000  1.0 -0.5206893301
O  O41  1  0.77820000  0.07994000  0.82980000  1.0 -0.5305670764
O  O42  1  0.22180000  0.57994000  0.67020000  1.0 -0.5305670764
O  O43  1  0.22180000  0.92006000  0.17020000  1.0 -0.5305670764
O  O44  1  0.77820000  0.42006000  0.32980000  1.0 -0.5305670764
O  O45  1  0.94150000  0.08867000  0.85250000  1.0 -0.5133055564
O  O46  1  0.05850000  0.58867000  0.64750000  1.0 -0.5133055564
O  O47  1  0.05850000  0.91133000  0.14750000  1.0 -0.5133055564
O  O48  1  0.94150000  0.41133000  0.35250000  1.0 -0.5133055564
O  O49  1  0.55910000  0.39660000  0.27410000  1.0 -0.020670695
O  O50  1  0.44090000  0.89660000  0.22590000  1.0 -0.020670695
O  O51  1  0.44090000  0.60340000  0.72590000  1.0 -0.020670695
O  O52  1  0.55910000  0.10340000  0.77410000  1.0 -0.020670695
O  O53  1  0.77660000  0.33213000  0.24342000  1.0 -0.740538256
O  O54  1  0.22340000  0.83213000  0.25658000  1.0 -0.740538256
O  O55  1  0.22340000  0.66787000  0.75658000  1.0 -0.740538256
O  O56  1  0.77660000  0.16787000  0.74342000  1.0 -0.740538256
O  O57  1  0.52490000  0.39760000  0.23650000  1.0 0.0089477995
O  O58  1  0.47510000  0.89760000  0.26350000  1.0 0.0028469038
O  O59  1  0.47510000  0.60240000  0.76350000  1.0 0.0028469038
O  O60  1  0.52490000  0.10240000  0.73650000  1.0 0.0028469038
