# DDEC6 charges by PACMAN v1.1 (https://github.com/mtap-research/PACMAN-charge/)
data_SUWQEI_FSR_pacman
_symmetry_space_group_name_H-M   'P 1'
_cell_length_a   12.79600000
_cell_length_b   25.62500000
_cell_length_c   16.11200000
_cell_angle_alpha   90.00000000
_cell_angle_beta   119.95500000
_cell_angle_gamma   90.00000000
_symmetry_Int_Tables_number   1
_chemical_formula_structural   Cu3H48W12C60(N6O31)2
_chemical_formula_sum   'Cu6 H96 W24 C120 N24 O124'
_cell_volume   4577.35865575
_cell_formula_units_Z   2
loop_
 _symmetry_equiv_pos_site_id
 _symmetry_equiv_pos_as_xyz
  1  'x, y, z'
loop_
 _atom_site_type_symbol
 _atom_site_label
 _atom_site_symmetry_multiplicity
 _atom_site_fract_x
 _atom_site_fract_y
 _atom_site_fract_z
 _atom_site_occupancy
 _atom_site_charge
Cu  Cu1  1  0.00000000  0.00000000  0.50000000  1.0 0.6259306615
Cu  Cu2  1  0.00000000  0.50000000  0.00000000  1.0 0.6259306615
Cu  Cu3  1  0.56010000  0.74408000  0.79410000  1.0 0.6006559526
Cu  Cu4  1  0.43990000  0.24408000  0.70590000  1.0 0.6006559526
Cu  Cu5  1  0.43990000  0.25592000  0.20590000  1.0 0.6006559526
Cu  Cu6  1  0.56010000  0.75592000  0.29410000  1.0 0.6006559526
H  H1  1  0.74600000  0.96430000  0.43610000  1.0 0.099232031
H  H2  1  0.25400000  0.46430000  0.06390000  1.0 0.099232031
H  H3  1  0.25400000  0.03570000  0.56390000  1.0 0.099232031
H  H4  1  0.74600000  0.53570000  0.93610000  1.0 0.099232031
H  H5  1  0.64680000  0.91370000  0.48940000  1.0 0.1305610148
H  H6  1  0.35320000  0.41370000  0.01060000  1.0 0.1305610148
H  H7  1  0.35320000  0.08630000  0.51060000  1.0 0.1305610148
H  H8  1  0.64680000  0.58630000  0.98940000  1.0 0.1305610148
H  H9  1  0.96210000  0.86120000  0.70310000  1.0 0.1403917367
H  H10  1  0.03790000  0.36120000  0.79690000  1.0 0.1403917367
H  H11  1  0.03790000  0.13880000  0.29690000  1.0 0.1403917367
H  H12  1  0.96210000  0.63880000  0.20310000  1.0 0.1403917367
H  H13  1  0.05670000  0.91730000  0.64650000  1.0 0.0907100406
H  H14  1  0.94330000  0.41730000  0.85350000  1.0 0.0907100406
H  H15  1  0.94330000  0.08270000  0.35350000  1.0 0.0907100406
H  H16  1  0.05670000  0.58270000  0.14650000  1.0 0.0907100406
H  H17  1  0.55030000  0.85250000  0.72640000  1.0 0.099232031
H  H18  1  0.44970000  0.35250000  0.77360000  1.0 0.099232031
H  H19  1  0.44970000  0.14750000  0.27360000  1.0 0.099232031
H  H20  1  0.55030000  0.64750000  0.22640000  1.0 0.099232031
H  H21  1  0.62810000  0.90460000  0.65390000  1.0 0.1403917367
H  H22  1  0.37190000  0.40460000  0.84610000  1.0 0.1403917367
H  H23  1  0.37190000  0.09540000  0.34610000  1.0 0.1403917367
H  H24  1  0.62810000  0.59540000  0.15390000  1.0 0.1403917367
H  H25  1  0.80390000  0.78030000  0.63440000  1.0 0.1305610148
H  H26  1  0.19610000  0.28030000  0.86560000  1.0 0.1305610148
H  H27  1  0.19610000  0.21970000  0.36560000  1.0 0.1305610148
H  H28  1  0.80390000  0.71970000  0.13440000  1.0 0.1305610148
H  H29  1  0.71350000  0.73110000  0.70180000  1.0 0.099232031
H  H30  1  0.28650000  0.23110000  0.79820000  1.0 0.099232031
H  H31  1  0.28650000  0.26890000  0.29820000  1.0 0.099232031
H  H32  1  0.71350000  0.76890000  0.20180000  1.0 0.099232031
H  H33  1  0.48110000  0.86150000  0.29320000  1.0 0.099232031
H  H34  1  0.51890000  0.36150000  0.20680000  1.0 0.099232031
H  H35  1  0.51890000  0.13850000  0.70680000  1.0 0.099232031
H  H36  1  0.48110000  0.63850000  0.79320000  1.0 0.099232031
H  H37  1  0.36120000  0.91030000  0.33090000  1.0 0.1403917367
H  H38  1  0.63880000  0.41030000  0.16910000  1.0 0.1403917367
H  H39  1  0.63880000  0.08970000  0.66910000  1.0 0.1403917367
H  H40  1  0.36120000  0.58970000  0.83090000  1.0 0.1403917367
H  H41  1  0.38580000  0.79520000  0.50560000  1.0 0.1227968827
H  H42  1  0.61420000  0.29520000  0.99440000  1.0 0.1227968827
H  H43  1  0.61420000  0.20480000  0.49440000  1.0 0.1227968827
H  H44  1  0.38580000  0.70480000  0.00560000  1.0 0.1227968827
H  H45  1  0.49830000  0.74900000  0.45970000  1.0 0.099232031
H  H46  1  0.50170000  0.24900000  0.04030000  1.0 0.099232031
H  H47  1  0.50170000  0.25100000  0.54030000  1.0 0.099232031
H  H48  1  0.49830000  0.75100000  0.95970000  1.0 0.099232031
H  H49  1  0.03340000  0.96000000  0.34750000  1.0 0.0907100406
H  H50  1  0.96660000  0.46000000  0.15250000  1.0 0.0907100406
H  H51  1  0.96660000  0.04000000  0.65250000  1.0 0.0907100406
H  H52  1  0.03340000  0.54000000  0.84750000  1.0 0.0907100406
H  H53  1  0.15660000  0.91330000  0.30830000  1.0 0.1403917367
H  H54  1  0.84340000  0.41330000  0.19170000  1.0 0.1403917367
H  H55  1  0.84340000  0.08670000  0.69170000  1.0 0.1403917367
H  H56  1  0.15660000  0.58670000  0.80830000  1.0 0.1403917367
H  H57  1  0.34390000  0.87100000  0.58400000  1.0 0.1227968827
H  H58  1  0.65610000  0.37100000  0.91600000  1.0 0.1227968827
H  H59  1  0.65610000  0.12900000  0.41600000  1.0 0.1227968827
H  H60  1  0.34390000  0.62900000  0.08400000  1.0 0.1227968827
H  H61  1  0.21160000  0.92040000  0.61040000  1.0 0.0907100406
H  H62  1  0.78840000  0.42040000  0.88960000  1.0 0.0907100406
H  H63  1  0.78840000  0.07960000  0.38960000  1.0 0.0907100406
H  H64  1  0.21160000  0.57960000  0.11040000  1.0 0.0907100406
H  H65  1  0.36570000  0.78120000  0.08810000  1.0 0.0907100406
H  H66  1  0.63430000  0.28120000  0.41190000  1.0 0.0907100406
H  H67  1  0.63430000  0.21880000  0.91190000  1.0 0.0907100406
H  H68  1  0.36570000  0.71880000  0.58810000  1.0 0.0907100406
H  H69  1  0.16000000  0.78530000  0.99260000  1.0 0.1403917367
H  H70  1  0.84000000  0.28530000  0.50740000  1.0 0.1403917367
H  H71  1  0.84000000  0.21470000  0.00740000  1.0 0.1403917367
H  H72  1  0.16000000  0.71470000  0.49260000  1.0 0.1403917367
H  H73  1  0.14400000  0.68390000  0.17540000  1.0 0.1227968827
H  H74  1  0.85600000  0.18390000  0.32460000  1.0 0.1227968827
H  H75  1  0.85600000  0.31610000  0.82460000  1.0 0.1227968827
H  H76  1  0.14400000  0.81610000  0.67540000  1.0 0.1227968827
H  H77  1  0.35130000  0.69010000  0.27290000  1.0 0.099232031
H  H78  1  0.64870000  0.19010000  0.22710000  1.0 0.099232031
H  H79  1  0.64870000  0.30990000  0.72710000  1.0 0.099232031
H  H80  1  0.35130000  0.80990000  0.77290000  1.0 0.099232031
H  H81  1  0.76300000  0.66150000  0.86700000  1.0 0.099232031
H  H82  1  0.23700000  0.16150000  0.63300000  1.0 0.099232031
H  H83  1  0.23700000  0.33850000  0.13300000  1.0 0.099232031
H  H84  1  0.76300000  0.83850000  0.36700000  1.0 0.099232031
H  H85  1  0.97000000  0.65810000  0.95720000  1.0 0.1305610148
H  H86  1  0.03000000  0.15810000  0.54280000  1.0 0.1305610148
H  H87  1  0.03000000  0.34190000  0.04280000  1.0 0.1305610148
H  H88  1  0.97000000  0.84190000  0.45720000  1.0 0.1305610148
H  H89  1  0.97000000  0.80260000  0.04850000  1.0 0.1403917367
H  H90  1  0.03000000  0.30260000  0.45150000  1.0 0.1403917367
H  H91  1  0.03000000  0.19740000  0.95150000  1.0 0.1403917367
H  H92  1  0.97000000  0.69740000  0.54850000  1.0 0.1403917367
H  H93  1  0.76960000  0.80740000  0.91950000  1.0 0.099232031
H  H94  1  0.23040000  0.30740000  0.58050000  1.0 0.099232031
H  H95  1  0.23040000  0.19260000  0.08050000  1.0 0.099232031
H  H96  1  0.76960000  0.69260000  0.41950000  1.0 0.099232031
W  W1  1  0.21101000  0.02668000  0.97044000  1.0 2.0094231908
W  W2  1  0.78899000  0.52668000  0.52956000  1.0 2.0094231908
W  W3  1  0.78899000  0.97332000  0.02956000  1.0 2.0094231908
W  W4  1  0.21101000  0.47332000  0.47044000  1.0 2.0094231908
W  W5  1  0.27824000  0.90132000  0.91675000  1.0 1.9460667118
W  W6  1  0.72176000  0.40132000  0.58325000  1.0 1.9375944679
W  W7  1  0.72176000  0.09868000  0.08325000  1.0 1.9460667118
W  W8  1  0.27824000  0.59868000  0.41675000  1.0 1.9460667118
W  W9  1  0.25446000  0.00999000  0.77425000  1.0 1.8780155127
W  W10  1  0.74554000  0.50999000  0.72575000  1.0 1.8780155127
W  W11  1  0.74554000  0.99001000  0.22575000  1.0 1.8780155127
W  W12  1  0.25446000  0.49001000  0.27425000  1.0 1.8780155127
W  W13  1  0.54002000  0.99649000  0.79884000  1.0 1.8425231223
W  W14  1  0.45998000  0.49649000  0.70116000  1.0 1.8425231223
W  W15  1  0.45998000  0.00351000  0.20116000  1.0 1.8425231223
W  W16  1  0.54002000  0.50351000  0.29884000  1.0 1.8425231223
W  W17  1  0.44438000  0.11825000  0.07333000  1.0 1.9375944679
W  W18  1  0.55562000  0.61825000  0.42667000  1.0 1.9375944679
W  W19  1  0.55562000  0.88175000  0.92667000  1.0 1.9375944679
W  W20  1  0.44438000  0.38175000  0.57333000  1.0 1.9375944679
W  W21  1  0.45532000  0.11265000  0.86349000  1.0 1.7381742939
W  W22  1  0.54468000  0.61265000  0.63651000  1.0 1.7381742939
W  W23  1  0.54468000  0.88735000  0.13651000  1.0 1.730054075
W  W24  1  0.45532000  0.38735000  0.36349000  1.0 1.7381742939
C  C1  1  0.79000000  0.94400000  0.49040000  1.0 0.0439606739
C  C2  1  0.21000000  0.44400000  0.00960000  1.0 0.0439606739
C  C3  1  0.21000000  0.05600000  0.50960000  1.0 0.0439606739
C  C4  1  0.79000000  0.55600000  0.99040000  1.0 0.0439606739
C  C5  1  0.73100000  0.91360000  0.52200000  1.0 -0.1747505124
C  C6  1  0.26900000  0.41360000  0.97800000  1.0 -0.1818220149
C  C7  1  0.26900000  0.08640000  0.47800000  1.0 -0.1747505124
C  C8  1  0.73100000  0.58640000  0.02200000  1.0 -0.1747505124
C  C9  1  0.79400000  0.88240000  0.60130000  1.0 0.099232031
C  C10  1  0.20600000  0.38240000  0.89870000  1.0 0.099232031
C  C11  1  0.20600000  0.11760000  0.39870000  1.0 0.099232031
C  C12  1  0.79400000  0.61760000  0.10130000  1.0 0.099232031
C  C13  1  0.91700000  0.88220000  0.65000000  1.0 -0.1958836521
C  C14  1  0.08300000  0.38220000  0.85000000  1.0 -0.1958836521
C  C15  1  0.08300000  0.11780000  0.35000000  1.0 -0.1958836521
C  C16  1  0.91700000  0.61780000  0.15000000  1.0 -0.1958836521
C  C17  1  0.97300000  0.91600000  0.61400000  1.0 0.0807939582
C  C18  1  0.02700000  0.41600000  0.88600000  1.0 0.0807939582
C  C19  1  0.02700000  0.08400000  0.38600000  1.0 0.0807939582
C  C20  1  0.97300000  0.58400000  0.11400000  1.0 0.0807939582
C  C21  1  0.59900000  0.83730000  0.70490000  1.0 0.0591464609
C  C22  1  0.40100000  0.33730000  0.79510000  1.0 0.0591464609
C  C23  1  0.40100000  0.16270000  0.29510000  1.0 0.0591464609
C  C24  1  0.59900000  0.66270000  0.20490000  1.0 0.0591464609
C  C25  1  0.64800000  0.86940000  0.66420000  1.0 -0.1958836521
C  C26  1  0.35200000  0.36940000  0.83580000  1.0 -0.1958836521
C  C27  1  0.35200000  0.13060000  0.33580000  1.0 -0.1908494207
C  C28  1  0.64800000  0.63060000  0.16420000  1.0 -0.1958836521
C  C29  1  0.72800000  0.84760000  0.63910000  1.0 0.099232031
C  C30  1  0.27200000  0.34760000  0.86090000  1.0 0.099232031
C  C31  1  0.27200000  0.15240000  0.36090000  1.0 0.099232031
C  C32  1  0.72800000  0.65240000  0.13910000  1.0 0.099232031
C  C33  1  0.75200000  0.79580000  0.65200000  1.0 -0.1908494207
C  C34  1  0.24800000  0.29580000  0.84800000  1.0 -0.1908494207
C  C35  1  0.24800000  0.20420000  0.34800000  1.0 -0.1908494207
C  C36  1  0.75200000  0.70420000  0.15200000  1.0 -0.1908494207
C  C37  1  0.69500000  0.76640000  0.69130000  1.0 0.0807939582
C  C38  1  0.30500000  0.26640000  0.80870000  1.0 0.0807939582
C  C39  1  0.30500000  0.23360000  0.30870000  1.0 0.0807939582
C  C40  1  0.69500000  0.73360000  0.19130000  1.0 0.0807939582
C  C41  1  0.45800000  0.84700000  0.33400000  1.0 0.0591464609
C  C42  1  0.54200000  0.34700000  0.16600000  1.0 0.0591464609
C  C43  1  0.54200000  0.15300000  0.66600000  1.0 0.0591464609
C  C44  1  0.45800000  0.65300000  0.83400000  1.0 0.0591464609
C  C45  1  0.38600000  0.87720000  0.35700000  1.0 -0.1958836521
C  C46  1  0.61400000  0.37720000  0.14300000  1.0 -0.1908494207
C  C47  1  0.61400000  0.12280000  0.64300000  1.0 -0.1908494207
C  C48  1  0.38600000  0.62280000  0.85700000  1.0 -0.1908494207
C  C49  1  0.35400000  0.85650000  0.42000000  1.0 0.099232031
C  C50  1  0.64600000  0.35650000  0.08000000  1.0 0.099232031
C  C51  1  0.64600000  0.14350000  0.58000000  1.0 0.099232031
C  C52  1  0.35400000  0.64350000  0.92000000  1.0 0.099232031
C  C53  1  0.40100000  0.80890000  0.45900000  1.0 -0.1908494207
C  C54  1  0.59900000  0.30890000  0.04100000  1.0 -0.1818220149
C  C55  1  0.59900000  0.19110000  0.54100000  1.0 -0.1818220149
C  C56  1  0.40100000  0.69110000  0.95900000  1.0 -0.1908494207
C  C57  1  0.46900000  0.78150000  0.43200000  1.0 0.0513837059
C  C58  1  0.53100000  0.28150000  0.06800000  1.0 0.0513837059
C  C59  1  0.53100000  0.21850000  0.56800000  1.0 0.0513837059
C  C60  1  0.46900000  0.71850000  0.93200000  1.0 0.0513837059
C  C61  1  0.09700000  0.94140000  0.39600000  1.0 0.099232031
C  C62  1  0.90300000  0.44140000  0.10400000  1.0 0.099232031
C  C63  1  0.90300000  0.05860000  0.60400000  1.0 0.099232031
C  C64  1  0.09700000  0.55860000  0.89600000  1.0 0.099232031
C  C65  1  0.17100000  0.91350000  0.37100000  1.0 -0.2082088589
C  C66  1  0.82900000  0.41350000  0.12900000  1.0 -0.2082088589
C  C67  1  0.82900000  0.08650000  0.62900000  1.0 -0.2082088589
C  C68  1  0.17100000  0.58650000  0.87100000  1.0 -0.2082088589
C  C69  1  0.26900000  0.88560000  0.44490000  1.0 0.099232031
C  C70  1  0.73100000  0.38560000  0.05510000  1.0 0.099232031
C  C71  1  0.73100000  0.11440000  0.55510000  1.0 0.099232031
C  C72  1  0.26900000  0.61440000  0.94490000  1.0 0.099232031
C  C73  1  0.28100000  0.88870000  0.53300000  1.0 -0.1908494207
C  C74  1  0.71900000  0.38870000  0.96700000  1.0 -0.1908494207
C  C75  1  0.71900000  0.11130000  0.46700000  1.0 -0.1908494207
C  C76  1  0.28100000  0.61130000  0.03300000  1.0 -0.1908494207
C  C77  1  0.20000000  0.91860000  0.54900000  1.0 0.0907100406
C  C78  1  0.80000000  0.41860000  0.95100000  1.0 0.0907100406
C  C79  1  0.80000000  0.08140000  0.45100000  1.0 0.0907100406
C  C80  1  0.20000000  0.58140000  0.04900000  1.0 0.0907100406
C  C81  1  0.31900000  0.76390000  0.10900000  1.0 0.0591464609
C  C82  1  0.68100000  0.26390000  0.39100000  1.0 0.0591464609
C  C83  1  0.68100000  0.23610000  0.89100000  1.0 0.0591464609
C  C84  1  0.31900000  0.73610000  0.60900000  1.0 0.0591464609
C  C85  1  0.19600000  0.76430000  0.04700000  1.0 -0.1908494207
C  C86  1  0.80400000  0.26430000  0.45300000  1.0 -0.1908494207
C  C87  1  0.80400000  0.23570000  0.95300000  1.0 -0.1908494207
C  C88  1  0.19600000  0.73570000  0.54700000  1.0 -0.1908494207
C  C89  1  0.13000000  0.73200000  0.07000000  1.0 0.099232031
C  C90  1  0.87000000  0.23200000  0.43000000  1.0 0.099232031
C  C91  1  0.87000000  0.26800000  0.93000000  1.0 0.099232031
C  C92  1  0.13000000  0.76800000  0.57000000  1.0 0.099232031
C  C93  1  0.18800000  0.70500000  0.15700000  1.0 -0.1818220149
C  C94  1  0.81200000  0.20500000  0.34300000  1.0 -0.1818220149
C  C95  1  0.81200000  0.29500000  0.84300000  1.0 -0.1818220149
C  C96  1  0.18800000  0.79500000  0.65700000  1.0 -0.1908494207
C  C97  1  0.31300000  0.70960000  0.21700000  1.0 0.0181868664
C  C98  1  0.68700000  0.20960000  0.28300000  1.0 0.0181868664
C  C99  1  0.68700000  0.29040000  0.78300000  1.0 0.0181868664
C  C100  1  0.31300000  0.79040000  0.71700000  1.0 0.0181868664
C  C101  1  0.80500000  0.69100000  0.90100000  1.0 0.0439606739
C  C102  1  0.19500000  0.19100000  0.59900000  1.0 0.0439606739
C  C103  1  0.19500000  0.30900000  0.09900000  1.0 0.0439606739
C  C104  1  0.80500000  0.80900000  0.40100000  1.0 0.0439606739
C  C105  1  0.93000000  0.68850000  0.95600000  1.0 -0.1908494207
C  C106  1  0.07000000  0.18850000  0.54400000  1.0 -0.1908494207
C  C107  1  0.07000000  0.31150000  0.04400000  1.0 -0.1908494207
C  C108  1  0.93000000  0.81150000  0.45600000  1.0 -0.1908494207
C  C109  1  0.99200000  0.73100000  0.00800000  1.0 0.0907100406
C  C110  1  0.00800000  0.23100000  0.49200000  1.0 0.0907100406
C  C111  1  0.00800000  0.26900000  0.99200000  1.0 0.0907100406
C  C112  1  0.99200000  0.76900000  0.50800000  1.0 0.0907100406
C  C113  1  0.93300000  0.77490000  0.00700000  1.0 -0.1908494207
C  C114  1  0.06700000  0.27490000  0.49300000  1.0 -0.1908494207
C  C115  1  0.06700000  0.22510000  0.99300000  1.0 -0.1908494207
C  C116  1  0.93300000  0.72510000  0.50700000  1.0 -0.1908494207
C  C117  1  0.80800000  0.77510000  0.93700000  1.0 0.0807939582
C  C118  1  0.19200000  0.27510000  0.56300000  1.0 0.0807939582
C  C119  1  0.19200000  0.22490000  0.06300000  1.0 0.0807939582
C  C120  1  0.80800000  0.72490000  0.43700000  1.0 0.0807939582
N  N1  1  0.91510000  0.94590000  0.53640000  1.0 -0.2502561539
N  N2  1  0.08490000  0.44590000  0.96360000  1.0 -0.2502561539
N  N3  1  0.08490000  0.05410000  0.46360000  1.0 -0.2502561539
N  N4  1  0.91510000  0.55410000  0.03640000  1.0 -0.2502561539
N  N5  1  0.61700000  0.78570000  0.71510000  1.0 -0.2288692152
N  N6  1  0.38300000  0.28570000  0.78490000  1.0 -0.2288692152
N  N7  1  0.38300000  0.21430000  0.28490000  1.0 -0.2288692152
N  N8  1  0.61700000  0.71430000  0.21510000  1.0 -0.2288692152
N  N9  1  0.49730000  0.79880000  0.36650000  1.0 -0.2214180443
N  N10  1  0.50270000  0.29880000  0.13350000  1.0 -0.2214180443
N  N11  1  0.50270000  0.20120000  0.63350000  1.0 -0.2214180443
N  N12  1  0.49730000  0.70120000  0.86650000  1.0 -0.2214180443
N  N13  1  0.11000000  0.94350000  0.48100000  1.0 -0.2214180443
N  N14  1  0.89000000  0.44350000  0.01900000  1.0 -0.2214180443
N  N15  1  0.89000000  0.05650000  0.51900000  1.0 -0.2214180443
N  N16  1  0.11000000  0.55650000  0.98100000  1.0 -0.2214180443
N  N17  1  0.38020000  0.74200000  0.19490000  1.0 -0.2288692152
N  N18  1  0.61980000  0.24200000  0.30510000  1.0 -0.2288692152
N  N19  1  0.61980000  0.25800000  0.80510000  1.0 -0.2288692152
N  N20  1  0.38020000  0.75800000  0.69490000  1.0 -0.2288692152
N  N21  1  0.74300000  0.73410000  0.89450000  1.0 -0.2214180443
N  N22  1  0.25700000  0.23410000  0.60550000  1.0 -0.2214180443
N  N23  1  0.25700000  0.26590000  0.10550000  1.0 -0.2214180443
N  N24  1  0.74300000  0.76590000  0.39450000  1.0 -0.2214180443
O  O1  1  0.13790000  0.01310000  0.65990000  1.0 -0.6577363168
O  O2  1  0.86210000  0.51310000  0.84010000  1.0 -0.6577363168
O  O3  1  0.86210000  0.98690000  0.34010000  1.0 -0.6577363168
O  O4  1  0.13790000  0.48690000  0.15990000  1.0 -0.6577363168
O  O5  1  0.19300000  0.95080000  0.94600000  1.0 -0.7532552386
O  O6  1  0.80700000  0.45080000  0.55400000  1.0 -0.7532552386
O  O7  1  0.80700000  0.04920000  0.05400000  1.0 -0.7532552386
O  O8  1  0.19300000  0.54920000  0.44600000  1.0 -0.7532552386
O  O9  1  0.44280000  0.16720000  0.79690000  1.0 -0.6412509138
O  O10  1  0.55720000  0.66720000  0.70310000  1.0 -0.6412509138
O  O11  1  0.55720000  0.83280000  0.20310000  1.0 -0.6412509138
O  O12  1  0.44280000  0.33280000  0.29690000  1.0 -0.6412509138
O  O13  1  0.42630000  0.17720000  0.11170000  1.0 -0.6577363168
O  O14  1  0.57370000  0.67720000  0.38830000  1.0 -0.6577363168
O  O15  1  0.57370000  0.82280000  0.88830000  1.0 -0.6543358619
O  O16  1  0.42630000  0.32280000  0.61170000  1.0 -0.6543358619
O  O17  1  0.23200000  0.94230000  0.80100000  1.0 -0.7213946636
O  O18  1  0.76800000  0.44230000  0.69900000  1.0 -0.7213946636
O  O19  1  0.76800000  0.05770000  0.19900000  1.0 -0.7213946636
O  O20  1  0.23200000  0.55770000  0.30100000  1.0 -0.7213946636
O  O21  1  0.52000000  0.07310000  0.77700000  1.0 -0.3503384347
O  O22  1  0.48000000  0.57310000  0.72300000  1.0 -0.3503384347
O  O23  1  0.48000000  0.92690000  0.22300000  1.0 -0.3503384347
O  O24  1  0.52000000  0.42690000  0.27700000  1.0 -0.3503384347
O  O25  1  0.41500000  0.03070000  0.04100000  1.0 -0.4724072198
O  O26  1  0.58500000  0.53070000  0.45900000  1.0 -0.4724072198
O  O27  1  0.58500000  0.96930000  0.95900000  1.0 -0.4724072198
O  O28  1  0.41500000  0.46930000  0.54100000  1.0 -0.4724072198
O  O29  1  0.28000000  0.09430000  0.00460000  1.0 -0.756835794
O  O30  1  0.72000000  0.59430000  0.49540000  1.0 -0.756835794
O  O31  1  0.72000000  0.90570000  0.99540000  1.0 -0.756835794
O  O32  1  0.28000000  0.40570000  0.50460000  1.0 -0.756835794
O  O33  1  0.55700000  0.99160000  0.70210000  1.0 -0.5882512237
O  O34  1  0.44300000  0.49160000  0.79790000  1.0 -0.5882512237
O  O35  1  0.44300000  0.00840000  0.29790000  1.0 -0.5882512237
O  O36  1  0.55700000  0.50840000  0.20210000  1.0 -0.5882512237
O  O37  1  0.32500000  0.00180000  0.09600000  1.0 -0.1537582333
O  O38  1  0.67500000  0.50180000  0.40400000  1.0 -0.1537582333
O  O39  1  0.67500000  0.99820000  0.90400000  1.0 -0.1566234733
O  O40  1  0.32500000  0.49820000  0.59600000  1.0 -0.1566234733
O  O41  1  0.17300000  0.85500000  0.86930000  1.0 -0.5970296766
O  O42  1  0.82700000  0.35500000  0.63070000  1.0 -0.5970296766
O  O43  1  0.82700000  0.14500000  0.13070000  1.0 -0.5970296766
O  O44  1  0.17300000  0.64500000  0.36930000  1.0 -0.5970296766
O  O45  1  0.07200000  0.03620000  0.95700000  1.0 -0.5970296766
O  O46  1  0.92800000  0.53620000  0.54300000  1.0 -0.5970296766
O  O47  1  0.92800000  0.96380000  0.04300000  1.0 -0.5970296766
O  O48  1  0.07200000  0.46380000  0.45700000  1.0 -0.5970296766
O  O49  1  0.52900000  0.92170000  0.82280000  1.0 -0.7135582621
O  O50  1  0.47100000  0.42170000  0.67720000  1.0 -0.7135582621
O  O51  1  0.47100000  0.07830000  0.17720000  1.0 -0.7213946636
O  O52  1  0.52900000  0.57830000  0.32280000  1.0 -0.7213946636
O  O53  1  0.20700000  0.03610000  0.85700000  1.0 -0.1818220149
O  O54  1  0.79300000  0.53610000  0.64300000  1.0 -0.1818220149
O  O55  1  0.79300000  0.96390000  0.14300000  1.0 -0.1818220149
O  O56  1  0.20700000  0.46390000  0.35700000  1.0 -0.1818220149
O  O57  1  0.37900000  0.98770000  0.76600000  1.0 -0.1818220149
O  O58  1  0.62100000  0.48770000  0.73400000  1.0 -0.1818220149
O  O59  1  0.62100000  0.01230000  0.23400000  1.0 -0.1818220149
O  O60  1  0.37900000  0.51230000  0.26600000  1.0 -0.1818220149
O  O61  1  0.38200000  0.89290000  0.03800000  1.0 -0.2214180443
O  O62  1  0.61800000  0.39290000  0.46200000  1.0 -0.2214180443
O  O63  1  0.61800000  0.10710000  0.96200000  1.0 -0.2214180443
O  O64  1  0.38200000  0.60710000  0.53800000  1.0 -0.2214180443
O  O65  1  0.40200000  0.12510000  0.94100000  1.0 -0.2082088589
O  O66  1  0.59800000  0.62510000  0.55900000  1.0 -0.2082088589
O  O67  1  0.59800000  0.87490000  0.05900000  1.0 -0.2082088589
O  O68  1  0.40200000  0.37490000  0.44100000  1.0 -0.2082088589
O  O69  1  0.40600000  0.88830000  0.89200000  1.0 -0.0020814379
O  O70  1  0.59400000  0.38830000  0.60800000  1.0 -0.0020814379
O  O71  1  0.59400000  0.11170000  0.10800000  1.0 -0.0020814379
O  O72  1  0.40600000  0.61170000  0.39200000  1.0 0.0004211758
O  O73  1  0.32100000  0.07740000  0.81600000  1.0 -0.1818220149
O  O74  1  0.67900000  0.57740000  0.68400000  1.0 -0.1908494207
O  O75  1  0.67900000  0.92260000  0.18400000  1.0 -0.1818220149
O  O76  1  0.32100000  0.42260000  0.31600000  1.0 -0.1908494207
O  O77  1  0.43900000  0.02760000  0.87700000  1.0 -0.420069104
O  O78  1  0.56100000  0.52760000  0.62300000  1.0 -0.420069104
O  O79  1  0.56100000  0.97240000  0.12300000  1.0 -0.420069104
O  O80  1  0.43900000  0.47240000  0.37700000  1.0 -0.420069104
O  O81  1  0.53600000  0.06350000  0.83300000  1.0 -0.2288692152
O  O82  1  0.46400000  0.56350000  0.66700000  1.0 -0.2288692152
O  O83  1  0.46400000  0.93650000  0.16700000  1.0 -0.2288692152
O  O84  1  0.53600000  0.43650000  0.33300000  1.0 -0.2288692152
O  O85  1  0.34600000  0.98980000  0.93600000  1.0 -0.4934676642
O  O86  1  0.65400000  0.48980000  0.56400000  1.0 -0.4934676642
O  O87  1  0.65400000  0.01020000  0.06400000  1.0 -0.4934676642
O  O88  1  0.34600000  0.51020000  0.43600000  1.0 -0.4934676642
O  O89  1  0.28100000  0.01070000  0.11300000  1.0 -0.273211209
O  O90  1  0.71900000  0.51070000  0.38700000  1.0 -0.273211209
O  O91  1  0.71900000  0.98930000  0.88700000  1.0 -0.273211209
O  O92  1  0.28100000  0.48930000  0.61300000  1.0 -0.273211209
O  O93  1  0.14300000  0.03420000  0.82800000  1.0 -0.2502561539
O  O94  1  0.85700000  0.53420000  0.67200000  1.0 -0.2448546345
O  O95  1  0.85700000  0.96580000  0.17200000  1.0 -0.2448546345
O  O96  1  0.14300000  0.46580000  0.32800000  1.0 -0.2502561539
O  O97  1  0.35500000  0.99250000  0.70500000  1.0 -0.3503384347
O  O98  1  0.64500000  0.49250000  0.79500000  1.0 -0.3503384347
O  O99  1  0.64500000  0.00750000  0.29500000  1.0 -0.3503384347
O  O100  1  0.35500000  0.50750000  0.20500000  1.0 -0.3503384347
O  O101  1  0.35700000  0.86250000  0.03200000  1.0 -0.3679675515
O  O102  1  0.64300000  0.36250000  0.46800000  1.0 -0.3679675515
O  O103  1  0.64300000  0.13750000  0.96800000  1.0 -0.3679675515
O  O104  1  0.35700000  0.63750000  0.53200000  1.0 -0.3679675515
O  O105  1  0.41400000  0.15620000  0.94800000  1.0 -0.359429658
O  O106  1  0.58600000  0.65620000  0.55200000  1.0 -0.359429658
O  O107  1  0.58600000  0.84380000  0.05200000  1.0 -0.359429658
O  O108  1  0.41400000  0.34380000  0.44800000  1.0 -0.359429658
O  O109  1  0.38100000  0.85810000  0.87900000  1.0 -0.2214180443
O  O110  1  0.61900000  0.35810000  0.62100000  1.0 -0.2214180443
O  O111  1  0.61900000  0.14190000  0.12100000  1.0 -0.2214180443
O  O112  1  0.38100000  0.64190000  0.37900000  1.0 -0.2214180443
O  O113  1  0.29000000  0.08870000  0.75700000  1.0 -0.359429658
O  O114  1  0.71000000  0.58870000  0.74300000  1.0 -0.359429658
O  O115  1  0.71000000  0.91130000  0.24300000  1.0 -0.359429658
O  O116  1  0.29000000  0.41130000  0.25700000  1.0 -0.359429658
O  O117  1  0.47600000  0.92850000  0.99500000  1.0 -0.3837814684
O  O118  1  0.52400000  0.42850000  0.50500000  1.0 -0.3837814684
O  O119  1  0.52400000  0.07150000  0.00500000  1.0 -0.3837814684
O  O120  1  0.47600000  0.57150000  0.49500000  1.0 -0.3837814684
O  O121  1  0.34900000  0.88500000  0.77500000  1.0 -0.359429658
O  O122  1  0.65100000  0.38500000  0.72500000  1.0 -0.359429658
O  O123  1  0.65100000  0.11500000  0.22500000  1.0 -0.359429658
O  O124  1  0.34900000  0.61500000  0.27500000  1.0 -0.359429658
