# DDEC6 charges by PACMAN v1.1 (https://github.com/mtap-research/PACMAN-charge/)
data_SUWZOB_ASR_pacman
_symmetry_space_group_name_H-M   'P 1'
_cell_length_a   19.68910000
_cell_length_b   13.79330000
_cell_length_c   26.27600000
_cell_angle_alpha   90.00000000
_cell_angle_beta   96.24200000
_cell_angle_gamma   90.00000000
_symmetry_Int_Tables_number   1
_chemical_formula_structural   Zn3H36C57N5O12
_chemical_formula_sum   'Zn12 H144 C228 N20 O48'
_cell_volume   7093.66925641
_cell_formula_units_Z   4
loop_
 _symmetry_equiv_pos_site_id
 _symmetry_equiv_pos_as_xyz
  1  'x, y, z'
loop_
 _atom_site_type_symbol
 _atom_site_label
 _atom_site_symmetry_multiplicity
 _atom_site_fract_x
 _atom_site_fract_y
 _atom_site_fract_z
 _atom_site_occupancy
 _atom_site_charge
Zn  Zn1  1  0.07679000  0.98719000  0.63549000  1.0 0.8179008525
Zn  Zn2  1  0.07679000  0.51281000  0.13549000  1.0 0.8179008525
Zn  Zn3  1  0.24626000  0.99790000  0.64640000  1.0 1.0233734112
Zn  Zn4  1  0.24626000  0.50210000  0.14640000  1.0 1.0233734112
Zn  Zn5  1  0.42020000  0.01388000  0.65756000  1.0 0.7483622592
Zn  Zn6  1  0.42020000  0.48612000  0.15756000  1.0 0.7483622592
Zn  Zn7  1  0.92321000  0.48719000  0.86451000  1.0 0.8179008525
Zn  Zn8  1  0.92321000  0.01281000  0.36451000  1.0 0.8179008525
Zn  Zn9  1  0.75374000  0.49790000  0.85360000  1.0 1.0233734112
Zn  Zn10  1  0.75374000  0.00210000  0.35360000  1.0 1.0233734112
Zn  Zn11  1  0.57980000  0.51388000  0.84244000  1.0 0.7483622592
Zn  Zn12  1  0.57980000  0.98612000  0.34244000  1.0 0.7483622592
H  H1  1  0.25190000  0.77030000  0.62190000  1.0 0.1292798679
H  H2  1  0.25190000  0.72970000  0.12190000  1.0 0.1292798679
H  H3  1  0.30720000  0.62290000  0.62890000  1.0 0.1202640065
H  H4  1  0.30720000  0.87710000  0.12890000  1.0 0.1202640065
H  H5  1  0.15690000  0.51490000  0.70020000  1.0 0.1202640065
H  H6  1  0.15690000  0.98510000  0.20020000  1.0 0.1202640065
H  H7  1  0.10350000  0.66260000  0.69570000  1.0 0.1202640065
H  H8  1  0.10350000  0.83740000  0.19570000  1.0 0.1202640065
H  H9  1  0.41630000  0.34900000  0.66180000  1.0 0.1202640065
H  H10  1  0.41630000  0.15100000  0.16180000  1.0 0.1202640065
H  H11  1  0.36610000  0.49980000  0.66320000  1.0 0.1119614111
H  H12  1  0.36610000  0.00020000  0.16320000  1.0 0.1119614111
H  H13  1  0.18550000  0.37520000  0.66810000  1.0 0.1202640065
H  H14  1  0.18550000  0.12480000  0.16810000  1.0 0.1202640065
H  H15  1  0.23520000  0.22540000  0.66650000  1.0 0.1292798679
H  H16  1  0.23520000  0.27460000  0.16650000  1.0 0.1292798679
H  H17  1  0.24440000  0.16110000  0.51740000  1.0 0.1292798679
H  H18  1  0.24440000  0.33890000  0.01740000  1.0 0.1292798679
H  H19  1  0.24680000  0.23580000  0.44100000  1.0 0.1119614111
H  H20  1  0.24680000  0.26420000  0.94100000  1.0 0.1119614111
H  H21  1  0.04300000  0.24560000  0.42320000  1.0 0.1202640065
H  H22  1  0.04300000  0.25440000  0.92320000  1.0 0.1202640065
H  H23  1  0.04120000  0.16860000  0.49970000  1.0 0.1202640065
H  H24  1  0.04120000  0.33140000  0.99970000  1.0 0.1202640065
H  H25  1  0.24860000  0.37580000  0.29340000  1.0 0.1292798679
H  H26  1  0.24860000  0.12420000  0.79340000  1.0 0.1292798679
H  H27  1  0.24640000  0.30620000  0.37270000  1.0 0.1119614111
H  H28  1  0.24640000  0.19380000  0.87270000  1.0 0.1119614111
H  H29  1  0.04660000  0.29710000  0.35210000  1.0 0.1202640065
H  H30  1  0.04660000  0.20290000  0.85210000  1.0 0.1202640065
H  H31  1  0.04790000  0.36530000  0.27260000  1.0 0.1202640065
H  H32  1  0.04790000  0.13470000  0.77260000  1.0 0.1202640065
H  H33  1  0.45070000  0.86530000  0.80120000  1.0 0.1202640065
H  H34  1  0.45070000  0.63470000  0.30120000  1.0 0.1202640065
H  H35  1  0.44920000  0.78790000  0.87810000  1.0 0.1202640065
H  H36  1  0.44920000  0.71210000  0.37810000  1.0 0.1202640065
H  H37  1  0.24940000  0.75040000  0.84910000  1.0 0.1202640065
H  H38  1  0.24940000  0.74960000  0.34910000  1.0 0.1202640065
H  H39  1  0.25220000  0.82330000  0.77070000  1.0 0.1202640065
H  H40  1  0.25220000  0.67670000  0.27070000  1.0 0.1202640065
H  H41  1  0.44530000  0.60910000  0.01310000  1.0 0.1119614111
H  H42  1  0.44530000  0.89090000  0.51310000  1.0 0.1119614111
H  H43  1  0.44600000  0.68200000  0.93490000  1.0 0.1119614111
H  H44  1  0.44600000  0.81800000  0.43490000  1.0 0.1119614111
H  H45  1  0.24840000  0.73850000  0.93250000  1.0 0.1202640065
H  H46  1  0.24840000  0.76150000  0.43250000  1.0 0.1202640065
H  H47  1  0.24630000  0.66170000  0.00910000  1.0 0.1202640065
H  H48  1  0.24630000  0.83830000  0.50910000  1.0 0.1202640065
H  H49  1  0.97120000  0.93190000  0.69810000  1.0 0.1202640065
H  H50  1  0.97120000  0.56810000  0.19810000  1.0 0.1202640065
H  H51  1  0.85430000  0.93560000  0.70090000  1.0 0.1448426258
H  H52  1  0.85430000  0.56440000  0.20090000  1.0 0.1448426258
H  H53  1  0.83590000  0.04160000  0.55830000  1.0 0.1460381907
H  H54  1  0.83590000  0.45840000  0.05830000  1.0 0.1460381907
H  H55  1  0.95270000  0.04280000  0.56100000  1.0 0.1119614111
H  H56  1  0.95270000  0.45720000  0.06100000  1.0 0.1119614111
H  H57  1  0.54480000  0.08660000  0.72400000  1.0 0.0700560571
H  H58  1  0.54480000  0.41340000  0.22400000  1.0 0.0700560571
H  H59  1  0.66290000  0.08070000  0.72660000  1.0 0.0981907297
H  H60  1  0.66290000  0.41930000  0.22660000  1.0 0.0981907297
H  H61  1  0.64530000  0.91250000  0.60100000  1.0 0.0981907297
H  H62  1  0.64530000  0.58750000  0.10100000  1.0 0.0981907297
H  H63  1  0.52730000  0.91830000  0.59840000  1.0 0.0577599542
H  H64  1  0.52730000  0.58170000  0.09840000  1.0 0.0577599542
H  H65  1  0.54670000  0.00140000  0.73680000  1.0 0.0577599542
H  H66  1  0.54670000  0.49860000  0.23680000  1.0 0.0577599542
H  H67  1  0.66450000  0.99500000  0.73710000  1.0 0.0937143576
H  H68  1  0.66450000  0.50500000  0.23710000  1.0 0.0937143576
H  H69  1  0.64270000  0.99490000  0.58320000  1.0 0.0981907297
H  H70  1  0.64270000  0.50510000  0.08320000  1.0 0.0981907297
H  H71  1  0.52490000  0.00130000  0.58300000  1.0 0.0577599542
H  H72  1  0.52490000  0.49870000  0.08300000  1.0 0.0577599542
H  H73  1  0.74810000  0.27030000  0.87810000  1.0 0.1292798679
H  H74  1  0.74810000  0.22970000  0.37810000  1.0 0.1292798679
H  H75  1  0.69280000  0.12290000  0.87110000  1.0 0.1202640065
H  H76  1  0.69280000  0.37710000  0.37110000  1.0 0.1202640065
H  H77  1  0.84310000  0.01490000  0.79980000  1.0 0.1202640065
H  H78  1  0.84310000  0.48510000  0.29980000  1.0 0.1202640065
H  H79  1  0.89650000  0.16260000  0.80430000  1.0 0.1202640065
H  H80  1  0.89650000  0.33740000  0.30430000  1.0 0.1202640065
H  H81  1  0.58370000  0.84900000  0.83820000  1.0 0.1202640065
H  H82  1  0.58370000  0.65100000  0.33820000  1.0 0.1202640065
H  H83  1  0.63390000  0.99980000  0.83680000  1.0 0.1119614111
H  H84  1  0.63390000  0.50020000  0.33680000  1.0 0.1119614111
H  H85  1  0.81450000  0.87520000  0.83190000  1.0 0.1202640065
H  H86  1  0.81450000  0.62480000  0.33190000  1.0 0.1202640065
H  H87  1  0.76480000  0.72540000  0.83350000  1.0 0.1292798679
H  H88  1  0.76480000  0.77460000  0.33350000  1.0 0.1292798679
H  H89  1  0.75560000  0.66110000  0.98260000  1.0 0.1292798679
H  H90  1  0.75560000  0.83890000  0.48260000  1.0 0.1292798679
H  H91  1  0.75320000  0.73580000  0.05900000  1.0 0.1119614111
H  H92  1  0.75320000  0.76420000  0.55900000  1.0 0.1119614111
H  H93  1  0.95700000  0.74560000  0.07680000  1.0 0.1202640065
H  H94  1  0.95700000  0.75440000  0.57680000  1.0 0.1202640065
H  H95  1  0.95880000  0.66860000  0.00030000  1.0 0.1202640065
H  H96  1  0.95880000  0.83140000  0.50030000  1.0 0.1202640065
H  H97  1  0.75140000  0.87580000  0.20660000  1.0 0.1292798679
H  H98  1  0.75140000  0.62420000  0.70660000  1.0 0.1292798679
H  H99  1  0.75360000  0.80620000  0.12730000  1.0 0.1119614111
H  H100  1  0.75360000  0.69380000  0.62730000  1.0 0.1119614111
H  H101  1  0.95340000  0.79710000  0.14790000  1.0 0.1202640065
H  H102  1  0.95340000  0.70290000  0.64790000  1.0 0.1202640065
H  H103  1  0.95210000  0.86530000  0.22740000  1.0 0.1202640065
H  H104  1  0.95210000  0.63470000  0.72740000  1.0 0.1202640065
H  H105  1  0.54930000  0.36530000  0.69880000  1.0 0.1202640065
H  H106  1  0.54930000  0.13470000  0.19880000  1.0 0.1202640065
H  H107  1  0.55080000  0.28790000  0.62190000  1.0 0.1202640065
H  H108  1  0.55080000  0.21210000  0.12190000  1.0 0.1202640065
H  H109  1  0.75060000  0.25040000  0.65090000  1.0 0.1202640065
H  H110  1  0.75060000  0.24960000  0.15090000  1.0 0.1202640065
H  H111  1  0.74780000  0.32330000  0.72930000  1.0 0.1202640065
H  H112  1  0.74780000  0.17670000  0.22930000  1.0 0.1202640065
H  H113  1  0.55470000  0.10910000  0.48690000  1.0 0.1119614111
H  H114  1  0.55470000  0.39090000  0.98690000  1.0 0.1119614111
H  H115  1  0.55400000  0.18200000  0.56510000  1.0 0.1119614111
H  H116  1  0.55400000  0.31800000  0.06510000  1.0 0.1119614111
H  H117  1  0.75160000  0.23850000  0.56750000  1.0 0.1202640065
H  H118  1  0.75160000  0.26150000  0.06750000  1.0 0.1202640065
H  H119  1  0.75370000  0.16170000  0.49090000  1.0 0.1202640065
H  H120  1  0.75370000  0.33830000  0.99090000  1.0 0.1202640065
H  H121  1  0.02880000  0.43190000  0.80190000  1.0 0.1202640065
H  H122  1  0.02880000  0.06810000  0.30190000  1.0 0.1202640065
H  H123  1  0.14570000  0.43560000  0.79910000  1.0 0.1448426258
H  H124  1  0.14570000  0.06440000  0.29910000  1.0 0.1448426258
H  H125  1  0.16410000  0.54160000  0.94170000  1.0 0.1460381907
H  H126  1  0.16410000  0.95840000  0.44170000  1.0 0.1460381907
H  H127  1  0.04730000  0.54280000  0.93900000  1.0 0.1119614111
H  H128  1  0.04730000  0.95720000  0.43900000  1.0 0.1119614111
H  H129  1  0.45520000  0.58660000  0.77600000  1.0 0.0700560571
H  H130  1  0.45520000  0.91340000  0.27600000  1.0 0.0700560571
H  H131  1  0.33710000  0.58070000  0.77340000  1.0 0.0981907297
H  H132  1  0.33710000  0.91930000  0.27340000  1.0 0.0981907297
H  H133  1  0.35470000  0.41250000  0.89900000  1.0 0.0981907297
H  H134  1  0.35470000  0.08750000  0.39900000  1.0 0.0981907297
H  H135  1  0.47270000  0.41830000  0.90160000  1.0 0.0577599542
H  H136  1  0.47270000  0.08170000  0.40160000  1.0 0.0577599542
H  H137  1  0.45330000  0.50140000  0.76320000  1.0 0.0577599542
H  H138  1  0.45330000  0.99860000  0.26320000  1.0 0.0577599542
H  H139  1  0.33550000  0.49500000  0.76290000  1.0 0.0937143576
H  H140  1  0.33550000  0.00500000  0.26290000  1.0 0.0937143576
H  H141  1  0.35730000  0.49490000  0.91680000  1.0 0.0981907297
H  H142  1  0.35730000  0.00510000  0.41680000  1.0 0.0981907297
H  H143  1  0.47510000  0.50130000  0.91700000  1.0 0.0577599542
H  H144  1  0.47510000  0.99870000  0.41700000  1.0 0.0577599542
C  C1  1  0.17170000  0.73170000  0.65750000  1.0 -0.0282175832
C  C2  1  0.17170000  0.76830000  0.15750000  1.0 -0.0282175832
C  C3  1  0.23230000  0.71880000  0.63800000  1.0 -0.0827613164
C  C4  1  0.23230000  0.78120000  0.13800000  1.0 -0.0827613164
C  C5  1  0.26520000  0.62990000  0.64170000  1.0 -0.1502384067
C  C6  1  0.26520000  0.87010000  0.14170000  1.0 -0.1502384067
C  C7  1  0.23660000  0.55190000  0.66410000  1.0 0.0700560571
C  C8  1  0.23660000  0.94810000  0.16410000  1.0 0.0700560571
C  C9  1  0.17650000  0.56620000  0.68420000  1.0 -0.1617904394
C  C10  1  0.17650000  0.93380000  0.18420000  1.0 -0.1617904394
C  C11  1  0.14420000  0.65480000  0.68140000  1.0 -0.0997333228
C  C12  1  0.14420000  0.84520000  0.18140000  1.0 -0.0997333228
C  C13  1  0.13430000  0.82520000  0.65110000  1.0 0.5600226682
C  C14  1  0.13430000  0.67480000  0.15110000  1.0 0.5600226682
C  C15  1  0.32970000  0.27160000  0.66230000  1.0 -0.0199042603
C  C16  1  0.32970000  0.22840000  0.16230000  1.0 -0.0199042603
C  C17  1  0.36930000  0.35410000  0.66240000  1.0 -0.0997333228
C  C18  1  0.36930000  0.14590000  0.16240000  1.0 -0.0997333228
C  C19  1  0.33900000  0.44460000  0.66330000  1.0 -0.1698973968
C  C20  1  0.33900000  0.05540000  0.16330000  1.0 -0.1698973968
C  C21  1  0.26980000  0.45480000  0.66450000  1.0 0.0700560571
C  C22  1  0.26980000  0.04520000  0.16450000  1.0 0.0700560571
C  C23  1  0.23230000  0.37080000  0.66620000  1.0 -0.1502384067
C  C24  1  0.23230000  0.12920000  0.16620000  1.0 -0.1502384067
C  C25  1  0.26200000  0.28060000  0.66520000  1.0 -0.0827613164
C  C26  1  0.26200000  0.21940000  0.16520000  1.0 -0.0827613164
C  C27  1  0.36210000  0.17440000  0.66030000  1.0 0.5600226682
C  C28  1  0.36210000  0.32560000  0.16030000  1.0 0.5600226682
C  C29  1  0.14260000  0.15510000  0.51720000  1.0 -0.0379355278
C  C30  1  0.14260000  0.34490000  0.01720000  1.0 -0.0379355278
C  C31  1  0.20340000  0.17750000  0.49830000  1.0 -0.0997333228
C  C32  1  0.20340000  0.32250000  0.99830000  1.0 -0.0997333228
C  C33  1  0.20480000  0.22270000  0.45270000  1.0 -0.1502384067
C  C34  1  0.20480000  0.27730000  0.95270000  1.0 -0.1502384067
C  C35  1  0.14550000  0.25010000  0.42290000  1.0 0.0789345085
C  C36  1  0.14550000  0.24990000  0.92290000  1.0 0.0789345085
C  C37  1  0.08400000  0.22840000  0.44200000  1.0 -0.1391508587
C  C38  1  0.08400000  0.27160000  0.94200000  1.0 -0.1391508587
C  C39  1  0.08300000  0.18220000  0.48790000  1.0 -0.1097717945
C  C40  1  0.08300000  0.31780000  0.98790000  1.0 -0.1097717945
C  C41  1  0.14140000  0.09950000  0.56583000  1.0 0.5821562967
C  C42  1  0.14140000  0.40050000  0.06583000  1.0 0.5821562967
C  C43  1  0.14830000  0.38080000  0.27500000  1.0 -0.0379355278
C  C44  1  0.14830000  0.11920000  0.77500000  1.0 -0.0379355278
C  C45  1  0.20680000  0.36130000  0.30500000  1.0 -0.0997333228
C  C46  1  0.20680000  0.13870000  0.80500000  1.0 -0.0997333228
C  C47  1  0.20520000  0.31950000  0.35310000  1.0 -0.1502384067
C  C48  1  0.20520000  0.18050000  0.85310000  1.0 -0.1502384067
C  C49  1  0.14650000  0.29750000  0.37270000  1.0 0.0700560571
C  C50  1  0.14650000  0.20250000  0.87270000  1.0 0.0700560571
C  C51  1  0.08840000  0.31400000  0.34110000  1.0 -0.1617904394
C  C52  1  0.08840000  0.18600000  0.84110000  1.0 -0.1617904394
C  C53  1  0.08900000  0.35520000  0.29300000  1.0 -0.0997333228
C  C54  1  0.08900000  0.14480000  0.79300000  1.0 -0.0997333228
C  C55  1  0.14970000  0.42490000  0.22357000  1.0 0.5915885132
C  C56  1  0.14970000  0.07510000  0.72357000  1.0 0.5915885132
C  C57  1  0.35020000  0.85580000  0.77870000  1.0 -0.0282175832
C  C58  1  0.35020000  0.64420000  0.27870000  1.0 -0.0282175832
C  C59  1  0.40940000  0.84310000  0.81100000  1.0 -0.1097717945
C  C60  1  0.40940000  0.65690000  0.31100000  1.0 -0.1097717945
C  C61  1  0.40830000  0.79820000  0.85760000  1.0 -0.1502384067
C  C62  1  0.40830000  0.70180000  0.35760000  1.0 -0.1502384067
C  C63  1  0.34860000  0.76820000  0.87460000  1.0 0.0700560571
C  C64  1  0.34860000  0.73180000  0.37460000  1.0 0.0700560571
C  C65  1  0.29040000  0.77540000  0.84030000  1.0 -0.1698973968
C  C66  1  0.29040000  0.72460000  0.34030000  1.0 -0.1698973968
C  C67  1  0.29210000  0.81920000  0.79300000  1.0 -0.0997333228
C  C68  1  0.29210000  0.68080000  0.29300000  1.0 -0.0997333228
C  C69  1  0.35170000  0.90530000  0.72850000  1.0 0.5821562967
C  C70  1  0.35170000  0.59470000  0.22850000  1.0 0.5821562967
C  C71  1  0.34610000  0.62820000  0.01990000  1.0 -0.0282175832
C  C72  1  0.34610000  0.87180000  0.51990000  1.0 -0.0282175832
C  C73  1  0.40510000  0.63500000  0.99690000  1.0 -0.1391508587
C  C74  1  0.40510000  0.86500000  0.49690000  1.0 -0.1391508587
C  C75  1  0.40550000  0.67960000  0.95010000  1.0 -0.1765236322
C  C76  1  0.40550000  0.82040000  0.45010000  1.0 -0.1765236322
C  C77  1  0.34730000  0.72090000  0.92510000  1.0 0.0700560571
C  C78  1  0.34730000  0.77910000  0.42510000  1.0 0.0700560571
C  C79  1  0.28870000  0.71230000  0.94850000  1.0 -0.1502384067
C  C80  1  0.28870000  0.78770000  0.44850000  1.0 -0.1502384067
C  C81  1  0.28720000  0.66680000  0.99470000  1.0 -0.0997333228
C  C82  1  0.28720000  0.83320000  0.49470000  1.0 -0.0997333228
C  C83  1  0.34450000  0.57630000  0.07020000  1.0 0.5821562967
C  C84  1  0.34450000  0.92370000  0.57020000  1.0 0.5821562967
C  C85  1  0.94330000  0.95540000  0.67000000  1.0 0.1119614111
C  C86  1  0.94330000  0.54460000  0.17000000  1.0 0.1119614111
C  C87  1  0.87340000  0.95700000  0.67200000  1.0 -0.2216015596
C  C88  1  0.87340000  0.54300000  0.17200000  1.0 -0.2216015596
C  C89  1  0.83260000  0.99160000  0.62940000  1.0 0.1866052535
C  C90  1  0.83260000  0.50840000  0.12940000  1.0 0.1866052535
C  C91  1  0.86270000  0.02090000  0.58760000  1.0 -0.2002266336
C  C92  1  0.86270000  0.47910000  0.08760000  1.0 -0.2002266336
C  C93  1  0.93260000  0.01960000  0.58910000  1.0 0.0981907297
C  C94  1  0.93260000  0.48040000  0.08910000  1.0 0.0981907297
C  C95  1  0.56500000  0.05170000  0.69940000  1.0 0.0700560571
C  C96  1  0.56500000  0.44830000  0.19940000  1.0 0.0700560571
C  C97  1  0.63570000  0.04820000  0.70090000  1.0 -0.0282175832
C  C98  1  0.63570000  0.45180000  0.20090000  1.0 -0.0282175832
C  C99  1  0.66580000  0.99600000  0.66400000  1.0 0.0218909315
C  C100  1  0.66580000  0.50400000  0.16400000  1.0 0.0218909315
C  C101  1  0.62520000  0.94740000  0.62560000  1.0 -0.0468688717
C  C102  1  0.62520000  0.55260000  0.12560000  1.0 -0.0468688717
C  C103  1  0.55440000  0.95090000  0.62410000  1.0 0.0789345085
C  C104  1  0.55440000  0.54910000  0.12410000  1.0 0.0789345085
C  C105  1  0.56590000  0.00010000  0.70610000  1.0 0.0700560571
C  C106  1  0.56590000  0.49990000  0.20610000  1.0 0.0700560571
C  C107  1  0.63650000  0.99620000  0.70620000  1.0 -0.0468688717
C  C108  1  0.63650000  0.50380000  0.20620000  1.0 -0.0468688717
C  C109  1  0.66530000  0.99430000  0.66020000  1.0 0.0271085116
C  C110  1  0.66530000  0.50570000  0.16020000  1.0 0.0271085116
C  C111  1  0.62340000  0.99620000  0.61400000  1.0 -0.0282175832
C  C112  1  0.62340000  0.50380000  0.11400000  1.0 -0.0282175832
C  C113  1  0.55290000  0.00000000  0.61390000  1.0 0.0700560571
C  C114  1  0.55290000  0.50000000  0.11390000  1.0 0.0700560571
C  C115  1  0.82830000  0.23170000  0.84250000  1.0 -0.0282175832
C  C116  1  0.82830000  0.26830000  0.34250000  1.0 -0.0282175832
C  C117  1  0.76770000  0.21880000  0.86200000  1.0 -0.0827613164
C  C118  1  0.76770000  0.28120000  0.36200000  1.0 -0.0827613164
C  C119  1  0.73480000  0.12990000  0.85830000  1.0 -0.1502384067
C  C120  1  0.73480000  0.37010000  0.35830000  1.0 -0.1502384067
C  C121  1  0.76340000  0.05190000  0.83590000  1.0 0.0700560571
C  C122  1  0.76340000  0.44810000  0.33590000  1.0 0.0700560571
C  C123  1  0.82350000  0.06620000  0.81580000  1.0 -0.1617904394
C  C124  1  0.82350000  0.43380000  0.31580000  1.0 -0.1617904394
C  C125  1  0.85580000  0.15480000  0.81860000  1.0 -0.0997333228
C  C126  1  0.85580000  0.34520000  0.31860000  1.0 -0.0997333228
C  C127  1  0.86570000  0.32520000  0.84890000  1.0 0.5600226682
C  C128  1  0.86570000  0.17480000  0.34890000  1.0 0.5600226682
C  C129  1  0.67030000  0.77160000  0.83770000  1.0 -0.0199042603
C  C130  1  0.67030000  0.72840000  0.33770000  1.0 -0.0199042603
C  C131  1  0.63070000  0.85410000  0.83760000  1.0 -0.0997333228
C  C132  1  0.63070000  0.64590000  0.33760000  1.0 -0.0997333228
C  C133  1  0.66100000  0.94460000  0.83670000  1.0 -0.1698973968
C  C134  1  0.66100000  0.55540000  0.33670000  1.0 -0.1698973968
C  C135  1  0.73020000  0.95480000  0.83550000  1.0 0.0700560571
C  C136  1  0.73020000  0.54520000  0.33550000  1.0 0.0700560571
C  C137  1  0.76770000  0.87080000  0.83380000  1.0 -0.1502384067
C  C138  1  0.76770000  0.62920000  0.33380000  1.0 -0.1502384067
C  C139  1  0.73800000  0.78060000  0.83480000  1.0 -0.0827613164
C  C140  1  0.73800000  0.71940000  0.33480000  1.0 -0.0827613164
C  C141  1  0.63790000  0.67440000  0.83970000  1.0 0.5600226682
C  C142  1  0.63790000  0.82560000  0.33970000  1.0 0.5600226682
C  C143  1  0.85740000  0.65510000  0.98280000  1.0 -0.0379355278
C  C144  1  0.85740000  0.84490000  0.48280000  1.0 -0.0379355278
C  C145  1  0.79660000  0.67750000  0.00170000  1.0 -0.0997333228
C  C146  1  0.79660000  0.82250000  0.50170000  1.0 -0.0997333228
C  C147  1  0.79520000  0.72270000  0.04730000  1.0 -0.1502384067
C  C148  1  0.79520000  0.77730000  0.54730000  1.0 -0.1502384067
C  C149  1  0.85450000  0.75010000  0.07710000  1.0 0.0789345085
C  C150  1  0.85450000  0.74990000  0.57710000  1.0 0.0789345085
C  C151  1  0.91600000  0.72840000  0.05800000  1.0 -0.1391508587
C  C152  1  0.91600000  0.77160000  0.55800000  1.0 -0.1391508587
C  C153  1  0.91700000  0.68220000  0.01210000  1.0 -0.1097717945
C  C154  1  0.91700000  0.81780000  0.51210000  1.0 -0.1097717945
C  C155  1  0.85860000  0.59950000  0.93417000  1.0 0.5821562967
C  C156  1  0.85860000  0.90050000  0.43417000  1.0 0.5821562967
C  C157  1  0.85170000  0.88080000  0.22500000  1.0 -0.0379355278
C  C158  1  0.85170000  0.61920000  0.72500000  1.0 -0.0379355278
C  C159  1  0.79320000  0.86130000  0.19500000  1.0 -0.0997333228
C  C160  1  0.79320000  0.63870000  0.69500000  1.0 -0.0997333228
C  C161  1  0.79480000  0.81950000  0.14690000  1.0 -0.1502384067
C  C162  1  0.79480000  0.68050000  0.64690000  1.0 -0.1502384067
C  C163  1  0.85350000  0.79750000  0.12730000  1.0 0.0700560571
C  C164  1  0.85350000  0.70250000  0.62730000  1.0 0.0700560571
C  C165  1  0.91160000  0.81400000  0.15890000  1.0 -0.1617904394
C  C166  1  0.91160000  0.68600000  0.65890000  1.0 -0.1617904394
C  C167  1  0.91100000  0.85520000  0.20700000  1.0 -0.0997333228
C  C168  1  0.91100000  0.64480000  0.70700000  1.0 -0.0997333228
C  C169  1  0.85030000  0.92490000  0.27643000  1.0 0.5915885132
C  C170  1  0.85030000  0.57510000  0.77643000  1.0 0.5915885132
C  C171  1  0.64980000  0.35580000  0.72130000  1.0 -0.0282175832
C  C172  1  0.64980000  0.14420000  0.22130000  1.0 -0.0282175832
C  C173  1  0.59060000  0.34310000  0.68900000  1.0 -0.1097717945
C  C174  1  0.59060000  0.15690000  0.18900000  1.0 -0.1097717945
C  C175  1  0.59170000  0.29820000  0.64240000  1.0 -0.1502384067
C  C176  1  0.59170000  0.20180000  0.14240000  1.0 -0.1502384067
C  C177  1  0.65140000  0.26820000  0.62540000  1.0 0.0700560571
C  C178  1  0.65140000  0.23180000  0.12540000  1.0 0.0700560571
C  C179  1  0.70960000  0.27540000  0.65970000  1.0 -0.1698973968
C  C180  1  0.70960000  0.22460000  0.15970000  1.0 -0.1698973968
C  C181  1  0.70790000  0.31920000  0.70700000  1.0 -0.0997333228
C  C182  1  0.70790000  0.18080000  0.20700000  1.0 -0.0997333228
C  C183  1  0.64830000  0.40530000  0.77150000  1.0 0.5821562967
C  C184  1  0.64830000  0.09470000  0.27150000  1.0 0.5821562967
C  C185  1  0.65390000  0.12820000  0.48010000  1.0 -0.0282175832
C  C186  1  0.65390000  0.37180000  0.98010000  1.0 -0.0282175832
C  C187  1  0.59490000  0.13500000  0.50310000  1.0 -0.1391508587
C  C188  1  0.59490000  0.36500000  0.00310000  1.0 -0.1391508587
C  C189  1  0.59450000  0.17960000  0.54990000  1.0 -0.1765236322
C  C190  1  0.59450000  0.32040000  0.04990000  1.0 -0.1765236322
C  C191  1  0.65270000  0.22090000  0.57490000  1.0 0.0700560571
C  C192  1  0.65270000  0.27910000  0.07490000  1.0 0.0700560571
C  C193  1  0.71130000  0.21230000  0.55150000  1.0 -0.1502384067
C  C194  1  0.71130000  0.28770000  0.05150000  1.0 -0.1502384067
C  C195  1  0.71280000  0.16680000  0.50530000  1.0 -0.0997333228
C  C196  1  0.71280000  0.33320000  0.00530000  1.0 -0.0997333228
C  C197  1  0.65550000  0.07630000  0.42980000  1.0 0.5821562967
C  C198  1  0.65550000  0.42370000  0.92980000  1.0 0.5821562967
C  C199  1  0.05670000  0.45540000  0.83000000  1.0 0.1119614111
C  C200  1  0.05670000  0.04460000  0.33000000  1.0 0.1119614111
C  C201  1  0.12660000  0.45700000  0.82800000  1.0 -0.2216015596
C  C202  1  0.12660000  0.04300000  0.32800000  1.0 -0.2216015596
C  C203  1  0.16740000  0.49160000  0.87060000  1.0 0.1866052535
C  C204  1  0.16740000  0.00840000  0.37060000  1.0 0.1866052535
C  C205  1  0.13730000  0.52090000  0.91240000  1.0 -0.2002266336
C  C206  1  0.13730000  0.97910000  0.41240000  1.0 -0.2002266336
C  C207  1  0.06740000  0.51960000  0.91090000  1.0 0.0981907297
C  C208  1  0.06740000  0.98040000  0.41090000  1.0 0.0981907297
C  C209  1  0.43500000  0.55170000  0.80060000  1.0 0.0700560571
C  C210  1  0.43500000  0.94830000  0.30060000  1.0 0.0700560571
C  C211  1  0.36430000  0.54820000  0.79910000  1.0 -0.0282175832
C  C212  1  0.36430000  0.95180000  0.29910000  1.0 -0.0282175832
C  C213  1  0.33420000  0.49600000  0.83600000  1.0 0.0218909315
C  C214  1  0.33420000  0.00400000  0.33600000  1.0 0.0218909315
C  C215  1  0.37480000  0.44740000  0.87440000  1.0 -0.0468688717
C  C216  1  0.37480000  0.05260000  0.37440000  1.0 -0.0468688717
C  C217  1  0.44560000  0.45090000  0.87590000  1.0 0.0789345085
C  C218  1  0.44560000  0.04910000  0.37590000  1.0 0.0789345085
C  C219  1  0.43410000  0.50010000  0.79390000  1.0 0.0700560571
C  C220  1  0.43410000  0.99990000  0.29390000  1.0 0.0700560571
C  C221  1  0.36350000  0.49620000  0.79380000  1.0 -0.0468688717
C  C222  1  0.36350000  0.00380000  0.29380000  1.0 -0.0468688717
C  C223  1  0.33470000  0.49430000  0.83980000  1.0 0.0271085116
C  C224  1  0.33470000  0.00570000  0.33980000  1.0 0.0271085116
C  C225  1  0.37660000  0.49620000  0.88600000  1.0 -0.0282175832
C  C226  1  0.37660000  0.00380000  0.38600000  1.0 -0.0282175832
C  C227  1  0.44710000  0.50000000  0.88610000  1.0 0.0700560571
C  C228  1  0.44710000  0.00000000  0.38610000  1.0 0.0700560571
N  N1  1  0.97230000  0.98610000  0.62942000  1.0 -0.2216015596
N  N2  1  0.97230000  0.51390000  0.12942000  1.0 -0.2216015596
N  N3  1  0.76000000  0.99410000  0.62580000  1.0 -0.1617904394
N  N4  1  0.76000000  0.50590000  0.12580000  1.0 -0.1617904394
N  N5  1  0.73920000  0.99380000  0.66700000  1.0 -0.1339756984
N  N6  1  0.73920000  0.50620000  0.16700000  1.0 -0.1339756984
N  N7  1  0.52430000  0.00300000  0.66100000  1.0 -0.2672849212
N  N8  1  0.52430000  0.49700000  0.16100000  1.0 -0.2672849212
N  N9  1  0.52410000  0.00190000  0.65990000  1.0 -0.2672849212
N  N10  1  0.52410000  0.49810000  0.15990000  1.0 -0.2672849212
N  N11  1  0.02770000  0.48610000  0.87058000  1.0 -0.2216015596
N  N12  1  0.02770000  0.01390000  0.37058000  1.0 -0.2216015596
N  N13  1  0.24000000  0.49410000  0.87420000  1.0 -0.1617904394
N  N14  1  0.24000000  0.00590000  0.37420000  1.0 -0.1617904394
N  N15  1  0.26080000  0.49380000  0.83300000  1.0 -0.1339756984
N  N16  1  0.26080000  0.00620000  0.33300000  1.0 -0.1339756984
N  N17  1  0.47570000  0.50300000  0.83900000  1.0 -0.2672849212
N  N18  1  0.47570000  0.99700000  0.33900000  1.0 -0.2672849212
N  N19  1  0.47590000  0.50190000  0.84010000  1.0 -0.2672849212
N  N20  1  0.47590000  0.99810000  0.34010000  1.0 -0.2672849212
O  O1  1  0.07610000  0.83260000  0.66310000  1.0 -0.5071977142
O  O2  1  0.07610000  0.66740000  0.16310000  1.0 -0.5071977142
O  O3  1  0.16110000  0.89810000  0.63276000  1.0 -0.5276792604
O  O4  1  0.16110000  0.60190000  0.13276000  1.0 -0.5276792604
O  O5  1  0.42540000  0.16640000  0.66150000  1.0 -0.4990168426
O  O6  1  0.42540000  0.33360000  0.16150000  1.0 -0.4990168426
O  O7  1  0.32729000  0.09980000  0.65810000  1.0 -0.5071977142
O  O8  1  0.32729000  0.40020000  0.15810000  1.0 -0.5071977142
O  O9  1  0.08448000  0.06470000  0.57431000  1.0 -0.5481206018
O  O10  1  0.08448000  0.43530000  0.07431000  1.0 -0.5481206018
O  O11  1  0.19594000  0.08950000  0.59374000  1.0 -0.5481206018
O  O12  1  0.19594000  0.41050000  0.09374000  1.0 -0.5481206018
O  O13  1  0.20536000  0.44130000  0.20811000  1.0 -0.5412669916
O  O14  1  0.20536000  0.05870000  0.70811000  1.0 -0.5412669916
O  O15  1  0.09200000  0.44320000  0.19949000  1.0 -0.5412669916
O  O16  1  0.09200000  0.05680000  0.69949000  1.0 -0.5412669916
O  O17  1  0.29780000  0.90680000  0.69905000  1.0 -0.5481206018
O  O18  1  0.29780000  0.59320000  0.19905000  1.0 -0.5481206018
O  O19  1  0.40752000  0.94070000  0.71896000  1.0 -0.5204833585
O  O20  1  0.40752000  0.55930000  0.21896000  1.0 -0.5204833585
O  O21  1  0.40179000  0.54990000  0.09169000  1.0 -0.5276792604
O  O22  1  0.40179000  0.95010000  0.59169000  1.0 -0.5276792604
O  O23  1  0.28869000  0.56610000  0.08645000  1.0 -0.5276792604
O  O24  1  0.28869000  0.93390000  0.58645000  1.0 -0.5276792604
O  O25  1  0.92390000  0.33260000  0.83690000  1.0 -0.5071977142
O  O26  1  0.92390000  0.16740000  0.33690000  1.0 -0.5071977142
O  O27  1  0.83890000  0.39810000  0.86724000  1.0 -0.5276792604
O  O28  1  0.83890000  0.10190000  0.36724000  1.0 -0.5276792604
O  O29  1  0.57460000  0.66640000  0.83850000  1.0 -0.4990168426
O  O30  1  0.57460000  0.83360000  0.33850000  1.0 -0.4990168426
O  O31  1  0.67271000  0.59980000  0.84190000  1.0 -0.5071977142
O  O32  1  0.67271000  0.90020000  0.34190000  1.0 -0.5071977142
O  O33  1  0.91552000  0.56470000  0.92569000  1.0 -0.5481206018
O  O34  1  0.91552000  0.93530000  0.42569000  1.0 -0.5481206018
O  O35  1  0.80406000  0.58950000  0.90626000  1.0 -0.5481206018
O  O36  1  0.80406000  0.91050000  0.40626000  1.0 -0.5481206018
O  O37  1  0.79464000  0.94130000  0.29189000  1.0 -0.5412669916
O  O38  1  0.79464000  0.55870000  0.79189000  1.0 -0.5412669916
O  O39  1  0.90800000  0.94320000  0.30051000  1.0 -0.5412669916
O  O40  1  0.90800000  0.55680000  0.80051000  1.0 -0.5412669916
O  O41  1  0.70220000  0.40680000  0.80095000  1.0 -0.5481206018
O  O42  1  0.70220000  0.09320000  0.30095000  1.0 -0.5481206018
O  O43  1  0.59248000  0.44070000  0.78104000  1.0 -0.5204833585
O  O44  1  0.59248000  0.05930000  0.28104000  1.0 -0.5204833585
O  O45  1  0.59821000  0.04990000  0.40831000  1.0 -0.5276792604
O  O46  1  0.59821000  0.45010000  0.90831000  1.0 -0.5276792604
O  O47  1  0.71131000  0.06610000  0.41355000  1.0 -0.5204833585
O  O48  1  0.71131000  0.43390000  0.91355000  1.0 -0.5204833585
