# DDEC6 charges by PACMAN v1.1 (https://github.com/mtap-research/PACMAN-charge/)
data_TACQUK_FSR_pacman
_symmetry_space_group_name_H-M   'P 1'
_cell_length_a   11.13230000
_cell_length_b   11.13230000
_cell_length_c   17.57370000
_cell_angle_alpha   90.00000000
_cell_angle_beta   90.00000000
_cell_angle_gamma   97.09220000
_symmetry_Int_Tables_number   1
_chemical_formula_structural   K3V3Ga2P8(C8O19)2
_chemical_formula_sum   'K6 V6 Ga4 P16 C32 O76'
_cell_volume   2161.21185179
_cell_formula_units_Z   2
loop_
 _symmetry_equiv_pos_site_id
 _symmetry_equiv_pos_as_xyz
  1  'x, y, z'
loop_
 _atom_site_type_symbol
 _atom_site_label
 _atom_site_symmetry_multiplicity
 _atom_site_fract_x
 _atom_site_fract_y
 _atom_site_fract_z
 _atom_site_occupancy
 _atom_site_charge
K  K1  1  0.50000000  0.50000000  0.50000000  1.0 0.5213136626
K  K2  1  0.50000000  0.50000000  0.00000000  1.0 0.5213136626
K  K3  1  0.54070000  0.54070000  0.25000000  1.0 0.3458366646
K  K4  1  0.45930000  0.45930000  0.75000000  1.0 0.3448825432
K  K5  1  0.48050000  0.48050000  0.25000000  1.0 0.3976822896
K  K6  1  0.51950000  0.51950000  0.75000000  1.0 0.3976822896
V  V1  1  0.73593000  0.28887000  0.75000000  1.0 1.8620481444
V  V2  1  0.26407000  0.71113000  0.25000000  1.0 1.8620481444
V  V3  1  0.71113000  0.26407000  0.25000000  1.0 1.8620481444
V  V4  1  0.28887000  0.73593000  0.75000000  1.0 1.8620481444
V  V5  1  0.12680000  0.12680000  0.75000000  1.0 1.8707402302
V  V6  1  0.87320000  0.87320000  0.25000000  1.0 1.8707402302
Ga  Ga1  1  0.77927000  0.22073000  0.50000000  1.0 1.4085907492
Ga  Ga2  1  0.22073000  0.77927000  0.00000000  1.0 1.4085907492
Ga  Ga3  1  0.22073000  0.77927000  0.50000000  1.0 1.4041854097
Ga  Ga4  1  0.77927000  0.22073000  0.00000000  1.0 1.4085907492
P  P1  1  0.55747000  0.26729000  0.60000000  1.0 0.9935617996
P  P2  1  0.44253000  0.73271000  0.10000000  1.0 0.9952900363
P  P3  1  0.73271000  0.44253000  0.40000000  1.0 0.9952900363
P  P4  1  0.26729000  0.55747000  0.90000000  1.0 0.9935617996
P  P5  1  0.44253000  0.73271000  0.40000000  1.0 0.9952900363
P  P6  1  0.55747000  0.26729000  0.90000000  1.0 0.9935617996
P  P7  1  0.26729000  0.55747000  0.60000000  1.0 0.9935617996
P  P8  1  0.73271000  0.44253000  0.10000000  1.0 0.9952900363
P  P9  1  0.27335000  0.96057000  0.63098000  1.0 1.1829454107
P  P10  1  0.72665000  0.03943000  0.13098000  1.0 1.1829454107
P  P11  1  0.03943000  0.72665000  0.36902000  1.0 1.1829454107
P  P12  1  0.96057000  0.27335000  0.86902000  1.0 1.1829454107
P  P13  1  0.72665000  0.03943000  0.36902000  1.0 1.1829454107
P  P14  1  0.27335000  0.96057000  0.86902000  1.0 1.1829454107
P  P15  1  0.96057000  0.27335000  0.63098000  1.0 1.1829454107
P  P16  1  0.03943000  0.72665000  0.13098000  1.0 1.1829454107
C  C1  1  0.41650000  0.05050000  0.62740000  1.0 -0.0497015351
C  C2  1  0.58350000  0.94950000  0.12740000  1.0 -0.0497015351
C  C3  1  0.94950000  0.58350000  0.37260000  1.0 -0.0497015351
C  C4  1  0.05050000  0.41650000  0.87260000  1.0 -0.0497015351
C  C5  1  0.58350000  0.94950000  0.37260000  1.0 -0.0497015351
C  C6  1  0.41650000  0.05050000  0.87260000  1.0 -0.0497015351
C  C7  1  0.05050000  0.41650000  0.62740000  1.0 -0.0497015351
C  C8  1  0.94950000  0.58350000  0.12740000  1.0 -0.0497015351
C  C9  1  0.41990000  0.16230000  0.58620000  1.0 -0.0716860607
C  C10  1  0.58010000  0.83770000  0.08620000  1.0 -0.0716860607
C  C11  1  0.83770000  0.58010000  0.41380000  1.0 -0.0716860607
C  C12  1  0.16230000  0.41990000  0.91380000  1.0 -0.0716860607
C  C13  1  0.58010000  0.83770000  0.41380000  1.0 -0.0716860607
C  C14  1  0.41990000  0.16230000  0.91380000  1.0 -0.0716860607
C  C15  1  0.16230000  0.41990000  0.58620000  1.0 -0.0716860607
C  C16  1  0.83770000  0.58010000  0.08620000  1.0 -0.0716860607
C  C17  1  0.55240000  0.84840000  0.14930000  1.0 -0.0603816528
C  C18  1  0.44760000  0.15160000  0.64930000  1.0 -0.0603816528
C  C19  1  0.15160000  0.44760000  0.85070000  1.0 -0.0603816528
C  C20  1  0.84840000  0.55240000  0.35070000  1.0 -0.0603816528
C  C21  1  0.44760000  0.15160000  0.85070000  1.0 -0.0603816528
C  C22  1  0.55240000  0.84840000  0.35070000  1.0 -0.0603816528
C  C23  1  0.84840000  0.55240000  0.14930000  1.0 -0.0603816528
C  C24  1  0.15160000  0.44760000  0.64930000  1.0 -0.0603816528
C  C25  1  0.37340000  0.07620000  0.91450000  1.0 0.0461124452
C  C26  1  0.62660000  0.92380000  0.41450000  1.0 0.0461124452
C  C27  1  0.92380000  0.62660000  0.08550000  1.0 0.0461124452
C  C28  1  0.07620000  0.37340000  0.58550000  1.0 0.0461124452
C  C29  1  0.62660000  0.92380000  0.08550000  1.0 0.0461124452
C  C30  1  0.37340000  0.07620000  0.58550000  1.0 0.0461124452
C  C31  1  0.07620000  0.37340000  0.91450000  1.0 0.0461124452
C  C32  1  0.92380000  0.62660000  0.41450000  1.0 0.0461124452
O  O1  1  0.64100000  0.19880000  0.55440000  1.0 -0.6408593925
O  O2  1  0.35900000  0.80120000  0.05440000  1.0 -0.6408593925
O  O3  1  0.80120000  0.35900000  0.44560000  1.0 -0.6408593925
O  O4  1  0.19880000  0.64100000  0.94560000  1.0 -0.6408593925
O  O5  1  0.35900000  0.80120000  0.44560000  1.0 -0.6408593925
O  O6  1  0.64100000  0.19880000  0.94560000  1.0 -0.6408593925
O  O7  1  0.19880000  0.64100000  0.55440000  1.0 -0.6408593925
O  O8  1  0.80120000  0.35900000  0.05440000  1.0 -0.6408593925
O  O9  1  0.21510000  0.91470000  0.55610000  1.0 -0.6810745345
O  O10  1  0.78490000  0.08530000  0.05610000  1.0 -0.6810745345
O  O11  1  0.08530000  0.78490000  0.44390000  1.0 -0.6810745345
O  O12  1  0.91470000  0.21510000  0.94390000  1.0 -0.6810745345
O  O13  1  0.78490000  0.08530000  0.44390000  1.0 -0.6810745345
O  O14  1  0.21510000  0.91470000  0.94390000  1.0 -0.6810745345
O  O15  1  0.91470000  0.21510000  0.55610000  1.0 -0.6810745345
O  O16  1  0.08530000  0.78490000  0.05610000  1.0 -0.6810745345
O  O17  1  0.32090000  0.86010000  0.66950000  1.0 -0.7290372075
O  O18  1  0.67910000  0.13990000  0.16950000  1.0 -0.7290372075
O  O19  1  0.13990000  0.67910000  0.33050000  1.0 -0.7290372075
O  O20  1  0.86010000  0.32090000  0.83050000  1.0 -0.7290372075
O  O21  1  0.67910000  0.13990000  0.33050000  1.0 -0.7290372075
O  O22  1  0.32090000  0.86010000  0.83050000  1.0 -0.7290372075
O  O23  1  0.86010000  0.32090000  0.66950000  1.0 -0.7290372075
O  O24  1  0.13990000  0.67910000  0.16950000  1.0 -0.7290372075
O  O25  1  0.74840000  0.49720000  0.75000000  1.0 -0.2415093975
O  O26  1  0.25160000  0.50280000  0.25000000  1.0 -0.2415093975
O  O27  1  0.50280000  0.25160000  0.25000000  1.0 -0.2415093975
O  O28  1  0.49720000  0.74840000  0.75000000  1.0 -0.2489054548
O  O29  1  0.60650000  0.31330000  0.67190000  1.0 -0.6924119638
O  O30  1  0.39350000  0.68670000  0.17190000  1.0 -0.6924119638
O  O31  1  0.68670000  0.39350000  0.32810000  1.0 -0.6924119638
O  O32  1  0.31330000  0.60650000  0.82810000  1.0 -0.6924119638
O  O33  1  0.39350000  0.68670000  0.32810000  1.0 -0.6924119638
O  O34  1  0.60650000  0.31330000  0.82810000  1.0 -0.6924119638
O  O35  1  0.31330000  0.60650000  0.67190000  1.0 -0.6924119638
O  O36  1  0.68670000  0.39350000  0.17190000  1.0 -0.6924119638
O  O37  1  0.72200000  0.14280000  0.75000000  1.0 -0.6707887696
O  O38  1  0.27800000  0.85720000  0.25000000  1.0 -0.6707887696
O  O39  1  0.85720000  0.27800000  0.25000000  1.0 -0.6707887696
O  O40  1  0.14280000  0.72200000  0.75000000  1.0 -0.6707887696
O  O41  1  0.23340000  0.23340000  0.75000000  1.0 -0.6029818105
O  O42  1  0.76660000  0.76660000  0.25000000  1.0 -0.6084247874
O  O43  1  0.17980000  0.01880000  0.67180000  1.0 -0.7378861653
O  O44  1  0.82020000  0.98120000  0.17180000  1.0 -0.7378861653
O  O45  1  0.98120000  0.82020000  0.32820000  1.0 -0.7378861653
O  O46  1  0.01880000  0.17980000  0.82820000  1.0 -0.7378861653
O  O47  1  0.82020000  0.98120000  0.32820000  1.0 -0.7378861653
O  O48  1  0.17980000  0.01880000  0.82820000  1.0 -0.7378861653
O  O49  1  0.01880000  0.17980000  0.67180000  1.0 -0.7378861653
O  O50  1  0.98120000  0.82020000  0.17180000  1.0 -0.7378861653
O  O51  1  0.96200000  0.96200000  0.75000000  1.0 0.1087018689
O  O52  1  0.03800000  0.03800000  0.25000000  1.0 0.1087018689
O  O53  1  0.48100000  0.35900000  0.57270000  1.0 -0.2268187599
O  O54  1  0.51900000  0.64100000  0.07270000  1.0 -0.2268187599
O  O55  1  0.64100000  0.51900000  0.42730000  1.0 -0.2268187599
O  O56  1  0.35900000  0.48100000  0.92730000  1.0 -0.2268187599
O  O57  1  0.51900000  0.64100000  0.42730000  1.0 -0.2268187599
O  O58  1  0.48100000  0.35900000  0.92730000  1.0 -0.2268187599
O  O59  1  0.35900000  0.48100000  0.57270000  1.0 -0.2268187599
O  O60  1  0.64100000  0.51900000  0.07270000  1.0 -0.2268187599
O  O61  1  0.40550000  0.40550000  0.42150000  1.0 -0.6296095299
O  O62  1  0.59450000  0.59450000  0.92150000  1.0 -0.6296095299
O  O63  1  0.59450000  0.59450000  0.57850000  1.0 -0.6296095299
O  O64  1  0.40550000  0.40550000  0.07850000  1.0 -0.6296095299
O  O65  1  0.45480000  0.64060000  0.03910000  1.0 -0.177269538
O  O66  1  0.54520000  0.35940000  0.53910000  1.0 -0.177269538
O  O67  1  0.35940000  0.54520000  0.96090000  1.0 -0.177269538
O  O68  1  0.64060000  0.45480000  0.46090000  1.0 -0.177269538
O  O69  1  0.54520000  0.35940000  0.96090000  1.0 -0.177269538
O  O70  1  0.45480000  0.64060000  0.46090000  1.0 -0.177269538
O  O71  1  0.64060000  0.45480000  0.03910000  1.0 -0.177269538
O  O72  1  0.35940000  0.54520000  0.53910000  1.0 -0.177269538
O  O73  1  0.51240000  0.51240000  0.98330000  1.0 0.6412591291
O  O74  1  0.48760000  0.48760000  0.48330000  1.0 0.6460547997
O  O75  1  0.48760000  0.48760000  0.01670000  1.0 0.6412591291
O  O76  1  0.51240000  0.51240000  0.51670000  1.0 0.6412591291
