# DDEC6 charges by PACMAN v1.1 (https://github.com/mtap-research/PACMAN-charge/)
data_TACSOJ_ASR_pacman
_symmetry_space_group_name_H-M   'P 1'
_cell_length_a   21.68310000
_cell_length_b   21.68310000
_cell_length_c   35.10800000
_cell_angle_alpha   90.00000000
_cell_angle_beta   90.00000000
_cell_angle_gamma   90.00000000
_symmetry_Int_Tables_number   1
_chemical_formula_structural   Fe6H54C91(N4O13)2
_chemical_formula_sum   'Fe24 H216 C364 N32 O104'
_cell_volume   16506.26583352
_cell_formula_units_Z   4
loop_
 _symmetry_equiv_pos_site_id
 _symmetry_equiv_pos_as_xyz
  1  'x, y, z'
loop_
 _atom_site_type_symbol
 _atom_site_label
 _atom_site_symmetry_multiplicity
 _atom_site_fract_x
 _atom_site_fract_y
 _atom_site_fract_z
 _atom_site_occupancy
 _atom_site_charge
Fe  Fe1  1  0.15781000  0.50503000  0.01363000  1.0 1.2293592878
Fe  Fe2  1  0.30714000  0.49074000  0.02533000  1.0 1.1215441413
Fe  Fe3  1  0.21457000  0.49972000  0.10090000  1.0 1.2545550056
Fe  Fe4  1  0.84219000  0.49497000  0.51363000  1.0 1.2293592878
Fe  Fe5  1  0.69286000  0.50926000  0.52533000  1.0 1.1215441413
Fe  Fe6  1  0.78543000  0.50028000  0.60090000  1.0 1.2558997659
Fe  Fe7  1  0.99497000  0.65781000  0.76363000  1.0 1.2293592878
Fe  Fe8  1  0.00926000  0.80714000  0.77533000  1.0 1.1215441413
Fe  Fe9  1  0.00028000  0.71457000  0.85090000  1.0 1.2558997659
Fe  Fe10  1  0.00503000  0.34219000  0.26363000  1.0 1.2293592878
Fe  Fe11  1  0.99074000  0.19286000  0.27533000  1.0 1.1215441413
Fe  Fe12  1  0.99972000  0.28543000  0.35090000  1.0 1.2558997659
Fe  Fe13  1  0.34219000  0.00503000  0.73637000  1.0 1.2293592878
Fe  Fe14  1  0.19286000  0.99074000  0.72467000  1.0 1.1215441413
Fe  Fe15  1  0.28543000  0.99972000  0.64910000  1.0 1.2545550056
Fe  Fe16  1  0.65781000  0.99497000  0.23637000  1.0 1.2293592878
Fe  Fe17  1  0.80714000  0.00926000  0.22467000  1.0 1.1215441413
Fe  Fe18  1  0.71457000  0.00028000  0.14910000  1.0 1.2558997659
Fe  Fe19  1  0.50503000  0.15781000  0.98637000  1.0 1.2293592878
Fe  Fe20  1  0.49074000  0.30714000  0.97467000  1.0 1.1215441413
Fe  Fe21  1  0.49972000  0.21457000  0.89910000  1.0 1.2558997659
Fe  Fe22  1  0.49497000  0.84219000  0.48637000  1.0 1.2293592878
Fe  Fe23  1  0.50926000  0.69286000  0.47467000  1.0 1.1215441413
Fe  Fe24  1  0.50028000  0.78543000  0.39910000  1.0 1.2558997659
H  H1  1  0.14470000  0.36810000  0.93194000  1.0 0.1204413681
H  H2  1  0.14200000  0.28050000  0.89205000  1.0 0.1101679511
H  H3  1  0.30550000  0.22770000  0.92849000  1.0 0.1204413681
H  H4  1  0.31150000  0.31600000  0.96826000  1.0 0.1204413681
H  H5  1  0.15000000  0.11130000  0.81939000  1.0 0.1101679511
H  H6  1  0.14230000  0.17710000  0.87060000  1.0 0.1204413681
H  H7  1  0.32470000  0.21150000  0.86498000  1.0 0.1204413681
H  H8  1  0.33270000  0.14690000  0.81563000  1.0 0.1204413681
H  H9  1  0.33800000  0.62930000  0.15360000  1.0 0.1284113506
H  H10  1  0.40660000  0.70640000  0.17670000  1.0 0.1101679511
H  H11  1  0.46780000  0.73090000  0.07270000  1.0 0.1101679511
H  H12  1  0.41130000  0.64690000  0.05260000  1.0 0.0894117533
H  H13  1  0.60580000  0.85030000  0.10850000  1.0 0.1370637752
H  H14  1  0.54180000  0.77110000  0.09310000  1.0 0.1101679511
H  H15  1  0.45910000  0.77820000  0.19280000  1.0 0.1101679511
H  H16  1  0.52380000  0.86130000  0.21070000  1.0 0.1284113506
H  H17  1  0.31670000  0.35060000  0.16358000  1.0 0.1204413681
H  H18  1  0.37960000  0.27010000  0.18290000  1.0 0.1204413681
H  H19  1  0.49150000  0.30250000  0.09399000  1.0 0.1101679511
H  H20  1  0.42770000  0.38150000  0.07432000  1.0 0.1284113506
H  H21  1  0.56230000  0.11340000  0.11201000  1.0 0.1204413681
H  H22  1  0.49560000  0.19390000  0.09669000  1.0 0.1204413681
H  H23  1  0.47890000  0.23270000  0.20791000  1.0 0.1204413681
H  H24  1  0.55080000  0.15790000  0.22155000  1.0 0.1204413681
H  H25  1  0.44800000  0.64650000  0.98730000  1.0 0.2462499906
H  H26  1  0.39000000  0.60530000  0.98720000  1.0 0.2897625603
H  H27  1  0.61080000  0.53880000  0.98520000  1.0 0.1204413681
H  H28  1  0.85530000  0.63190000  0.43194000  1.0 0.1204413681
H  H29  1  0.85800000  0.71950000  0.39205000  1.0 0.1101679511
H  H30  1  0.69450000  0.77230000  0.42849000  1.0 0.1204413681
H  H31  1  0.68850000  0.68400000  0.46826000  1.0 0.1204413681
H  H32  1  0.85000000  0.88870000  0.31939000  1.0 0.1101679511
H  H33  1  0.85770000  0.82290000  0.37060000  1.0 0.1204413681
H  H34  1  0.67530000  0.78850000  0.36498000  1.0 0.1204413681
H  H35  1  0.66730000  0.85310000  0.31563000  1.0 0.1204413681
H  H36  1  0.66200000  0.37070000  0.65360000  1.0 0.1204413681
H  H37  1  0.59340000  0.29360000  0.67670000  1.0 0.1101679511
H  H38  1  0.53220000  0.26910000  0.57270000  1.0 0.1101679511
H  H39  1  0.58870000  0.35310000  0.55260000  1.0 0.0894117533
H  H40  1  0.39420000  0.14970000  0.60850000  1.0 0.1370637752
H  H41  1  0.45820000  0.22890000  0.59310000  1.0 0.1101679511
H  H42  1  0.54090000  0.22180000  0.69280000  1.0 0.1101679511
H  H43  1  0.47620000  0.13870000  0.71070000  1.0 0.1284113506
H  H44  1  0.68330000  0.64940000  0.66358000  1.0 0.1204413681
H  H45  1  0.62040000  0.72990000  0.68290000  1.0 0.1204413681
H  H46  1  0.50850000  0.69750000  0.59399000  1.0 0.1101679511
H  H47  1  0.57230000  0.61850000  0.57432000  1.0 0.1284113506
H  H48  1  0.43770000  0.88660000  0.61201000  1.0 0.1204413681
H  H49  1  0.50440000  0.80610000  0.59669000  1.0 0.1204413681
H  H50  1  0.52110000  0.76730000  0.70791000  1.0 0.1204413681
H  H51  1  0.44920000  0.84210000  0.72155000  1.0 0.1204413681
H  H52  1  0.55200000  0.35350000  0.48730000  1.0 0.2462499906
H  H53  1  0.61000000  0.39470000  0.48720000  1.0 0.2897625603
H  H54  1  0.38920000  0.46120000  0.48520000  1.0 0.1204413681
H  H55  1  0.13190000  0.64470000  0.68194000  1.0 0.1204413681
H  H56  1  0.21950000  0.64200000  0.64205000  1.0 0.1101679511
H  H57  1  0.27230000  0.80550000  0.67849000  1.0 0.1204413681
H  H58  1  0.18400000  0.81150000  0.71826000  1.0 0.1204413681
H  H59  1  0.38870000  0.65000000  0.56939000  1.0 0.1101679511
H  H60  1  0.32290000  0.64230000  0.62060000  1.0 0.1204413681
H  H61  1  0.28850000  0.82470000  0.61498000  1.0 0.1284113506
H  H62  1  0.35310000  0.83270000  0.56563000  1.0 0.1204413681
H  H63  1  0.87070000  0.83800000  0.90360000  1.0 0.1204413681
H  H64  1  0.79360000  0.90660000  0.92670000  1.0 0.1101679511
H  H65  1  0.76910000  0.96780000  0.82270000  1.0 0.1101679511
H  H66  1  0.85310000  0.91130000  0.80260000  1.0 0.0894117533
H  H67  1  0.64970000  0.10580000  0.85850000  1.0 0.1370637752
H  H68  1  0.72890000  0.04180000  0.84310000  1.0 0.1101679511
H  H69  1  0.72180000  0.95910000  0.94280000  1.0 0.1101679511
H  H70  1  0.63870000  0.02380000  0.96070000  1.0 0.1284113506
H  H71  1  0.14940000  0.81670000  0.91358000  1.0 0.1204413681
H  H72  1  0.22990000  0.87960000  0.93290000  1.0 0.1204413681
H  H73  1  0.19750000  0.99150000  0.84399000  1.0 0.1101679511
H  H74  1  0.11850000  0.92770000  0.82432000  1.0 0.1284113506
H  H75  1  0.38660000  0.06230000  0.86201000  1.0 0.1204413681
H  H76  1  0.30610000  0.99560000  0.84669000  1.0 0.1204413681
H  H77  1  0.26730000  0.97890000  0.95791000  1.0 0.1204413681
H  H78  1  0.34210000  0.05080000  0.97155000  1.0 0.1204413681
H  H79  1  0.85350000  0.94800000  0.73730000  1.0 0.2462499906
H  H80  1  0.89470000  0.89000000  0.73720000  1.0 0.2897625603
H  H81  1  0.96120000  0.11080000  0.73520000  1.0 0.1204413681
H  H82  1  0.86810000  0.35530000  0.18194000  1.0 0.1204413681
H  H83  1  0.78050000  0.35800000  0.14205000  1.0 0.1101679511
H  H84  1  0.72770000  0.19450000  0.17849000  1.0 0.1204413681
H  H85  1  0.81600000  0.18850000  0.21826000  1.0 0.1204413681
H  H86  1  0.61130000  0.35000000  0.06939000  1.0 0.1101679511
H  H87  1  0.67710000  0.35770000  0.12060000  1.0 0.1204413681
H  H88  1  0.71150000  0.17530000  0.11498000  1.0 0.1284113506
H  H89  1  0.64690000  0.16730000  0.06563000  1.0 0.1204413681
H  H90  1  0.12930000  0.16200000  0.40360000  1.0 0.1204413681
H  H91  1  0.20640000  0.09340000  0.42670000  1.0 0.1101679511
H  H92  1  0.23090000  0.03220000  0.32270000  1.0 0.1101679511
H  H93  1  0.14690000  0.08870000  0.30260000  1.0 0.0894117533
H  H94  1  0.35030000  0.89420000  0.35850000  1.0 0.1370637752
H  H95  1  0.27110000  0.95820000  0.34310000  1.0 0.1101679511
H  H96  1  0.27820000  0.04090000  0.44280000  1.0 0.1101679511
H  H97  1  0.36130000  0.97620000  0.46070000  1.0 0.1284113506
H  H98  1  0.85060000  0.18330000  0.41358000  1.0 0.1204413681
H  H99  1  0.77010000  0.12040000  0.43290000  1.0 0.1204413681
H  H100  1  0.80250000  0.00850000  0.34399000  1.0 0.1101679511
H  H101  1  0.88150000  0.07230000  0.32432000  1.0 0.1284113506
H  H102  1  0.61340000  0.93770000  0.36201000  1.0 0.1204413681
H  H103  1  0.69390000  0.00440000  0.34669000  1.0 0.1204413681
H  H104  1  0.73270000  0.02110000  0.45791000  1.0 0.1204413681
H  H105  1  0.65790000  0.94920000  0.47155000  1.0 0.1204413681
H  H106  1  0.14650000  0.05200000  0.23730000  1.0 0.2462499906
H  H107  1  0.10530000  0.11000000  0.23720000  1.0 0.2897625603
H  H108  1  0.03880000  0.88920000  0.23520000  1.0 0.1204413681
H  H109  1  0.35530000  0.86810000  0.81806000  1.0 0.1204413681
H  H110  1  0.35800000  0.78050000  0.85795000  1.0 0.1101679511
H  H111  1  0.19450000  0.72770000  0.82151000  1.0 0.1204413681
H  H112  1  0.18850000  0.81600000  0.78174000  1.0 0.1204413681
H  H113  1  0.35000000  0.61130000  0.93061000  1.0 0.1101679511
H  H114  1  0.35770000  0.67710000  0.87940000  1.0 0.1204413681
H  H115  1  0.17530000  0.71150000  0.88502000  1.0 0.1284113506
H  H116  1  0.16730000  0.64690000  0.93437000  1.0 0.1204413681
H  H117  1  0.16200000  0.12930000  0.59640000  1.0 0.1204413681
H  H118  1  0.09340000  0.20640000  0.57330000  1.0 0.1101679511
H  H119  1  0.03220000  0.23090000  0.67730000  1.0 0.1101679511
H  H120  1  0.08870000  0.14690000  0.69740000  1.0 0.0894117533
H  H121  1  0.89420000  0.35030000  0.64150000  1.0 0.1370637752
H  H122  1  0.95820000  0.27110000  0.65690000  1.0 0.1101679511
H  H123  1  0.04090000  0.27820000  0.55720000  1.0 0.1101679511
H  H124  1  0.97620000  0.36130000  0.53930000  1.0 0.1284113506
H  H125  1  0.18330000  0.85060000  0.58642000  1.0 0.1204413681
H  H126  1  0.12040000  0.77010000  0.56710000  1.0 0.1204413681
H  H127  1  0.00850000  0.80250000  0.65601000  1.0 0.1101679511
H  H128  1  0.07230000  0.88150000  0.67568000  1.0 0.1284113506
H  H129  1  0.93770000  0.61340000  0.63799000  1.0 0.1204413681
H  H130  1  0.00440000  0.69390000  0.65331000  1.0 0.1204413681
H  H131  1  0.02110000  0.73270000  0.54209000  1.0 0.1204413681
H  H132  1  0.94920000  0.65790000  0.52845000  1.0 0.1204413681
H  H133  1  0.05200000  0.14650000  0.76270000  1.0 0.2462499906
H  H134  1  0.11000000  0.10530000  0.76280000  1.0 0.2897625603
H  H135  1  0.88920000  0.03880000  0.76480000  1.0 0.1204413681
H  H136  1  0.64470000  0.13190000  0.31806000  1.0 0.1204413681
H  H137  1  0.64200000  0.21950000  0.35795000  1.0 0.1101679511
H  H138  1  0.80550000  0.27230000  0.32151000  1.0 0.1204413681
H  H139  1  0.81150000  0.18400000  0.28174000  1.0 0.1204413681
H  H140  1  0.65000000  0.38870000  0.43061000  1.0 0.1101679511
H  H141  1  0.64230000  0.32290000  0.37940000  1.0 0.1204413681
H  H142  1  0.82470000  0.28850000  0.38502000  1.0 0.1284113506
H  H143  1  0.83270000  0.35310000  0.43437000  1.0 0.1204413681
H  H144  1  0.83800000  0.87070000  0.09640000  1.0 0.1204413681
H  H145  1  0.90660000  0.79360000  0.07330000  1.0 0.1101679511
H  H146  1  0.96780000  0.76910000  0.17730000  1.0 0.1101679511
H  H147  1  0.91130000  0.85310000  0.19740000  1.0 0.0894117533
H  H148  1  0.10580000  0.64970000  0.14150000  1.0 0.1370637752
H  H149  1  0.04180000  0.72890000  0.15690000  1.0 0.1101679511
H  H150  1  0.95910000  0.72180000  0.05720000  1.0 0.1101679511
H  H151  1  0.02380000  0.63870000  0.03930000  1.0 0.1284113506
H  H152  1  0.81670000  0.14940000  0.08642000  1.0 0.1204413681
H  H153  1  0.87960000  0.22990000  0.06710000  1.0 0.1204413681
H  H154  1  0.99150000  0.19750000  0.15601000  1.0 0.1101679511
H  H155  1  0.92770000  0.11850000  0.17568000  1.0 0.1284113506
H  H156  1  0.06230000  0.38660000  0.13799000  1.0 0.1204413681
H  H157  1  0.99560000  0.30610000  0.15331000  1.0 0.1204413681
H  H158  1  0.97890000  0.26730000  0.04209000  1.0 0.1204413681
H  H159  1  0.05080000  0.34210000  0.02845000  1.0 0.1204413681
H  H160  1  0.94800000  0.85350000  0.26270000  1.0 0.2462499906
H  H161  1  0.89000000  0.89470000  0.26280000  1.0 0.2897625603
H  H162  1  0.11080000  0.96120000  0.26480000  1.0 0.1204413681
H  H163  1  0.36810000  0.14470000  0.06806000  1.0 0.1204413681
H  H164  1  0.28050000  0.14200000  0.10795000  1.0 0.1101679511
H  H165  1  0.22770000  0.30550000  0.07151000  1.0 0.1204413681
H  H166  1  0.31600000  0.31150000  0.03174000  1.0 0.1204413681
H  H167  1  0.11130000  0.15000000  0.18061000  1.0 0.1101679511
H  H168  1  0.17710000  0.14230000  0.12940000  1.0 0.1204413681
H  H169  1  0.21150000  0.32470000  0.13502000  1.0 0.1284113506
H  H170  1  0.14690000  0.33270000  0.18437000  1.0 0.1204413681
H  H171  1  0.62930000  0.33800000  0.84640000  1.0 0.1204413681
H  H172  1  0.70640000  0.40660000  0.82330000  1.0 0.1101679511
H  H173  1  0.73090000  0.46780000  0.92730000  1.0 0.1101679511
H  H174  1  0.64690000  0.41130000  0.94740000  1.0 0.0894117533
H  H175  1  0.85030000  0.60580000  0.89150000  1.0 0.1370637752
H  H176  1  0.77110000  0.54180000  0.90690000  1.0 0.1101679511
H  H177  1  0.77820000  0.45910000  0.80720000  1.0 0.1101679511
H  H178  1  0.86130000  0.52380000  0.78930000  1.0 0.1284113506
H  H179  1  0.35060000  0.31670000  0.83642000  1.0 0.1204413681
H  H180  1  0.27010000  0.37960000  0.81710000  1.0 0.1204413681
H  H181  1  0.30250000  0.49150000  0.90601000  1.0 0.1101679511
H  H182  1  0.38150000  0.42770000  0.92568000  1.0 0.1284113506
H  H183  1  0.11340000  0.56230000  0.88799000  1.0 0.1204413681
H  H184  1  0.19390000  0.49560000  0.90331000  1.0 0.1204413681
H  H185  1  0.23270000  0.47890000  0.79209000  1.0 0.1204413681
H  H186  1  0.15790000  0.55080000  0.77845000  1.0 0.1204413681
H  H187  1  0.64650000  0.44800000  0.01270000  1.0 0.2462499906
H  H188  1  0.60530000  0.39000000  0.01280000  1.0 0.2897625603
H  H189  1  0.53880000  0.61080000  0.01480000  1.0 0.1204413681
H  H190  1  0.63190000  0.85530000  0.56806000  1.0 0.1204413681
H  H191  1  0.71950000  0.85800000  0.60795000  1.0 0.1101679511
H  H192  1  0.77230000  0.69450000  0.57151000  1.0 0.1204413681
H  H193  1  0.68400000  0.68850000  0.53174000  1.0 0.1204413681
H  H194  1  0.88870000  0.85000000  0.68061000  1.0 0.1101679511
H  H195  1  0.82290000  0.85770000  0.62940000  1.0 0.1204413681
H  H196  1  0.78850000  0.67530000  0.63502000  1.0 0.1284113506
H  H197  1  0.85310000  0.66730000  0.68437000  1.0 0.1204413681
H  H198  1  0.37070000  0.66200000  0.34640000  1.0 0.1204413681
H  H199  1  0.29360000  0.59340000  0.32330000  1.0 0.1101679511
H  H200  1  0.26910000  0.53220000  0.42730000  1.0 0.1101679511
H  H201  1  0.35310000  0.58870000  0.44740000  1.0 0.0894117533
H  H202  1  0.14970000  0.39420000  0.39150000  1.0 0.1370637752
H  H203  1  0.22890000  0.45820000  0.40690000  1.0 0.1101679511
H  H204  1  0.22180000  0.54090000  0.30720000  1.0 0.1101679511
H  H205  1  0.13870000  0.47620000  0.28930000  1.0 0.1284113506
H  H206  1  0.64940000  0.68330000  0.33642000  1.0 0.1204413681
H  H207  1  0.72990000  0.62040000  0.31710000  1.0 0.1204413681
H  H208  1  0.69750000  0.50850000  0.40601000  1.0 0.1101679511
H  H209  1  0.61850000  0.57230000  0.42568000  1.0 0.1284113506
H  H210  1  0.88660000  0.43770000  0.38799000  1.0 0.1204413681
H  H211  1  0.80610000  0.50440000  0.40331000  1.0 0.1204413681
H  H212  1  0.76730000  0.52110000  0.29209000  1.0 0.1204413681
H  H213  1  0.84210000  0.44920000  0.27845000  1.0 0.1204413681
H  H214  1  0.35350000  0.55200000  0.51270000  1.0 0.2462499906
H  H215  1  0.39470000  0.61000000  0.51280000  1.0 0.2897625603
H  H216  1  0.46120000  0.38920000  0.51480000  1.0 0.1204413681
C  C1  1  0.22900000  0.34970000  0.95341000  1.0 -0.0562760271
C  C2  1  0.17780000  0.34090000  0.93105000  1.0 -0.0915672868
C  C3  1  0.17720000  0.28860000  0.90634000  1.0 -0.1606058871
C  C4  1  0.22710000  0.24980000  0.90305000  1.0 0.07045936
C  C5  1  0.27430000  0.25710000  0.92769000  1.0 -0.1350247673
C  C6  1  0.27730000  0.30960000  0.95280000  1.0 -0.0791258348
C  C7  1  0.24160000  0.11940000  0.81258000  1.0 -0.0495172422
C  C8  1  0.18500000  0.13070000  0.82882000  1.0 -0.1205199379
C  C9  1  0.18030000  0.17080000  0.85900000  1.0 -0.1606058871
C  C10  1  0.23320000  0.20260000  0.87273000  1.0 0.0801331864
C  C11  1  0.28970000  0.19160000  0.85590000  1.0 -0.1327126093
C  C12  1  0.29450000  0.15280000  0.82700000  1.0 -0.0915672868
C  C13  1  0.23150000  0.40540000  0.97690000  1.0 0.5841066875
C  C14  1  0.25110000  0.07590000  0.78062000  1.0 0.5841066875
C  C15  1  0.36490000  0.63000000  0.10060000  1.0 -0.0791258348
C  C16  1  0.36560000  0.64760000  0.13670000  1.0 -0.0791258348
C  C17  1  0.40820000  0.69490000  0.15120000  1.0 -0.1651610545
C  C18  1  0.44880000  0.72140000  0.12800000  1.0 0.0801331864
C  C19  1  0.44520000  0.70800000  0.09020000  1.0 -0.1606058871
C  C20  1  0.40750000  0.65980000  0.07780000  1.0 -0.1205199379
C  C21  1  0.57430000  0.85920000  0.16180000  1.0 -0.028007105
C  C22  1  0.57740000  0.83550000  0.12610000  1.0 -0.095492389
C  C23  1  0.53750000  0.78960000  0.11690000  1.0 -0.1502787235
C  C24  1  0.49290000  0.76940000  0.13940000  1.0 0.07045936
C  C25  1  0.48830000  0.79360000  0.17590000  1.0 -0.1606058871
C  C26  1  0.52820000  0.84190000  0.18720000  1.0 -0.0915672868
C  C27  1  0.32660000  0.58180000  0.08670000  1.0 0.600179784
C  C28  1  0.61870000  0.91160000  0.17320000  1.0 0.600179784
C  C29  1  0.36290000  0.37030000  0.11588000  1.0 -0.0674821641
C  C30  1  0.35070000  0.33960000  0.14894000  1.0 -0.0915672868
C  C31  1  0.38920000  0.29180000  0.16085000  1.0 -0.1502787235
C  C32  1  0.44150000  0.27610000  0.14044000  1.0 0.07045936
C  C33  1  0.45580000  0.31120000  0.10764000  1.0 -0.1327126093
C  C34  1  0.41750000  0.35810000  0.09563000  1.0 -0.0915672868
C  C35  1  0.56450000  0.12750000  0.16816000  1.0 -0.0791258348
C  C36  1  0.54690000  0.13840000  0.13133000  1.0 -0.0791258348
C  C37  1  0.50580000  0.18660000  0.12202000  1.0 -0.1502787235
C  C38  1  0.48100000  0.22290000  0.15021000  1.0 0.0801331864
C  C39  1  0.49680000  0.21020000  0.18825000  1.0 -0.1606058871
C  C40  1  0.53910000  0.16430000  0.19638000  1.0 -0.0915672868
C  C41  1  0.32120000  0.41590000  0.09970000  1.0 0.5927717574
C  C42  1  0.60820000  0.08060000  0.17850000  1.0 0.5927717574
C  C43  1  0.45300000  0.49960000  0.00065000  1.0 0.0495077044
C  C44  1  0.46590000  0.55970000  0.99210000  1.0 0.2289935686
C  C45  1  0.56980000  0.52650000  0.98610000  1.0 0.1101679511
C  C46  1  0.77100000  0.65030000  0.45341000  1.0 -0.0562760271
C  C47  1  0.82220000  0.65910000  0.43105000  1.0 -0.0915672868
C  C48  1  0.82280000  0.71140000  0.40634000  1.0 -0.1606058871
C  C49  1  0.77290000  0.75020000  0.40305000  1.0 0.07045936
C  C50  1  0.72570000  0.74290000  0.42769000  1.0 -0.1350247673
C  C51  1  0.72270000  0.69040000  0.45280000  1.0 -0.0791258348
C  C52  1  0.75840000  0.88060000  0.31258000  1.0 -0.0495172422
C  C53  1  0.81500000  0.86930000  0.32882000  1.0 -0.1205199379
C  C54  1  0.81970000  0.82920000  0.35900000  1.0 -0.1606058871
C  C55  1  0.76680000  0.79740000  0.37273000  1.0 0.0801331864
C  C56  1  0.71030000  0.80840000  0.35590000  1.0 -0.1327126093
C  C57  1  0.70550000  0.84720000  0.32700000  1.0 -0.0915672868
C  C58  1  0.76850000  0.59460000  0.47690000  1.0 0.5841066875
C  C59  1  0.74890000  0.92410000  0.28062000  1.0 0.5841066875
C  C60  1  0.63510000  0.37000000  0.60060000  1.0 -0.0791258348
C  C61  1  0.63440000  0.35240000  0.63670000  1.0 -0.0791258348
C  C62  1  0.59180000  0.30510000  0.65120000  1.0 -0.1606058871
C  C63  1  0.55120000  0.27860000  0.62800000  1.0 0.0801331864
C  C64  1  0.55480000  0.29200000  0.59020000  1.0 -0.1606058871
C  C65  1  0.59250000  0.34020000  0.57780000  1.0 -0.1205199379
C  C66  1  0.42570000  0.14080000  0.66180000  1.0 -0.028007105
C  C67  1  0.42260000  0.16450000  0.62610000  1.0 -0.0915672868
C  C68  1  0.46250000  0.21040000  0.61690000  1.0 -0.1502787235
C  C69  1  0.50710000  0.23060000  0.63940000  1.0 0.07045936
C  C70  1  0.51170000  0.20640000  0.67590000  1.0 -0.1651610545
C  C71  1  0.47180000  0.15810000  0.68720000  1.0 -0.0915672868
C  C72  1  0.67340000  0.41820000  0.58670000  1.0 0.600179784
C  C73  1  0.38130000  0.08840000  0.67320000  1.0 0.600179784
C  C74  1  0.63710000  0.62970000  0.61588000  1.0 -0.0674821641
C  C75  1  0.64930000  0.66040000  0.64894000  1.0 -0.0915672868
C  C76  1  0.61080000  0.70820000  0.66085000  1.0 -0.1502787235
C  C77  1  0.55850000  0.72390000  0.64044000  1.0 0.07045936
C  C78  1  0.54420000  0.68880000  0.60764000  1.0 -0.1327126093
C  C79  1  0.58250000  0.64190000  0.59563000  1.0 -0.0915672868
C  C80  1  0.43550000  0.87250000  0.66816000  1.0 -0.0791258348
C  C81  1  0.45310000  0.86160000  0.63133000  1.0 -0.0791258348
C  C82  1  0.49420000  0.81340000  0.62202000  1.0 -0.1502787235
C  C83  1  0.51900000  0.77710000  0.65021000  1.0 0.0801331864
C  C84  1  0.50320000  0.78980000  0.68825000  1.0 -0.1606058871
C  C85  1  0.46090000  0.83570000  0.69638000  1.0 -0.0915672868
C  C86  1  0.67880000  0.58410000  0.59970000  1.0 0.5927717574
C  C87  1  0.39180000  0.91940000  0.67850000  1.0 0.5927717574
C  C88  1  0.54700000  0.50040000  0.50065000  1.0 0.0495077044
C  C89  1  0.53410000  0.44030000  0.49210000  1.0 0.2289935686
C  C90  1  0.43020000  0.47350000  0.48610000  1.0 0.1101679511
C  C91  1  0.15030000  0.72900000  0.70341000  1.0 -0.0562760271
C  C92  1  0.15910000  0.67780000  0.68105000  1.0 -0.0915672868
C  C93  1  0.21140000  0.67720000  0.65634000  1.0 -0.1606058871
C  C94  1  0.25020000  0.72710000  0.65305000  1.0 0.07045936
C  C95  1  0.24290000  0.77430000  0.67769000  1.0 -0.1327126093
C  C96  1  0.19040000  0.77730000  0.70280000  1.0 -0.0791258348
C  C97  1  0.38060000  0.74160000  0.56258000  1.0 -0.0495172422
C  C98  1  0.36930000  0.68500000  0.57882000  1.0 -0.1205199379
C  C99  1  0.32920000  0.68030000  0.60900000  1.0 -0.1606058871
C  C100  1  0.29740000  0.73320000  0.62273000  1.0 0.0801331864
C  C101  1  0.30840000  0.78970000  0.60590000  1.0 -0.1327126093
C  C102  1  0.34720000  0.79450000  0.57700000  1.0 -0.0915672868
C  C103  1  0.09460000  0.73150000  0.72690000  1.0 0.5841066875
C  C104  1  0.42410000  0.75110000  0.53062000  1.0 0.5841066875
C  C105  1  0.87000000  0.86490000  0.85060000  1.0 -0.0791258348
C  C106  1  0.85240000  0.86560000  0.88670000  1.0 -0.0791258348
C  C107  1  0.80510000  0.90820000  0.90120000  1.0 -0.1606058871
C  C108  1  0.77860000  0.94880000  0.87800000  1.0 0.0801331864
C  C109  1  0.79200000  0.94520000  0.84020000  1.0 -0.1606058871
C  C110  1  0.84020000  0.90750000  0.82780000  1.0 -0.1205199379
C  C111  1  0.64080000  0.07430000  0.91180000  1.0 -0.028007105
C  C112  1  0.66450000  0.07740000  0.87610000  1.0 -0.0915672868
C  C113  1  0.71040000  0.03750000  0.86690000  1.0 -0.1502787235
C  C114  1  0.73060000  0.99290000  0.88940000  1.0 0.07045936
C  C115  1  0.70640000  0.98830000  0.92590000  1.0 -0.1606058871
C  C116  1  0.65810000  0.02820000  0.93720000  1.0 -0.0915672868
C  C117  1  0.91820000  0.82660000  0.83670000  1.0 0.600179784
C  C118  1  0.58840000  0.11870000  0.92320000  1.0 0.600179784
C  C119  1  0.12970000  0.86290000  0.86588000  1.0 -0.0674821641
C  C120  1  0.16040000  0.85070000  0.89894000  1.0 -0.0915672868
C  C121  1  0.20820000  0.88920000  0.91085000  1.0 -0.1502787235
C  C122  1  0.22390000  0.94150000  0.89044000  1.0 0.07045936
C  C123  1  0.18880000  0.95580000  0.85764000  1.0 -0.1327126093
C  C124  1  0.14190000  0.91750000  0.84563000  1.0 -0.0915672868
C  C125  1  0.37250000  0.06450000  0.91816000  1.0 -0.0791258348
C  C126  1  0.36160000  0.04690000  0.88133000  1.0 -0.0791258348
C  C127  1  0.31340000  0.00580000  0.87202000  1.0 -0.1502787235
C  C128  1  0.27710000  0.98100000  0.90021000  1.0 0.0801331864
C  C129  1  0.28980000  0.99680000  0.93825000  1.0 -0.1606058871
C  C130  1  0.33570000  0.03910000  0.94638000  1.0 -0.0915672868
C  C131  1  0.08410000  0.82120000  0.84970000  1.0 0.5927717574
C  C132  1  0.41940000  0.10820000  0.92850000  1.0 0.5927717574
C  C133  1  0.00040000  0.95300000  0.75065000  1.0 0.0495077044
C  C134  1  0.94030000  0.96590000  0.74210000  1.0 0.2289935686
C  C135  1  0.97350000  0.06980000  0.73610000  1.0 0.1101679511
C  C136  1  0.84970000  0.27100000  0.20341000  1.0 -0.0562760271
C  C137  1  0.84090000  0.32220000  0.18105000  1.0 -0.0915672868
C  C138  1  0.78860000  0.32280000  0.15634000  1.0 -0.1606058871
C  C139  1  0.74980000  0.27290000  0.15305000  1.0 0.07045936
C  C140  1  0.75710000  0.22570000  0.17769000  1.0 -0.1350247673
C  C141  1  0.80960000  0.22270000  0.20280000  1.0 -0.0791258348
C  C142  1  0.61940000  0.25840000  0.06258000  1.0 -0.0495172422
C  C143  1  0.63070000  0.31500000  0.07882000  1.0 -0.1205199379
C  C144  1  0.67080000  0.31970000  0.10900000  1.0 -0.1606058871
C  C145  1  0.70260000  0.26680000  0.12273000  1.0 0.0801331864
C  C146  1  0.69160000  0.21030000  0.10590000  1.0 -0.1327126093
C  C147  1  0.65280000  0.20550000  0.07700000  1.0 -0.0915672868
C  C148  1  0.90540000  0.26850000  0.22690000  1.0 0.5841066875
C  C149  1  0.57590000  0.24890000  0.03062000  1.0 0.5841066875
C  C150  1  0.13000000  0.13510000  0.35060000  1.0 -0.0791258348
C  C151  1  0.14760000  0.13440000  0.38670000  1.0 -0.0791258348
C  C152  1  0.19490000  0.09180000  0.40120000  1.0 -0.1606058871
C  C153  1  0.22140000  0.05120000  0.37800000  1.0 0.0801331864
C  C154  1  0.20800000  0.05480000  0.34020000  1.0 -0.1606058871
C  C155  1  0.15980000  0.09250000  0.32780000  1.0 -0.1205199379
C  C156  1  0.35920000  0.92570000  0.41180000  1.0 -0.028007105
C  C157  1  0.33550000  0.92260000  0.37610000  1.0 -0.095492389
C  C158  1  0.28960000  0.96250000  0.36690000  1.0 -0.1502787235
C  C159  1  0.26940000  0.00710000  0.38940000  1.0 0.07045936
C  C160  1  0.29360000  0.01170000  0.42590000  1.0 -0.1606058871
C  C161  1  0.34190000  0.97180000  0.43720000  1.0 -0.0915672868
C  C162  1  0.08180000  0.17340000  0.33670000  1.0 0.600179784
C  C163  1  0.41160000  0.88130000  0.42320000  1.0 0.600179784
C  C164  1  0.87030000  0.13710000  0.36588000  1.0 -0.0674821641
C  C165  1  0.83960000  0.14930000  0.39894000  1.0 -0.0915672868
C  C166  1  0.79180000  0.11080000  0.41085000  1.0 -0.1502787235
C  C167  1  0.77610000  0.05850000  0.39044000  1.0 0.07045936
C  C168  1  0.81120000  0.04420000  0.35764000  1.0 -0.1327126093
C  C169  1  0.85810000  0.08250000  0.34563000  1.0 -0.0915672868
C  C170  1  0.62750000  0.93550000  0.41816000  1.0 -0.0791258348
C  C171  1  0.63840000  0.95310000  0.38133000  1.0 -0.0791258348
C  C172  1  0.68660000  0.99420000  0.37202000  1.0 -0.1502787235
C  C173  1  0.72290000  0.01900000  0.40021000  1.0 0.0801331864
C  C174  1  0.71020000  0.00320000  0.43825000  1.0 -0.1606058871
C  C175  1  0.66430000  0.96090000  0.44638000  1.0 -0.0915672868
C  C176  1  0.91590000  0.17880000  0.34970000  1.0 0.5927717574
C  C177  1  0.58060000  0.89180000  0.42850000  1.0 0.5927717574
C  C178  1  0.99960000  0.04700000  0.25065000  1.0 0.0495077044
C  C179  1  0.05970000  0.03410000  0.24210000  1.0 0.2289935686
C  C180  1  0.02650000  0.93020000  0.23610000  1.0 0.1101679511
C  C181  1  0.27100000  0.84970000  0.79659000  1.0 -0.0562760271
C  C182  1  0.32220000  0.84090000  0.81895000  1.0 -0.0915672868
C  C183  1  0.32280000  0.78860000  0.84366000  1.0 -0.1606058871
C  C184  1  0.27290000  0.74980000  0.84695000  1.0 0.07045936
C  C185  1  0.22570000  0.75710000  0.82231000  1.0 -0.1350247673
C  C186  1  0.22270000  0.80960000  0.79720000  1.0 -0.0791258348
C  C187  1  0.25840000  0.61940000  0.93742000  1.0 -0.0495172422
C  C188  1  0.31500000  0.63070000  0.92118000  1.0 -0.1205199379
C  C189  1  0.31970000  0.67080000  0.89100000  1.0 -0.1606058871
C  C190  1  0.26680000  0.70260000  0.87727000  1.0 0.0801331864
C  C191  1  0.21030000  0.69160000  0.89410000  1.0 -0.1327126093
C  C192  1  0.20550000  0.65280000  0.92300000  1.0 -0.0915672868
C  C193  1  0.26850000  0.90540000  0.77310000  1.0 0.5841066875
C  C194  1  0.24890000  0.57590000  0.96938000  1.0 0.5841066875
C  C195  1  0.13510000  0.13000000  0.64940000  1.0 -0.0791258348
C  C196  1  0.13440000  0.14760000  0.61330000  1.0 -0.0791258348
C  C197  1  0.09180000  0.19490000  0.59880000  1.0 -0.1606058871
C  C198  1  0.05120000  0.22140000  0.62200000  1.0 0.0801331864
C  C199  1  0.05480000  0.20800000  0.65980000  1.0 -0.1606058871
C  C200  1  0.09250000  0.15980000  0.67220000  1.0 -0.1205199379
C  C201  1  0.92570000  0.35920000  0.58820000  1.0 -0.028007105
C  C202  1  0.92260000  0.33550000  0.62390000  1.0 -0.095492389
C  C203  1  0.96250000  0.28960000  0.63310000  1.0 -0.1502787235
C  C204  1  0.00710000  0.26940000  0.61060000  1.0 0.07045936
C  C205  1  0.01170000  0.29360000  0.57410000  1.0 -0.1606058871
C  C206  1  0.97180000  0.34190000  0.56280000  1.0 -0.0915672868
C  C207  1  0.17340000  0.08180000  0.66330000  1.0 0.600179784
C  C208  1  0.88130000  0.41160000  0.57680000  1.0 0.600179784
C  C209  1  0.13710000  0.87030000  0.63412000  1.0 -0.0674821641
C  C210  1  0.14930000  0.83960000  0.60106000  1.0 -0.0915672868
C  C211  1  0.11080000  0.79180000  0.58915000  1.0 -0.1502787235
C  C212  1  0.05850000  0.77610000  0.60956000  1.0 0.07045936
C  C213  1  0.04420000  0.81120000  0.64236000  1.0 -0.1327126093
C  C214  1  0.08250000  0.85810000  0.65437000  1.0 -0.0915672868
C  C215  1  0.93550000  0.62750000  0.58184000  1.0 -0.0791258348
C  C216  1  0.95310000  0.63840000  0.61867000  1.0 -0.0791258348
C  C217  1  0.99420000  0.68660000  0.62798000  1.0 -0.1502787235
C  C218  1  0.01900000  0.72290000  0.59979000  1.0 0.0801331864
C  C219  1  0.00320000  0.71020000  0.56175000  1.0 -0.1606058871
C  C220  1  0.96090000  0.66430000  0.55362000  1.0 -0.0915672868
C  C221  1  0.17880000  0.91590000  0.65030000  1.0 0.5927717574
C  C222  1  0.89180000  0.58060000  0.57150000  1.0 0.5927717574
C  C223  1  0.04700000  0.99960000  0.74935000  1.0 0.0495077044
C  C224  1  0.03410000  0.05970000  0.75790000  1.0 0.2289935686
C  C225  1  0.93020000  0.02650000  0.76390000  1.0 0.1101679511
C  C226  1  0.72900000  0.15030000  0.29659000  1.0 -0.0562760271
C  C227  1  0.67780000  0.15910000  0.31895000  1.0 -0.0915672868
C  C228  1  0.67720000  0.21140000  0.34366000  1.0 -0.1606058871
C  C229  1  0.72710000  0.25020000  0.34695000  1.0 0.07045936
C  C230  1  0.77430000  0.24290000  0.32231000  1.0 -0.1350247673
C  C231  1  0.77730000  0.19040000  0.29720000  1.0 -0.0791258348
C  C232  1  0.74160000  0.38060000  0.43742000  1.0 -0.0495172422
C  C233  1  0.68500000  0.36930000  0.42118000  1.0 -0.1205199379
C  C234  1  0.68030000  0.32920000  0.39100000  1.0 -0.1606058871
C  C235  1  0.73320000  0.29740000  0.37727000  1.0 0.0801331864
C  C236  1  0.78970000  0.30840000  0.39410000  1.0 -0.1327126093
C  C237  1  0.79450000  0.34720000  0.42300000  1.0 -0.0915672868
C  C238  1  0.73150000  0.09460000  0.27310000  1.0 0.5841066875
C  C239  1  0.75110000  0.42410000  0.46938000  1.0 0.5841066875
C  C240  1  0.86490000  0.87000000  0.14940000  1.0 -0.0791258348
C  C241  1  0.86560000  0.85240000  0.11330000  1.0 -0.0791258348
C  C242  1  0.90820000  0.80510000  0.09880000  1.0 -0.1651610545
C  C243  1  0.94880000  0.77860000  0.12200000  1.0 0.0801331864
C  C244  1  0.94520000  0.79200000  0.15980000  1.0 -0.1606058871
C  C245  1  0.90750000  0.84020000  0.17220000  1.0 -0.1205199379
C  C246  1  0.07430000  0.64080000  0.08820000  1.0 -0.028007105
C  C247  1  0.07740000  0.66450000  0.12390000  1.0 -0.095492389
C  C248  1  0.03750000  0.71040000  0.13310000  1.0 -0.1502787235
C  C249  1  0.99290000  0.73060000  0.11060000  1.0 0.07045936
C  C250  1  0.98830000  0.70640000  0.07410000  1.0 -0.1606058871
C  C251  1  0.02820000  0.65810000  0.06280000  1.0 -0.095492389
C  C252  1  0.82660000  0.91820000  0.16330000  1.0 0.600179784
C  C253  1  0.11870000  0.58840000  0.07680000  1.0 0.600179784
C  C254  1  0.86290000  0.12970000  0.13412000  1.0 -0.0674821641
C  C255  1  0.85070000  0.16040000  0.10106000  1.0 -0.0915672868
C  C256  1  0.88920000  0.20820000  0.08915000  1.0 -0.1502787235
C  C257  1  0.94150000  0.22390000  0.10956000  1.0 0.07045936
C  C258  1  0.95580000  0.18880000  0.14236000  1.0 -0.1327126093
C  C259  1  0.91750000  0.14190000  0.15437000  1.0 -0.0915672868
C  C260  1  0.06450000  0.37250000  0.08184000  1.0 -0.0791258348
C  C261  1  0.04690000  0.36160000  0.11867000  1.0 -0.0791258348
C  C262  1  0.00580000  0.31340000  0.12798000  1.0 -0.1502787235
C  C263  1  0.98100000  0.27710000  0.09979000  1.0 0.0801331864
C  C264  1  0.99680000  0.28980000  0.06175000  1.0 -0.1606058871
C  C265  1  0.03910000  0.33570000  0.05362000  1.0 -0.0915672868
C  C266  1  0.82120000  0.08410000  0.15030000  1.0 0.5927717574
C  C267  1  0.10820000  0.41940000  0.07150000  1.0 0.5927717574
C  C268  1  0.95300000  0.00040000  0.24935000  1.0 0.0495077044
C  C269  1  0.96590000  0.94030000  0.25790000  1.0 0.2289935686
C  C270  1  0.06980000  0.97350000  0.26390000  1.0 0.1101679511
C  C271  1  0.34970000  0.22900000  0.04659000  1.0 -0.0562760271
C  C272  1  0.34090000  0.17780000  0.06895000  1.0 -0.0915672868
C  C273  1  0.28860000  0.17720000  0.09366000  1.0 -0.1606058871
C  C274  1  0.24980000  0.22710000  0.09695000  1.0 0.07045936
C  C275  1  0.25710000  0.27430000  0.07231000  1.0 -0.1350247673
C  C276  1  0.30960000  0.27730000  0.04720000  1.0 -0.0791258348
C  C277  1  0.11940000  0.24160000  0.18742000  1.0 -0.0495172422
C  C278  1  0.13070000  0.18500000  0.17118000  1.0 -0.1205199379
C  C279  1  0.17080000  0.18030000  0.14100000  1.0 -0.1606058871
C  C280  1  0.20260000  0.23320000  0.12727000  1.0 0.0801331864
C  C281  1  0.19160000  0.28970000  0.14410000  1.0 -0.1327126093
C  C282  1  0.15280000  0.29450000  0.17300000  1.0 -0.0915672868
C  C283  1  0.40540000  0.23150000  0.02310000  1.0 0.5841066875
C  C284  1  0.07590000  0.25110000  0.21938000  1.0 0.5841066875
C  C285  1  0.63000000  0.36490000  0.89940000  1.0 -0.0791258348
C  C286  1  0.64760000  0.36560000  0.86330000  1.0 -0.0791258348
C  C287  1  0.69490000  0.40820000  0.84880000  1.0 -0.1606058871
C  C288  1  0.72140000  0.44880000  0.87200000  1.0 0.0801331864
C  C289  1  0.70800000  0.44520000  0.90980000  1.0 -0.1606058871
C  C290  1  0.65980000  0.40750000  0.92220000  1.0 -0.1205199379
C  C291  1  0.85920000  0.57430000  0.83820000  1.0 -0.028007105
C  C292  1  0.83550000  0.57740000  0.87390000  1.0 -0.0915672868
C  C293  1  0.78960000  0.53750000  0.88310000  1.0 -0.1502787235
C  C294  1  0.76940000  0.49290000  0.86060000  1.0 0.07045936
C  C295  1  0.79360000  0.48830000  0.82410000  1.0 -0.1606058871
C  C296  1  0.84190000  0.52820000  0.81280000  1.0 -0.0915672868
C  C297  1  0.58180000  0.32660000  0.91330000  1.0 0.600179784
C  C298  1  0.91160000  0.61870000  0.82680000  1.0 0.600179784
C  C299  1  0.37030000  0.36290000  0.88412000  1.0 -0.0674821641
C  C300  1  0.33960000  0.35070000  0.85106000  1.0 -0.0915672868
C  C301  1  0.29180000  0.38920000  0.83915000  1.0 -0.1502787235
C  C302  1  0.27610000  0.44150000  0.85956000  1.0 0.07045936
C  C303  1  0.31120000  0.45580000  0.89236000  1.0 -0.1327126093
C  C304  1  0.35810000  0.41750000  0.90437000  1.0 -0.0915672868
C  C305  1  0.12750000  0.56450000  0.83184000  1.0 -0.0791258348
C  C306  1  0.13840000  0.54690000  0.86867000  1.0 -0.0791258348
C  C307  1  0.18660000  0.50580000  0.87798000  1.0 -0.1502787235
C  C308  1  0.22290000  0.48100000  0.84979000  1.0 0.0801331864
C  C309  1  0.21020000  0.49680000  0.81175000  1.0 -0.1606058871
C  C310  1  0.16430000  0.53910000  0.80362000  1.0 -0.0915672868
C  C311  1  0.41590000  0.32120000  0.90030000  1.0 0.5927717574
C  C312  1  0.08060000  0.60820000  0.82150000  1.0 0.5927717574
C  C313  1  0.49960000  0.45300000  0.99935000  1.0 0.0495077044
C  C314  1  0.55970000  0.46590000  0.00790000  1.0 0.2289935686
C  C315  1  0.52650000  0.56980000  0.01390000  1.0 0.1101679511
C  C316  1  0.65030000  0.77100000  0.54659000  1.0 -0.0562760271
C  C317  1  0.65910000  0.82220000  0.56895000  1.0 -0.0915672868
C  C318  1  0.71140000  0.82280000  0.59366000  1.0 -0.1606058871
C  C319  1  0.75020000  0.77290000  0.59695000  1.0 0.07045936
C  C320  1  0.74290000  0.72570000  0.57231000  1.0 -0.1350247673
C  C321  1  0.69040000  0.72270000  0.54720000  1.0 -0.0791258348
C  C322  1  0.88060000  0.75840000  0.68742000  1.0 -0.0495172422
C  C323  1  0.86930000  0.81500000  0.67118000  1.0 -0.1205199379
C  C324  1  0.82920000  0.81970000  0.64100000  1.0 -0.1606058871
C  C325  1  0.79740000  0.76680000  0.62727000  1.0 0.0801331864
C  C326  1  0.80840000  0.71030000  0.64410000  1.0 -0.1327126093
C  C327  1  0.84720000  0.70550000  0.67300000  1.0 -0.0915672868
C  C328  1  0.59460000  0.76850000  0.52310000  1.0 0.5841066875
C  C329  1  0.92410000  0.74890000  0.71938000  1.0 0.5841066875
C  C330  1  0.37000000  0.63510000  0.39940000  1.0 -0.0791258348
C  C331  1  0.35240000  0.63440000  0.36330000  1.0 -0.0791258348
C  C332  1  0.30510000  0.59180000  0.34880000  1.0 -0.1651610545
C  C333  1  0.27860000  0.55120000  0.37200000  1.0 0.0801331864
C  C334  1  0.29200000  0.55480000  0.40980000  1.0 -0.1606058871
C  C335  1  0.34020000  0.59250000  0.42220000  1.0 -0.1205199379
C  C336  1  0.14080000  0.42570000  0.33820000  1.0 -0.028007105
C  C337  1  0.16450000  0.42260000  0.37390000  1.0 -0.095492389
C  C338  1  0.21040000  0.46250000  0.38310000  1.0 -0.1502787235
C  C339  1  0.23060000  0.50710000  0.36060000  1.0 0.07045936
C  C340  1  0.20640000  0.51170000  0.32410000  1.0 -0.1651610545
C  C341  1  0.15810000  0.47180000  0.31280000  1.0 -0.0915672868
C  C342  1  0.41820000  0.67340000  0.41330000  1.0 0.600179784
C  C343  1  0.08840000  0.38130000  0.32680000  1.0 0.600179784
C  C344  1  0.62970000  0.63710000  0.38412000  1.0 -0.0674821641
C  C345  1  0.66040000  0.64930000  0.35106000  1.0 -0.0915672868
C  C346  1  0.70820000  0.61080000  0.33915000  1.0 -0.1502787235
C  C347  1  0.72390000  0.55850000  0.35956000  1.0 0.07045936
C  C348  1  0.68880000  0.54420000  0.39236000  1.0 -0.1327126093
C  C349  1  0.64190000  0.58250000  0.40437000  1.0 -0.0915672868
C  C350  1  0.87250000  0.43550000  0.33184000  1.0 -0.0791258348
C  C351  1  0.86160000  0.45310000  0.36867000  1.0 -0.0791258348
C  C352  1  0.81340000  0.49420000  0.37798000  1.0 -0.1502787235
C  C353  1  0.77710000  0.51900000  0.34979000  1.0 0.0801331864
C  C354  1  0.78980000  0.50320000  0.31175000  1.0 -0.1606058871
C  C355  1  0.83570000  0.46090000  0.30362000  1.0 -0.0915672868
C  C356  1  0.58410000  0.67880000  0.40030000  1.0 0.5927717574
C  C357  1  0.91940000  0.39180000  0.32150000  1.0 0.5927717574
C  C358  1  0.50040000  0.54700000  0.49935000  1.0 0.0495077044
C  C359  1  0.44030000  0.53410000  0.50790000  1.0 0.2289935686
C  C360  1  0.47350000  0.43020000  0.51390000  1.0 0.1101679511
C  C361  1  0.41030000  0.41030000  0.00000000  1.0 0.3758703955
C  C362  1  0.58970000  0.58970000  0.50000000  1.0 0.3747903891
C  C363  1  0.08970000  0.91030000  0.75000000  1.0 0.3758703955
C  C364  1  0.91030000  0.08970000  0.25000000  1.0 0.3747903891
N  N1  1  0.39533000  0.47241000  0.00385000  1.0 -0.4280882813
N  N2  1  0.43090000  0.60920000  0.99100000  1.0 -0.3492682576
N  N3  1  0.52700000  0.57480000  0.98600000  1.0 -0.1914701701
N  N4  1  0.56110000  0.46480000  0.98751000  1.0 0.0495077044
N  N5  1  0.60467000  0.52759000  0.50385000  1.0 -0.4280882813
N  N6  1  0.56910000  0.39080000  0.49100000  1.0 -0.3492682576
N  N7  1  0.47300000  0.42520000  0.48600000  1.0 -0.1914701701
N  N8  1  0.43890000  0.53520000  0.48751000  1.0 0.0495077044
N  N9  1  0.02759000  0.89533000  0.75385000  1.0 -0.4280882813
N  N10  1  0.89080000  0.93090000  0.74100000  1.0 -0.3492682576
N  N11  1  0.92520000  0.02700000  0.73600000  1.0 -0.1914701701
N  N12  1  0.03520000  0.06110000  0.73751000  1.0 0.0495077044
N  N13  1  0.97241000  0.10467000  0.25385000  1.0 -0.4280882813
N  N14  1  0.10920000  0.06910000  0.24100000  1.0 -0.3492682576
N  N15  1  0.07480000  0.97300000  0.23600000  1.0 -0.1914701701
N  N16  1  0.96480000  0.93890000  0.23751000  1.0 0.0495077044
N  N17  1  0.10467000  0.97241000  0.74615000  1.0 -0.4280882813
N  N18  1  0.06910000  0.10920000  0.75900000  1.0 -0.3492682576
N  N19  1  0.97300000  0.07480000  0.76400000  1.0 -0.1966097317
N  N20  1  0.93890000  0.96480000  0.76249000  1.0 0.0495077044
N  N21  1  0.89533000  0.02759000  0.24615000  1.0 -0.4280882813
N  N22  1  0.93090000  0.89080000  0.25900000  1.0 -0.3492682576
N  N23  1  0.02700000  0.92520000  0.26400000  1.0 -0.1914701701
N  N24  1  0.06110000  0.03520000  0.26249000  1.0 0.0495077044
N  N25  1  0.47241000  0.39533000  0.99615000  1.0 -0.4280882813
N  N26  1  0.60920000  0.43090000  0.00900000  1.0 -0.3492682576
N  N27  1  0.57480000  0.52700000  0.01400000  1.0 -0.1914701701
N  N28  1  0.46480000  0.56110000  0.01249000  1.0 0.042900201
N  N29  1  0.52759000  0.60467000  0.49615000  1.0 -0.4280882813
N  N30  1  0.39080000  0.56910000  0.50900000  1.0 -0.3492682576
N  N31  1  0.42520000  0.47300000  0.51400000  1.0 -0.1914701701
N  N32  1  0.53520000  0.43890000  0.51249000  1.0 0.0495077044
O  O1  1  0.18818000  0.44273000  0.97560000  1.0 -0.5410513654
O  O2  1  0.27911000  0.41345000  0.99647000  1.0 -0.5090246312
O  O3  1  0.30513000  0.07369000  0.76597000  1.0 -0.5514165572
O  O4  1  0.20542000  0.04274000  0.77105000  1.0 -0.56654008
O  O5  1  0.28662000  0.55891000  0.10867000  1.0 -0.5514165572
O  O6  1  0.33429000  0.56734000  0.05146000  1.0 -0.5514165572
O  O7  1  0.65877000  0.92601000  0.15059000  1.0 -0.5317189134
O  O8  1  0.61085000  0.93340000  0.20607000  1.0 -0.5514165572
O  O9  1  0.33873000  0.44047000  0.06847000  1.0 -0.5410513654
O  O10  1  0.26952000  0.42679000  0.11507000  1.0 -0.56654008
O  O11  1  0.64043000  0.05821000  0.15153000  1.0 -0.56654008
O  O12  1  0.61058000  0.06298000  0.21212000  1.0 -0.5317189134
O  O13  1  0.22585000  0.49671000  0.04701000  1.0 -0.8925797604
O  O14  1  0.81182000  0.55727000  0.47560000  1.0 -0.5410513654
O  O15  1  0.72089000  0.58655000  0.49647000  1.0 -0.5090246312
O  O16  1  0.69487000  0.92631000  0.26597000  1.0 -0.5514165572
O  O17  1  0.79458000  0.95726000  0.27105000  1.0 -0.56654008
O  O18  1  0.71338000  0.44109000  0.60867000  1.0 -0.5514165572
O  O19  1  0.66571000  0.43266000  0.55146000  1.0 -0.5514165572
O  O20  1  0.34123000  0.07399000  0.65059000  1.0 -0.5317189134
O  O21  1  0.38915000  0.06660000  0.70607000  1.0 -0.5514165572
O  O22  1  0.66127000  0.55953000  0.56847000  1.0 -0.5410513654
O  O23  1  0.73048000  0.57321000  0.61507000  1.0 -0.56654008
O  O24  1  0.35957000  0.94179000  0.65153000  1.0 -0.56654008
O  O25  1  0.38942000  0.93702000  0.71212000  1.0 -0.5317189134
O  O26  1  0.77415000  0.50329000  0.54701000  1.0 -0.8925797604
O  O27  1  0.05727000  0.68818000  0.72560000  1.0 -0.5410513654
O  O28  1  0.08655000  0.77911000  0.74647000  1.0 -0.5090246312
O  O29  1  0.42631000  0.80513000  0.51597000  1.0 -0.5514165572
O  O30  1  0.45726000  0.70542000  0.52105000  1.0 -0.56654008
O  O31  1  0.94109000  0.78662000  0.85867000  1.0 -0.5514165572
O  O32  1  0.93266000  0.83429000  0.80146000  1.0 -0.5514165572
O  O33  1  0.57399000  0.15877000  0.90059000  1.0 -0.5317189134
O  O34  1  0.56660000  0.11085000  0.95607000  1.0 -0.5514165572
O  O35  1  0.05953000  0.83873000  0.81847000  1.0 -0.5410513654
O  O36  1  0.07321000  0.76952000  0.86507000  1.0 -0.56654008
O  O37  1  0.44179000  0.14043000  0.90153000  1.0 -0.56654008
O  O38  1  0.43702000  0.11058000  0.96212000  1.0 -0.5317189134
O  O39  1  0.00329000  0.72585000  0.79701000  1.0 -0.8925797604
O  O40  1  0.94273000  0.31182000  0.22560000  1.0 -0.5410513654
O  O41  1  0.91345000  0.22089000  0.24647000  1.0 -0.5090246312
O  O42  1  0.57369000  0.19487000  0.01597000  1.0 -0.5514165572
O  O43  1  0.54274000  0.29458000  0.02105000  1.0 -0.56654008
O  O44  1  0.05891000  0.21338000  0.35867000  1.0 -0.5514165572
O  O45  1  0.06734000  0.16571000  0.30146000  1.0 -0.5514165572
O  O46  1  0.42601000  0.84123000  0.40059000  1.0 -0.5317189134
O  O47  1  0.43340000  0.88915000  0.45607000  1.0 -0.5514165572
O  O48  1  0.94047000  0.16127000  0.31847000  1.0 -0.5410513654
O  O49  1  0.92679000  0.23048000  0.36507000  1.0 -0.56654008
O  O50  1  0.55821000  0.85957000  0.40153000  1.0 -0.56654008
O  O51  1  0.56298000  0.88942000  0.46212000  1.0 -0.5317189134
O  O52  1  0.99671000  0.27415000  0.29701000  1.0 -0.8925797604
O  O53  1  0.31182000  0.94273000  0.77440000  1.0 -0.5410513654
O  O54  1  0.22089000  0.91345000  0.75353000  1.0 -0.5090246312
O  O55  1  0.19487000  0.57369000  0.98403000  1.0 -0.5514165572
O  O56  1  0.29458000  0.54274000  0.97895000  1.0 -0.56654008
O  O57  1  0.21338000  0.05891000  0.64133000  1.0 -0.5514165572
O  O58  1  0.16571000  0.06734000  0.69854000  1.0 -0.5514165572
O  O59  1  0.84123000  0.42601000  0.59941000  1.0 -0.5317189134
O  O60  1  0.88915000  0.43340000  0.54393000  1.0 -0.5514165572
O  O61  1  0.16127000  0.94047000  0.68153000  1.0 -0.5410513654
O  O62  1  0.23048000  0.92679000  0.63493000  1.0 -0.56654008
O  O63  1  0.85957000  0.55821000  0.59847000  1.0 -0.56654008
O  O64  1  0.88942000  0.56298000  0.53788000  1.0 -0.5317189134
O  O65  1  0.27415000  0.99671000  0.70299000  1.0 -0.8925797604
O  O66  1  0.68818000  0.05727000  0.27440000  1.0 -0.5410513654
O  O67  1  0.77911000  0.08655000  0.25353000  1.0 -0.5090246312
O  O68  1  0.80513000  0.42631000  0.48403000  1.0 -0.5514165572
O  O69  1  0.70542000  0.45726000  0.47895000  1.0 -0.56654008
O  O70  1  0.78662000  0.94109000  0.14133000  1.0 -0.5514165572
O  O71  1  0.83429000  0.93266000  0.19854000  1.0 -0.5514165572
O  O72  1  0.15877000  0.57399000  0.09941000  1.0 -0.5317189134
O  O73  1  0.11085000  0.56660000  0.04393000  1.0 -0.5514165572
O  O74  1  0.83873000  0.05953000  0.18153000  1.0 -0.5410513654
O  O75  1  0.76952000  0.07321000  0.13493000  1.0 -0.56654008
O  O76  1  0.14043000  0.44179000  0.09847000  1.0 -0.56654008
O  O77  1  0.11058000  0.43702000  0.03788000  1.0 -0.5317189134
O  O78  1  0.72585000  0.00329000  0.20299000  1.0 -0.8925797604
O  O79  1  0.44273000  0.18818000  0.02440000  1.0 -0.5410513654
O  O80  1  0.41345000  0.27911000  0.00353000  1.0 -0.5090246312
O  O81  1  0.07369000  0.30513000  0.23403000  1.0 -0.5514165572
O  O82  1  0.04274000  0.20542000  0.22895000  1.0 -0.56654008
O  O83  1  0.55891000  0.28662000  0.89133000  1.0 -0.5514165572
O  O84  1  0.56734000  0.33429000  0.94854000  1.0 -0.5514165572
O  O85  1  0.92601000  0.65877000  0.84941000  1.0 -0.5317189134
O  O86  1  0.93340000  0.61085000  0.79393000  1.0 -0.5514165572
O  O87  1  0.44047000  0.33873000  0.93153000  1.0 -0.5410513654
O  O88  1  0.42679000  0.26952000  0.88493000  1.0 -0.56654008
O  O89  1  0.05821000  0.64043000  0.84847000  1.0 -0.56654008
O  O90  1  0.06298000  0.61058000  0.78788000  1.0 -0.5317189134
O  O91  1  0.49671000  0.22585000  0.95299000  1.0 -0.8925797604
O  O92  1  0.55727000  0.81182000  0.52440000  1.0 -0.5410513654
O  O93  1  0.58655000  0.72089000  0.50353000  1.0 -0.5090246312
O  O94  1  0.92631000  0.69487000  0.73403000  1.0 -0.5514165572
O  O95  1  0.95726000  0.79458000  0.72895000  1.0 -0.5647015385
O  O96  1  0.44109000  0.71338000  0.39133000  1.0 -0.5514165572
O  O97  1  0.43266000  0.66571000  0.44854000  1.0 -0.5514165572
O  O98  1  0.07399000  0.34123000  0.34941000  1.0 -0.5317189134
O  O99  1  0.06660000  0.38915000  0.29393000  1.0 -0.5514165572
O  O100  1  0.55953000  0.66127000  0.43153000  1.0 -0.5410513654
O  O101  1  0.57321000  0.73048000  0.38493000  1.0 -0.56654008
O  O102  1  0.94179000  0.35957000  0.34847000  1.0 -0.56654008
O  O103  1  0.93702000  0.38942000  0.28788000  1.0 -0.5317189134
O  O104  1  0.50329000  0.77415000  0.45299000  1.0 -0.8925797604
