# DDEC6 charges by PACMAN v1.1 (https://github.com/mtap-research/PACMAN-charge/)
data_TADWOM_ASR_pacman
_symmetry_space_group_name_H-M   'P 1'
_cell_length_a   26.01660000
_cell_length_b   26.01660000
_cell_length_c   26.01660000
_cell_angle_alpha   150.73400000
_cell_angle_beta   104.18600000
_cell_angle_gamma   83.25650000
_symmetry_Int_Tables_number   1
_chemical_formula_structural   Ti3Zn4H76(C9O2)12
_chemical_formula_sum   'Ti6 Zn8 H152 C216 O48'
_cell_volume   8171.90226020
_cell_formula_units_Z   2
loop_
 _symmetry_equiv_pos_site_id
 _symmetry_equiv_pos_as_xyz
  1  'x, y, z'
loop_
 _atom_site_type_symbol
 _atom_site_label
 _atom_site_symmetry_multiplicity
 _atom_site_fract_x
 _atom_site_fract_y
 _atom_site_fract_z
 _atom_site_occupancy
 _atom_site_charge
Ti  Ti1  1  0.94090000  0.69090000  0.25000000  1.0 0.6251057711
Ti  Ti2  1  0.55910000  0.80910000  0.75000000  1.0 0.6206170049
Ti  Ti3  1  0.96520000  0.88040000  0.45140000  1.0 0.776326957
Ti  Ti4  1  0.92900000  0.51380000  0.04860000  1.0 0.776326957
Ti  Ti5  1  0.57100000  0.61960000  0.58480000  1.0 0.776326957
Ti  Ti6  1  0.53480000  0.98620000  0.91520000  1.0 0.776326957
Zn  Zn1  1  0.33560000  0.32691000  0.81123000  1.0 0.9077935543
Zn  Zn2  1  0.01568000  0.52437000  0.68877000  1.0 0.9077935543
Zn  Zn3  1  0.48432000  0.17309000  0.50869000  1.0 0.9077935543
Zn  Zn4  1  0.16440000  0.97563000  0.99131000  1.0 0.9077935543
Zn  Zn5  1  0.26920000  0.51201000  0.92555000  1.0 0.9567163315
Zn  Zn6  1  0.08646000  0.34365000  0.57445000  1.0 0.9567163315
Zn  Zn7  1  0.41354000  0.98799000  0.25719000  1.0 0.9567163315
Zn  Zn8  1  0.23080000  0.15635000  0.24281000  1.0 0.9567163315
H  H1  1  0.81270000  0.49590000  0.94500000  1.0 0.0996413053
H  H2  1  0.05090000  0.86770000  0.55500000  1.0 0.0996413053
H  H3  1  0.44910000  0.00410000  0.81680000  1.0 0.0996413053
H  H4  1  0.68730000  0.63230000  0.68320000  1.0 0.0996413053
H  H5  1  0.86100000  0.93520000  0.29140000  1.0 0.1134833791
H  H6  1  0.14380000  0.56960000  0.20860000  1.0 0.1134833791
H  H7  1  0.35620000  0.56480000  0.42580000  1.0 0.1134833791
H  H8  1  0.63900000  0.93040000  0.07420000  1.0 0.1134833791
H  H9  1  0.78370000  0.00930000  0.32800000  1.0 0.1205097355
H  H10  1  0.18130000  0.45570000  0.17200000  1.0 0.1205097355
H  H11  1  0.31870000  0.49070000  0.27440000  1.0 0.1205097355
H  H12  1  0.71630000  0.04430000  0.22560000  1.0 0.1205097355
H  H13  1  0.69180000  0.71350000  0.07330000  1.0 0.1134833791
H  H14  1  0.14020000  0.61850000  0.42670000  1.0 0.1134833791
H  H15  1  0.35980000  0.78650000  0.47830000  1.0 0.1134833791
H  H16  1  0.80820000  0.88150000  0.02170000  1.0 0.1134833791
H  H17  1  0.02210000  0.95570000  0.43780000  1.0 0.1401266563
H  H18  1  0.01790000  0.58430000  0.06220000  1.0 0.1401266563
H  H19  1  0.48210000  0.54430000  0.56640000  1.0 0.1401266563
H  H20  1  0.47790000  0.91570000  0.93360000  1.0 0.1401266563
H  H21  1  0.89510000  0.75550000  0.06840000  1.0 0.1205097355
H  H22  1  0.18710000  0.82670000  0.43160000  1.0 0.1205097355
H  H23  1  0.31290000  0.74450000  0.63960000  1.0 0.1205097355
H  H24  1  0.60490000  0.67330000  0.86040000  1.0 0.1205097355
H  H25  1  0.93330000  0.79250000  0.03340000  1.0 0.1283235781
H  H26  1  0.25910000  0.89990000  0.46660000  1.0 0.1283235781
H  H27  1  0.24090000  0.70750000  0.64080000  1.0 0.1283235781
H  H28  1  0.56670000  0.60010000  0.85920000  1.0 0.1283235781
H  H29  1  0.06060000  0.98520000  0.30040000  1.0 0.1205097355
H  H30  1  0.18480000  0.76020000  0.19960000  1.0 0.1205097355
H  H31  1  0.31520000  0.51480000  0.57540000  1.0 0.1205097355
H  H32  1  0.43940000  0.73980000  0.92460000  1.0 0.1205097355
H  H33  1  0.12490000  0.94850000  0.41520000  1.0 0.1205097355
H  H34  1  0.03330000  0.70970000  0.08480000  1.0 0.1205097355
H  H35  1  0.46670000  0.55150000  0.67640000  1.0 0.1205097355
H  H36  1  0.37510000  0.79030000  0.82360000  1.0 0.1205097355
H  H37  1  0.20330000  0.07970000  0.55440000  1.0 0.1205097355
H  H38  1  0.02530000  0.64890000  0.94560000  1.0 0.1205097355
H  H39  1  0.47470000  0.42030000  0.62360000  1.0 0.1205097355
H  H40  1  0.29670000  0.85110000  0.87640000  1.0 0.1205097355
H  H41  1  0.12740000  0.29090000  0.65150000  1.0 0.1205097355
H  H42  1  0.13940000  0.47590000  0.84850000  1.0 0.1205097355
H  H43  1  0.36060000  0.20910000  0.33650000  1.0 0.1205097355
H  H44  1  0.37260000  0.02410000  0.16350000  1.0 0.1205097355
H  H45  1  0.04890000  0.15960000  0.51230000  1.0 0.1283235781
H  H46  1  0.14730000  0.53660000  0.98770000  1.0 0.1283235781
H  H47  1  0.35270000  0.34040000  0.38930000  1.0 0.1283235781
H  H48  1  0.45110000  0.96340000  0.11070000  1.0 0.1283235781
H  H49  1  0.06200000  0.07360000  0.30040000  1.0 0.1205097355
H  H50  1  0.27320000  0.76160000  0.19960000  1.0 0.1205097355
H  H51  1  0.22680000  0.42640000  0.48840000  1.0 0.1205097355
H  H52  1  0.43800000  0.73840000  0.01160000  1.0 0.1205097355
H  H53  1  0.10980000  0.11230000  0.26970000  1.0 0.1205097355
H  H54  1  0.34260000  0.84010000  0.23030000  1.0 0.1205097355
H  H55  1  0.15740000  0.38770000  0.49750000  1.0 0.1205097355
H  H56  1  0.39020000  0.65990000  0.00250000  1.0 0.1205097355
H  H57  1  0.05800000  0.80750000  0.94450000  1.0 0.1401266563
H  H58  1  0.36300000  0.11350000  0.55550000  1.0 0.1401266563
H  H59  1  0.13700000  0.69250000  0.75050000  1.0 0.1401266563
H  H60  1  0.44200000  0.38650000  0.74950000  1.0 0.1401266563
H  H61  1  0.01030000  0.76870000  0.97520000  1.0 0.1205097355
H  H62  1  0.29350000  0.03510000  0.52480000  1.0 0.1205097355
H  H63  1  0.20650000  0.73130000  0.74160000  1.0 0.1205097355
H  H64  1  0.48970000  0.46490000  0.75840000  1.0 0.1205097355
H  H65  1  0.71660000  0.49100000  0.97580000  1.0 0.1205097355
H  H66  1  0.01520000  0.74080000  0.52420000  1.0 0.1205097355
H  H67  1  0.48480000  0.00900000  0.72560000  1.0 0.1205097355
H  H68  1  0.78340000  0.75920000  0.77440000  1.0 0.1205097355
H  H69  1  0.63490000  0.36800000  0.84950000  1.0 0.1283235781
H  H70  1  0.01850000  0.78540000  0.65050000  1.0 0.1283235781
H  H71  1  0.48150000  0.13200000  0.76690000  1.0 0.1283235781
H  H72  1  0.86510000  0.71460000  0.73310000  1.0 0.1283235781
H  H73  1  0.61460000  0.42250000  0.74190000  1.0 0.1205097355
H  H74  1  0.18060000  0.87270000  0.75810000  1.0 0.1205097355
H  H75  1  0.31940000  0.07750000  0.69210000  1.0 0.1205097355
H  H76  1  0.88540000  0.62730000  0.80790000  1.0 0.1205097355
H  H77  1  0.69640000  0.54540000  0.86820000  1.0 0.1205097355
H  H78  1  0.17720000  0.82820000  0.63180000  1.0 0.1205097355
H  H79  1  0.32280000  0.95460000  0.65100000  1.0 0.1205097355
H  H80  1  0.80360000  0.67180000  0.84900000  1.0 0.1205097355
H  H81  1  0.63050000  0.80560000  0.08050000  1.0 0.1134833791
H  H82  1  0.22510000  0.55000000  0.41950000  1.0 0.1134833791
H  H83  1  0.27490000  0.69440000  0.32490000  1.0 0.1134833791
H  H84  1  0.86950000  0.95000000  0.17510000  1.0 0.1134833791
H  H85  1  0.55020000  0.86180000  0.12620000  1.0 0.1134833791
H  H86  1  0.23560000  0.42400000  0.37380000  1.0 0.1134833791
H  H87  1  0.26440000  0.63820000  0.18840000  1.0 0.1134833791
H  H88  1  0.94980000  0.07600000  0.31160000  1.0 0.1134833791
H  H89  1  0.62850000  0.08550000  0.43800000  1.0 0.1401266563
H  H90  1  0.14750000  0.19050000  0.06200000  1.0 0.1401266563
H  H91  1  0.35250000  0.41450000  0.04300000  1.0 0.1401266563
H  H92  1  0.87150000  0.30950000  0.45700000  1.0 0.1401266563
H  H93  1  0.70880000  0.02930000  0.39230000  1.0 0.1134833791
H  H94  1  0.13700000  0.31650000  0.10770000  1.0 0.1134833791
H  H95  1  0.36300000  0.47070000  0.17950000  1.0 0.1134833791
H  H96  1  0.79120000  0.18350000  0.32050000  1.0 0.1134833791
H  H97  1  0.86810000  0.86930000  0.43260000  1.0 0.0996413053
H  H98  1  0.93670000  0.43550000  0.06740000  1.0 0.0996413053
H  H99  1  0.56330000  0.63070000  0.49880000  1.0 0.0996413053
H  H100  1  0.63190000  0.06450000  0.00120000  1.0 0.0996413053
H  H101  1  0.82750000  0.76300000  0.41970000  1.0 0.0295219037
H  H102  1  0.84330000  0.40780000  0.08030000  1.0 0.0295219037
H  H103  1  0.65670000  0.73700000  0.56450000  1.0 0.0295219037
H  H104  1  0.67250000  0.09220000  0.93550000  1.0 0.0295219037
H  H105  1  0.79870000  0.84140000  0.45030000  1.0 0.1283235781
H  H106  1  0.89110000  0.34840000  0.04970000  1.0 0.1283235781
H  H107  1  0.60890000  0.65860000  0.45730000  1.0 0.1283235781
H  H108  1  0.70130000  0.15160000  0.04270000  1.0 0.1283235781
H  H109  1  0.85490000  0.88500000  0.52810000  1.0 0.1401266563
H  H110  1  0.85690000  0.32680000  0.97190000  1.0 0.1401266563
H  H111  1  0.64310000  0.61500000  0.46990000  1.0 0.1401266563
H  H112  1  0.64510000  0.17320000  0.03010000  1.0 0.1401266563
H  H113  1  0.83060000  0.75280000  0.26900000  1.0 0.18100481
H  H114  1  0.98380000  0.56160000  0.23100000  1.0 0.18100481
H  H115  1  0.51620000  0.74720000  0.57780000  1.0 0.18100481
H  H116  1  0.66940000  0.93840000  0.92220000  1.0 0.18100481
H  H117  1  0.79060000  0.70750000  0.26430000  1.0 0.1205097355
H  H118  1  0.94320000  0.52630000  0.23570000  1.0 0.1205097355
H  H119  1  0.55680000  0.79250000  0.58310000  1.0 0.1205097355
H  H120  1  0.70940000  0.97370000  0.91690000  1.0 0.1205097355
H  H121  1  0.84090000  0.65610000  0.22060000  1.0 0.1599926975
H  H122  1  0.93550000  0.62030000  0.27940000  1.0 0.1599926975
H  H123  1  0.56450000  0.84390000  0.68480000  1.0 0.1599926975
H  H124  1  0.65910000  0.87970000  0.81520000  1.0 0.1599926975
H  H125  1  0.91330000  0.76660000  0.38870000  1.0 0.0122179457
H  H126  1  0.87790000  0.52460000  0.11130000  1.0 0.0122179457
H  H127  1  0.62210000  0.73340000  0.64670000  1.0 0.0122179457
H  H128  1  0.58670000  0.97540000  0.85330000  1.0 0.0122179457
H  H129  1  0.98870000  0.86930000  0.51500000  1.0 0.0295219037
H  H130  1  0.85430000  0.47370000  0.98500000  1.0 0.0295219037
H  H131  1  0.64570000  0.63070000  0.61940000  1.0 0.0295219037
H  H132  1  0.51130000  0.02630000  0.88060000  1.0 0.0295219037
H  H133  1  0.00890000  0.78450000  0.48060000  1.0 0.0996413053
H  H134  1  0.80390000  0.52830000  0.01940000  1.0 0.0996413053
H  H135  1  0.69610000  0.71550000  0.72440000  1.0 0.0996413053
H  H136  1  0.49110000  0.97170000  0.77560000  1.0 0.0996413053
H  H137  1  0.96660000  0.84830000  0.54750000  1.0 0.1401266563
H  H138  1  0.80080000  0.41910000  0.95250000  1.0 0.1401266563
H  H139  1  0.69920000  0.65170000  0.61830000  1.0 0.1401266563
H  H140  1  0.53340000  0.08090000  0.88170000  1.0 0.1401266563
H  H141  1  0.85510000  0.70520000  0.37570000  1.0 0.0996413053
H  H142  1  0.82950000  0.47940000  0.12430000  1.0 0.0996413053
H  H143  1  0.67050000  0.79480000  0.64990000  1.0 0.0996413053
H  H144  1  0.64490000  0.02060000  0.85010000  1.0 0.0996413053
H  H145  1  0.89950000  0.70920000  0.43270000  1.0 0.1466839452
H  H146  1  0.77650000  0.46680000  0.06730000  1.0 0.1466839452
H  H147  1  0.72350000  0.79080000  0.69030000  1.0 0.1466839452
H  H148  1  0.60050000  0.03320000  0.80970000  1.0 0.1466839452
H  H149  1  0.88200000  0.60590000  0.30450000  1.0 0.1401266563
H  H150  1  0.80140000  0.57750000  0.19550000  1.0 0.1401266563
H  H151  1  0.69860000  0.89410000  0.77610000  1.0 0.1401266563
H  H152  1  0.61800000  0.92250000  0.72390000  1.0 0.1401266563
C  C1  1  0.86980000  0.74340000  0.15060000  1.0 -0.049636285
C  C2  1  0.09280000  0.71920000  0.34940000  1.0 -0.049636285
C  C3  1  0.40720000  0.75660000  0.62640000  1.0 -0.049636285
C  C4  1  0.63020000  0.78080000  0.87360000  1.0 -0.049636285
C  C5  1  0.86580000  0.63590000  0.06850000  1.0 0.2552481618
C  C6  1  0.06740000  0.79730000  0.43150000  1.0 0.2552481618
C  C7  1  0.43260000  0.86410000  0.72990000  1.0 0.2552481618
C  C8  1  0.63420000  0.70270000  0.77010000  1.0 0.2552481618
C  C9  1  0.81530000  0.56780000  0.99990000  1.0 -0.2659565929
C  C10  1  0.06790000  0.81540000  0.50010000  1.0 -0.2659565929
C  C11  1  0.43210000  0.93220000  0.74750000  1.0 -0.2659565929
C  C12  1  0.68470000  0.68460000  0.75250000  1.0 -0.2659565929
C  C13  1  0.76870000  0.60720000  0.01330000  1.0 0.0295219037
C  C14  1  0.09390000  0.75540000  0.48670000  1.0 0.0295219037
C  C15  1  0.40610000  0.89280000  0.66150000  1.0 0.0295219037
C  C16  1  0.73130000  0.74460000  0.83850000  1.0 0.0295219037
C  C17  1  0.77270000  0.71470000  0.09540000  1.0 0.017474369
C  C18  1  0.11930000  0.67730000  0.40460000  1.0 0.017474369
C  C19  1  0.38070000  0.78530000  0.55800000  1.0 0.017474369
C  C20  1  0.72730000  0.82270000  0.94200000  1.0 0.017474369
C  C21  1  0.82320000  0.78280000  0.16400000  1.0 0.0295219037
C  C22  1  0.11880000  0.65920000  0.33600000  1.0 0.0295219037
C  C23  1  0.38120000  0.71720000  0.54040000  1.0 0.0295219037
C  C24  1  0.67680000  0.84080000  0.95960000  1.0 0.0295219037
C  C25  1  0.82690000  0.89120000  0.24850000  1.0 -0.1401702983
C  C26  1  0.14270000  0.57840000  0.25150000  1.0 -0.1401702983
C  C27  1  0.35730000  0.60880000  0.43570000  1.0 -0.1401702983
C  C28  1  0.67310000  0.92160000  0.06430000  1.0 -0.1401702983
C  C29  1  0.78040000  0.93670000  0.27110000  1.0 -0.1705413471
C  C30  1  0.16560000  0.50930000  0.22890000  1.0 -0.1705413471
C  C31  1  0.33440000  0.56330000  0.34370000  1.0 -0.1705413471
C  C32  1  0.71960000  0.99070000  0.15630000  1.0 -0.1705413471
C  C33  1  0.72700000  0.86730000  0.20330000  1.0 0.0781915172
C  C34  1  0.16400000  0.52370000  0.29670000  1.0 0.0781915172
C  C35  1  0.33600000  0.63270000  0.35970000  1.0 0.0781915172
C  C36  1  0.77300000  0.97630000  0.14030000  1.0 0.0781915172
C  C37  1  0.72540000  0.75910000  0.11790000  1.0 -0.1978498074
C  C38  1  0.14120000  0.60750000  0.38210000  1.0 -0.1978498074
C  C39  1  0.35880000  0.74090000  0.46630000  1.0 -0.1978498074
C  C40  1  0.77460000  0.89250000  0.03370000  1.0 -0.1978498074
C  C41  1  0.92905000  0.81325000  0.21900000  1.0 -0.0403007168
C  C42  1  0.09425000  0.71005000  0.28100000  1.0 -0.0403007168
C  C43  1  0.40575000  0.68675000  0.61580000  1.0 -0.0403007168
C  C44  1  0.57095000  0.78995000  0.88420000  1.0 -0.0403007168
C  C45  1  0.95513000  0.85563000  0.30710000  1.0 0.3022953894
C  C46  1  0.04853000  0.64803000  0.19290000  1.0 0.3022953894
C  C47  1  0.45147000  0.64437000  0.59950000  1.0 0.3022953894
C  C48  1  0.54487000  0.85197000  0.90050000  1.0 0.3022953894
C  C49  1  0.00463000  0.92723000  0.37880000  1.0 -0.2528350923
C  C50  1  0.04843000  0.62583000  0.12120000  1.0 -0.2528350923
C  C51  1  0.45157000  0.57277000  0.57740000  1.0 -0.2528350923
C  C52  1  0.49537000  0.87417000  0.92260000  1.0 -0.2528350923
C  C53  1  0.02805000  0.95645000  0.36240000  1.0 0.0376128022
C  C54  1  0.09405000  0.66565000  0.13760000  1.0 0.0376128022
C  C55  1  0.40595000  0.54355000  0.57160000  1.0 0.0376128022
C  C56  1  0.47195000  0.83435000  0.92840000  1.0 0.0376128022
C  C57  1  0.00196000  0.91406000  0.27430000  1.0 0.017474369
C  C58  1  0.13976000  0.72766000  0.22570000  1.0 0.017474369
C  C59  1  0.36024000  0.58594000  0.58790000  1.0 0.017474369
C  C60  1  0.49804000  0.77234000  0.91210000  1.0 0.017474369
C  C61  1  0.95248000  0.84247000  0.20261000  1.0 0.0295219037
C  C62  1  0.13986000  0.74987000  0.29739000  1.0 0.0295219037
C  C63  1  0.36014000  0.65753000  0.61001000  1.0 0.0295219037
C  C64  1  0.54752000  0.75013000  0.88999000  1.0 0.0295219037
C  C65  1  0.92880000  0.80130000  0.11510000  1.0 -0.1249619696
C  C66  1  0.18620000  0.81370000  0.38490000  1.0 -0.1249619696
C  C67  1  0.31380000  0.69870000  0.62750000  1.0 -0.1249619696
C  C68  1  0.57120000  0.68630000  0.87250000  1.0 -0.1249619696
C  C69  1  0.95140000  0.82320000  0.09380000  1.0 -0.1401702983
C  C70  1  0.22940000  0.85760000  0.40620000  1.0 -0.1401702983
C  C71  1  0.27060000  0.67680000  0.62820000  1.0 -0.1401702983
C  C72  1  0.54860000  0.64240000  0.87180000  1.0 -0.1401702983
C  C73  1  0.00290000  0.89290000  0.16220000  1.0 0.0781915172
C  C74  1  0.23070000  0.84070000  0.33780000  1.0 0.0781915172
C  C75  1  0.26930000  0.60710000  0.61000000  1.0 0.0781915172
C  C76  1  0.49710000  0.65930000  0.89000000  1.0 0.0781915172
C  C77  1  0.02720000  0.93810000  0.25290000  1.0 -0.1978498074
C  C78  1  0.18520000  0.77430000  0.24710000  1.0 -0.1978498074
C  C79  1  0.31480000  0.56190000  0.58910000  1.0 -0.1978498074
C  C80  1  0.47280000  0.72570000  0.91090000  1.0 -0.1978498074
C  C81  1  0.07914000  0.04104000  0.44990000  1.0 0.0892060053
C  C82  1  0.09114000  0.62924000  0.05010000  1.0 0.0892060053
C  C83  1  0.40886000  0.45896000  0.53810000  1.0 0.0892060053
C  C84  1  0.42086000  0.87076000  0.96190000  1.0 0.0892060053
C  C85  1  0.12539000  0.01709000  0.46250000  1.0 -0.1401702983
C  C86  1  0.05459000  0.66289000  0.03750000  1.0 -0.1401702983
C  C87  1  0.44541000  0.48291000  0.60830000  1.0 -0.1401702983
C  C88  1  0.37461000  0.83711000  0.89170000  1.0 -0.1401702983
C  C89  1  0.17242000  0.09580000  0.54602000  1.0 -0.08310767
C  C90  1  0.04978000  0.62640000  0.95398000  1.0 -0.08310767
C  C91  1  0.45022000  0.40420000  0.57662000  1.0 -0.08310767
C  C92  1  0.32758000  0.87360000  0.92338000  1.0 -0.08310767
C  C93  1  0.17314000  0.19834000  0.61680000  1.0 -0.049636285
C  C94  1  0.08154000  0.55634000  0.88320000  1.0 -0.049636285
C  C95  1  0.41846000  0.30166000  0.47480000  1.0 -0.049636285
C  C96  1  0.32686000  0.94366000  0.02520000  1.0 -0.049636285
C  C97  1  0.12689000  0.22229000  0.60420000  1.0 -0.087305537
C  C98  1  0.11809000  0.52269000  0.89580000  1.0 -0.087305537
C  C99  1  0.38191000  0.27771000  0.40460000  1.0 -0.087305537
C  C100  1  0.37311000  0.97731000  0.09540000  1.0 -0.087305537
C  C101  1  0.07988000  0.14370000  0.52078000  1.0 -0.1480002768
C  C102  1  0.12292000  0.55910000  0.97922000  1.0 -0.1480002768
C  C103  1  0.37708000  0.35630000  0.43618000  1.0 -0.1480002768
C  C104  1  0.42012000  0.94090000  0.06382000  1.0 -0.1480002768
C  C105  1  0.03142000  0.91732000  0.14090000  1.0 0.0781915172
C  C106  1  0.27642000  0.89052000  0.35910000  1.0 0.0781915172
C  C107  1  0.22358000  0.58268000  0.61410000  1.0 0.0781915172
C  C108  1  0.46858000  0.60948000  0.88590000  1.0 0.0781915172
C  C109  1  0.06118000  0.02018000  0.22900000  1.0 -0.1480002768
C  C110  1  0.29118000  0.83218000  0.27100000  1.0 -0.1480002768
C  C111  1  0.20882000  0.47982000  0.54100000  1.0 -0.1480002768
C  C112  1  0.43882000  0.66782000  0.95900000  1.0 -0.1480002768
C  C113  1  0.08978000  0.04348000  0.21070000  1.0 -0.087305537
C  C114  1  0.33278000  0.87908000  0.28930000  1.0 -0.087305537
C  C115  1  0.16722000  0.45652000  0.54630000  1.0 -0.087305537
C  C116  1  0.41022000  0.62092000  0.95370000  1.0 -0.087305537
C  C117  1  0.08864000  0.96374000  0.10410000  1.0 -0.0403007168
C  C118  1  0.35964000  0.98454000  0.39590000  1.0 -0.0403007168
C  C119  1  0.14036000  0.53626000  0.62490000  1.0 -0.0403007168
C  C120  1  0.41136000  0.51546000  0.87510000  1.0 -0.0403007168
C  C121  1  0.05878000  0.86078000  0.01580000  1.0 -0.0713988479
C  C122  1  0.34498000  0.04298000  0.48420000  1.0 -0.0713988479
C  C123  1  0.15502000  0.63922000  0.69800000  1.0 -0.0713988479
C  C124  1  0.44122000  0.45702000  0.80200000  1.0 -0.0713988479
C  C125  1  0.03017000  0.83757000  0.03420000  1.0 -0.1401702983
C  C126  1  0.30337000  0.99597000  0.46580000  1.0 -0.1401702983
C  C127  1  0.19663000  0.66243000  0.69260000  1.0 -0.1401702983
C  C128  1  0.46983000  0.50403000  0.80740000  1.0 -0.1401702983
C  C129  1  0.71460000  0.53040000  0.93460000  1.0 0.0781915172
C  C130  1  0.09580000  0.78000000  0.56540000  1.0 0.0781915172
C  C131  1  0.40420000  0.96960000  0.68420000  1.0 0.0781915172
C  C132  1  0.78540000  0.72000000  0.81580000  1.0 0.0781915172
C  C133  1  0.69610000  0.47720000  0.92890000  1.0 -0.1480002768
C  C134  1  0.04830000  0.76720000  0.57110000  1.0 -0.1480002768
C  C135  1  0.45170000  0.02280000  0.71890000  1.0 -0.1480002768
C  C136  1  0.80390000  0.73280000  0.78110000  1.0 -0.1480002768
C  C137  1  0.64720000  0.40360000  0.85320000  1.0 -0.0969059242
C  C138  1  0.05040000  0.79400000  0.64680000  1.0 -0.0969059242
C  C139  1  0.44960000  0.09640000  0.74360000  1.0 -0.0969059242
C  C140  1  0.85280000  0.70600000  0.75640000  1.0 -0.0969059242
C  C141  1  0.61670000  0.38310000  0.78320000  1.0 -0.0323639448
C  C142  1  0.09990000  0.83350000  0.71680000  1.0 -0.0323639448
C  C143  1  0.40010000  0.11690000  0.73360000  1.0 -0.0323639448
C  C144  1  0.88330000  0.66650000  0.76640000  1.0 -0.0323639448
C  C145  1  0.63500000  0.43610000  0.78870000  1.0 -0.0969059242
C  C146  1  0.14740000  0.84630000  0.71130000  1.0 -0.0969059242
C  C147  1  0.35260000  0.06390000  0.69890000  1.0 -0.0969059242
C  C148  1  0.86500000  0.65370000  0.80110000  1.0 -0.0969059242
C  C149  1  0.68400000  0.50980000  0.86440000  1.0 -0.158964676
C  C150  1  0.14540000  0.81960000  0.63560000  1.0 -0.158964676
C  C151  1  0.35460000  0.99020000  0.67420000  1.0 -0.158964676
C  C152  1  0.81600000  0.68040000  0.82580000  1.0 -0.158964676
C  C153  1  0.67760000  0.91190000  0.23190000  1.0 0.0700587769
C  C154  1  0.18000000  0.44570000  0.26810000  1.0 0.0700587769
C  C155  1  0.32000000  0.58810000  0.26570000  1.0 0.0700587769
C  C156  1  0.82240000  0.05430000  0.23430000  1.0 0.0700587769
C  C157  1  0.63010000  0.86170000  0.15220000  1.0 -0.1480002768
C  C158  1  0.20950000  0.47790000  0.34780000  1.0 -0.1480002768
C  C159  1  0.29050000  0.63830000  0.26840000  1.0 -0.1480002768
C  C160  1  0.86990000  0.02210000  0.23160000  1.0 -0.1480002768
C  C161  1  0.58200000  0.89540000  0.17960000  1.0 -0.0969059242
C  C162  1  0.21580000  0.40240000  0.32040000  1.0 -0.0969059242
C  C163  1  0.28420000  0.60460000  0.18660000  1.0 -0.0969059242
C  C164  1  0.91800000  0.09760000  0.31340000  1.0 -0.0969059242
C  C165  1  0.58140000  0.97920000  0.28660000  1.0 -0.0170285412
C  C166  1  0.19260000  0.29480000  0.21340000  1.0 -0.0170285412
C  C167  1  0.30740000  0.52080000  0.10220000  1.0 -0.0170285412
C  C168  1  0.91860000  0.20520000  0.39780000  1.0 -0.0170285412
C  C169  1  0.62890000  0.02940000  0.36630000  1.0 -0.087305537
C  C170  1  0.16310000  0.26260000  0.13370000  1.0 -0.087305537
C  C171  1  0.33690000  0.47060000  0.09950000  1.0 -0.087305537
C  C172  1  0.87110000  0.23740000  0.40050000  1.0 -0.087305537
C  C173  1  0.67700000  0.99570000  0.33890000  1.0 -0.1401702983
C  C174  1  0.15680000  0.33810000  0.16110000  1.0 -0.1401702983
C  C175  1  0.34320000  0.50430000  0.18130000  1.0 -0.1401702983
C  C176  1  0.82300000  0.16190000  0.31870000  1.0 -0.1401702983
C  C177  1  0.56390000  0.30450000  0.70280000  1.0 0.5510660437
C  C178  1  0.10170000  0.86110000  0.79720000  1.0 0.5510660437
C  C179  1  0.39830000  0.19550000  0.75940000  1.0 0.5510660437
C  C180  1  0.93610000  0.63890000  0.74060000  1.0 0.5510660437
C  C181  1  0.52700000  0.01390000  0.31590000  1.0 0.5935685959
C  C182  1  0.19800000  0.21110000  0.18410000  1.0 0.5935685959
C  C183  1  0.30200000  0.48610000  0.01310000  1.0 0.5935685959
C  C184  1  0.97300000  0.28890000  0.48690000  1.0 0.5935685959
C  C185  1  0.22160000  0.28200000  0.70980000  1.0 0.6039359298
C  C186  1  0.07220000  0.51180000  0.79020000  1.0 0.6039359298
C  C187  1  0.42780000  0.21800000  0.43960000  1.0 0.6039359298
C  C188  1  0.27840000  0.98820000  0.06040000  1.0 0.6039359298
C  C189  1  0.12160000  0.98470000  0.08350000  1.0 0.5721111622
C  C190  1  0.40120000  0.03810000  0.41650000  1.0 0.5721111622
C  C191  1  0.09880000  0.51530000  0.63690000  1.0 0.5721111622
C  C192  1  0.37840000  0.46190000  0.86310000  1.0 0.5721111622
C  C193  1  0.86190000  0.80090000  0.39000000  1.0 0.0566023214
C  C194  1  0.91090000  0.47190000  0.11000000  1.0 0.0566023214
C  C195  1  0.58910000  0.69910000  0.56100000  1.0 0.0566023214
C  C196  1  0.63810000  0.02810000  0.93900000  1.0 0.0566023214
C  C197  1  0.83310000  0.82470000  0.45280000  1.0 -0.3955236547
C  C198  1  0.87190000  0.38030000  0.04720000  1.0 -0.3931439492
C  C199  1  0.62810000  0.67530000  0.50840000  1.0 -0.3955236547
C  C200  1  0.66690000  0.11970000  0.99160000  1.0 -0.3955236547
C  C201  1  0.82780000  0.72190000  0.27510000  1.0 -0.1401702983
C  C202  1  0.94680000  0.55270000  0.22490000  1.0 -0.1401702983
C  C203  1  0.55320000  0.77810000  0.60590000  1.0 -0.1401702983
C  C204  1  0.67220000  0.94730000  0.89410000  1.0 -0.1401702983
C  C205  1  0.93210000  0.72830000  0.38440000  1.0 0.2886544791
C  C206  1  0.84390000  0.54770000  0.11560000  1.0 0.2886544791
C  C207  1  0.65610000  0.77170000  0.70380000  1.0 0.2886544791
C  C208  1  0.56790000  0.95230000  0.79620000  1.0 0.2886544791
C  C209  1  0.97840000  0.81570000  0.49190000  1.0 -0.5468998525
C  C210  1  0.82380000  0.48650000  0.00810000  1.0 -0.5468998525
C  C211  1  0.67620000  0.68430000  0.66270000  1.0 -0.5468998525
C  C212  1  0.52160000  0.01350000  0.83730000  1.0 -0.5468998525
C  C213  1  0.88800000  0.68290000  0.37330000  1.0 -0.5187688146
C  C214  1  0.80960000  0.51470000  0.12670000  1.0 -0.5187688146
C  C215  1  0.69040000  0.81710000  0.70510000  1.0 -0.5187688146
C  C216  1  0.61200000  0.98530000  0.79490000  1.0 -0.5187688146
O  O1  1  0.21780000  0.38130000  0.78750000  1.0 -0.5912012729
O  O2  1  0.09380000  0.43030000  0.71250000  1.0 -0.5912012729
O  O3  1  0.40620000  0.11870000  0.33650000  1.0 -0.5912012729
O  O4  1  0.28220000  0.06970000  0.16350000  1.0 -0.5912012729
O  O5  1  0.26430000  0.25250000  0.70520000  1.0 -0.5187688146
O  O6  1  0.04730000  0.55910000  0.79480000  1.0 -0.5187688146
O  O7  1  0.45270000  0.24750000  0.51180000  1.0 -0.5187688146
O  O8  1  0.23570000  0.94090000  0.98820000  1.0 -0.5187688146
O  O9  1  0.15960000  0.07710000  0.17590000  1.0 -0.6377027753
O  O10  1  0.40120000  0.98370000  0.32410000  1.0 -0.6377027753
O  O11  1  0.09880000  0.42290000  0.58250000  1.0 -0.6377027753
O  O12  1  0.34040000  0.51630000  0.91750000  1.0 -0.6377027753
O  O13  1  0.11790000  0.93370000  0.00300000  1.0 -0.3835087318
O  O14  1  0.43070000  0.11490000  0.49700000  1.0 -0.3835087318
O  O15  1  0.06930000  0.56630000  0.68420000  1.0 -0.3835087318
O  O16  1  0.38210000  0.38510000  0.81580000  1.0 -0.3835087318
O  O17  1  0.48620000  0.96720000  0.23860000  1.0 -0.5736761663
O  O18  1  0.22860000  0.24760000  0.26140000  1.0 -0.5736761663
O  O19  1  0.27140000  0.53280000  0.01900000  1.0 -0.5736761663
O  O20  1  0.01380000  0.25240000  0.48100000  1.0 -0.5736761663
O  O21  1  0.52910000  0.08250000  0.40620000  1.0 -0.4740607414
O  O22  1  0.17630000  0.12290000  0.09380000  1.0 -0.4740607414
O  O23  1  0.32370000  0.41750000  0.94660000  1.0 -0.4750609371
O  O24  1  0.97090000  0.37710000  0.55340000  1.0 -0.4740607414
O  O25  1  0.54350000  0.27480000  0.71490000  1.0 -0.5070482466
O  O26  1  0.05990000  0.82860000  0.78510000  1.0 -0.5070482466
O  O27  1  0.44010000  0.22520000  0.76870000  1.0 -0.5070482466
O  O28  1  0.95650000  0.67140000  0.73130000  1.0 -0.5070482466
O  O29  1  0.54050000  0.29080000  0.64510000  1.0 -0.5070482466
O  O30  1  0.14570000  0.89540000  0.85490000  1.0 -0.5070482466
O  O31  1  0.35430000  0.20920000  0.74970000  1.0 -0.5070482466
O  O32  1  0.95950000  0.60460000  0.75030000  1.0 -0.5070482466
O  O33  1  0.91120000  0.59720000  0.06200000  1.0 -0.6148633632
O  O34  1  0.03520000  0.84920000  0.43800000  1.0 -0.6162869606
O  O35  1  0.46480000  0.90280000  0.81400000  1.0 -0.6162869606
O  O36  1  0.58880000  0.65080000  0.68600000  1.0 -0.6162869606
O  O37  1  0.93490000  0.82520000  0.32410000  1.0 -0.645642576
O  O38  1  0.00110000  0.61080000  0.17590000  1.0 -0.645642576
O  O39  1  0.49890000  0.67480000  0.60970000  1.0 -0.645642576
O  O40  1  0.56510000  0.88920000  0.89030000  1.0 -0.645642576
O  O41  1  0.91280000  0.78550000  0.39830000  1.0 -0.3180024523
O  O42  1  0.88720000  0.51450000  0.10170000  1.0 -0.3180024523
O  O43  1  0.61280000  0.71450000  0.62730000  1.0 -0.3180024523
O  O44  1  0.58720000  0.98550000  0.87270000  1.0 -0.3180024523
O  O45  1  0.95000000  0.65500000  0.29500000  1.0 -0.2826857466
O  O46  1  0.86000000  0.65500000  0.20500000  1.0 -0.2826857466
O  O47  1  0.64000000  0.84500000  0.79500000  1.0 -0.2826857466
O  O48  1  0.55000000  0.84500000  0.70500000  1.0 -0.2826857466
