# DDEC6 charges by PACMAN v1.1 (https://github.com/mtap-research/PACMAN-charge/)
data_TADYII_FSR_pacman
_symmetry_space_group_name_H-M   'P 1'
_cell_length_a   15.90070000
_cell_length_b   15.90070000
_cell_length_c   15.90070000
_cell_angle_alpha   105.91600000
_cell_angle_beta   105.91600000
_cell_angle_gamma   116.84400000
_symmetry_Int_Tables_number   1
_chemical_formula_structural   Ni2H60W(C8N5)4
_chemical_formula_sum   'Ni4 H120 W2 C64 N40'
_cell_volume   3055.81809919
_cell_formula_units_Z   2
loop_
 _symmetry_equiv_pos_site_id
 _symmetry_equiv_pos_as_xyz
  1  'x, y, z'
loop_
 _atom_site_type_symbol
 _atom_site_label
 _atom_site_symmetry_multiplicity
 _atom_site_fract_x
 _atom_site_fract_y
 _atom_site_fract_z
 _atom_site_occupancy
 _atom_site_charge
Ni  Ni1  1  0.12500000  0.37500000  0.25000000  1.0 0.5590897824
Ni  Ni2  1  0.12500000  0.87500000  0.25000000  1.0 0.5590897824
Ni  Ni3  1  0.12500000  0.87500000  0.75000000  1.0 0.5590897824
Ni  Ni4  1  0.62500000  0.87500000  0.75000000  1.0 0.5590897824
H  H1  1  0.01000000  0.41840000  0.09080000  1.0 0.1100612291
H  H2  1  0.16920000  0.76000000  0.09160000  1.0 0.1100612291
H  H3  1  0.32760000  0.91920000  0.90920000  1.0 0.1100612291
H  H4  1  0.66840000  0.07760000  0.90840000  1.0 0.1100612291
H  H5  1  0.24000000  0.33160000  0.40920000  1.0 0.1100612291
H  H6  1  0.08080000  0.99000000  0.40840000  1.0 0.1100612291
H  H7  1  0.92240000  0.83080000  0.59080000  1.0 0.1100612291
H  H8  1  0.58160000  0.67240000  0.59160000  1.0 0.1100612291
H  H9  1  0.98500000  0.32980000  0.99420000  1.0 0.1210255635
H  H10  1  0.24080000  0.73500000  0.15520000  1.0 0.1210255635
H  H11  1  0.33560000  0.99080000  0.00580000  1.0 0.1210255635
H  H12  1  0.57980000  0.08560000  0.84480000  1.0 0.1210255635
H  H13  1  0.26500000  0.42020000  0.50580000  1.0 0.1210255635
H  H14  1  0.00920000  0.01500000  0.34480000  1.0 0.1210255635
H  H15  1  0.91440000  0.75920000  0.49420000  1.0 0.1210255635
H  H16  1  0.67020000  0.66440000  0.65520000  1.0 0.1210255635
H  H17  1  0.20210000  0.53030000  0.16320000  1.0 0.1100612291
H  H18  1  0.28890000  0.95210000  0.17180000  1.0 0.1100612291
H  H19  1  0.36710000  0.03890000  0.83680000  1.0 0.1100612291
H  H20  1  0.78030000  0.11710000  0.82820000  1.0 0.1100612291
H  H21  1  0.04790000  0.21970000  0.33680000  1.0 0.1100612291
H  H22  1  0.96110000  0.79790000  0.32820000  1.0 0.1100612291
H  H23  1  0.88290000  0.71110000  0.66320000  1.0 0.1100612291
H  H24  1  0.46970000  0.63290000  0.67180000  1.0 0.1100612291
H  H25  1  0.19180000  0.46430000  0.06310000  1.0 0.1018639036
H  H26  1  0.37870000  0.94180000  0.22750000  1.0 0.1018639036
H  H27  1  0.40120000  0.12870000  0.93690000  1.0 0.1018639036
H  H28  1  0.71430000  0.15120000  0.77250000  1.0 0.1018639036
H  H29  1  0.05820000  0.28570000  0.43690000  1.0 0.1018639036
H  H30  1  0.87130000  0.80820000  0.27250000  1.0 0.1018639036
H  H31  1  0.84880000  0.62130000  0.56310000  1.0 0.1018639036
H  H32  1  0.53570000  0.59880000  0.72750000  1.0 0.1018639036
H  H33  1  0.42030000  0.55070000  0.31340000  1.0 0.1018639036
H  H34  1  0.35690000  0.17030000  0.36960000  1.0 0.1018639036
H  H35  1  0.23730000  0.10690000  0.68660000  1.0 0.1018639036
H  H36  1  0.80070000  0.98730000  0.63040000  1.0 0.1018639036
H  H37  1  0.82970000  0.19930000  0.18660000  1.0 0.1018639036
H  H38  1  0.89310000  0.57970000  0.13040000  1.0 0.1018639036
H  H39  1  0.01270000  0.64310000  0.81340000  1.0 0.1018639036
H  H40  1  0.44930000  0.76270000  0.86960000  1.0 0.1018639036
H  H41  1  0.34450000  0.58790000  0.31520000  1.0 0.1100612291
H  H42  1  0.27930000  0.09450000  0.25660000  1.0 0.1100612291
H  H43  1  0.27270000  0.02930000  0.68480000  1.0 0.1100612291
H  H44  1  0.83790000  0.02270000  0.74340000  1.0 0.1100612291
H  H45  1  0.90550000  0.16210000  0.18480000  1.0 0.1100612291
H  H46  1  0.97070000  0.65550000  0.24340000  1.0 0.1100612291
H  H47  1  0.97730000  0.72070000  0.81520000  1.0 0.1100612291
H  H48  1  0.41210000  0.72730000  0.75660000  1.0 0.1100612291
H  H49  1  0.85650000  0.25510000  0.04860000  1.0 0.1100612291
H  H50  1  0.05790000  0.60650000  0.10140000  1.0 0.1100612291
H  H51  1  0.20650000  0.80790000  0.95140000  1.0 0.1100612291
H  H52  1  0.50510000  0.95650000  0.89860000  1.0 0.1100612291
H  H53  1  0.39350000  0.49490000  0.45140000  1.0 0.1100612291
H  H54  1  0.19210000  0.14350000  0.39860000  1.0 0.1100612291
H  H55  1  0.04350000  0.94210000  0.54860000  1.0 0.1100612291
H  H56  1  0.74490000  0.79350000  0.60140000  1.0 0.1100612291
H  H57  1  0.91950000  0.20210000  0.05000000  1.0 0.1210255635
H  H58  1  0.11950000  0.66950000  0.21740000  1.0 0.1210255635
H  H59  1  0.15210000  0.86950000  0.95000000  1.0 0.1210255635
H  H60  1  0.45210000  0.90210000  0.78260000  1.0 0.1210255635
H  H61  1  0.33050000  0.54790000  0.45000000  1.0 0.1210255635
H  H62  1  0.13050000  0.08050000  0.28260000  1.0 0.1210255635
H  H63  1  0.09790000  0.88050000  0.55000000  1.0 0.1210255635
H  H64  1  0.79790000  0.84790000  0.71740000  1.0 0.1210255635
H  H65  1  0.26060000  0.33730000  0.13210000  1.0 0.1018639036
H  H66  1  0.37850000  0.01060000  0.42330000  1.0 0.1018639036
H  H67  1  0.20520000  0.12850000  0.86790000  1.0 0.1018639036
H  H68  1  0.58730000  0.95520000  0.57670000  1.0 0.1018639036
H  H69  1  0.98940000  0.41270000  0.36790000  1.0 0.1018639036
H  H70  1  0.87150000  0.73940000  0.07670000  1.0 0.1018639036
H  H71  1  0.04480000  0.62150000  0.63210000  1.0 0.1018639036
H  H72  1  0.66270000  0.79480000  0.92330000  1.0 0.1018639036
H  H73  1  0.26530000  0.37540000  0.05130000  1.0 0.1018639036
H  H74  1  0.46400000  0.01530000  0.38990000  1.0 0.1018639036
H  H75  1  0.32410000  0.21400000  0.94870000  1.0 0.1018639036
H  H76  1  0.62540000  0.07410000  0.61010000  1.0 0.1018639036
H  H77  1  0.98470000  0.37460000  0.44870000  1.0 0.1018639036
H  H78  1  0.78600000  0.73470000  0.11010000  1.0 0.1018639036
H  H79  1  0.92590000  0.53600000  0.55130000  1.0 0.1018639036
H  H80  1  0.62460000  0.67590000  0.88990000  1.0 0.1018639036
H  H81  1  0.40530000  0.36100000  0.10230000  1.0 0.1304666872
H  H82  1  0.55300000  0.15530000  0.54430000  1.0 0.1304666872
H  H83  1  0.25870000  0.30300000  0.89770000  1.0 0.1304666872
H  H84  1  0.61100000  0.00870000  0.45570000  1.0 0.1304666872
H  H85  1  0.84470000  0.38900000  0.39770000  1.0 0.1304666872
H  H86  1  0.69700000  0.59470000  0.95570000  1.0 0.1304666872
H  H87  1  0.99130000  0.44700000  0.60230000  1.0 0.1304666872
H  H88  1  0.63900000  0.74130000  0.04430000  1.0 0.1304666872
H  H89  1  0.45380000  0.48280000  0.14240000  1.0 0.1210255635
H  H90  1  0.56140000  0.20380000  0.47100000  1.0 0.1210255635
H  H91  1  0.34040000  0.31140000  0.85760000  1.0 0.1210255635
H  H92  1  0.73280000  0.09040000  0.52900000  1.0 0.1210255635
H  H93  1  0.79620000  0.26720000  0.35760000  1.0 0.1210255635
H  H94  1  0.68860000  0.54620000  0.02900000  1.0 0.1210255635
H  H95  1  0.90960000  0.43860000  0.64240000  1.0 0.1210255635
H  H96  1  0.51720000  0.65960000  0.97100000  1.0 0.1210255635
H  H97  1  0.44310000  0.43120000  0.21330000  1.0 0.1100612291
H  H98  1  0.47980000  0.19310000  0.51190000  1.0 0.1100612291
H  H99  1  0.21790000  0.22980000  0.78670000  1.0 0.1100612291
H  H100  1  0.68120000  0.96790000  0.48810000  1.0 0.1100612291
H  H101  1  0.80690000  0.31880000  0.28670000  1.0 0.1100612291
H  H102  1  0.77020000  0.55690000  0.98810000  1.0 0.1100612291
H  H103  1  0.03210000  0.52020000  0.71330000  1.0 0.1100612291
H  H104  1  0.56880000  0.78210000  0.01190000  1.0 0.1100612291
H  H105  1  0.10940000  0.31660000  0.07940000  1.0 0.2474860369
H  H106  1  0.28000000  0.85940000  0.29280000  1.0 0.2474860369
H  H107  1  0.23720000  0.03000000  0.92060000  1.0 0.2474860369
H  H108  1  0.56660000  0.98720000  0.70720000  1.0 0.2474860369
H  H109  1  0.14060000  0.43340000  0.42060000  1.0 0.2474860369
H  H110  1  0.97000000  0.89060000  0.20720000  1.0 0.2474860369
H  H111  1  0.01280000  0.72000000  0.57940000  1.0 0.2474860369
H  H112  1  0.68340000  0.76280000  0.79280000  1.0 0.2474860369
H  H113  1  0.95420000  0.35900000  0.20980000  1.0 0.2474860369
H  H114  1  0.99440000  0.70420000  0.09520000  1.0 0.2474860369
H  H115  1  0.14920000  0.74440000  0.79020000  1.0 0.2474860369
H  H116  1  0.60900000  0.89920000  0.90480000  1.0 0.2474860369
H  H117  1  0.29580000  0.39100000  0.29020000  1.0 0.2474860369
H  H118  1  0.25560000  0.04580000  0.40480000  1.0 0.2474860369
H  H119  1  0.10080000  0.00560000  0.70980000  1.0 0.2474860369
H  H120  1  0.64100000  0.85080000  0.59520000  1.0 0.2474860369
W  W1  1  0.25000000  0.75000000  0.50000000  1.0 0.4512621487
W  W2  1  0.00000000  0.00000000  0.00000000  1.0 0.4512621487
C  C1  1  0.18520000  0.60578000  0.37198000  1.0 -0.0278243064
C  C2  1  0.06322000  0.93520000  0.07942000  1.0 -0.0278243064
C  C3  1  0.23380000  0.81322000  0.62802000  1.0 -0.0278243064
C  C4  1  0.85578000  0.98380000  0.92058000  1.0 -0.0278243064
C  C5  1  0.06480000  0.14422000  0.12802000  1.0 -0.0278243064
C  C6  1  0.18678000  0.81480000  0.42058000  1.0 -0.0278243064
C  C7  1  0.01620000  0.93678000  0.87198000  1.0 -0.0278243064
C  C8  1  0.39422000  0.76620000  0.57942000  1.0 -0.0278243064
C  C9  1  0.21319000  0.62870000  0.54909000  1.0 -0.0278243064
C  C10  1  0.91410000  0.96319000  0.08449000  1.0 -0.0278243064
C  C11  1  0.07961000  0.66410000  0.45091000  1.0 -0.0278243064
C  C12  1  0.87870000  0.82961000  0.91551000  1.0 -0.0278243064
C  C13  1  0.03681000  0.12130000  0.95091000  1.0 -0.0278243064
C  C14  1  0.33590000  0.78681000  0.41551000  1.0 -0.0278243064
C  C15  1  0.17039000  0.08590000  0.04909000  1.0 -0.0278243064
C  C16  1  0.37130000  0.92039000  0.58449000  1.0 -0.0278243064
C  C17  1  0.00630000  0.35350000  0.06420000  1.0 -0.0996146186
C  C18  1  0.19210000  0.75630000  0.15280000  1.0 -0.0996146186
C  C19  1  0.28930000  0.94210000  0.93580000  1.0 -0.0996146186
C  C20  1  0.60350000  0.03930000  0.84720000  1.0 -0.0996146186
C  C21  1  0.24370000  0.39650000  0.43580000  1.0 -0.0996146186
C  C22  1  0.05790000  0.99370000  0.34720000  1.0 -0.0996146186
C  C23  1  0.96070000  0.80790000  0.56420000  1.0 -0.0996146186
C  C24  1  0.64650000  0.71070000  0.65280000  1.0 -0.0996146186
C  C25  1  0.20170000  0.46970000  0.12780000  1.0 -0.0170796479
C  C26  1  0.32390000  0.95170000  0.23200000  1.0 -0.0170796479
C  C27  1  0.34190000  0.07390000  0.87220000  1.0 -0.0170796479
C  C28  1  0.71970000  0.09190000  0.76800000  1.0 -0.0170796479
C  C29  1  0.04830000  0.28030000  0.37220000  1.0 -0.0170796479
C  C30  1  0.92610000  0.79830000  0.26800000  1.0 -0.0170796479
C  C31  1  0.90810000  0.67610000  0.62780000  1.0 -0.0170796479
C  C32  1  0.53030000  0.65810000  0.73200000  1.0 -0.0170796479
C  C33  1  0.34640000  0.52710000  0.28570000  1.0 -0.005191719
C  C34  1  0.31070000  0.09640000  0.31930000  1.0 -0.005191719
C  C35  1  0.24140000  0.06070000  0.71430000  1.0 -0.005191719
C  C36  1  0.77710000  0.99140000  0.68070000  1.0 -0.005191719
C  C37  1  0.90360000  0.22290000  0.21430000  1.0 -0.0042912083
C  C38  1  0.93930000  0.65360000  0.18070000  1.0 -0.005191719
C  C39  1  0.00860000  0.68930000  0.78570000  1.0 -0.005191719
C  C40  1  0.47290000  0.75860000  0.81930000  1.0 -0.005191719
C  C41  1  0.92580000  0.26810000  0.07950000  1.0 -0.1163132287
C  C42  1  0.09630000  0.67580000  0.15770000  1.0 -0.1163132287
C  C43  1  0.18860000  0.84630000  0.92050000  1.0 -0.1163132287
C  C44  1  0.51810000  0.93860000  0.84230000  1.0 -0.1163132287
C  C45  1  0.32420000  0.48190000  0.42050000  1.0 -0.1163132287
C  C46  1  0.15370000  0.07420000  0.34230000  1.0 -0.1163132287
C  C47  1  0.06140000  0.90370000  0.57950000  1.0 -0.1163132287
C  C48  1  0.73190000  0.81140000  0.65770000  1.0 -0.1163132287
C  C49  1  0.30140000  0.39660000  0.12100000  1.0 -0.0612907743
C  C50  1  0.43040000  0.05140000  0.40480000  1.0 -0.0612907743
C  C51  1  0.27560000  0.18040000  0.87900000  1.0 -0.0612907743
C  C52  1  0.64660000  0.02560000  0.59520000  1.0 -0.0612907743
C  C53  1  0.94860000  0.35340000  0.37900000  1.0 -0.0612907743
C  C54  1  0.81960000  0.69860000  0.09520000  1.0 -0.0612907743
C  C55  1  0.97440000  0.56960000  0.62100000  1.0 -0.0612907743
C  C56  1  0.60340000  0.72440000  0.90480000  1.0 -0.0612907743
C  C57  1  0.41080000  0.42000000  0.14720000  1.0 -0.3873221551
C  C58  1  0.51360000  0.16080000  0.49080000  1.0 -0.3873221551
C  C59  1  0.27280000  0.26360000  0.85280000  1.0 -0.3873221551
C  C60  1  0.67000000  0.02280000  0.50920000  1.0 -0.3873221551
C  C61  1  0.83920000  0.33000000  0.35280000  1.0 -0.3873221551
C  C62  1  0.73640000  0.58920000  0.00920000  1.0 -0.3873221551
C  C63  1  0.97720000  0.48640000  0.64720000  1.0 -0.3873221551
C  C64  1  0.58000000  0.72720000  0.99080000  1.0 -0.3873221551
N  N1  1  0.15127000  0.52568000  0.30701000  1.0 -0.3980952327
N  N2  1  0.09426000  0.90127000  0.12559000  1.0 -0.3980952327
N  N3  1  0.21867000  0.84426000  0.69299000  1.0 -0.3980952327
N  N4  1  0.77568000  0.96867000  0.87441000  1.0 -0.3980952327
N  N5  1  0.09873000  0.22432000  0.19299000  1.0 -0.3980952327
N  N6  1  0.15574000  0.84873000  0.37441000  1.0 -0.3980952327
N  N7  1  0.03133000  0.90574000  0.80701000  1.0 -0.3980952327
N  N8  1  0.47432000  0.78133000  0.62559000  1.0 -0.3980952327
N  N9  1  0.19347000  0.56168000  0.57305000  1.0 -0.4295176243
N  N10  1  0.87042000  0.94347000  0.13179000  1.0 -0.4295176243
N  N11  1  0.98863000  0.62042000  0.42695000  1.0 -0.4295176243
N  N12  1  0.81168000  0.73863000  0.86821000  1.0 -0.4295176243
N  N13  1  0.05653000  0.18832000  0.92695000  1.0 -0.4295176243
N  N14  1  0.37958000  0.80653000  0.36821000  1.0 -0.4295176243
N  N15  1  0.26137000  0.12958000  0.07305000  1.0 -0.4295176243
N  N16  1  0.43832000  0.01137000  0.63179000  1.0 -0.4295176243
N  N17  1  0.11089000  0.37316000  0.11525000  1.0 -0.3184136239
N  N18  1  0.24564000  0.86089000  0.23773000  1.0 -0.3184136239
N  N19  1  0.25791000  0.99564000  0.88475000  1.0 -0.3184136239
N  N20  1  0.62316000  0.00791000  0.76227000  1.0 -0.3184136239
N  N21  1  0.13911000  0.37684000  0.38475000  1.0 -0.3184136239
N  N22  1  0.00436000  0.88911000  0.26227000  1.0 -0.3184136239
N  N23  1  0.99209000  0.75436000  0.61525000  1.0 -0.3184136239
N  N24  1  0.62684000  0.74209000  0.73773000  1.0 -0.3184136239
N  N25  1  0.30411000  0.48994000  0.17985000  1.0 -0.1375008201
N  N26  1  0.37426000  0.05411000  0.31417000  1.0 -0.1375008201
N  N27  1  0.31009000  0.12426000  0.82015000  1.0 -0.1375008201
N  N28  1  0.73994000  0.06009000  0.68583000  1.0 -0.1375008201
N  N29  1  0.94589000  0.26006000  0.32015000  1.0 -0.1375008201
N  N30  1  0.87574000  0.69589000  0.18583000  1.0 -0.1375008201
N  N31  1  0.93991000  0.62574000  0.67985000  1.0 -0.1375008201
N  N32  1  0.51006000  0.68991000  0.81417000  1.0 -0.1375008201
N  N33  1  0.96365000  0.30639000  0.18744000  1.0 -0.3127621462
N  N34  1  0.02621000  0.71365000  0.15726000  1.0 -0.3127621462
N  N35  1  0.11895000  0.77621000  0.81256000  1.0 -0.3127621462
N  N36  1  0.55639000  0.86895000  0.84274000  1.0 -0.3127621462
N  N37  1  0.28635000  0.44361000  0.31256000  1.0 -0.3127621462
N  N38  1  0.22379000  0.03635000  0.34274000  1.0 -0.3127621462
N  N39  1  0.13105000  0.97379000  0.68744000  1.0 -0.3127621462
N  N40  1  0.69361000  0.88105000  0.65726000  1.0 -0.3127621462
