# DDEC6 charges by PACMAN v1.1 (https://github.com/mtap-research/PACMAN-charge/)
data_TAFBEJ_ASR_pacman
_symmetry_space_group_name_H-M   'P 1'
_cell_length_a   17.12400000
_cell_length_b   17.12400000
_cell_length_c   5.39210000
_cell_angle_alpha   90.00000000
_cell_angle_beta   90.00000000
_cell_angle_gamma   90.00000000
_symmetry_Int_Tables_number   1
_chemical_formula_structural   CdH14C12(NO)4
_chemical_formula_sum   'Cd4 H56 C48 N16 O16'
_cell_volume   1581.13290253
_cell_formula_units_Z   4
loop_
 _symmetry_equiv_pos_site_id
 _symmetry_equiv_pos_as_xyz
  1  'x, y, z'
loop_
 _atom_site_type_symbol
 _atom_site_label
 _atom_site_symmetry_multiplicity
 _atom_site_fract_x
 _atom_site_fract_y
 _atom_site_fract_z
 _atom_site_occupancy
 _atom_site_charge
Cd  Cd1  1  0.38470000  0.38470000  0.00000000  1.0 0.7572985104
Cd  Cd2  1  0.61530000  0.61530000  0.00000000  1.0 0.7572985104
Cd  Cd3  1  0.88470000  0.11530000  0.00000000  1.0 0.7504851631
Cd  Cd4  1  0.11530000  0.88470000  0.00000000  1.0 0.7504851631
H  H1  1  0.44820000  0.20250000  0.10580000  1.0 0.1025755069
H  H2  1  0.55180000  0.79750000  0.10580000  1.0 0.1025755069
H  H3  1  0.70250000  0.05180000  0.10580000  1.0 0.1025755069
H  H4  1  0.29750000  0.94820000  0.10580000  1.0 0.1025755069
H  H5  1  0.94820000  0.29750000  0.89420000  1.0 0.1025755069
H  H6  1  0.05180000  0.70250000  0.89420000  1.0 0.1025755069
H  H7  1  0.20250000  0.44820000  0.89420000  1.0 0.1025755069
H  H8  1  0.79750000  0.55180000  0.89420000  1.0 0.1025755069
H  H9  1  0.41100000  0.10840000  0.42080000  1.0 0.1199390887
H  H10  1  0.58900000  0.89160000  0.42080000  1.0 0.1199390887
H  H11  1  0.60840000  0.08900000  0.42080000  1.0 0.1199390887
H  H12  1  0.39160000  0.91100000  0.42080000  1.0 0.1199390887
H  H13  1  0.91100000  0.39160000  0.57920000  1.0 0.1199390887
H  H14  1  0.08900000  0.60840000  0.57920000  1.0 0.1199390887
H  H15  1  0.10840000  0.41100000  0.57920000  1.0 0.1199390887
H  H16  1  0.89160000  0.58900000  0.57920000  1.0 0.1199390887
H  H17  1  0.32350000  0.13850000  0.86990000  1.0 0.0927208829
H  H18  1  0.67650000  0.86150000  0.86990000  1.0 0.0927208829
H  H19  1  0.63850000  0.17650000  0.86990000  1.0 0.0927208829
H  H20  1  0.36150000  0.82350000  0.86990000  1.0 0.0927208829
H  H21  1  0.82350000  0.36150000  0.13010000  1.0 0.0927208829
H  H22  1  0.17650000  0.63850000  0.13010000  1.0 0.0927208829
H  H23  1  0.13850000  0.32350000  0.13010000  1.0 0.0927208829
H  H24  1  0.86150000  0.67650000  0.13010000  1.0 0.0927208829
H  H25  1  0.25030000  0.19010000  0.80570000  1.0 0.0927208829
H  H26  1  0.74970000  0.80990000  0.80570000  1.0 0.0927208829
H  H27  1  0.69010000  0.24970000  0.80570000  1.0 0.0927208829
H  H28  1  0.30990000  0.75030000  0.80570000  1.0 0.0927208829
H  H29  1  0.75030000  0.30990000  0.19430000  1.0 0.0927208829
H  H30  1  0.24970000  0.69010000  0.19430000  1.0 0.0927208829
H  H31  1  0.19010000  0.25030000  0.19430000  1.0 0.0927208829
H  H32  1  0.80990000  0.74970000  0.19430000  1.0 0.0927208829
H  H33  1  0.28650000  0.04750000  0.56580000  1.0 0.1199390887
H  H34  1  0.71350000  0.95250000  0.56580000  1.0 0.1199390887
H  H35  1  0.54750000  0.21350000  0.56580000  1.0 0.1199390887
H  H36  1  0.45250000  0.78650000  0.56580000  1.0 0.1199390887
H  H37  1  0.78650000  0.45250000  0.43420000  1.0 0.1199390887
H  H38  1  0.21350000  0.54750000  0.43420000  1.0 0.1199390887
H  H39  1  0.04750000  0.28650000  0.43420000  1.0 0.1199390887
H  H40  1  0.95250000  0.71350000  0.43420000  1.0 0.1199390887
H  H41  1  0.21440000  0.09930000  0.49560000  1.0 0.1274642757
H  H42  1  0.78560000  0.90070000  0.49560000  1.0 0.1274642757
H  H43  1  0.59930000  0.28560000  0.49560000  1.0 0.1274642757
H  H44  1  0.40070000  0.71440000  0.49560000  1.0 0.1274642757
H  H45  1  0.71440000  0.40070000  0.50440000  1.0 0.1274642757
H  H46  1  0.28560000  0.59930000  0.50440000  1.0 0.1274642757
H  H47  1  0.09930000  0.21440000  0.50440000  1.0 0.1274642757
H  H48  1  0.90070000  0.78560000  0.50440000  1.0 0.1274642757
H  H49  1  0.16280000  0.04190000  0.11450000  1.0 0.2909891381
H  H50  1  0.83720000  0.95810000  0.11450000  1.0 0.2909891381
H  H51  1  0.54190000  0.33720000  0.11450000  1.0 0.2909891381
H  H52  1  0.45810000  0.66280000  0.11450000  1.0 0.2909891381
H  H53  1  0.66280000  0.45810000  0.88550000  1.0 0.2909891381
H  H54  1  0.33720000  0.54190000  0.88550000  1.0 0.2909891381
H  H55  1  0.04190000  0.16280000  0.88550000  1.0 0.2909891381
H  H56  1  0.95810000  0.83720000  0.88550000  1.0 0.2909891381
C  C1  1  0.32068000  0.26450000  0.44840000  1.0 0.1539578623
C  C2  1  0.67932000  0.73550000  0.44840000  1.0 0.1539578623
C  C3  1  0.76450000  0.17932000  0.44840000  1.0 0.1539578623
C  C4  1  0.23550000  0.82068000  0.44840000  1.0 0.1539578623
C  C5  1  0.82068000  0.23550000  0.55160000  1.0 0.1539578623
C  C6  1  0.17932000  0.76450000  0.55160000  1.0 0.1539578623
C  C7  1  0.26450000  0.32068000  0.55160000  1.0 0.1539578623
C  C8  1  0.73550000  0.67932000  0.55160000  1.0 0.1539578623
C  C9  1  0.41040000  0.21040000  0.22710000  1.0 -0.077075245
C  C10  1  0.58960000  0.78960000  0.22710000  1.0 -0.077075245
C  C11  1  0.71040000  0.08960000  0.22710000  1.0 -0.077075245
C  C12  1  0.28960000  0.91040000  0.22710000  1.0 -0.077075245
C  C13  1  0.91040000  0.28960000  0.77290000  1.0 -0.077075245
C  C14  1  0.08960000  0.71040000  0.77290000  1.0 -0.077075245
C  C15  1  0.21040000  0.41040000  0.77290000  1.0 -0.077075245
C  C16  1  0.78960000  0.58960000  0.77290000  1.0 -0.077075245
C  C17  1  0.39010000  0.15810000  0.39950000  1.0 -0.1287589949
C  C18  1  0.60990000  0.84190000  0.39950000  1.0 -0.1287589949
C  C19  1  0.65810000  0.10990000  0.39950000  1.0 -0.1287589949
C  C20  1  0.34190000  0.89010000  0.39950000  1.0 -0.1287589949
C  C21  1  0.89010000  0.34190000  0.60050000  1.0 -0.1287589949
C  C22  1  0.10990000  0.65810000  0.60050000  1.0 -0.1287589949
C  C23  1  0.15810000  0.39010000  0.60050000  1.0 -0.1287589949
C  C24  1  0.84190000  0.60990000  0.60050000  1.0 -0.1287589949
C  C25  1  0.28840000  0.15410000  0.73770000  1.0 -0.0986444243
C  C26  1  0.71160000  0.84590000  0.73770000  1.0 -0.0986444243
C  C27  1  0.65410000  0.21160000  0.73770000  1.0 -0.0986444243
C  C28  1  0.34590000  0.78840000  0.73770000  1.0 -0.0986444243
C  C29  1  0.78840000  0.34590000  0.26230000  1.0 -0.0986444243
C  C30  1  0.21160000  0.65410000  0.26230000  1.0 -0.0986444243
C  C31  1  0.15410000  0.28840000  0.26230000  1.0 -0.0986444243
C  C32  1  0.84590000  0.71160000  0.26230000  1.0 -0.0986444243
C  C33  1  0.24750000  0.08290000  0.63200000  1.0 -0.3903606424
C  C34  1  0.75250000  0.91710000  0.63200000  1.0 -0.3903606424
C  C35  1  0.58290000  0.25250000  0.63200000  1.0 -0.3903606424
C  C36  1  0.41710000  0.74750000  0.63200000  1.0 -0.3903606424
C  C37  1  0.74750000  0.41710000  0.36800000  1.0 -0.3903606424
C  C38  1  0.25250000  0.58290000  0.36800000  1.0 -0.3903606424
C  C39  1  0.08290000  0.24750000  0.36800000  1.0 -0.3903606424
C  C40  1  0.91710000  0.75250000  0.36800000  1.0 -0.3903606424
C  C41  1  0.19870000  0.04000000  0.81740000  1.0 0.5431950899
C  C42  1  0.80130000  0.96000000  0.81740000  1.0 0.5451943091
C  C43  1  0.54000000  0.30130000  0.81740000  1.0 0.5431950899
C  C44  1  0.46000000  0.69870000  0.81740000  1.0 0.5431950899
C  C45  1  0.69870000  0.46000000  0.18260000  1.0 0.5431950899
C  C46  1  0.30130000  0.54000000  0.18260000  1.0 0.5431950899
C  C47  1  0.04000000  0.19870000  0.18260000  1.0 0.5431950899
C  C48  1  0.96000000  0.80130000  0.18260000  1.0 0.5451943091
N  N1  1  0.36691000  0.27801000  0.25520000  1.0 -0.3502235935
N  N2  1  0.63309000  0.72199000  0.25520000  1.0 -0.3502235935
N  N3  1  0.77801000  0.13309000  0.25520000  1.0 -0.3502235935
N  N4  1  0.22199000  0.86691000  0.25520000  1.0 -0.3502235935
N  N5  1  0.86691000  0.22199000  0.74480000  1.0 -0.3502235935
N  N6  1  0.13309000  0.77801000  0.74480000  1.0 -0.3502235935
N  N7  1  0.27801000  0.36691000  0.74480000  1.0 -0.3502235935
N  N8  1  0.72199000  0.63309000  0.74480000  1.0 -0.3502235935
N  N9  1  0.33264000  0.19234000  0.53860000  1.0 0.0095090381
N  N10  1  0.66736000  0.80766000  0.53860000  1.0 0.0095090381
N  N11  1  0.69234000  0.16736000  0.53860000  1.0 0.0095090381
N  N12  1  0.30766000  0.83264000  0.53860000  1.0 0.0095090381
N  N13  1  0.83264000  0.30766000  0.46140000  1.0 0.0095090381
N  N14  1  0.16736000  0.69234000  0.46140000  1.0 0.0095090381
N  N15  1  0.19234000  0.33264000  0.46140000  1.0 0.0095090381
N  N16  1  0.80766000  0.66736000  0.46140000  1.0 0.0095090381
O  O1  1  0.16960000  0.97650000  0.74910000  1.0 -0.5486180075
O  O2  1  0.83040000  0.02350000  0.74910000  1.0 -0.5486180075
O  O3  1  0.47650000  0.33040000  0.74910000  1.0 -0.5486180075
O  O4  1  0.52350000  0.66960000  0.74910000  1.0 -0.5486180075
O  O5  1  0.66960000  0.52350000  0.25090000  1.0 -0.5486180075
O  O6  1  0.33040000  0.47650000  0.25090000  1.0 -0.5486180075
O  O7  1  0.97650000  0.16960000  0.25090000  1.0 -0.5486180075
O  O8  1  0.02350000  0.83040000  0.25090000  1.0 -0.5486180075
O  O9  1  0.19040000  0.07010000  0.02870000  1.0 -0.4367756696
O  O10  1  0.80960000  0.92990000  0.02870000  1.0 -0.4367756696
O  O11  1  0.57010000  0.30960000  0.02870000  1.0 -0.4367756696
O  O12  1  0.42990000  0.69040000  0.02870000  1.0 -0.4367756696
O  O13  1  0.69040000  0.42990000  0.97130000  1.0 -0.4367756696
O  O14  1  0.30960000  0.57010000  0.97130000  1.0 -0.4367756696
O  O15  1  0.07010000  0.19040000  0.97130000  1.0 -0.4367756696
O  O16  1  0.92990000  0.80960000  0.97130000  1.0 -0.4367756696
