# DDEC6 charges by PACMAN v1.1 (https://github.com/mtap-research/PACMAN-charge/)
data_TAGTED_FSR_pacman
_symmetry_space_group_name_H-M   'P 1'
_cell_length_a   13.23890000
_cell_length_b   13.23890000
_cell_length_c   15.56370000
_cell_angle_alpha   86.76160000
_cell_angle_beta   93.23840000
_cell_angle_gamma   118.90600000
_symmetry_Int_Tables_number   1
_chemical_formula_structural   Mg3C32S3(NO5)3
_chemical_formula_sum   'Mg6 C64 S6 N6 O30'
_cell_volume   2382.83396645
_cell_formula_units_Z   2
loop_
 _symmetry_equiv_pos_site_id
 _symmetry_equiv_pos_as_xyz
  1  'x, y, z'
loop_
 _atom_site_type_symbol
 _atom_site_label
 _atom_site_symmetry_multiplicity
 _atom_site_fract_x
 _atom_site_fract_y
 _atom_site_fract_z
 _atom_site_occupancy
 _atom_site_charge
Mg  Mg1  1  0.06077000  0.55707000  0.25496000  1.0 1.3644963416
Mg  Mg2  1  0.55707000  0.06077000  0.74504000  1.0 1.3644963416
Mg  Mg3  1  0.18281000  0.87481000  0.23796000  1.0 1.371588281
Mg  Mg4  1  0.87481000  0.18281000  0.76204000  1.0 1.371588281
Mg  Mg5  1  0.86699000  0.67859000  0.26594000  1.0 1.3800682934
Mg  Mg6  1  0.67859000  0.86699000  0.73406000  1.0 1.3800682934
C  C1  1  0.05610000  0.33590000  0.22700000  1.0 0.5077992293
C  C2  1  0.33590000  0.05610000  0.77300000  1.0 0.5077992293
C  C3  1  0.43530000  0.18810000  0.40540000  1.0 -0.2753477481
C  C4  1  0.18810000  0.43530000  0.59460000  1.0 -0.2753477481
C  C5  1  0.05370000  0.32970000  0.11660000  1.0 -0.2511480985
C  C6  1  0.32970000  0.05370000  0.88340000  1.0 -0.2511480985
C  C7  1  0.72120000  0.23680000  0.24570000  1.0 -0.3064947513
C  C8  1  0.23680000  0.72120000  0.75430000  1.0 -0.3064947513
C  C9  1  0.50000000  0.13800000  0.37100000  1.0 0.3006191167
C  C10  1  0.13800000  0.50000000  0.62900000  1.0 0.3006191167
C  C11  1  0.34160000  0.64060000  0.04180000  1.0 0.0582507184
C  C12  1  0.64060000  0.34160000  0.95820000  1.0 0.0582507184
C  C13  1  0.61520000  0.26600000  0.24250000  1.0 0.3407460364
C  C14  1  0.26600000  0.61520000  0.75750000  1.0 0.3407460364
C  C15  1  0.86810000  0.30170000  0.53170000  1.0 0.036498455
C  C16  1  0.30170000  0.86810000  0.46830000  1.0 0.036498455
C  C17  1  0.43440000  0.10000000  0.12910000  1.0 -0.1797273619
C  C18  1  0.10000000  0.43440000  0.87090000  1.0 -0.1797273619
C  C19  1  0.10220000  0.06860000  0.46350000  1.0 0.0206041091
C  C20  1  0.06860000  0.10220000  0.53650000  1.0 0.0144265449
C  C21  1  0.84600000  0.80340000  0.03570000  1.0 0.0206041091
C  C22  1  0.80340000  0.84600000  0.96430000  1.0 0.0206041091
C  C23  1  0.42340000  0.08240000  0.22950000  1.0 0.5320038112
C  C24  1  0.08240000  0.42340000  0.77050000  1.0 0.5320038112
C  C25  1  0.02510000  0.95990000  0.44020000  1.0 -0.1203801619
C  C26  1  0.95990000  0.02510000  0.55980000  1.0 -0.1203801619
C  C27  1  0.45030000  0.78630000  0.94190000  1.0 -0.1309229372
C  C28  1  0.78630000  0.45030000  0.05810000  1.0 -0.1309229372
C  C29  1  0.42090000  0.67750000  0.96870000  1.0 0.0696324451
C  C30  1  0.67750000  0.42090000  0.03130000  1.0 0.0696324451
C  C31  1  0.31700000  0.72340000  0.06440000  1.0 -0.1355058936
C  C32  1  0.72340000  0.31700000  0.93560000  1.0 -0.1355058936
C  C33  1  0.03370000  0.89110000  0.37030000  1.0 0.6631940516
C  C34  1  0.89110000  0.03370000  0.62970000  1.0 0.6631940516
C  C35  1  0.95520000  0.88440000  0.06140000  1.0 -0.1203801619
C  C36  1  0.88440000  0.95520000  0.93860000  1.0 -0.1203801619
C  C37  1  0.52160000  0.85180000  0.86780000  1.0 0.6631940516
C  C38  1  0.85180000  0.52160000  0.13220000  1.0 0.6631940516
C  C39  1  0.03230000  0.87450000  0.13180000  1.0 0.6320333394
C  C40  1  0.87450000  0.03230000  0.86820000  1.0 0.6320333394
C  C41  1  0.90840000  0.38460000  0.46290000  1.0 0.036498455
C  C42  1  0.38460000  0.90840000  0.53710000  1.0 0.036498455
C  C43  1  0.24070000  0.71530000  0.13330000  1.0 0.6631940516
C  C44  1  0.71530000  0.24070000  0.86670000  1.0 0.6631940516
C  C45  1  0.85130000  0.51670000  0.37350000  1.0 0.6320333394
C  C46  1  0.51670000  0.85130000  0.62650000  1.0 0.6320333394
C  C47  1  0.69350000  0.20310000  0.62910000  1.0 0.6320333394
C  C48  1  0.20310000  0.69350000  0.37090000  1.0 0.6320333394
C  C49  1  0.76310000  0.28290000  0.56060000  1.0 -0.1309229372
C  C50  1  0.28290000  0.76310000  0.43940000  1.0 -0.1309229372
C  C51  1  0.83690000  0.42850000  0.44060000  1.0 -0.1203801619
C  C52  1  0.42850000  0.83690000  0.55940000  1.0 -0.1203801619
C  C53  1  0.67260000  0.74460000  0.28060000  1.0 0.5599633666
C  C54  1  0.74460000  0.67260000  0.71940000  1.0 0.5599633666
C  C55  1  0.26820000  0.26980000  0.18700000  1.0 -0.2375779239
C  C56  1  0.26980000  0.26820000  0.81300000  1.0 -0.2375779239
C  C57  1  0.15600000  0.19400000  0.21050000  1.0 0.2113408248
C  C58  1  0.19400000  0.15600000  0.78950000  1.0 0.2113408248
C  C59  1  0.63540000  0.69120000  0.37600000  1.0 -0.1588851648
C  C60  1  0.69120000  0.63540000  0.62400000  1.0 -0.1548939732
C  C61  1  0.58970000  0.88830000  0.33620000  1.0 -0.0178594015
C  C62  1  0.88830000  0.58970000  0.66380000  1.0 -0.0178594015
C  C63  1  0.50000000  0.81000000  0.27530000  1.0 0.0696324451
C  C64  1  0.81000000  0.50000000  0.72470000  1.0 0.0696324451
S  S1  1  0.38499000  0.84543000  0.00049000  1.0 0.2164465698
S  S2  1  0.84543000  0.38499000  0.99951000  1.0 0.2164465698
S  S3  1  0.90451000  0.90451000  0.50000000  1.0 0.2113408248
S  S4  1  0.00717000  0.00717000  0.00000000  1.0 0.2113408248
S  S5  1  0.71680000  0.36790000  0.50302000  1.0 0.2287449973
S  S6  1  0.36790000  0.71680000  0.49698000  1.0 0.2287449973
N  N1  1  0.51050000  0.16150000  0.27590000  1.0 -0.1743998316
N  N2  1  0.16150000  0.51050000  0.72410000  1.0 -0.1743998316
N  N3  1  0.62720000  0.79280000  0.26390000  1.0 -0.0991134396
N  N4  1  0.79280000  0.62720000  0.73610000  1.0 -0.0991134396
N  N5  1  0.08240000  0.26560000  0.23540000  1.0 -0.1588851648
N  N6  1  0.26560000  0.08240000  0.76460000  1.0 -0.1588851648
O  O1  1  0.94810000  0.79550000  0.35910000  1.0 -0.6248862234
O  O2  1  0.79550000  0.94810000  0.64090000  1.0 -0.625380942
O  O3  1  0.23390000  0.80410000  0.14560000  1.0 -0.6019121893
O  O4  1  0.80410000  0.23390000  0.85440000  1.0 -0.6019121893
O  O5  1  0.74200000  0.16340000  0.68320000  1.0 -0.6879714814
O  O6  1  0.16340000  0.74200000  0.31680000  1.0 -0.6879714814
O  O7  1  0.19380000  0.62240000  0.17500000  1.0 -0.572415599
O  O8  1  0.62240000  0.19380000  0.82500000  1.0 -0.572415599
O  O9  1  0.12560000  0.93860000  0.33010000  1.0 -0.6065666613
O  O10  1  0.93860000  0.12560000  0.66990000  1.0 -0.6065666613
O  O11  1  0.56320000  0.80000000  0.82950000  1.0 -0.6019121893
O  O12  1  0.80000000  0.56320000  0.17050000  1.0 -0.6019121893
O  O13  1  0.99607000  0.78793000  0.18350000  1.0 -0.6879714814
O  O14  1  0.78793000  0.99607000  0.81650000  1.0 -0.6879714814
O  O15  1  0.13360000  0.95420000  0.13630000  1.0 -0.5185537127
O  O16  1  0.95420000  0.13360000  0.86370000  1.0 -0.5185537127
O  O17  1  0.53260000  0.94900000  0.84880000  1.0 -0.6019121893
O  O18  1  0.94900000  0.53260000  0.15120000  1.0 -0.6019121893
O  O19  1  0.77540000  0.54920000  0.36400000  1.0 -0.5283338514
O  O20  1  0.54920000  0.77540000  0.63600000  1.0 -0.5283338514
O  O21  1  0.58910000  0.17270000  0.63240000  1.0 -0.5185537127
O  O22  1  0.17270000  0.58910000  0.36760000  1.0 -0.5185537127
O  O23  1  0.93670000  0.55810000  0.32650000  1.0 -0.6590277044
O  O24  1  0.55810000  0.93670000  0.67350000  1.0 -0.6590277044
O  O25  1  0.03240000  0.39440000  0.25830000  1.0 -0.4783083883
O  O26  1  0.39440000  0.03240000  0.74170000  1.0 -0.4783083883
O  O27  1  0.34430000  0.99950000  0.26050000  1.0 -0.5083968727
O  O28  1  0.99950000  0.34430000  0.73950000  1.0 -0.5083968727
O  O29  1  0.74690000  0.72930000  0.24360000  1.0 -0.6065666613
O  O30  1  0.72930000  0.74690000  0.75640000  1.0 -0.6065666613
