# DDEC6 charges by PACMAN v1.1 (https://github.com/mtap-research/PACMAN-charge/)
data_TAJTOQ01_FSR_pacman
_symmetry_space_group_name_H-M   'P 1'
_cell_length_a   19.95350000
_cell_length_b   17.61240000
_cell_length_c   11.23010000
_cell_angle_alpha   84.46280000
_cell_angle_beta   61.46850000
_cell_angle_gamma   34.06870000
_symmetry_Int_Tables_number   1
_chemical_formula_structural   ScH8(C7O3)2
_chemical_formula_sum   'Sc4 H32 C56 O24'
_cell_volume   1542.26624402
_cell_formula_units_Z   4
loop_
 _symmetry_equiv_pos_site_id
 _symmetry_equiv_pos_as_xyz
  1  'x, y, z'
loop_
 _atom_site_type_symbol
 _atom_site_label
 _atom_site_symmetry_multiplicity
 _atom_site_fract_x
 _atom_site_fract_y
 _atom_site_fract_z
 _atom_site_occupancy
 _atom_site_charge
Sc  Sc1  1  0.26078000  0.26078000  0.73922000  1.0 1.8131175243
Sc  Sc2  1  0.73922000  0.73922000  0.26078000  1.0 1.8131175243
Sc  Sc3  1  0.98922000  0.98922000  0.51078000  1.0 1.8131175243
Sc  Sc4  1  0.51078000  0.51078000  0.98922000  1.0 1.8131175243
H  H1  1  0.41630000  0.85030000  0.37910000  1.0 0.120449322
H  H2  1  0.35430000  0.37910000  0.85030000  1.0 0.120449322
H  H3  1  0.37910000  0.35430000  0.41630000  1.0 0.120449322
H  H4  1  0.85030000  0.41630000  0.35430000  1.0 0.120449322
H  H5  1  0.83370000  0.39970000  0.87090000  1.0 0.120449322
H  H6  1  0.89570000  0.87090000  0.39970000  1.0 0.120449322
H  H7  1  0.87090000  0.89570000  0.83370000  1.0 0.120449322
H  H8  1  0.39970000  0.83370000  0.89570000  1.0 0.120449322
H  H9  1  0.21950000  0.93790000  0.45970000  1.0 0.1130119429
H  H10  1  0.38290000  0.45970000  0.93790000  1.0 0.1130119429
H  H11  1  0.45970000  0.38290000  0.21950000  1.0 0.1130119429
H  H12  1  0.93790000  0.21950000  0.38290000  1.0 0.1130119429
H  H13  1  0.03050000  0.31210000  0.79030000  1.0 0.1130119429
H  H14  1  0.86710000  0.79030000  0.31210000  1.0 0.1130119429
H  H15  1  0.79030000  0.86710000  0.03050000  1.0 0.1130119429
H  H16  1  0.31210000  0.03050000  0.86710000  1.0 0.1130119429
H  H17  1  0.51900000  0.03780000  0.86820000  1.0 0.120449322
H  H18  1  0.57500000  0.86820000  0.03780000  1.0 0.120449322
H  H19  1  0.86820000  0.57500000  0.51900000  1.0 0.120449322
H  H20  1  0.03780000  0.51900000  0.57500000  1.0 0.120449322
H  H21  1  0.73100000  0.21220000  0.38180000  1.0 0.120449322
H  H22  1  0.67500000  0.38180000  0.21220000  1.0 0.120449322
H  H23  1  0.38180000  0.67500000  0.73100000  1.0 0.120449322
H  H24  1  0.21220000  0.73100000  0.67500000  1.0 0.120449322
H  H25  1  0.63170000  0.92510000  0.98070000  1.0 0.1130119429
H  H26  1  0.46250000  0.98070000  0.92510000  1.0 0.1130119429
H  H27  1  0.98070000  0.46250000  0.63170000  1.0 0.1130119429
H  H28  1  0.92510000  0.63170000  0.46250000  1.0 0.1130119429
H  H29  1  0.61830000  0.32490000  0.26930000  1.0 0.1130119429
H  H30  1  0.78750000  0.26930000  0.32490000  1.0 0.1130119429
H  H31  1  0.26930000  0.78750000  0.61830000  1.0 0.1130119429
H  H32  1  0.32490000  0.61830000  0.78750000  1.0 0.1130119429
C  C1  1  0.36410000  0.02050000  0.52550000  1.0 0.6355770581
C  C2  1  0.08990000  0.52550000  0.02050000  1.0 0.6355770581
C  C3  1  0.52550000  0.08990000  0.36410000  1.0 0.6355770581
C  C4  1  0.02050000  0.36410000  0.08990000  1.0 0.6355770581
C  C5  1  0.88590000  0.22950000  0.72450000  1.0 0.6355770581
C  C6  1  0.16010000  0.72450000  0.22950000  1.0 0.6355770581
C  C7  1  0.72450000  0.16010000  0.88590000  1.0 0.6355770581
C  C8  1  0.22950000  0.88590000  0.16010000  1.0 0.6355770581
C  C9  1  0.24220000  0.07340000  0.57680000  1.0 -0.0541323412
C  C10  1  0.10760000  0.57680000  0.07340000  1.0 -0.0541323412
C  C11  1  0.57680000  0.10760000  0.24220000  1.0 -0.0541323412
C  C12  1  0.07340000  0.24220000  0.10760000  1.0 -0.0541323412
C  C13  1  0.00780000  0.17660000  0.67320000  1.0 -0.0541323412
C  C14  1  0.14240000  0.67320000  0.17660000  1.0 -0.0541323412
C  C15  1  0.67320000  0.14240000  0.00780000  1.0 -0.0541323412
C  C16  1  0.17660000  0.00780000  0.14240000  1.0 -0.0541323412
C  C17  1  0.29810000  0.96210000  0.47910000  1.0 -0.103587
C  C18  1  0.26070000  0.47910000  0.96210000  1.0 -0.103587
C  C19  1  0.47910000  0.26070000  0.29810000  1.0 -0.103587
C  C20  1  0.96210000  0.29810000  0.26070000  1.0 -0.103587
C  C21  1  0.95190000  0.28790000  0.77090000  1.0 -0.103587
C  C22  1  0.98930000  0.77090000  0.28790000  1.0 -0.103587
C  C23  1  0.77090000  0.98930000  0.95190000  1.0 -0.103587
C  C24  1  0.28790000  0.95190000  0.98930000  1.0 -0.103587
C  C25  1  0.18060000  0.01460000  0.52760000  1.0 -0.108588572
C  C26  1  0.27720000  0.52760000  0.01460000  1.0 -0.108588572
C  C27  1  0.52760000  0.27720000  0.18060000  1.0 -0.108588572
C  C28  1  0.01460000  0.18060000  0.27720000  1.0 -0.108588572
C  C29  1  0.06940000  0.23540000  0.72240000  1.0 -0.108588572
C  C30  1  0.97280000  0.72240000  0.23540000  1.0 -0.108588572
C  C31  1  0.72240000  0.97280000  0.06940000  1.0 -0.108588572
C  C32  1  0.23540000  0.06940000  0.97280000  1.0 -0.108588572
C  C33  1  0.60830000  0.89170000  0.60830000  1.0 0.6105097287
C  C34  1  0.89170000  0.60830000  0.89170000  1.0 0.6105097287
C  C35  1  0.64170000  0.35830000  0.64170000  1.0 0.6105097287
C  C36  1  0.35830000  0.64170000  0.35830000  1.0 0.6105097287
C  C37  1  0.68280000  0.81720000  0.68280000  1.0 -0.0246523547
C  C38  1  0.81720000  0.68280000  0.81720000  1.0 -0.0246523547
C  C39  1  0.56720000  0.43280000  0.56720000  1.0 -0.0246523547
C  C40  1  0.43280000  0.56720000  0.43280000  1.0 -0.0246523547
C  C41  1  0.60550000  0.92370000  0.82710000  1.0 -0.0643842032
C  C42  1  0.64370000  0.82710000  0.92370000  1.0 -0.0643842032
C  C43  1  0.82710000  0.64370000  0.60550000  1.0 -0.0643842032
C  C44  1  0.92370000  0.60550000  0.64370000  1.0 -0.0643842032
C  C45  1  0.64450000  0.32630000  0.42290000  1.0 -0.0643842032
C  C46  1  0.60630000  0.42290000  0.32630000  1.0 -0.0643842032
C  C47  1  0.42290000  0.60630000  0.64450000  1.0 -0.0643842032
C  C48  1  0.32630000  0.64450000  0.60630000  1.0 -0.0643842032
C  C49  1  0.67290000  0.85630000  0.89430000  1.0 -0.0655673689
C  C50  1  0.57650000  0.89430000  0.85630000  1.0 -0.0655673689
C  C51  1  0.89430000  0.57650000  0.67290000  1.0 -0.0655673689
C  C52  1  0.85630000  0.67290000  0.57650000  1.0 -0.0655673689
C  C53  1  0.57710000  0.39370000  0.35570000  1.0 -0.0643842032
C  C54  1  0.67350000  0.35570000  0.39370000  1.0 -0.0643842032
C  C55  1  0.35570000  0.67350000  0.57710000  1.0 -0.0643842032
C  C56  1  0.39370000  0.57710000  0.67350000  1.0 -0.0655673689
O  O1  1  0.30900000  0.12700000  0.61140000  1.0 -0.6642381347
O  O2  1  0.95260000  0.61140000  0.12700000  1.0 -0.6642381347
O  O3  1  0.61140000  0.95260000  0.30900000  1.0 -0.6642381347
O  O4  1  0.12700000  0.30900000  0.95260000  1.0 -0.6642381347
O  O5  1  0.94100000  0.12300000  0.63860000  1.0 -0.6642381347
O  O6  1  0.29740000  0.63860000  0.12300000  1.0 -0.6642381347
O  O7  1  0.63860000  0.29740000  0.94100000  1.0 -0.6642381347
O  O8  1  0.12300000  0.94100000  0.29740000  1.0 -0.6642381347
O  O9  1  0.52180000  0.86900000  0.39500000  1.0 -0.6262552536
O  O10  1  0.21420000  0.39500000  0.86900000  1.0 -0.6262552536
O  O11  1  0.39500000  0.21420000  0.52180000  1.0 -0.6262552536
O  O12  1  0.86900000  0.52180000  0.21420000  1.0 -0.6262552536
O  O13  1  0.72820000  0.38100000  0.85500000  1.0 -0.6262552536
O  O14  1  0.03580000  0.85500000  0.38100000  1.0 -0.6262552536
O  O15  1  0.85500000  0.03580000  0.72820000  1.0 -0.6262552536
O  O16  1  0.38100000  0.72820000  0.03580000  1.0 -0.6262552536
O  O17  1  0.47180000  0.05080000  0.69300000  1.0 -0.6156778506
O  O18  1  0.78440000  0.69300000  0.05080000  1.0 -0.6156778506
O  O19  1  0.69300000  0.78440000  0.47180000  1.0 -0.6156778506
O  O20  1  0.05080000  0.47180000  0.78440000  1.0 -0.6156778506
O  O21  1  0.77820000  0.19920000  0.55700000  1.0 -0.6156778506
O  O22  1  0.46560000  0.55700000  0.19920000  1.0 -0.6156778506
O  O23  1  0.55700000  0.46560000  0.77820000  1.0 -0.6156778506
O  O24  1  0.19920000  0.77820000  0.46560000  1.0 -0.6156778506
