# DDEC6 charges by PACMAN v1.1 (https://github.com/mtap-research/PACMAN-charge/)
data_TAJVOS01_FSR_pacman
_symmetry_space_group_name_H-M   'P 1'
_cell_length_a   19.96470000
_cell_length_b   17.58530000
_cell_length_c   11.27570000
_cell_angle_alpha   84.53090000
_cell_angle_beta   61.26020000
_cell_angle_gamma   34.20900000
_symmetry_Int_Tables_number   1
_chemical_formula_structural   ScH8(C7O3)2
_chemical_formula_sum   'Sc4 H32 C56 O24'
_cell_volume   1541.35618651
_cell_formula_units_Z   4
loop_
 _symmetry_equiv_pos_site_id
 _symmetry_equiv_pos_as_xyz
  1  'x, y, z'
loop_
 _atom_site_type_symbol
 _atom_site_label
 _atom_site_symmetry_multiplicity
 _atom_site_fract_x
 _atom_site_fract_y
 _atom_site_fract_z
 _atom_site_occupancy
 _atom_site_charge
Sc  Sc1  1  0.26108000  0.26108000  0.73892000  1.0 1.8039388853
Sc  Sc2  1  0.73892000  0.73892000  0.26108000  1.0 1.8039388853
Sc  Sc3  1  0.98892000  0.98892000  0.51108000  1.0 1.8039388853
Sc  Sc4  1  0.51108000  0.51108000  0.98892000  1.0 1.8039388853
H  H1  1  0.41820000  0.84580000  0.38680000  1.0 0.1246225285
H  H2  1  0.34920000  0.38680000  0.84580000  1.0 0.1246225285
H  H3  1  0.38680000  0.34920000  0.41820000  1.0 0.1246225285
H  H4  1  0.84580000  0.41820000  0.34920000  1.0 0.1246225285
H  H5  1  0.83180000  0.40420000  0.86320000  1.0 0.1246225285
H  H6  1  0.90080000  0.86320000  0.40420000  1.0 0.1246225285
H  H7  1  0.86320000  0.90080000  0.83180000  1.0 0.1246225285
H  H8  1  0.40420000  0.83180000  0.90080000  1.0 0.1246225285
H  H9  1  0.22260000  0.93200000  0.46600000  1.0 0.1104539512
H  H10  1  0.37940000  0.46600000  0.93200000  1.0 0.1104539512
H  H11  1  0.46600000  0.37940000  0.22260000  1.0 0.1104539512
H  H12  1  0.93200000  0.22260000  0.37940000  1.0 0.1104539512
H  H13  1  0.02740000  0.31800000  0.78400000  1.0 0.1104539512
H  H14  1  0.87060000  0.78400000  0.31800000  1.0 0.1104539512
H  H15  1  0.78400000  0.87060000  0.02740000  1.0 0.1104539512
H  H16  1  0.31800000  0.02740000  0.87060000  1.0 0.1104539512
H  H17  1  0.59290000  0.99890000  0.79310000  1.0 0.1104539512
H  H18  1  0.61510000  0.79310000  0.99890000  1.0 0.1104539512
H  H19  1  0.79310000  0.61510000  0.59290000  1.0 0.1104539512
H  H20  1  0.99890000  0.59290000  0.61510000  1.0 0.1104539512
H  H21  1  0.65710000  0.25110000  0.45690000  1.0 0.1104539512
H  H22  1  0.63490000  0.45690000  0.25110000  1.0 0.1104539512
H  H23  1  0.45690000  0.63490000  0.65710000  1.0 0.1104539512
H  H24  1  0.25110000  0.65710000  0.63490000  1.0 0.1104539512
H  H25  1  0.70360000  0.88800000  0.90640000  1.0 0.0914175707
H  H26  1  0.50200000  0.90640000  0.88800000  1.0 0.0914175707
H  H27  1  0.90640000  0.50200000  0.70360000  1.0 0.0914175707
H  H28  1  0.88800000  0.70360000  0.50200000  1.0 0.0914175707
H  H29  1  0.54640000  0.36200000  0.34360000  1.0 0.0914175707
H  H30  1  0.74800000  0.34360000  0.36200000  1.0 0.0914175707
H  H31  1  0.34360000  0.74800000  0.54640000  1.0 0.0914175707
H  H32  1  0.36200000  0.54640000  0.74800000  1.0 0.0914175707
C  C1  1  0.36640000  0.01980000  0.52200000  1.0 0.6423994499
C  C2  1  0.09180000  0.52200000  0.01980000  1.0 0.6423994499
C  C3  1  0.52200000  0.09180000  0.36640000  1.0 0.6423994499
C  C4  1  0.01980000  0.36640000  0.09180000  1.0 0.6423994499
C  C5  1  0.88360000  0.23020000  0.72800000  1.0 0.6423994499
C  C6  1  0.15820000  0.72800000  0.23020000  1.0 0.6423994499
C  C7  1  0.72800000  0.15820000  0.88360000  1.0 0.6423994499
C  C8  1  0.23020000  0.88360000  0.15820000  1.0 0.6423994499
C  C9  1  0.24180000  0.07300000  0.57820000  1.0 -0.0365148065
C  C10  1  0.10700000  0.57820000  0.07300000  1.0 -0.0365148065
C  C11  1  0.57820000  0.10700000  0.24180000  1.0 -0.0365148065
C  C12  1  0.07300000  0.24180000  0.10700000  1.0 -0.0365148065
C  C13  1  0.00820000  0.17700000  0.67180000  1.0 -0.0365148065
C  C14  1  0.14300000  0.67180000  0.17700000  1.0 -0.0365148065
C  C15  1  0.67180000  0.14300000  0.00820000  1.0 -0.0365148065
C  C16  1  0.17700000  0.00820000  0.14300000  1.0 -0.0365148065
C  C17  1  0.29890000  0.95930000  0.48430000  1.0 -0.1110468162
C  C18  1  0.25750000  0.48430000  0.95930000  1.0 -0.1110468162
C  C19  1  0.48430000  0.25750000  0.29890000  1.0 -0.1110468162
C  C20  1  0.95930000  0.29890000  0.25750000  1.0 -0.1110468162
C  C21  1  0.95110000  0.29070000  0.76570000  1.0 -0.1110468162
C  C22  1  0.99250000  0.76570000  0.29070000  1.0 -0.1110468162
C  C23  1  0.76570000  0.99250000  0.95110000  1.0 -0.1110468162
C  C24  1  0.29070000  0.95110000  0.99250000  1.0 -0.1110468162
C  C25  1  0.18160000  0.01160000  0.53180000  1.0 -0.1110468162
C  C26  1  0.27500000  0.53180000  0.01160000  1.0 -0.1110468162
C  C27  1  0.53180000  0.27500000  0.18160000  1.0 -0.1110468162
C  C28  1  0.01160000  0.18160000  0.27500000  1.0 -0.1110468162
C  C29  1  0.06840000  0.23840000  0.71820000  1.0 -0.1110468162
C  C30  1  0.97500000  0.71820000  0.23840000  1.0 -0.1110468162
C  C31  1  0.71820000  0.97500000  0.06840000  1.0 -0.1110468162
C  C32  1  0.23840000  0.06840000  0.97500000  1.0 -0.1110468162
C  C33  1  0.61090000  0.88910000  0.61090000  1.0 0.6122114854
C  C34  1  0.88910000  0.61090000  0.88910000  1.0 0.6122114854
C  C35  1  0.63910000  0.36090000  0.63910000  1.0 0.6122114854
C  C36  1  0.36090000  0.63910000  0.36090000  1.0 0.6122114854
C  C37  1  0.68300000  0.81700000  0.68300000  1.0 -0.0084852601
C  C38  1  0.81700000  0.68300000  0.81700000  1.0 -0.0084852601
C  C39  1  0.56700000  0.43300000  0.56700000  1.0 -0.0084852601
C  C40  1  0.43300000  0.56700000  0.43300000  1.0 -0.0084852601
C  C41  1  0.64850000  0.90310000  0.78290000  1.0 -0.0704644766
C  C42  1  0.66550000  0.78290000  0.90310000  1.0 -0.0704644766
C  C43  1  0.78290000  0.66550000  0.64850000  1.0 -0.0704644766
C  C44  1  0.90310000  0.64850000  0.66550000  1.0 -0.0704644766
C  C45  1  0.60150000  0.34690000  0.46710000  1.0 -0.0704644766
C  C46  1  0.58450000  0.46710000  0.34690000  1.0 -0.0704644766
C  C47  1  0.46710000  0.58450000  0.60150000  1.0 -0.0704644766
C  C48  1  0.34690000  0.60150000  0.58450000  1.0 -0.0704644766
C  C49  1  0.71520000  0.83620000  0.84980000  1.0 -0.0704644766
C  C50  1  0.59880000  0.84980000  0.83620000  1.0 -0.0704644766
C  C51  1  0.84980000  0.59880000  0.71520000  1.0 -0.0704644766
C  C52  1  0.83620000  0.71520000  0.59880000  1.0 -0.0704644766
C  C53  1  0.53480000  0.41380000  0.40020000  1.0 -0.0704644766
C  C54  1  0.65120000  0.40020000  0.41380000  1.0 -0.0704644766
C  C55  1  0.40020000  0.65120000  0.53480000  1.0 -0.0704644766
C  C56  1  0.41380000  0.53480000  0.65120000  1.0 -0.0704644766
O  O1  1  0.30320000  0.13320000  0.61280000  1.0 -0.6722096009
O  O2  1  0.95080000  0.61280000  0.13320000  1.0 -0.6722096009
O  O3  1  0.61280000  0.95080000  0.30320000  1.0 -0.6722096009
O  O4  1  0.13320000  0.30320000  0.95080000  1.0 -0.6722096009
O  O5  1  0.94680000  0.11680000  0.63720000  1.0 -0.6722096009
O  O6  1  0.29920000  0.63720000  0.11680000  1.0 -0.6722096009
O  O7  1  0.63720000  0.29920000  0.94680000  1.0 -0.6722096009
O  O8  1  0.11680000  0.94680000  0.29920000  1.0 -0.6722096009
O  O9  1  0.52160000  0.87000000  0.39440000  1.0 -0.618231873
O  O10  1  0.21400000  0.39440000  0.87000000  1.0 -0.618231873
O  O11  1  0.39440000  0.21400000  0.52160000  1.0 -0.618231873
O  O12  1  0.87000000  0.52160000  0.21400000  1.0 -0.618231873
O  O13  1  0.72840000  0.38000000  0.85560000  1.0 -0.618231873
O  O14  1  0.03600000  0.85560000  0.38000000  1.0 -0.618231873
O  O15  1  0.85560000  0.03600000  0.72840000  1.0 -0.618231873
O  O16  1  0.38000000  0.72840000  0.03600000  1.0 -0.618231873
O  O17  1  0.47940000  0.04440000  0.68600000  1.0 -0.5932011408
O  O18  1  0.79020000  0.68600000  0.04440000  1.0 -0.5932011408
O  O19  1  0.68600000  0.79020000  0.47940000  1.0 -0.5932011408
O  O20  1  0.04440000  0.47940000  0.79020000  1.0 -0.5932011408
O  O21  1  0.77060000  0.20560000  0.56400000  1.0 -0.5932011408
O  O22  1  0.45980000  0.56400000  0.20560000  1.0 -0.5932011408
O  O23  1  0.56400000  0.45980000  0.77060000  1.0 -0.5932011408
O  O24  1  0.20560000  0.77060000  0.45980000  1.0 -0.5932011408
