# DDEC6 charges by PACMAN v1.1 (https://github.com/mtap-research/PACMAN-charge/)
data_TAJWAF01_FSR_pacman
_symmetry_space_group_name_H-M   'P 1'
_cell_length_a   20.03640000
_cell_length_b   17.69650000
_cell_length_c   11.26170000
_cell_angle_alpha   84.45190000
_cell_angle_beta   61.53180000
_cell_angle_gamma   34.01620000
_symmetry_Int_Tables_number   1
_chemical_formula_structural   ScH8(C7O3)2
_chemical_formula_sum   'Sc4 H32 C56 O24'
_cell_volume   1560.86369475
_cell_formula_units_Z   4
loop_
 _symmetry_equiv_pos_site_id
 _symmetry_equiv_pos_as_xyz
  1  'x, y, z'
loop_
 _atom_site_type_symbol
 _atom_site_label
 _atom_site_symmetry_multiplicity
 _atom_site_fract_x
 _atom_site_fract_y
 _atom_site_fract_z
 _atom_site_occupancy
 _atom_site_charge
Sc  Sc1  1  0.26108000  0.26108000  0.73892000  1.0 1.8132934452
Sc  Sc2  1  0.73892000  0.73892000  0.26108000  1.0 1.8132934452
Sc  Sc3  1  0.98892000  0.98892000  0.51108000  1.0 1.8132934452
Sc  Sc4  1  0.51108000  0.51108000  0.98892000  1.0 1.8132934452
H  H1  1  0.41110000  0.85350000  0.39090000  1.0 0.128114912
H  H2  1  0.34450000  0.39090000  0.85350000  1.0 0.128114912
H  H3  1  0.39090000  0.34450000  0.41110000  1.0 0.128114912
H  H4  1  0.85350000  0.41110000  0.34450000  1.0 0.128114912
H  H5  1  0.83890000  0.39650000  0.85910000  1.0 0.128114912
H  H6  1  0.90550000  0.85910000  0.39650000  1.0 0.128114912
H  H7  1  0.85910000  0.90550000  0.83890000  1.0 0.128114912
H  H8  1  0.39650000  0.83890000  0.90550000  1.0 0.128114912
H  H9  1  0.22100000  0.93260000  0.46820000  1.0 0.1164400012
H  H10  1  0.37820000  0.46820000  0.93260000  1.0 0.1164400012
H  H11  1  0.46820000  0.37820000  0.22100000  1.0 0.1164400012
H  H12  1  0.93260000  0.22100000  0.37820000  1.0 0.1164400012
H  H13  1  0.02900000  0.31740000  0.78180000  1.0 0.1164400012
H  H14  1  0.87180000  0.78180000  0.31740000  1.0 0.1164400012
H  H15  1  0.78180000  0.87180000  0.02900000  1.0 0.1164400012
H  H16  1  0.31740000  0.02900000  0.87180000  1.0 0.1164400012
H  H17  1  0.53860000  0.03200000  0.84400000  1.0 0.1034306616
H  H18  1  0.58540000  0.84400000  0.03200000  1.0 0.1034306616
H  H19  1  0.84400000  0.58540000  0.53860000  1.0 0.1034306616
H  H20  1  0.03200000  0.53860000  0.58540000  1.0 0.1034306616
H  H21  1  0.71140000  0.21800000  0.40600000  1.0 0.1034306616
H  H22  1  0.66460000  0.40600000  0.21800000  1.0 0.1034306616
H  H23  1  0.40600000  0.66460000  0.71140000  1.0 0.1034306616
H  H24  1  0.21800000  0.71140000  0.66460000  1.0 0.1034306616
H  H25  1  0.65920000  0.91140000  0.94800000  1.0 0.0907065005
H  H26  1  0.48140000  0.94800000  0.91140000  1.0 0.0907065005
H  H27  1  0.94800000  0.48140000  0.65920000  1.0 0.0907065005
H  H28  1  0.91140000  0.65920000  0.48140000  1.0 0.0907065005
H  H29  1  0.59080000  0.33860000  0.30200000  1.0 0.0907065005
H  H30  1  0.76860000  0.30200000  0.33860000  1.0 0.0907065005
H  H31  1  0.30200000  0.76860000  0.59080000  1.0 0.0907065005
H  H32  1  0.33860000  0.59080000  0.76860000  1.0 0.0907065005
C  C1  1  0.37020000  0.01620000  0.52180000  1.0 0.651604581
C  C2  1  0.09180000  0.52180000  0.01620000  1.0 0.651604581
C  C3  1  0.52180000  0.09180000  0.37020000  1.0 0.651604581
C  C4  1  0.01620000  0.37020000  0.09180000  1.0 0.651604581
C  C5  1  0.87980000  0.23380000  0.72820000  1.0 0.651604581
C  C6  1  0.15820000  0.72820000  0.23380000  1.0 0.651604581
C  C7  1  0.72820000  0.15820000  0.87980000  1.0 0.651604581
C  C8  1  0.23380000  0.87980000  0.15820000  1.0 0.651604581
C  C9  1  0.24210000  0.07350000  0.57650000  1.0 -0.0271556235
C  C10  1  0.10790000  0.57650000  0.07350000  1.0 -0.0271556235
C  C11  1  0.57650000  0.10790000  0.24210000  1.0 -0.0271556235
C  C12  1  0.07350000  0.24210000  0.10790000  1.0 -0.0271556235
C  C13  1  0.00790000  0.17650000  0.67350000  1.0 -0.0271556235
C  C14  1  0.14210000  0.67350000  0.17650000  1.0 -0.0271556235
C  C15  1  0.67350000  0.14210000  0.00790000  1.0 -0.0271556235
C  C16  1  0.17650000  0.00790000  0.14210000  1.0 -0.0271556235
C  C17  1  0.29300000  0.96600000  0.48800000  1.0 -0.1089432209
C  C18  1  0.25300000  0.48800000  0.96600000  1.0 -0.1089432209
C  C19  1  0.48800000  0.25300000  0.29300000  1.0 -0.1089432209
C  C20  1  0.96600000  0.29300000  0.25300000  1.0 -0.1089432209
C  C21  1  0.95700000  0.28400000  0.76200000  1.0 -0.1089432209
C  C22  1  0.99700000  0.76200000  0.28400000  1.0 -0.1089432209
C  C23  1  0.76200000  0.99700000  0.95700000  1.0 -0.1089432209
C  C24  1  0.28400000  0.95700000  0.99700000  1.0 -0.1089432209
C  C25  1  0.18070000  0.01170000  0.53230000  1.0 -0.1162275064
C  C26  1  0.27530000  0.53230000  0.01170000  1.0 -0.1162275064
C  C27  1  0.53230000  0.27530000  0.18070000  1.0 -0.1162275064
C  C28  1  0.01170000  0.18070000  0.27530000  1.0 -0.1162275064
C  C29  1  0.06930000  0.23830000  0.71770000  1.0 -0.1162275064
C  C30  1  0.97470000  0.71770000  0.23830000  1.0 -0.1162275064
C  C31  1  0.71770000  0.97470000  0.06930000  1.0 -0.1162275064
C  C32  1  0.23830000  0.06930000  0.97470000  1.0 -0.1162275064
C  C33  1  0.61190000  0.88810000  0.61190000  1.0 0.6130617143
C  C34  1  0.88810000  0.61190000  0.88810000  1.0 0.6130617143
C  C35  1  0.63810000  0.36190000  0.63810000  1.0 0.6130617143
C  C36  1  0.36190000  0.63810000  0.36190000  1.0 0.6130617143
C  C37  1  0.68260000  0.81740000  0.68260000  1.0 -0.0109093566
C  C38  1  0.81740000  0.68260000  0.81740000  1.0 -0.0109093566
C  C39  1  0.56740000  0.43260000  0.56740000  1.0 -0.0109093566
C  C40  1  0.43260000  0.56740000  0.43260000  1.0 -0.0109093566
C  C41  1  0.62690000  0.91730000  0.80110000  1.0 -0.0860679715
C  C42  1  0.65470000  0.80110000  0.91730000  1.0 -0.0860679715
C  C43  1  0.80110000  0.65470000  0.62690000  1.0 -0.0860679715
C  C44  1  0.91730000  0.62690000  0.65470000  1.0 -0.0860679715
C  C45  1  0.62310000  0.33270000  0.44890000  1.0 -0.0860679715
C  C46  1  0.59530000  0.44890000  0.33270000  1.0 -0.0860679715
C  C47  1  0.44890000  0.59530000  0.62310000  1.0 -0.0860679715
C  C48  1  0.33270000  0.62310000  0.59530000  1.0 -0.0860679715
C  C49  1  0.69790000  0.84410000  0.86390000  1.0 -0.0608245886
C  C50  1  0.59410000  0.86390000  0.84410000  1.0 -0.0608245886
C  C51  1  0.86390000  0.59410000  0.69790000  1.0 -0.0608245886
C  C52  1  0.84410000  0.69790000  0.59410000  1.0 -0.0608245886
C  C53  1  0.55210000  0.40590000  0.38610000  1.0 -0.0608245886
C  C54  1  0.65590000  0.38610000  0.40590000  1.0 -0.0608245886
C  C55  1  0.38610000  0.65590000  0.55210000  1.0 -0.0608245886
C  C56  1  0.40590000  0.55210000  0.65590000  1.0 -0.0608245886
O  O1  1  0.30630000  0.12950000  0.61450000  1.0 -0.6786308556
O  O2  1  0.94970000  0.61450000  0.12950000  1.0 -0.6786308556
O  O3  1  0.61450000  0.94970000  0.30630000  1.0 -0.6786308556
O  O4  1  0.12950000  0.30630000  0.94970000  1.0 -0.6786308556
O  O5  1  0.94370000  0.12050000  0.63550000  1.0 -0.6786308556
O  O6  1  0.30030000  0.63550000  0.12050000  1.0 -0.6786308556
O  O7  1  0.63550000  0.30030000  0.94370000  1.0 -0.6786308556
O  O8  1  0.12050000  0.94370000  0.30030000  1.0 -0.6786308556
O  O9  1  0.52300000  0.86800000  0.39420000  1.0 -0.6100848957
O  O10  1  0.21480000  0.39420000  0.86800000  1.0 -0.6100848957
O  O11  1  0.39420000  0.21480000  0.52300000  1.0 -0.6100848957
O  O12  1  0.86800000  0.52300000  0.21480000  1.0 -0.6100848957
O  O13  1  0.72700000  0.38200000  0.85580000  1.0 -0.6100848957
O  O14  1  0.03520000  0.85580000  0.38200000  1.0 -0.6100848957
O  O15  1  0.85580000  0.03520000  0.72700000  1.0 -0.6100848957
O  O16  1  0.38200000  0.72700000  0.03520000  1.0 -0.6100848957
O  O17  1  0.47810000  0.04410000  0.68650000  1.0 -0.6100848957
O  O18  1  0.79130000  0.68650000  0.04410000  1.0 -0.6100848957
O  O19  1  0.68650000  0.79130000  0.47810000  1.0 -0.6100848957
O  O20  1  0.04410000  0.47810000  0.79130000  1.0 -0.6100848957
O  O21  1  0.77190000  0.20590000  0.56350000  1.0 -0.6100848957
O  O22  1  0.45870000  0.56350000  0.20590000  1.0 -0.6100848957
O  O23  1  0.56350000  0.45870000  0.77190000  1.0 -0.6100848957
O  O24  1  0.20590000  0.77190000  0.45870000  1.0 -0.6100848957
