# DDEC6 charges by PACMAN v1.1 (https://github.com/mtap-research/PACMAN-charge/)
data_TAJWAF02_FSR_pacman
_symmetry_space_group_name_H-M   'P 1'
_cell_length_a   20.03640000
_cell_length_b   17.69650000
_cell_length_c   11.26170000
_cell_angle_alpha   84.45190000
_cell_angle_beta   61.53180000
_cell_angle_gamma   34.01620000
_symmetry_Int_Tables_number   1
_chemical_formula_structural   ScH8(C7O3)2
_chemical_formula_sum   'Sc4 H32 C56 O24'
_cell_volume   1560.86369475
_cell_formula_units_Z   4
loop_
 _symmetry_equiv_pos_site_id
 _symmetry_equiv_pos_as_xyz
  1  'x, y, z'
loop_
 _atom_site_type_symbol
 _atom_site_label
 _atom_site_symmetry_multiplicity
 _atom_site_fract_x
 _atom_site_fract_y
 _atom_site_fract_z
 _atom_site_occupancy
 _atom_site_charge
Sc  Sc1  1  0.26128000  0.26128000  0.73872000  1.0 1.8038022857
Sc  Sc2  1  0.73872000  0.73872000  0.26128000  1.0 1.8038022857
Sc  Sc3  1  0.98872000  0.98872000  0.51128000  1.0 1.8038022857
Sc  Sc4  1  0.51128000  0.51128000  0.98872000  1.0 1.8038022857
H  H1  1  0.41010000  0.85350000  0.39070000  1.0 0.1275672953
H  H2  1  0.34570000  0.39070000  0.85350000  1.0 0.1275672953
H  H3  1  0.39070000  0.34570000  0.41010000  1.0 0.1275672953
H  H4  1  0.85350000  0.41010000  0.34570000  1.0 0.1275672953
H  H5  1  0.83990000  0.39650000  0.85930000  1.0 0.1275672953
H  H6  1  0.90430000  0.85930000  0.39650000  1.0 0.1275672953
H  H7  1  0.85930000  0.90430000  0.83990000  1.0 0.1275672953
H  H8  1  0.39650000  0.83990000  0.90430000  1.0 0.1275672953
H  H9  1  0.20920000  0.94440000  0.47820000  1.0 0.1180023256
H  H10  1  0.36820000  0.47820000  0.94440000  1.0 0.1180023256
H  H11  1  0.47820000  0.36820000  0.20920000  1.0 0.1180023256
H  H12  1  0.94440000  0.20920000  0.36820000  1.0 0.1180023256
H  H13  1  0.04080000  0.30560000  0.77180000  1.0 0.1180023256
H  H14  1  0.88180000  0.77180000  0.30560000  1.0 0.1180023256
H  H15  1  0.77180000  0.88180000  0.04080000  1.0 0.1180023256
H  H16  1  0.30560000  0.04080000  0.88180000  1.0 0.1180023256
H  H17  1  0.53360000  0.03480000  0.84860000  1.0 0.1180023256
H  H18  1  0.58300000  0.84860000  0.03480000  1.0 0.1180023256
H  H19  1  0.84860000  0.58300000  0.53360000  1.0 0.1180023256
H  H20  1  0.03480000  0.53360000  0.58300000  1.0 0.1180023256
H  H21  1  0.71640000  0.21520000  0.40140000  1.0 0.1180023256
H  H22  1  0.66700000  0.40140000  0.21520000  1.0 0.1180023256
H  H23  1  0.40140000  0.66700000  0.71640000  1.0 0.1180023256
H  H24  1  0.21520000  0.71640000  0.66700000  1.0 0.1180023256
H  H25  1  0.65050000  0.91570000  0.95670000  1.0 0.1026102643
H  H26  1  0.47710000  0.95670000  0.91570000  1.0 0.1026102643
H  H27  1  0.95670000  0.47710000  0.65050000  1.0 0.1026102643
H  H28  1  0.91570000  0.65050000  0.47710000  1.0 0.1026102643
H  H29  1  0.59950000  0.33430000  0.29330000  1.0 0.1026102643
H  H30  1  0.77290000  0.29330000  0.33430000  1.0 0.1026102643
H  H31  1  0.29330000  0.77290000  0.59950000  1.0 0.1026102643
H  H32  1  0.33430000  0.59950000  0.77290000  1.0 0.1026102643
C  C1  1  0.37000000  0.01700000  0.52300000  1.0 0.650154319
C  C2  1  0.09000000  0.52300000  0.01700000  1.0 0.650154319
C  C3  1  0.52300000  0.09000000  0.37000000  1.0 0.650154319
C  C4  1  0.01700000  0.37000000  0.09000000  1.0 0.650154319
C  C5  1  0.88000000  0.23300000  0.72700000  1.0 0.650154319
C  C6  1  0.16000000  0.72700000  0.23300000  1.0 0.650154319
C  C7  1  0.72700000  0.16000000  0.88000000  1.0 0.650154319
C  C8  1  0.23300000  0.88000000  0.16000000  1.0 0.650154319
C  C9  1  0.24410000  0.07210000  0.57790000  1.0 -0.0128902126
C  C10  1  0.10590000  0.57790000  0.07210000  1.0 -0.0128902126
C  C11  1  0.57790000  0.10590000  0.24410000  1.0 -0.0128902126
C  C12  1  0.07210000  0.24410000  0.10590000  1.0 -0.0128902126
C  C13  1  0.00590000  0.17790000  0.67210000  1.0 -0.0128902126
C  C14  1  0.14410000  0.67210000  0.17790000  1.0 -0.0128902126
C  C15  1  0.67210000  0.14410000  0.00590000  1.0 -0.0128902126
C  C16  1  0.17790000  0.00590000  0.14410000  1.0 -0.0128902126
C  C17  1  0.29240000  0.96720000  0.48880000  1.0 -0.1357563693
C  C18  1  0.25160000  0.48880000  0.96720000  1.0 -0.1357563693
C  C19  1  0.48880000  0.25160000  0.29240000  1.0 -0.1357563693
C  C20  1  0.96720000  0.29240000  0.25160000  1.0 -0.1357563693
C  C21  1  0.95760000  0.28280000  0.76120000  1.0 -0.1357563693
C  C22  1  0.99840000  0.76120000  0.28280000  1.0 -0.1357563693
C  C23  1  0.76120000  0.99840000  0.95760000  1.0 -0.1357563693
C  C24  1  0.28280000  0.95760000  0.99840000  1.0 -0.1357563693
C  C25  1  0.16910000  0.02350000  0.54250000  1.0 -0.1262149808
C  C26  1  0.26490000  0.54250000  0.02350000  1.0 -0.1262149808
C  C27  1  0.54250000  0.26490000  0.16910000  1.0 -0.1262149808
C  C28  1  0.02350000  0.16910000  0.26490000  1.0 -0.1262149808
C  C29  1  0.08090000  0.22650000  0.70750000  1.0 -0.1262149808
C  C30  1  0.98510000  0.70750000  0.22650000  1.0 -0.1262149808
C  C31  1  0.70750000  0.98510000  0.08090000  1.0 -0.1262149808
C  C32  1  0.22650000  0.08090000  0.98510000  1.0 -0.1262149808
C  C33  1  0.61140000  0.88860000  0.61140000  1.0 0.6187286865
C  C34  1  0.88860000  0.61140000  0.88860000  1.0 0.6187286865
C  C35  1  0.63860000  0.36140000  0.63860000  1.0 0.6187286865
C  C36  1  0.36140000  0.63860000  0.36140000  1.0 0.6187286865
C  C37  1  0.68260000  0.81740000  0.68260000  1.0 -0.002924063
C  C38  1  0.81740000  0.68260000  0.81740000  1.0 -0.002924063
C  C39  1  0.56740000  0.43260000  0.56740000  1.0 -0.002924063
C  C40  1  0.43260000  0.56740000  0.43260000  1.0 -0.002924063
C  C41  1  0.61850000  0.92210000  0.80870000  1.0 -0.1124329824
C  C42  1  0.65070000  0.80870000  0.92210000  1.0 -0.1124329824
C  C43  1  0.80870000  0.65070000  0.61850000  1.0 -0.1124329824
C  C44  1  0.92210000  0.61850000  0.65070000  1.0 -0.1124329824
C  C45  1  0.63150000  0.32790000  0.44130000  1.0 -0.1124329824
C  C46  1  0.59930000  0.44130000  0.32790000  1.0 -0.1124329824
C  C47  1  0.44130000  0.59930000  0.63150000  1.0 -0.1124329824
C  C48  1  0.32790000  0.63150000  0.59930000  1.0 -0.1124329824
C  C49  1  0.69060000  0.84760000  0.87040000  1.0 -0.0503082533
C  C50  1  0.59140000  0.87040000  0.84760000  1.0 -0.0503082533
C  C51  1  0.87040000  0.59140000  0.69060000  1.0 -0.0503082533
C  C52  1  0.84760000  0.69060000  0.59140000  1.0 -0.0503082533
C  C53  1  0.55940000  0.40240000  0.37960000  1.0 -0.0503082533
C  C54  1  0.65860000  0.37960000  0.40240000  1.0 -0.0503082533
C  C55  1  0.37960000  0.65860000  0.55940000  1.0 -0.0503082533
C  C56  1  0.40240000  0.55940000  0.65860000  1.0 -0.0503082533
O  O1  1  0.30830000  0.12750000  0.61190000  1.0 -0.6495303173
O  O2  1  0.95230000  0.61190000  0.12750000  1.0 -0.6495303173
O  O3  1  0.61190000  0.95230000  0.30830000  1.0 -0.6495303173
O  O4  1  0.12750000  0.30830000  0.95230000  1.0 -0.6495303173
O  O5  1  0.94170000  0.12250000  0.63810000  1.0 -0.6495303173
O  O6  1  0.29770000  0.63810000  0.12250000  1.0 -0.6495303173
O  O7  1  0.63810000  0.29770000  0.94170000  1.0 -0.6495303173
O  O8  1  0.12250000  0.94170000  0.29770000  1.0 -0.6495303173
O  O9  1  0.52260000  0.86920000  0.39160000  1.0 -0.6195034344
O  O10  1  0.21660000  0.39160000  0.86920000  1.0 -0.6195034344
O  O11  1  0.39160000  0.21660000  0.52260000  1.0 -0.6195034344
O  O12  1  0.86920000  0.52260000  0.21660000  1.0 -0.6195034344
O  O13  1  0.72740000  0.38080000  0.85840000  1.0 -0.6195034344
O  O14  1  0.03340000  0.85840000  0.38080000  1.0 -0.6195034344
O  O15  1  0.85840000  0.03340000  0.72740000  1.0 -0.6195034344
O  O16  1  0.38080000  0.72740000  0.03340000  1.0 -0.6195034344
O  O17  1  0.47760000  0.04540000  0.68700000  1.0 -0.6195034344
O  O18  1  0.79000000  0.68700000  0.04540000  1.0 -0.6195034344
O  O19  1  0.68700000  0.79000000  0.47760000  1.0 -0.6195034344
O  O20  1  0.04540000  0.47760000  0.79000000  1.0 -0.6195034344
O  O21  1  0.77240000  0.20460000  0.56300000  1.0 -0.6195034344
O  O22  1  0.46000000  0.56300000  0.20460000  1.0 -0.6195034344
O  O23  1  0.56300000  0.46000000  0.77240000  1.0 -0.6195034344
O  O24  1  0.20460000  0.77240000  0.46000000  1.0 -0.6195034344
