# DDEC6 charges by PACMAN v1.1 (https://github.com/mtap-research/PACMAN-charge/)
data_TAKKIC_ASR_pacman
_symmetry_space_group_name_H-M   'P 1'
_cell_length_a   29.02610000
_cell_length_b   29.02610000
_cell_length_c   29.02610000
_cell_angle_alpha   90.00000000
_cell_angle_beta   90.00000000
_cell_angle_gamma   90.00000000
_symmetry_Int_Tables_number   1
_chemical_formula_structural   Cu2H32C37(NO5)2
_chemical_formula_sum   'Cu24 H384 C444 N24 O120'
_cell_volume   24454.90958305
_cell_formula_units_Z   12
loop_
 _symmetry_equiv_pos_site_id
 _symmetry_equiv_pos_as_xyz
  1  'x, y, z'
loop_
 _atom_site_type_symbol
 _atom_site_label
 _atom_site_symmetry_multiplicity
 _atom_site_fract_x
 _atom_site_fract_y
 _atom_site_fract_z
 _atom_site_occupancy
 _atom_site_charge
Cu  Cu1  1  0.30548000  0.30548000  0.50000000  1.0 0.8691587436
Cu  Cu2  1  0.69452000  0.69452000  0.50000000  1.0 0.8691587436
Cu  Cu3  1  0.69452000  0.30548000  0.50000000  1.0 0.8691587436
Cu  Cu4  1  0.30548000  0.69452000  0.50000000  1.0 0.8691587436
Cu  Cu5  1  0.50000000  0.30548000  0.30548000  1.0 0.8691587436
Cu  Cu6  1  0.50000000  0.69452000  0.69452000  1.0 0.8691587436
Cu  Cu7  1  0.50000000  0.69452000  0.30548000  1.0 0.8691587436
Cu  Cu8  1  0.50000000  0.30548000  0.69452000  1.0 0.8691587436
Cu  Cu9  1  0.30548000  0.50000000  0.30548000  1.0 0.8691587436
Cu  Cu10  1  0.69452000  0.50000000  0.69452000  1.0 0.8691587436
Cu  Cu11  1  0.30548000  0.50000000  0.69452000  1.0 0.8691587436
Cu  Cu12  1  0.69452000  0.50000000  0.30548000  1.0 0.8691587436
Cu  Cu13  1  0.24011000  0.24011000  0.50000000  1.0 0.8691587436
Cu  Cu14  1  0.75989000  0.75989000  0.50000000  1.0 0.8691587436
Cu  Cu15  1  0.75989000  0.24011000  0.50000000  1.0 0.8691587436
Cu  Cu16  1  0.24011000  0.75989000  0.50000000  1.0 0.8691587436
Cu  Cu17  1  0.50000000  0.24011000  0.24011000  1.0 0.8691587436
Cu  Cu18  1  0.50000000  0.75989000  0.75989000  1.0 0.8691587436
Cu  Cu19  1  0.50000000  0.75989000  0.24011000  1.0 0.8691587436
Cu  Cu20  1  0.50000000  0.24011000  0.75989000  1.0 0.8691587436
Cu  Cu21  1  0.24011000  0.50000000  0.24011000  1.0 0.8691587436
Cu  Cu22  1  0.75989000  0.50000000  0.75989000  1.0 0.8691587436
Cu  Cu23  1  0.24011000  0.50000000  0.75989000  1.0 0.8691587436
Cu  Cu24  1  0.75989000  0.50000000  0.24011000  1.0 0.8691587436
H  H1  1  0.16130000  0.28240000  0.38350000  1.0 0.1209536211
H  H2  1  0.83870000  0.71760000  0.38350000  1.0 0.1209536211
H  H3  1  0.83870000  0.28240000  0.61650000  1.0 0.1209536211
H  H4  1  0.16130000  0.71760000  0.61650000  1.0 0.1209536211
H  H5  1  0.38350000  0.16130000  0.28240000  1.0 0.1209536211
H  H6  1  0.38350000  0.83870000  0.71760000  1.0 0.1209536211
H  H7  1  0.61650000  0.83870000  0.28240000  1.0 0.1209536211
H  H8  1  0.61650000  0.16130000  0.71760000  1.0 0.1209536211
H  H9  1  0.28240000  0.38350000  0.16130000  1.0 0.1209536211
H  H10  1  0.71760000  0.38350000  0.83870000  1.0 0.1209536211
H  H11  1  0.28240000  0.61650000  0.83870000  1.0 0.1209536211
H  H12  1  0.71760000  0.61650000  0.16130000  1.0 0.1209536211
H  H13  1  0.28240000  0.16130000  0.61650000  1.0 0.1209536211
H  H14  1  0.71760000  0.83870000  0.61650000  1.0 0.1209536211
H  H15  1  0.28240000  0.83870000  0.38350000  1.0 0.1209536211
H  H16  1  0.71760000  0.16130000  0.38350000  1.0 0.1209536211
H  H17  1  0.16130000  0.38350000  0.71760000  1.0 0.1209536211
H  H18  1  0.83870000  0.38350000  0.28240000  1.0 0.1209536211
H  H19  1  0.83870000  0.61650000  0.71760000  1.0 0.1209536211
H  H20  1  0.16130000  0.61650000  0.28240000  1.0 0.1209536211
H  H21  1  0.38350000  0.28240000  0.83870000  1.0 0.1209536211
H  H22  1  0.38350000  0.71760000  0.16130000  1.0 0.1209536211
H  H23  1  0.61650000  0.28240000  0.16130000  1.0 0.1209536211
H  H24  1  0.61650000  0.71760000  0.83870000  1.0 0.1209536211
H  H25  1  0.15540000  0.38930000  0.29400000  1.0 0.1209536211
H  H26  1  0.84460000  0.61070000  0.29400000  1.0 0.1209536211
H  H27  1  0.84460000  0.38930000  0.70600000  1.0 0.1209536211
H  H28  1  0.15540000  0.61070000  0.70600000  1.0 0.1209536211
H  H29  1  0.29400000  0.15540000  0.38930000  1.0 0.1209536211
H  H30  1  0.29400000  0.84460000  0.61070000  1.0 0.1209536211
H  H31  1  0.70600000  0.84460000  0.38930000  1.0 0.1209536211
H  H32  1  0.70600000  0.15540000  0.61070000  1.0 0.1209536211
H  H33  1  0.38930000  0.29400000  0.15540000  1.0 0.1209536211
H  H34  1  0.61070000  0.29400000  0.84460000  1.0 0.1209536211
H  H35  1  0.38930000  0.70600000  0.84460000  1.0 0.1209536211
H  H36  1  0.61070000  0.70600000  0.15540000  1.0 0.1209536211
H  H37  1  0.38930000  0.15540000  0.70600000  1.0 0.1209536211
H  H38  1  0.61070000  0.84460000  0.70600000  1.0 0.1209536211
H  H39  1  0.38930000  0.84460000  0.29400000  1.0 0.1209536211
H  H40  1  0.61070000  0.15540000  0.29400000  1.0 0.1209536211
H  H41  1  0.15540000  0.29400000  0.61070000  1.0 0.1209536211
H  H42  1  0.84460000  0.29400000  0.38930000  1.0 0.1209536211
H  H43  1  0.84460000  0.70600000  0.61070000  1.0 0.1209536211
H  H44  1  0.15540000  0.70600000  0.38930000  1.0 0.1209536211
H  H45  1  0.29400000  0.38930000  0.84460000  1.0 0.1209536211
H  H46  1  0.29400000  0.61070000  0.15540000  1.0 0.1209536211
H  H47  1  0.70600000  0.38930000  0.15540000  1.0 0.1209536211
H  H48  1  0.70600000  0.61070000  0.84460000  1.0 0.1209536211
H  H49  1  0.25350000  0.38670000  0.39320000  1.0 0.1420739579
H  H50  1  0.74650000  0.61330000  0.39320000  1.0 0.1420739579
H  H51  1  0.74650000  0.38670000  0.60680000  1.0 0.1420739579
H  H52  1  0.25350000  0.61330000  0.60680000  1.0 0.1420739579
H  H53  1  0.39320000  0.25350000  0.38670000  1.0 0.1420739579
H  H54  1  0.39320000  0.74650000  0.61330000  1.0 0.1420739579
H  H55  1  0.60680000  0.74650000  0.38670000  1.0 0.1420739579
H  H56  1  0.60680000  0.25350000  0.61330000  1.0 0.1420739579
H  H57  1  0.38670000  0.39320000  0.25350000  1.0 0.1420739579
H  H58  1  0.61330000  0.39320000  0.74650000  1.0 0.1420739579
H  H59  1  0.38670000  0.60680000  0.74650000  1.0 0.1420739579
H  H60  1  0.61330000  0.60680000  0.25350000  1.0 0.1420739579
H  H61  1  0.38670000  0.25350000  0.60680000  1.0 0.1420739579
H  H62  1  0.61330000  0.74650000  0.60680000  1.0 0.1420739579
H  H63  1  0.38670000  0.74650000  0.39320000  1.0 0.1420739579
H  H64  1  0.61330000  0.25350000  0.39320000  1.0 0.1420739579
H  H65  1  0.25350000  0.39320000  0.61330000  1.0 0.1420739579
H  H66  1  0.74650000  0.39320000  0.38670000  1.0 0.1420739579
H  H67  1  0.74650000  0.60680000  0.61330000  1.0 0.1420739579
H  H68  1  0.25350000  0.60680000  0.38670000  1.0 0.1420739579
H  H69  1  0.39320000  0.38670000  0.74650000  1.0 0.1420739579
H  H70  1  0.39320000  0.61330000  0.25350000  1.0 0.1420739579
H  H71  1  0.60680000  0.38670000  0.25350000  1.0 0.1420739579
H  H72  1  0.60680000  0.61330000  0.74650000  1.0 0.1420739579
H  H73  1  0.07120000  0.20350000  0.29240000  1.0 0.0780134375
H  H74  1  0.92880000  0.79650000  0.29240000  1.0 0.0780134375
H  H75  1  0.92880000  0.20350000  0.70760000  1.0 0.0780134375
H  H76  1  0.07120000  0.79650000  0.70760000  1.0 0.0780134375
H  H77  1  0.29240000  0.07120000  0.20350000  1.0 0.0780134375
H  H78  1  0.29240000  0.92880000  0.79650000  1.0 0.0780134375
H  H79  1  0.70760000  0.92880000  0.20350000  1.0 0.0780134375
H  H80  1  0.70760000  0.07120000  0.79650000  1.0 0.0780134375
H  H81  1  0.20350000  0.29240000  0.07120000  1.0 0.0780134375
H  H82  1  0.79650000  0.29240000  0.92880000  1.0 0.0780134375
H  H83  1  0.20350000  0.70760000  0.92880000  1.0 0.0780134375
H  H84  1  0.79650000  0.70760000  0.07120000  1.0 0.0780134375
H  H85  1  0.20350000  0.07120000  0.70760000  1.0 0.0780134375
H  H86  1  0.79650000  0.92880000  0.70760000  1.0 0.0780134375
H  H87  1  0.20350000  0.92880000  0.29240000  1.0 0.0780134375
H  H88  1  0.79650000  0.07120000  0.29240000  1.0 0.0780134375
H  H89  1  0.07120000  0.29240000  0.79650000  1.0 0.0780134375
H  H90  1  0.92880000  0.29240000  0.20350000  1.0 0.0780134375
H  H91  1  0.92880000  0.70760000  0.79650000  1.0 0.0780134375
H  H92  1  0.07120000  0.70760000  0.20350000  1.0 0.0780134375
H  H93  1  0.29240000  0.20350000  0.92880000  1.0 0.0780134375
H  H94  1  0.29240000  0.79650000  0.07120000  1.0 0.0780134375
H  H95  1  0.70760000  0.20350000  0.07120000  1.0 0.0780134375
H  H96  1  0.70760000  0.79650000  0.92880000  1.0 0.0780134375
H  H97  1  0.13080000  0.24270000  0.33000000  1.0 0.1209536211
H  H98  1  0.86920000  0.75730000  0.33000000  1.0 0.1209536211
H  H99  1  0.86920000  0.24270000  0.67000000  1.0 0.1209536211
H  H100  1  0.13080000  0.75730000  0.67000000  1.0 0.1209536211
H  H101  1  0.33000000  0.13080000  0.24270000  1.0 0.1209536211
H  H102  1  0.33000000  0.86920000  0.75730000  1.0 0.1209536211
H  H103  1  0.67000000  0.86920000  0.24270000  1.0 0.1209536211
H  H104  1  0.67000000  0.13080000  0.75730000  1.0 0.1209536211
H  H105  1  0.24270000  0.33000000  0.13080000  1.0 0.1209536211
H  H106  1  0.75730000  0.33000000  0.86920000  1.0 0.1209536211
H  H107  1  0.24270000  0.67000000  0.86920000  1.0 0.1209536211
H  H108  1  0.75730000  0.67000000  0.13080000  1.0 0.1209536211
H  H109  1  0.24270000  0.13080000  0.67000000  1.0 0.1209536211
H  H110  1  0.75730000  0.86920000  0.67000000  1.0 0.1209536211
H  H111  1  0.24270000  0.86920000  0.33000000  1.0 0.1209536211
H  H112  1  0.75730000  0.13080000  0.33000000  1.0 0.1209536211
H  H113  1  0.13080000  0.33000000  0.75730000  1.0 0.1209536211
H  H114  1  0.86920000  0.33000000  0.24270000  1.0 0.1209536211
H  H115  1  0.86920000  0.67000000  0.75730000  1.0 0.1209536211
H  H116  1  0.13080000  0.67000000  0.24270000  1.0 0.1209536211
H  H117  1  0.33000000  0.24270000  0.86920000  1.0 0.1209536211
H  H118  1  0.33000000  0.75730000  0.13080000  1.0 0.1209536211
H  H119  1  0.67000000  0.24270000  0.13080000  1.0 0.1209536211
H  H120  1  0.67000000  0.75730000  0.86920000  1.0 0.1209536211
H  H121  1  0.08720000  0.36290000  0.27390000  1.0 0.1209536211
H  H122  1  0.91280000  0.63710000  0.27390000  1.0 0.1209536211
H  H123  1  0.91280000  0.36290000  0.72610000  1.0 0.1209536211
H  H124  1  0.08720000  0.63710000  0.72610000  1.0 0.1209536211
H  H125  1  0.27390000  0.08720000  0.36290000  1.0 0.1209536211
H  H126  1  0.27390000  0.91280000  0.63710000  1.0 0.1209536211
H  H127  1  0.72610000  0.91280000  0.36290000  1.0 0.1209536211
H  H128  1  0.72610000  0.08720000  0.63710000  1.0 0.1209536211
H  H129  1  0.36290000  0.27390000  0.08720000  1.0 0.1209536211
H  H130  1  0.63710000  0.27390000  0.91280000  1.0 0.1209536211
H  H131  1  0.36290000  0.72610000  0.91280000  1.0 0.1209536211
H  H132  1  0.63710000  0.72610000  0.08720000  1.0 0.1209536211
H  H133  1  0.36290000  0.08720000  0.72610000  1.0 0.1209536211
H  H134  1  0.63710000  0.91280000  0.72610000  1.0 0.1209536211
H  H135  1  0.36290000  0.91280000  0.27390000  1.0 0.1209536211
H  H136  1  0.63710000  0.08720000  0.27390000  1.0 0.1209536211
H  H137  1  0.08720000  0.27390000  0.63710000  1.0 0.1209536211
H  H138  1  0.91280000  0.27390000  0.36290000  1.0 0.1209536211
H  H139  1  0.91280000  0.72610000  0.63710000  1.0 0.1209536211
H  H140  1  0.08720000  0.72610000  0.36290000  1.0 0.1209536211
H  H141  1  0.27390000  0.36290000  0.91280000  1.0 0.1209536211
H  H142  1  0.27390000  0.63710000  0.08720000  1.0 0.1209536211
H  H143  1  0.72610000  0.36290000  0.08720000  1.0 0.1209536211
H  H144  1  0.72610000  0.63710000  0.91280000  1.0 0.1209536211
H  H145  1  0.02760000  0.32380000  0.23640000  1.0 0.1038034981
H  H146  1  0.97240000  0.67620000  0.23640000  1.0 0.1038034981
H  H147  1  0.97240000  0.32380000  0.76360000  1.0 0.1038034981
H  H148  1  0.02760000  0.67620000  0.76360000  1.0 0.1038034981
H  H149  1  0.23640000  0.02760000  0.32380000  1.0 0.1038034981
H  H150  1  0.23640000  0.97240000  0.67620000  1.0 0.1038034981
H  H151  1  0.76360000  0.97240000  0.32380000  1.0 0.1038034981
H  H152  1  0.76360000  0.02760000  0.67620000  1.0 0.1038034981
H  H153  1  0.32380000  0.23640000  0.02760000  1.0 0.1038034981
H  H154  1  0.67620000  0.23640000  0.97240000  1.0 0.1038034981
H  H155  1  0.32380000  0.76360000  0.97240000  1.0 0.1038034981
H  H156  1  0.67620000  0.76360000  0.02760000  1.0 0.1038034981
H  H157  1  0.32380000  0.02760000  0.76360000  1.0 0.1038034981
H  H158  1  0.67620000  0.97240000  0.76360000  1.0 0.1038034981
H  H159  1  0.32380000  0.97240000  0.23640000  1.0 0.1038034981
H  H160  1  0.67620000  0.02760000  0.23640000  1.0 0.1038034981
H  H161  1  0.02760000  0.23640000  0.67620000  1.0 0.1038034981
H  H162  1  0.97240000  0.23640000  0.32380000  1.0 0.1038034981
H  H163  1  0.97240000  0.76360000  0.67620000  1.0 0.1038034981
H  H164  1  0.02760000  0.76360000  0.32380000  1.0 0.1038034981
H  H165  1  0.23640000  0.32380000  0.97240000  1.0 0.1038034981
H  H166  1  0.23640000  0.67620000  0.02760000  1.0 0.1038034981
H  H167  1  0.76360000  0.32380000  0.02760000  1.0 0.1038034981
H  H168  1  0.76360000  0.67620000  0.97240000  1.0 0.1038034981
H  H169  1  0.00070000  0.18810000  0.27840000  1.0 0.2289673376
H  H170  1  0.99930000  0.81190000  0.27840000  1.0 0.2289673376
H  H171  1  0.99930000  0.18810000  0.72160000  1.0 0.2289673376
H  H172  1  0.00070000  0.81190000  0.72160000  1.0 0.2289673376
H  H173  1  0.27840000  0.00070000  0.18810000  1.0 0.2289673376
H  H174  1  0.27840000  0.99930000  0.81190000  1.0 0.2289673376
H  H175  1  0.72160000  0.99930000  0.18810000  1.0 0.2289673376
H  H176  1  0.72160000  0.00070000  0.81190000  1.0 0.2289673376
H  H177  1  0.18810000  0.27840000  0.00070000  1.0 0.2289673376
H  H178  1  0.81190000  0.27840000  0.99930000  1.0 0.2289673376
H  H179  1  0.18810000  0.72160000  0.99930000  1.0 0.2289673376
H  H180  1  0.81190000  0.72160000  0.00070000  1.0 0.2289673376
H  H181  1  0.18810000  0.00070000  0.72160000  1.0 0.2289673376
H  H182  1  0.81190000  0.99930000  0.72160000  1.0 0.2289673376
H  H183  1  0.18810000  0.99930000  0.27840000  1.0 0.2289673376
H  H184  1  0.81190000  0.00070000  0.27840000  1.0 0.2289673376
H  H185  1  0.00070000  0.27840000  0.81190000  1.0 0.2289673376
H  H186  1  0.99930000  0.27840000  0.18810000  1.0 0.2289673376
H  H187  1  0.99930000  0.72160000  0.81190000  1.0 0.2289673376
H  H188  1  0.00070000  0.72160000  0.18810000  1.0 0.2289673376
H  H189  1  0.27840000  0.18810000  0.99930000  1.0 0.2289673376
H  H190  1  0.27840000  0.81190000  0.00070000  1.0 0.2289673376
H  H191  1  0.72160000  0.18810000  0.00070000  1.0 0.2289673376
H  H192  1  0.72160000  0.81190000  0.99930000  1.0 0.2289673376
H  H193  1  0.01080000  0.28200000  0.18240000  1.0 0.2221586475
H  H194  1  0.98920000  0.71800000  0.18240000  1.0 0.2221586475
H  H195  1  0.98920000  0.28200000  0.81760000  1.0 0.2221586475
H  H196  1  0.01080000  0.71800000  0.81760000  1.0 0.2221586475
H  H197  1  0.18240000  0.01080000  0.28200000  1.0 0.2221586475
H  H198  1  0.18240000  0.98920000  0.71800000  1.0 0.2221586475
H  H199  1  0.81760000  0.98920000  0.28200000  1.0 0.2221586475
H  H200  1  0.81760000  0.01080000  0.71800000  1.0 0.2221586475
H  H201  1  0.28200000  0.18240000  0.01080000  1.0 0.2221586475
H  H202  1  0.71800000  0.18240000  0.98920000  1.0 0.2221586475
H  H203  1  0.28200000  0.81760000  0.98920000  1.0 0.2221586475
H  H204  1  0.71800000  0.81760000  0.01080000  1.0 0.2221586475
H  H205  1  0.28200000  0.01080000  0.81760000  1.0 0.2221586475
H  H206  1  0.71800000  0.98920000  0.81760000  1.0 0.2221586475
H  H207  1  0.28200000  0.98920000  0.18240000  1.0 0.2221586475
H  H208  1  0.71800000  0.01080000  0.18240000  1.0 0.2221586475
H  H209  1  0.01080000  0.18240000  0.71800000  1.0 0.2221586475
H  H210  1  0.98920000  0.18240000  0.28200000  1.0 0.2221586475
H  H211  1  0.98920000  0.81760000  0.71800000  1.0 0.2221586475
H  H212  1  0.01080000  0.81760000  0.28200000  1.0 0.2221586475
H  H213  1  0.18240000  0.28200000  0.98920000  1.0 0.2221586475
H  H214  1  0.18240000  0.71800000  0.01080000  1.0 0.2221586475
H  H215  1  0.81760000  0.28200000  0.01080000  1.0 0.2221586475
H  H216  1  0.81760000  0.71800000  0.98920000  1.0 0.2221586475
H  H217  1  0.05740000  0.23030000  0.15780000  1.0 0.21475001
H  H218  1  0.94260000  0.76970000  0.15780000  1.0 0.21475001
H  H219  1  0.94260000  0.23030000  0.84220000  1.0 0.21475001
H  H220  1  0.05740000  0.76970000  0.84220000  1.0 0.21475001
H  H221  1  0.15780000  0.05740000  0.23030000  1.0 0.21475001
H  H222  1  0.15780000  0.94260000  0.76970000  1.0 0.21475001
H  H223  1  0.84220000  0.94260000  0.23030000  1.0 0.21475001
H  H224  1  0.84220000  0.05740000  0.76970000  1.0 0.21475001
H  H225  1  0.23030000  0.15780000  0.05740000  1.0 0.21475001
H  H226  1  0.76970000  0.15780000  0.94260000  1.0 0.21475001
H  H227  1  0.23030000  0.84220000  0.94260000  1.0 0.21475001
H  H228  1  0.76970000  0.84220000  0.05740000  1.0 0.21475001
H  H229  1  0.23030000  0.05740000  0.84220000  1.0 0.21475001
H  H230  1  0.76970000  0.94260000  0.84220000  1.0 0.21475001
H  H231  1  0.23030000  0.94260000  0.15780000  1.0 0.21475001
H  H232  1  0.76970000  0.05740000  0.15780000  1.0 0.21475001
H  H233  1  0.05740000  0.15780000  0.76970000  1.0 0.21475001
H  H234  1  0.94260000  0.15780000  0.23030000  1.0 0.21475001
H  H235  1  0.94260000  0.84220000  0.76970000  1.0 0.21475001
H  H236  1  0.05740000  0.84220000  0.23030000  1.0 0.21475001
H  H237  1  0.15780000  0.23030000  0.94260000  1.0 0.21475001
H  H238  1  0.15780000  0.76970000  0.05740000  1.0 0.21475001
H  H239  1  0.84220000  0.23030000  0.05740000  1.0 0.21475001
H  H240  1  0.84220000  0.76970000  0.94260000  1.0 0.21475001
H  H241  1  0.93520000  0.27330000  0.16520000  1.0 0.0353564628
H  H242  1  0.06480000  0.72670000  0.16520000  1.0 0.034350692
H  H243  1  0.06480000  0.27330000  0.83480000  1.0 0.0353564628
H  H244  1  0.93520000  0.72670000  0.83480000  1.0 0.0353564628
H  H245  1  0.16520000  0.93520000  0.27330000  1.0 0.034350692
H  H246  1  0.16520000  0.06480000  0.72670000  1.0 0.0353564628
H  H247  1  0.83480000  0.06480000  0.27330000  1.0 0.0353564628
H  H248  1  0.83480000  0.93520000  0.72670000  1.0 0.0353564628
H  H249  1  0.27330000  0.16520000  0.93520000  1.0 0.0353564628
H  H250  1  0.72670000  0.16520000  0.06480000  1.0 0.0353564628
H  H251  1  0.27330000  0.83480000  0.06480000  1.0 0.034350692
H  H252  1  0.72670000  0.83480000  0.93520000  1.0 0.0353564628
H  H253  1  0.27330000  0.93520000  0.83480000  1.0 0.0353564628
H  H254  1  0.72670000  0.06480000  0.83480000  1.0 0.0353564628
H  H255  1  0.27330000  0.06480000  0.16520000  1.0 0.0353564628
H  H256  1  0.72670000  0.93520000  0.16520000  1.0 0.0353564628
H  H257  1  0.93520000  0.16520000  0.72670000  1.0 0.0353564628
H  H258  1  0.06480000  0.16520000  0.27330000  1.0 0.0353564628
H  H259  1  0.06480000  0.83480000  0.72670000  1.0 0.0353564628
H  H260  1  0.93520000  0.83480000  0.27330000  1.0 0.0353564628
H  H261  1  0.16520000  0.27330000  0.06480000  1.0 0.0353564628
H  H262  1  0.16520000  0.72670000  0.93520000  1.0 0.0353564628
H  H263  1  0.83480000  0.27330000  0.93520000  1.0 0.0353564628
H  H264  1  0.83480000  0.72670000  0.06480000  1.0 0.0353564628
H  H265  1  0.93190000  0.22450000  0.19140000  1.0 0.0780134375
H  H266  1  0.06810000  0.77550000  0.19140000  1.0 0.0780134375
H  H267  1  0.06810000  0.22450000  0.80860000  1.0 0.0780134375
H  H268  1  0.93190000  0.77550000  0.80860000  1.0 0.0780134375
H  H269  1  0.19140000  0.93190000  0.22450000  1.0 0.0780134375
H  H270  1  0.19140000  0.06810000  0.77550000  1.0 0.0780134375
H  H271  1  0.80860000  0.06810000  0.22450000  1.0 0.0780134375
H  H272  1  0.80860000  0.93190000  0.77550000  1.0 0.0780134375
H  H273  1  0.22450000  0.19140000  0.93190000  1.0 0.0780134375
H  H274  1  0.77550000  0.19140000  0.06810000  1.0 0.0780134375
H  H275  1  0.22450000  0.80860000  0.06810000  1.0 0.0780134375
H  H276  1  0.77550000  0.80860000  0.93190000  1.0 0.0780134375
H  H277  1  0.22450000  0.93190000  0.80860000  1.0 0.0780134375
H  H278  1  0.77550000  0.06810000  0.80860000  1.0 0.0780134375
H  H279  1  0.22450000  0.06810000  0.19140000  1.0 0.0780134375
H  H280  1  0.77550000  0.93190000  0.19140000  1.0 0.0780134375
H  H281  1  0.93190000  0.19140000  0.77550000  1.0 0.0780134375
H  H282  1  0.06810000  0.19140000  0.22450000  1.0 0.0780134375
H  H283  1  0.06810000  0.80860000  0.77550000  1.0 0.0780134375
H  H284  1  0.93190000  0.80860000  0.22450000  1.0 0.0780134375
H  H285  1  0.19140000  0.22450000  0.06810000  1.0 0.0780134375
H  H286  1  0.19140000  0.77550000  0.93190000  1.0 0.0780134375
H  H287  1  0.80860000  0.22450000  0.93190000  1.0 0.0780134375
H  H288  1  0.80860000  0.77550000  0.06810000  1.0 0.0780134375
H  H289  1  0.00680000  0.16620000  0.12210000  1.0 0.1038034981
H  H290  1  0.99320000  0.83380000  0.12210000  1.0 0.1038034981
H  H291  1  0.99320000  0.16620000  0.87790000  1.0 0.1038034981
H  H292  1  0.00680000  0.83380000  0.87790000  1.0 0.1038034981
H  H293  1  0.12210000  0.00680000  0.16620000  1.0 0.1038034981
H  H294  1  0.12210000  0.99320000  0.83380000  1.0 0.1038034981
H  H295  1  0.87790000  0.99320000  0.16620000  1.0 0.1038034981
H  H296  1  0.87790000  0.00680000  0.83380000  1.0 0.1038034981
H  H297  1  0.16620000  0.12210000  0.00680000  1.0 0.1038034981
H  H298  1  0.83380000  0.12210000  0.99320000  1.0 0.1038034981
H  H299  1  0.16620000  0.87790000  0.99320000  1.0 0.1038034981
H  H300  1  0.83380000  0.87790000  0.00680000  1.0 0.1038034981
H  H301  1  0.16620000  0.00680000  0.87790000  1.0 0.1038034981
H  H302  1  0.83380000  0.99320000  0.87790000  1.0 0.1038034981
H  H303  1  0.16620000  0.99320000  0.12210000  1.0 0.1038034981
H  H304  1  0.83380000  0.00680000  0.12210000  1.0 0.1038034981
H  H305  1  0.00680000  0.12210000  0.83380000  1.0 0.1038034981
H  H306  1  0.99320000  0.12210000  0.16620000  1.0 0.1038034981
H  H307  1  0.99320000  0.87790000  0.83380000  1.0 0.1038034981
H  H308  1  0.00680000  0.87790000  0.16620000  1.0 0.1038034981
H  H309  1  0.12210000  0.16620000  0.99320000  1.0 0.1038034981
H  H310  1  0.12210000  0.83380000  0.00680000  1.0 0.1038034981
H  H311  1  0.87790000  0.16620000  0.00680000  1.0 0.1038034981
H  H312  1  0.87790000  0.83380000  0.99320000  1.0 0.1038034981
H  H313  1  0.02290000  0.21210000  0.09580000  1.0 0.1038034981
H  H314  1  0.97710000  0.78790000  0.09580000  1.0 0.1038034981
H  H315  1  0.97710000  0.21210000  0.90420000  1.0 0.1038034981
H  H316  1  0.02290000  0.78790000  0.90420000  1.0 0.1038034981
H  H317  1  0.09580000  0.02290000  0.21210000  1.0 0.1038034981
H  H318  1  0.09580000  0.97710000  0.78790000  1.0 0.1038034981
H  H319  1  0.90420000  0.97710000  0.21210000  1.0 0.1038034981
H  H320  1  0.90420000  0.02290000  0.78790000  1.0 0.1038034981
H  H321  1  0.21210000  0.09580000  0.02290000  1.0 0.1038034981
H  H322  1  0.78790000  0.09580000  0.97710000  1.0 0.1038034981
H  H323  1  0.21210000  0.90420000  0.97710000  1.0 0.1038034981
H  H324  1  0.78790000  0.90420000  0.02290000  1.0 0.1038034981
H  H325  1  0.21210000  0.02290000  0.90420000  1.0 0.1038034981
H  H326  1  0.78790000  0.97710000  0.90420000  1.0 0.1038034981
H  H327  1  0.21210000  0.97710000  0.09580000  1.0 0.1038034981
H  H328  1  0.78790000  0.02290000  0.09580000  1.0 0.1038034981
H  H329  1  0.02290000  0.09580000  0.78790000  1.0 0.1038034981
H  H330  1  0.97710000  0.09580000  0.21210000  1.0 0.1038034981
H  H331  1  0.97710000  0.90420000  0.78790000  1.0 0.1038034981
H  H332  1  0.02290000  0.90420000  0.21210000  1.0 0.1038034981
H  H333  1  0.09580000  0.21210000  0.97710000  1.0 0.1038034981
H  H334  1  0.09580000  0.78790000  0.02290000  1.0 0.1038034981
H  H335  1  0.90420000  0.21210000  0.02290000  1.0 0.1038034981
H  H336  1  0.90420000  0.78790000  0.97710000  1.0 0.1038034981
H  H337  1  0.93450000  0.19180000  0.12080000  1.0 0.1209536211
H  H338  1  0.06550000  0.80820000  0.12080000  1.0 0.1209536211
H  H339  1  0.06550000  0.19180000  0.87920000  1.0 0.1209536211
H  H340  1  0.93450000  0.80820000  0.87920000  1.0 0.1209536211
H  H341  1  0.12080000  0.93450000  0.19180000  1.0 0.1209536211
H  H342  1  0.12080000  0.06550000  0.80820000  1.0 0.1209536211
H  H343  1  0.87920000  0.06550000  0.19180000  1.0 0.1209536211
H  H344  1  0.87920000  0.93450000  0.80820000  1.0 0.1209536211
H  H345  1  0.19180000  0.12080000  0.93450000  1.0 0.1209536211
H  H346  1  0.80820000  0.12080000  0.06550000  1.0 0.1209536211
H  H347  1  0.19180000  0.87920000  0.06550000  1.0 0.1209536211
H  H348  1  0.80820000  0.87920000  0.93450000  1.0 0.1209536211
H  H349  1  0.19180000  0.93450000  0.87920000  1.0 0.1209536211
H  H350  1  0.80820000  0.06550000  0.87920000  1.0 0.1209536211
H  H351  1  0.19180000  0.06550000  0.12080000  1.0 0.1209536211
H  H352  1  0.80820000  0.93450000  0.12080000  1.0 0.1209536211
H  H353  1  0.93450000  0.12080000  0.80820000  1.0 0.1209536211
H  H354  1  0.06550000  0.12080000  0.19180000  1.0 0.1209536211
H  H355  1  0.06550000  0.87920000  0.80820000  1.0 0.1209536211
H  H356  1  0.93450000  0.87920000  0.19180000  1.0 0.1209536211
H  H357  1  0.12080000  0.19180000  0.06550000  1.0 0.1209536211
H  H358  1  0.12080000  0.80820000  0.93450000  1.0 0.1209536211
H  H359  1  0.87920000  0.19180000  0.93450000  1.0 0.1209536211
H  H360  1  0.87920000  0.80820000  0.06550000  1.0 0.1209536211
H  H361  1  0.95110000  0.23910000  0.09710000  1.0 0.1209536211
H  H362  1  0.04890000  0.76090000  0.09710000  1.0 0.1209536211
H  H363  1  0.04890000  0.23910000  0.90290000  1.0 0.1209536211
H  H364  1  0.95110000  0.76090000  0.90290000  1.0 0.1209536211
H  H365  1  0.09710000  0.95110000  0.23910000  1.0 0.1209536211
H  H366  1  0.09710000  0.04890000  0.76090000  1.0 0.1209536211
H  H367  1  0.90290000  0.04890000  0.23910000  1.0 0.1209536211
H  H368  1  0.90290000  0.95110000  0.76090000  1.0 0.1209536211
H  H369  1  0.23910000  0.09710000  0.95110000  1.0 0.1209536211
H  H370  1  0.76090000  0.09710000  0.04890000  1.0 0.1209536211
H  H371  1  0.23910000  0.90290000  0.04890000  1.0 0.1209536211
H  H372  1  0.76090000  0.90290000  0.95110000  1.0 0.1209536211
H  H373  1  0.23910000  0.95110000  0.90290000  1.0 0.1209536211
H  H374  1  0.76090000  0.04890000  0.90290000  1.0 0.1209536211
H  H375  1  0.23910000  0.04890000  0.09710000  1.0 0.1209536211
H  H376  1  0.76090000  0.95110000  0.09710000  1.0 0.1209536211
H  H377  1  0.95110000  0.09710000  0.76090000  1.0 0.1209536211
H  H378  1  0.04890000  0.09710000  0.23910000  1.0 0.1209536211
H  H379  1  0.04890000  0.90290000  0.76090000  1.0 0.1209536211
H  H380  1  0.95110000  0.90290000  0.23910000  1.0 0.1209536211
H  H381  1  0.09710000  0.23910000  0.04890000  1.0 0.1209536211
H  H382  1  0.09710000  0.76090000  0.95110000  1.0 0.1209536211
H  H383  1  0.90290000  0.23910000  0.95110000  1.0 0.1209536211
H  H384  1  0.90290000  0.76090000  0.04890000  1.0 0.1209536211
C  C1  1  0.23550000  0.30830000  0.43670000  1.0 0.5793134111
C  C2  1  0.76450000  0.69170000  0.43670000  1.0 0.5793134111
C  C3  1  0.76450000  0.30830000  0.56330000  1.0 0.5793134111
C  C4  1  0.23550000  0.69170000  0.56330000  1.0 0.5793134111
C  C5  1  0.43670000  0.23550000  0.30830000  1.0 0.5793134111
C  C6  1  0.43670000  0.76450000  0.69170000  1.0 0.5793134111
C  C7  1  0.56330000  0.76450000  0.30830000  1.0 0.5793134111
C  C8  1  0.56330000  0.23550000  0.69170000  1.0 0.5793134111
C  C9  1  0.30830000  0.43670000  0.23550000  1.0 0.5793134111
C  C10  1  0.69170000  0.43670000  0.76450000  1.0 0.5793134111
C  C11  1  0.30830000  0.56330000  0.76450000  1.0 0.5793134111
C  C12  1  0.69170000  0.56330000  0.23550000  1.0 0.5793134111
C  C13  1  0.30830000  0.23550000  0.56330000  1.0 0.5793134111
C  C14  1  0.69170000  0.76450000  0.56330000  1.0 0.5793134111
C  C15  1  0.30830000  0.76450000  0.43670000  1.0 0.5793134111
C  C16  1  0.69170000  0.23550000  0.43670000  1.0 0.5793134111
C  C17  1  0.23550000  0.43670000  0.69170000  1.0 0.5793134111
C  C18  1  0.76450000  0.43670000  0.30830000  1.0 0.5793134111
C  C19  1  0.76450000  0.56330000  0.69170000  1.0 0.5793134111
C  C20  1  0.23550000  0.56330000  0.30830000  1.0 0.5793134111
C  C21  1  0.43670000  0.30830000  0.76450000  1.0 0.5793134111
C  C22  1  0.43670000  0.69170000  0.23550000  1.0 0.5793134111
C  C23  1  0.56330000  0.30830000  0.23550000  1.0 0.5793134111
C  C24  1  0.56330000  0.69170000  0.76450000  1.0 0.5793134111
C  C25  1  0.23190000  0.43590000  0.31590000  1.0 0.5793134111
C  C26  1  0.76810000  0.56410000  0.31590000  1.0 0.5793134111
C  C27  1  0.76810000  0.43590000  0.68410000  1.0 0.5793134111
C  C28  1  0.23190000  0.56410000  0.68410000  1.0 0.5793134111
C  C29  1  0.31590000  0.23190000  0.43590000  1.0 0.5793134111
C  C30  1  0.31590000  0.76810000  0.56410000  1.0 0.5793134111
C  C31  1  0.68410000  0.76810000  0.43590000  1.0 0.5793134111
C  C32  1  0.68410000  0.23190000  0.56410000  1.0 0.5793134111
C  C33  1  0.43590000  0.31590000  0.23190000  1.0 0.5793134111
C  C34  1  0.56410000  0.31590000  0.76810000  1.0 0.5793134111
C  C35  1  0.43590000  0.68410000  0.76810000  1.0 0.5793134111
C  C36  1  0.56410000  0.68410000  0.23190000  1.0 0.5793134111
C  C37  1  0.43590000  0.23190000  0.68410000  1.0 0.5793134111
C  C38  1  0.56410000  0.76810000  0.68410000  1.0 0.5793134111
C  C39  1  0.43590000  0.76810000  0.31590000  1.0 0.5793134111
C  C40  1  0.56410000  0.23190000  0.31590000  1.0 0.5793134111
C  C41  1  0.23190000  0.31590000  0.56410000  1.0 0.5793134111
C  C42  1  0.76810000  0.31590000  0.43590000  1.0 0.5793134111
C  C43  1  0.76810000  0.68410000  0.56410000  1.0 0.5793134111
C  C44  1  0.23190000  0.68410000  0.43590000  1.0 0.5793134111
C  C45  1  0.31590000  0.43590000  0.76810000  1.0 0.5793134111
C  C46  1  0.31590000  0.56410000  0.23190000  1.0 0.5793134111
C  C47  1  0.68410000  0.43590000  0.23190000  1.0 0.5793134111
C  C48  1  0.68410000  0.56410000  0.76810000  1.0 0.5793134111
C  C49  1  0.21070000  0.33110000  0.39430000  1.0 0.0085400103
C  C50  1  0.78930000  0.66890000  0.39430000  1.0 0.0085400103
C  C51  1  0.78930000  0.33110000  0.60570000  1.0 0.0085400103
C  C52  1  0.21070000  0.66890000  0.60570000  1.0 0.0085400103
C  C53  1  0.39430000  0.21070000  0.33110000  1.0 0.0085400103
C  C54  1  0.39430000  0.78930000  0.66890000  1.0 0.0085400103
C  C55  1  0.60570000  0.78930000  0.33110000  1.0 0.0085400103
C  C56  1  0.60570000  0.21070000  0.66890000  1.0 0.0085400103
C  C57  1  0.33110000  0.39430000  0.21070000  1.0 0.0085400103
C  C58  1  0.66890000  0.39430000  0.78930000  1.0 0.0085400103
C  C59  1  0.33110000  0.60570000  0.78930000  1.0 0.0085400103
C  C60  1  0.66890000  0.60570000  0.21070000  1.0 0.0085400103
C  C61  1  0.33110000  0.21070000  0.60570000  1.0 0.0085400103
C  C62  1  0.66890000  0.78930000  0.60570000  1.0 0.0085400103
C  C63  1  0.33110000  0.78930000  0.39430000  1.0 0.0085400103
C  C64  1  0.66890000  0.21070000  0.39430000  1.0 0.0085400103
C  C65  1  0.21070000  0.39430000  0.66890000  1.0 0.0085400103
C  C66  1  0.78930000  0.39430000  0.33110000  1.0 0.0085400103
C  C67  1  0.78930000  0.60570000  0.66890000  1.0 0.0085400103
C  C68  1  0.21070000  0.60570000  0.33110000  1.0 0.0085400103
C  C69  1  0.39430000  0.33110000  0.78930000  1.0 0.0085400103
C  C70  1  0.39430000  0.66890000  0.21070000  1.0 0.0085400103
C  C71  1  0.60570000  0.33110000  0.21070000  1.0 0.0085400103
C  C72  1  0.60570000  0.66890000  0.78930000  1.0 0.0085400103
C  C73  1  0.17300000  0.31100000  0.37270000  1.0 -0.1618560626
C  C74  1  0.82700000  0.68900000  0.37270000  1.0 -0.1618560626
C  C75  1  0.82700000  0.31100000  0.62730000  1.0 -0.1618560626
C  C76  1  0.17300000  0.68900000  0.62730000  1.0 -0.1618560626
C  C77  1  0.37270000  0.17300000  0.31100000  1.0 -0.1618560626
C  C78  1  0.37270000  0.82700000  0.68900000  1.0 -0.1618560626
C  C79  1  0.62730000  0.82700000  0.31100000  1.0 -0.1618560626
C  C80  1  0.62730000  0.17300000  0.68900000  1.0 -0.1618560626
C  C81  1  0.31100000  0.37270000  0.17300000  1.0 -0.1618560626
C  C82  1  0.68900000  0.37270000  0.82700000  1.0 -0.1618560626
C  C83  1  0.31100000  0.62730000  0.82700000  1.0 -0.1618560626
C  C84  1  0.68900000  0.62730000  0.17300000  1.0 -0.1618560626
C  C85  1  0.31100000  0.17300000  0.62730000  1.0 -0.1618560626
C  C86  1  0.68900000  0.82700000  0.62730000  1.0 -0.1618560626
C  C87  1  0.31100000  0.82700000  0.37270000  1.0 -0.1618560626
C  C88  1  0.68900000  0.17300000  0.37270000  1.0 -0.1618560626
C  C89  1  0.17300000  0.37270000  0.68900000  1.0 -0.1618560626
C  C90  1  0.82700000  0.37270000  0.31100000  1.0 -0.1618560626
C  C91  1  0.82700000  0.62730000  0.68900000  1.0 -0.1618560626
C  C92  1  0.17300000  0.62730000  0.31100000  1.0 -0.1618560626
C  C93  1  0.37270000  0.31100000  0.82700000  1.0 -0.1618560626
C  C94  1  0.37270000  0.68900000  0.17300000  1.0 -0.1618560626
C  C95  1  0.62730000  0.31100000  0.17300000  1.0 -0.1618560626
C  C96  1  0.62730000  0.68900000  0.82700000  1.0 -0.1618560626
C  C97  1  0.15240000  0.33270000  0.33530000  1.0 0.0678006808
C  C98  1  0.84760000  0.66730000  0.33530000  1.0 0.0678006808
C  C99  1  0.84760000  0.33270000  0.66470000  1.0 0.0678006808
C  C100  1  0.15240000  0.66730000  0.66470000  1.0 0.0678006808
C  C101  1  0.33530000  0.15240000  0.33270000  1.0 0.0678006808
C  C102  1  0.33530000  0.84760000  0.66730000  1.0 0.0678006808
C  C103  1  0.66470000  0.84760000  0.33270000  1.0 0.0678006808
C  C104  1  0.66470000  0.15240000  0.66730000  1.0 0.0678006808
C  C105  1  0.33270000  0.33530000  0.15240000  1.0 0.0678006808
C  C106  1  0.66730000  0.33530000  0.84760000  1.0 0.0678006808
C  C107  1  0.33270000  0.66470000  0.84760000  1.0 0.0678006808
C  C108  1  0.66730000  0.66470000  0.15240000  1.0 0.0678006808
C  C109  1  0.33270000  0.15240000  0.66470000  1.0 0.0678006808
C  C110  1  0.66730000  0.84760000  0.66470000  1.0 0.0678006808
C  C111  1  0.33270000  0.84760000  0.33530000  1.0 0.0678006808
C  C112  1  0.66730000  0.15240000  0.33530000  1.0 0.0678006808
C  C113  1  0.15240000  0.33530000  0.66730000  1.0 0.0678006808
C  C114  1  0.84760000  0.33530000  0.33270000  1.0 0.0678006808
C  C115  1  0.84760000  0.66470000  0.66730000  1.0 0.0678006808
C  C116  1  0.15240000  0.66470000  0.33270000  1.0 0.0678006808
C  C117  1  0.33530000  0.33270000  0.84760000  1.0 0.0678006808
C  C118  1  0.33530000  0.66730000  0.15240000  1.0 0.0678006808
C  C119  1  0.66470000  0.33270000  0.15240000  1.0 0.0678006808
C  C120  1  0.66470000  0.66730000  0.84760000  1.0 0.0678006808
C  C121  1  0.16940000  0.37450000  0.31950000  1.0 -0.1499859554
C  C122  1  0.83060000  0.62550000  0.31950000  1.0 -0.1499859554
C  C123  1  0.83060000  0.37450000  0.68050000  1.0 -0.1499859554
C  C124  1  0.16940000  0.62550000  0.68050000  1.0 -0.1499859554
C  C125  1  0.31950000  0.16940000  0.37450000  1.0 -0.1499859554
C  C126  1  0.31950000  0.83060000  0.62550000  1.0 -0.1499859554
C  C127  1  0.68050000  0.83060000  0.37450000  1.0 -0.1499859554
C  C128  1  0.68050000  0.16940000  0.62550000  1.0 -0.1499859554
C  C129  1  0.37450000  0.31950000  0.16940000  1.0 -0.1499859554
C  C130  1  0.62550000  0.31950000  0.83060000  1.0 -0.1499859554
C  C131  1  0.37450000  0.68050000  0.83060000  1.0 -0.1499859554
C  C132  1  0.62550000  0.68050000  0.16940000  1.0 -0.1499859554
C  C133  1  0.37450000  0.16940000  0.68050000  1.0 -0.1499859554
C  C134  1  0.62550000  0.83060000  0.68050000  1.0 -0.1499859554
C  C135  1  0.37450000  0.83060000  0.31950000  1.0 -0.1499859554
C  C136  1  0.62550000  0.16940000  0.31950000  1.0 -0.1499859554
C  C137  1  0.16940000  0.31950000  0.62550000  1.0 -0.1499859554
C  C138  1  0.83060000  0.31950000  0.37450000  1.0 -0.1499859554
C  C139  1  0.83060000  0.68050000  0.62550000  1.0 -0.1499859554
C  C140  1  0.16940000  0.68050000  0.37450000  1.0 -0.1499859554
C  C141  1  0.31950000  0.37450000  0.83060000  1.0 -0.1499859554
C  C142  1  0.31950000  0.62550000  0.16940000  1.0 -0.1499859554
C  C143  1  0.68050000  0.37450000  0.16940000  1.0 -0.1499859554
C  C144  1  0.68050000  0.62550000  0.83060000  1.0 -0.1499859554
C  C145  1  0.20720000  0.39470000  0.34110000  1.0 0.0085400103
C  C146  1  0.79280000  0.60530000  0.34110000  1.0 0.0085400103
C  C147  1  0.79280000  0.39470000  0.65890000  1.0 0.0085400103
C  C148  1  0.20720000  0.60530000  0.65890000  1.0 0.0085400103
C  C149  1  0.34110000  0.20720000  0.39470000  1.0 0.0085400103
C  C150  1  0.34110000  0.79280000  0.60530000  1.0 0.0085400103
C  C151  1  0.65890000  0.79280000  0.39470000  1.0 0.0085400103
C  C152  1  0.65890000  0.20720000  0.60530000  1.0 0.0085400103
C  C153  1  0.39470000  0.34110000  0.20720000  1.0 0.0085400103
C  C154  1  0.60530000  0.34110000  0.79280000  1.0 0.0085400103
C  C155  1  0.39470000  0.65890000  0.79280000  1.0 0.0085400103
C  C156  1  0.60530000  0.65890000  0.20720000  1.0 0.0085400103
C  C157  1  0.39470000  0.20720000  0.65890000  1.0 0.0085400103
C  C158  1  0.60530000  0.79280000  0.65890000  1.0 0.0085400103
C  C159  1  0.39470000  0.79280000  0.34110000  1.0 0.0085400103
C  C160  1  0.60530000  0.20720000  0.34110000  1.0 0.0085400103
C  C161  1  0.20720000  0.34110000  0.60530000  1.0 0.0085400103
C  C162  1  0.79280000  0.34110000  0.39470000  1.0 0.0085400103
C  C163  1  0.79280000  0.65890000  0.60530000  1.0 0.0085400103
C  C164  1  0.20720000  0.65890000  0.39470000  1.0 0.0085400103
C  C165  1  0.34110000  0.39470000  0.79280000  1.0 0.0085400103
C  C166  1  0.34110000  0.60530000  0.20720000  1.0 0.0085400103
C  C167  1  0.65890000  0.39470000  0.20720000  1.0 0.0085400103
C  C168  1  0.65890000  0.60530000  0.79280000  1.0 0.0085400103
C  C169  1  0.22780000  0.37300000  0.37850000  1.0 -0.1060135687
C  C170  1  0.77220000  0.62700000  0.37850000  1.0 -0.1060135687
C  C171  1  0.77220000  0.37300000  0.62150000  1.0 -0.1060135687
C  C172  1  0.22780000  0.62700000  0.62150000  1.0 -0.1060135687
C  C173  1  0.37850000  0.22780000  0.37300000  1.0 -0.1060135687
C  C174  1  0.37850000  0.77220000  0.62700000  1.0 -0.1060135687
C  C175  1  0.62150000  0.77220000  0.37300000  1.0 -0.1060135687
C  C176  1  0.62150000  0.22780000  0.62700000  1.0 -0.1060135687
C  C177  1  0.37300000  0.37850000  0.22780000  1.0 -0.1060135687
C  C178  1  0.62700000  0.37850000  0.77220000  1.0 -0.1060135687
C  C179  1  0.37300000  0.62150000  0.77220000  1.0 -0.1060135687
C  C180  1  0.62700000  0.62150000  0.22780000  1.0 -0.1060135687
C  C181  1  0.37300000  0.22780000  0.62150000  1.0 -0.1060135687
C  C182  1  0.62700000  0.77220000  0.62150000  1.0 -0.1060135687
C  C183  1  0.37300000  0.77220000  0.37850000  1.0 -0.1060135687
C  C184  1  0.62700000  0.22780000  0.37850000  1.0 -0.1060135687
C  C185  1  0.22780000  0.37850000  0.62700000  1.0 -0.1060135687
C  C186  1  0.77220000  0.37850000  0.37300000  1.0 -0.1060135687
C  C187  1  0.77220000  0.62150000  0.62700000  1.0 -0.1060135687
C  C188  1  0.22780000  0.62150000  0.37300000  1.0 -0.1060135687
C  C189  1  0.37850000  0.37300000  0.77220000  1.0 -0.1060135687
C  C190  1  0.37850000  0.62700000  0.22780000  1.0 -0.1060135687
C  C191  1  0.62150000  0.37300000  0.22780000  1.0 -0.1060135687
C  C192  1  0.62150000  0.62700000  0.77220000  1.0 -0.1060135687
C  C193  1  0.04380000  0.26000000  0.26090000  1.0 -0.1391471673
C  C194  1  0.95620000  0.74000000  0.26090000  1.0 -0.1391471673
C  C195  1  0.95620000  0.26000000  0.73910000  1.0 -0.1391471673
C  C196  1  0.04380000  0.74000000  0.73910000  1.0 -0.1391471673
C  C197  1  0.26090000  0.04380000  0.26000000  1.0 -0.1391471673
C  C198  1  0.26090000  0.95620000  0.74000000  1.0 -0.1391471673
C  C199  1  0.73910000  0.95620000  0.26000000  1.0 -0.1391471673
C  C200  1  0.73910000  0.04380000  0.74000000  1.0 -0.1391471673
C  C201  1  0.26000000  0.26090000  0.04380000  1.0 -0.1391471673
C  C202  1  0.74000000  0.26090000  0.95620000  1.0 -0.1391471673
C  C203  1  0.26000000  0.73910000  0.95620000  1.0 -0.1391471673
C  C204  1  0.74000000  0.73910000  0.04380000  1.0 -0.1391471673
C  C205  1  0.26000000  0.04380000  0.73910000  1.0 -0.1391471673
C  C206  1  0.74000000  0.95620000  0.73910000  1.0 -0.1391471673
C  C207  1  0.26000000  0.95620000  0.26090000  1.0 -0.1391471673
C  C208  1  0.74000000  0.04380000  0.26090000  1.0 -0.1391471673
C  C209  1  0.04380000  0.26090000  0.74000000  1.0 -0.1391471673
C  C210  1  0.95620000  0.26090000  0.26000000  1.0 -0.1391471673
C  C211  1  0.95620000  0.73910000  0.74000000  1.0 -0.1391471673
C  C212  1  0.04380000  0.73910000  0.26000000  1.0 -0.1391471673
C  C213  1  0.26090000  0.26000000  0.95620000  1.0 -0.1391471673
C  C214  1  0.26090000  0.74000000  0.04380000  1.0 -0.1391471673
C  C215  1  0.73910000  0.26000000  0.04380000  1.0 -0.1391471673
C  C216  1  0.73910000  0.74000000  0.95620000  1.0 -0.1391471673
C  C217  1  0.07450000  0.23590000  0.28870000  1.0 -0.16988371
C  C218  1  0.92550000  0.76410000  0.28870000  1.0 -0.16988371
C  C219  1  0.92550000  0.23590000  0.71130000  1.0 -0.16988371
C  C220  1  0.07450000  0.76410000  0.71130000  1.0 -0.16988371
C  C221  1  0.28870000  0.07450000  0.23590000  1.0 -0.16988371
C  C222  1  0.28870000  0.92550000  0.76410000  1.0 -0.16988371
C  C223  1  0.71130000  0.92550000  0.23590000  1.0 -0.16988371
C  C224  1  0.71130000  0.07450000  0.76410000  1.0 -0.16988371
C  C225  1  0.23590000  0.28870000  0.07450000  1.0 -0.16988371
C  C226  1  0.76410000  0.28870000  0.92550000  1.0 -0.16988371
C  C227  1  0.23590000  0.71130000  0.92550000  1.0 -0.16988371
C  C228  1  0.76410000  0.71130000  0.07450000  1.0 -0.16988371
C  C229  1  0.23590000  0.07450000  0.71130000  1.0 -0.16988371
C  C230  1  0.76410000  0.92550000  0.71130000  1.0 -0.16988371
C  C231  1  0.23590000  0.92550000  0.28870000  1.0 -0.16988371
C  C232  1  0.76410000  0.07450000  0.28870000  1.0 -0.16988371
C  C233  1  0.07450000  0.28870000  0.76410000  1.0 -0.16988371
C  C234  1  0.92550000  0.28870000  0.23590000  1.0 -0.16988371
C  C235  1  0.92550000  0.71130000  0.76410000  1.0 -0.16988371
C  C236  1  0.07450000  0.71130000  0.23590000  1.0 -0.16988371
C  C237  1  0.28870000  0.23590000  0.92550000  1.0 -0.16988371
C  C238  1  0.28870000  0.76410000  0.07450000  1.0 -0.16988371
C  C239  1  0.71130000  0.23590000  0.07450000  1.0 -0.16988371
C  C240  1  0.71130000  0.76410000  0.92550000  1.0 -0.16988371
C  C241  1  0.10990000  0.25910000  0.31100000  1.0 -0.1618560626
C  C242  1  0.89010000  0.74090000  0.31100000  1.0 -0.1618560626
C  C243  1  0.89010000  0.25910000  0.68900000  1.0 -0.1618560626
C  C244  1  0.10990000  0.74090000  0.68900000  1.0 -0.1618560626
C  C245  1  0.31100000  0.10990000  0.25910000  1.0 -0.1618560626
C  C246  1  0.31100000  0.89010000  0.74090000  1.0 -0.1618560626
C  C247  1  0.68900000  0.89010000  0.25910000  1.0 -0.1618560626
C  C248  1  0.68900000  0.10990000  0.74090000  1.0 -0.1618560626
C  C249  1  0.25910000  0.31100000  0.10990000  1.0 -0.1618560626
C  C250  1  0.74090000  0.31100000  0.89010000  1.0 -0.1618560626
C  C251  1  0.25910000  0.68900000  0.89010000  1.0 -0.1618560626
C  C252  1  0.74090000  0.68900000  0.10990000  1.0 -0.1618560626
C  C253  1  0.25910000  0.10990000  0.68900000  1.0 -0.1618560626
C  C254  1  0.74090000  0.89010000  0.68900000  1.0 -0.1618560626
C  C255  1  0.25910000  0.89010000  0.31100000  1.0 -0.1618560626
C  C256  1  0.74090000  0.10990000  0.31100000  1.0 -0.1618560626
C  C257  1  0.10990000  0.31100000  0.74090000  1.0 -0.1618560626
C  C258  1  0.89010000  0.31100000  0.25910000  1.0 -0.1618560626
C  C259  1  0.89010000  0.68900000  0.74090000  1.0 -0.1618560626
C  C260  1  0.10990000  0.68900000  0.25910000  1.0 -0.1618560626
C  C261  1  0.31100000  0.25910000  0.89010000  1.0 -0.1618560626
C  C262  1  0.31100000  0.74090000  0.10990000  1.0 -0.1618560626
C  C263  1  0.68900000  0.25910000  0.10990000  1.0 -0.1618560626
C  C264  1  0.68900000  0.74090000  0.89010000  1.0 -0.1618560626
C  C265  1  0.11460000  0.30650000  0.30550000  1.0 0.088279234
C  C266  1  0.88540000  0.69350000  0.30550000  1.0 0.088279234
C  C267  1  0.88540000  0.30650000  0.69450000  1.0 0.088279234
C  C268  1  0.11460000  0.69350000  0.69450000  1.0 0.088279234
C  C269  1  0.30550000  0.11460000  0.30650000  1.0 0.088279234
C  C270  1  0.30550000  0.88540000  0.69350000  1.0 0.088279234
C  C271  1  0.69450000  0.88540000  0.30650000  1.0 0.088279234
C  C272  1  0.69450000  0.11460000  0.69350000  1.0 0.088279234
C  C273  1  0.30650000  0.30550000  0.11460000  1.0 0.088279234
C  C274  1  0.69350000  0.30550000  0.88540000  1.0 0.088279234
C  C275  1  0.30650000  0.69450000  0.88540000  1.0 0.088279234
C  C276  1  0.69350000  0.69450000  0.11460000  1.0 0.088279234
C  C277  1  0.30650000  0.11460000  0.69450000  1.0 0.088279234
C  C278  1  0.69350000  0.88540000  0.69450000  1.0 0.088279234
C  C279  1  0.30650000  0.88540000  0.30550000  1.0 0.088279234
C  C280  1  0.69350000  0.11460000  0.30550000  1.0 0.088279234
C  C281  1  0.11460000  0.30550000  0.69350000  1.0 0.088279234
C  C282  1  0.88540000  0.30550000  0.30650000  1.0 0.088279234
C  C283  1  0.88540000  0.69450000  0.69350000  1.0 0.088279234
C  C284  1  0.11460000  0.69450000  0.30650000  1.0 0.088279234
C  C285  1  0.30550000  0.30650000  0.88540000  1.0 0.088279234
C  C286  1  0.30550000  0.69350000  0.11460000  1.0 0.088279234
C  C287  1  0.69450000  0.30650000  0.11460000  1.0 0.088279234
C  C288  1  0.69450000  0.69350000  0.88540000  1.0 0.088279234
C  C289  1  0.08400000  0.33060000  0.27770000  1.0 -0.1499859554
C  C290  1  0.91600000  0.66940000  0.27770000  1.0 -0.1499859554
C  C291  1  0.91600000  0.33060000  0.72230000  1.0 -0.1499859554
C  C292  1  0.08400000  0.66940000  0.72230000  1.0 -0.1499859554
C  C293  1  0.27770000  0.08400000  0.33060000  1.0 -0.1499859554
C  C294  1  0.27770000  0.91600000  0.66940000  1.0 -0.1499859554
C  C295  1  0.72230000  0.91600000  0.33060000  1.0 -0.1499859554
C  C296  1  0.72230000  0.08400000  0.66940000  1.0 -0.1499859554
C  C297  1  0.33060000  0.27770000  0.08400000  1.0 -0.1499859554
C  C298  1  0.66940000  0.27770000  0.91600000  1.0 -0.1499859554
C  C299  1  0.33060000  0.72230000  0.91600000  1.0 -0.1499859554
C  C300  1  0.66940000  0.72230000  0.08400000  1.0 -0.1499859554
C  C301  1  0.33060000  0.08400000  0.72230000  1.0 -0.1499859554
C  C302  1  0.66940000  0.91600000  0.72230000  1.0 -0.1499859554
C  C303  1  0.33060000  0.91600000  0.27770000  1.0 -0.1499859554
C  C304  1  0.66940000  0.08400000  0.27770000  1.0 -0.1499859554
C  C305  1  0.08400000  0.27770000  0.66940000  1.0 -0.1499859554
C  C306  1  0.91600000  0.27770000  0.33060000  1.0 -0.1499859554
C  C307  1  0.91600000  0.72230000  0.66940000  1.0 -0.1499859554
C  C308  1  0.08400000  0.72230000  0.33060000  1.0 -0.1499859554
C  C309  1  0.27770000  0.33060000  0.91600000  1.0 -0.1499859554
C  C310  1  0.27770000  0.66940000  0.08400000  1.0 -0.1499859554
C  C311  1  0.72230000  0.33060000  0.08400000  1.0 -0.1499859554
C  C312  1  0.72230000  0.66940000  0.91600000  1.0 -0.1499859554
C  C313  1  0.04860000  0.30730000  0.25540000  1.0 -0.1915090941
C  C314  1  0.95140000  0.69270000  0.25540000  1.0 -0.1915090941
C  C315  1  0.95140000  0.30730000  0.74460000  1.0 -0.1915090941
C  C316  1  0.04860000  0.69270000  0.74460000  1.0 -0.1915090941
C  C317  1  0.25540000  0.04860000  0.30730000  1.0 -0.1915090941
C  C318  1  0.25540000  0.95140000  0.69270000  1.0 -0.1915090941
C  C319  1  0.74460000  0.95140000  0.30730000  1.0 -0.1915090941
C  C320  1  0.74460000  0.04860000  0.69270000  1.0 -0.1915090941
C  C321  1  0.30730000  0.25540000  0.04860000  1.0 -0.1915090941
C  C322  1  0.69270000  0.25540000  0.95140000  1.0 -0.1915090941
C  C323  1  0.30730000  0.74460000  0.95140000  1.0 -0.1915090941
C  C324  1  0.69270000  0.74460000  0.04860000  1.0 -0.1915090941
C  C325  1  0.30730000  0.04860000  0.74460000  1.0 -0.1915090941
C  C326  1  0.69270000  0.95140000  0.74460000  1.0 -0.1915090941
C  C327  1  0.30730000  0.95140000  0.25540000  1.0 -0.1915090941
C  C328  1  0.69270000  0.04860000  0.25540000  1.0 -0.1915090941
C  C329  1  0.04860000  0.25540000  0.69270000  1.0 -0.1915090941
C  C330  1  0.95140000  0.25540000  0.30730000  1.0 -0.1915090941
C  C331  1  0.95140000  0.74460000  0.69270000  1.0 -0.1915090941
C  C332  1  0.04860000  0.74460000  0.30730000  1.0 -0.1915090941
C  C333  1  0.25540000  0.30730000  0.95140000  1.0 -0.1915090941
C  C334  1  0.25540000  0.69270000  0.04860000  1.0 -0.1915090941
C  C335  1  0.74460000  0.30730000  0.04860000  1.0 -0.1915090941
C  C336  1  0.74460000  0.69270000  0.95140000  1.0 -0.1915090941
C  C337  1  0.00000000  0.24060000  0.24060000  1.0 0.3002648665
C  C338  1  0.00000000  0.75940000  0.24060000  1.0 0.3002648665
C  C339  1  0.00000000  0.24060000  0.75940000  1.0 0.3002648665
C  C340  1  0.00000000  0.75940000  0.75940000  1.0 0.3002648665
C  C341  1  0.24060000  0.00000000  0.24060000  1.0 0.3002648665
C  C342  1  0.24060000  0.00000000  0.75940000  1.0 0.3002648665
C  C343  1  0.75940000  0.00000000  0.24060000  1.0 0.3002648665
C  C344  1  0.75940000  0.00000000  0.75940000  1.0 0.3002648665
C  C345  1  0.24060000  0.24060000  0.00000000  1.0 0.3002648665
C  C346  1  0.75940000  0.24060000  0.00000000  1.0 0.3002648665
C  C347  1  0.24060000  0.75940000  0.00000000  1.0 0.3002648665
C  C348  1  0.75940000  0.75940000  0.00000000  1.0 0.3002648665
C  C349  1  0.99990000  0.24990000  0.18870000  1.0 -0.2887770042
C  C350  1  0.00010000  0.75010000  0.18870000  1.0 -0.2887770042
C  C351  1  0.00010000  0.24990000  0.81130000  1.0 -0.2887770042
C  C352  1  0.99990000  0.75010000  0.81130000  1.0 -0.2887770042
C  C353  1  0.18870000  0.99990000  0.24990000  1.0 -0.2887770042
C  C354  1  0.18870000  0.00010000  0.75010000  1.0 -0.2887770042
C  C355  1  0.81130000  0.00010000  0.24990000  1.0 -0.2887770042
C  C356  1  0.81130000  0.99990000  0.75010000  1.0 -0.2887770042
C  C357  1  0.24990000  0.18870000  0.99990000  1.0 -0.2887770042
C  C358  1  0.75010000  0.18870000  0.00010000  1.0 -0.2887770042
C  C359  1  0.24990000  0.81130000  0.00010000  1.0 -0.2887770042
C  C360  1  0.75010000  0.81130000  0.99990000  1.0 -0.2887770042
C  C361  1  0.24990000  0.99990000  0.81130000  1.0 -0.2887770042
C  C362  1  0.75010000  0.00010000  0.81130000  1.0 -0.2887770042
C  C363  1  0.24990000  0.00010000  0.18870000  1.0 -0.2887770042
C  C364  1  0.75010000  0.99990000  0.18870000  1.0 -0.2887770042
C  C365  1  0.99990000  0.18870000  0.75010000  1.0 -0.2887770042
C  C366  1  0.00010000  0.18870000  0.24990000  1.0 -0.2887770042
C  C367  1  0.00010000  0.81130000  0.75010000  1.0 -0.2887770042
C  C368  1  0.99990000  0.81130000  0.24990000  1.0 -0.2887770042
C  C369  1  0.18870000  0.24990000  0.00010000  1.0 -0.2887770042
C  C370  1  0.18870000  0.75010000  0.99990000  1.0 -0.2887770042
C  C371  1  0.81130000  0.24990000  0.99990000  1.0 -0.2887770042
C  C372  1  0.81130000  0.75010000  0.00010000  1.0 -0.2887770042
C  C373  1  0.95060000  0.24320000  0.16980000  1.0 -0.0103389322
C  C374  1  0.04940000  0.75680000  0.16980000  1.0 -0.0103389322
C  C375  1  0.04940000  0.24320000  0.83020000  1.0 -0.0103389322
C  C376  1  0.95060000  0.75680000  0.83020000  1.0 -0.0103389322
C  C377  1  0.16980000  0.95060000  0.24320000  1.0 -0.0103389322
C  C378  1  0.16980000  0.04940000  0.75680000  1.0 -0.0103389322
C  C379  1  0.83020000  0.04940000  0.24320000  1.0 -0.0103389322
C  C380  1  0.83020000  0.95060000  0.75680000  1.0 -0.0103389322
C  C381  1  0.24320000  0.16980000  0.95060000  1.0 -0.0103389322
C  C382  1  0.75680000  0.16980000  0.04940000  1.0 -0.0103389322
C  C383  1  0.24320000  0.83020000  0.04940000  1.0 -0.0103389322
C  C384  1  0.75680000  0.83020000  0.95060000  1.0 -0.0103389322
C  C385  1  0.24320000  0.95060000  0.83020000  1.0 -0.0103389322
C  C386  1  0.75680000  0.04940000  0.83020000  1.0 -0.0103389322
C  C387  1  0.24320000  0.04940000  0.16980000  1.0 -0.0103389322
C  C388  1  0.75680000  0.95060000  0.16980000  1.0 -0.0103389322
C  C389  1  0.95060000  0.16980000  0.75680000  1.0 -0.0103389322
C  C390  1  0.04940000  0.16980000  0.24320000  1.0 -0.0103389322
C  C391  1  0.04940000  0.83020000  0.75680000  1.0 -0.0103389322
C  C392  1  0.95060000  0.83020000  0.24320000  1.0 -0.0103389322
C  C393  1  0.16980000  0.24320000  0.04940000  1.0 -0.0103389322
C  C394  1  0.16980000  0.75680000  0.95060000  1.0 -0.0103389322
C  C395  1  0.83020000  0.24320000  0.95060000  1.0 -0.0103389322
C  C396  1  0.83020000  0.75680000  0.04940000  1.0 -0.0103389322
C  C397  1  0.00650000  0.20030000  0.12330000  1.0 -0.1391471673
C  C398  1  0.99350000  0.79970000  0.12330000  1.0 -0.1391471673
C  C399  1  0.99350000  0.20030000  0.87670000  1.0 -0.1391471673
C  C400  1  0.00650000  0.79970000  0.87670000  1.0 -0.1391471673
C  C401  1  0.12330000  0.00650000  0.20030000  1.0 -0.1391471673
C  C402  1  0.12330000  0.99350000  0.79970000  1.0 -0.1391471673
C  C403  1  0.87670000  0.99350000  0.20030000  1.0 -0.1391471673
C  C404  1  0.87670000  0.00650000  0.79970000  1.0 -0.1391471673
C  C405  1  0.20030000  0.12330000  0.00650000  1.0 -0.1391471673
C  C406  1  0.79970000  0.12330000  0.99350000  1.0 -0.1391471673
C  C407  1  0.20030000  0.87670000  0.99350000  1.0 -0.1391471673
C  C408  1  0.79970000  0.87670000  0.00650000  1.0 -0.1391471673
C  C409  1  0.20030000  0.00650000  0.87670000  1.0 -0.1391471673
C  C410  1  0.79970000  0.99350000  0.87670000  1.0 -0.1391471673
C  C411  1  0.20030000  0.99350000  0.12330000  1.0 -0.1391471673
C  C412  1  0.79970000  0.00650000  0.12330000  1.0 -0.1391471673
C  C413  1  0.00650000  0.12330000  0.79970000  1.0 -0.1391471673
C  C414  1  0.99350000  0.12330000  0.20030000  1.0 -0.1391471673
C  C415  1  0.99350000  0.87670000  0.79970000  1.0 -0.1391471673
C  C416  1  0.00650000  0.87670000  0.20030000  1.0 -0.1391471673
C  C417  1  0.12330000  0.20030000  0.99350000  1.0 -0.1391471673
C  C418  1  0.12330000  0.79970000  0.00650000  1.0 -0.1391471673
C  C419  1  0.87670000  0.20030000  0.00650000  1.0 -0.1391471673
C  C420  1  0.87670000  0.79970000  0.99350000  1.0 -0.1391471673
C  C421  1  0.95640000  0.21800000  0.12320000  1.0 -0.2887770042
C  C422  1  0.04360000  0.78200000  0.12320000  1.0 -0.2887770042
C  C423  1  0.04360000  0.21800000  0.87680000  1.0 -0.2887770042
C  C424  1  0.95640000  0.78200000  0.87680000  1.0 -0.2887770042
C  C425  1  0.12320000  0.95640000  0.21800000  1.0 -0.2887770042
C  C426  1  0.12320000  0.04360000  0.78200000  1.0 -0.2887770042
C  C427  1  0.87680000  0.04360000  0.21800000  1.0 -0.2887770042
C  C428  1  0.87680000  0.95640000  0.78200000  1.0 -0.2887770042
C  C429  1  0.21800000  0.12320000  0.95640000  1.0 -0.2887770042
C  C430  1  0.78200000  0.12320000  0.04360000  1.0 -0.2887770042
C  C431  1  0.21800000  0.87680000  0.04360000  1.0 -0.2887770042
C  C432  1  0.78200000  0.87680000  0.95640000  1.0 -0.2887770042
C  C433  1  0.21800000  0.95640000  0.87680000  1.0 -0.2887770042
C  C434  1  0.78200000  0.04360000  0.87680000  1.0 -0.2887770042
C  C435  1  0.21800000  0.04360000  0.12320000  1.0 -0.2887770042
C  C436  1  0.78200000  0.95640000  0.12320000  1.0 -0.2887770042
C  C437  1  0.95640000  0.12320000  0.78200000  1.0 -0.2887770042
C  C438  1  0.04360000  0.12320000  0.21800000  1.0 -0.2887770042
C  C439  1  0.04360000  0.87680000  0.78200000  1.0 -0.2887770042
C  C440  1  0.95640000  0.87680000  0.21800000  1.0 -0.2887770042
C  C441  1  0.12320000  0.21800000  0.04360000  1.0 -0.2887770042
C  C442  1  0.12320000  0.78200000  0.95640000  1.0 -0.2887770042
C  C443  1  0.87680000  0.21800000  0.95640000  1.0 -0.2887770042
C  C444  1  0.87680000  0.78200000  0.04360000  1.0 -0.2887770042
N  N1  1  0.03020000  0.21620000  0.16550000  1.0 -0.0915599924
N  N2  1  0.96980000  0.78380000  0.16550000  1.0 -0.0915599924
N  N3  1  0.96980000  0.21620000  0.83450000  1.0 -0.0915599924
N  N4  1  0.03020000  0.78380000  0.83450000  1.0 -0.0915599924
N  N5  1  0.16550000  0.03020000  0.21620000  1.0 -0.0915599924
N  N6  1  0.16550000  0.96980000  0.78380000  1.0 -0.0915599924
N  N7  1  0.83450000  0.96980000  0.21620000  1.0 -0.0915599924
N  N8  1  0.83450000  0.03020000  0.78380000  1.0 -0.0915599924
N  N9  1  0.21620000  0.16550000  0.03020000  1.0 -0.0915599924
N  N10  1  0.78380000  0.16550000  0.96980000  1.0 -0.0915599924
N  N11  1  0.21620000  0.83450000  0.96980000  1.0 -0.0915599924
N  N12  1  0.78380000  0.83450000  0.03020000  1.0 -0.0915599924
N  N13  1  0.21620000  0.03020000  0.83450000  1.0 -0.0915599924
N  N14  1  0.78380000  0.96980000  0.83450000  1.0 -0.0915599924
N  N15  1  0.21620000  0.96980000  0.16550000  1.0 -0.0915599924
N  N16  1  0.78380000  0.03020000  0.16550000  1.0 -0.0915599924
N  N17  1  0.03020000  0.16550000  0.78380000  1.0 -0.0915599924
N  N18  1  0.96980000  0.16550000  0.21620000  1.0 -0.0915599924
N  N19  1  0.96980000  0.83450000  0.78380000  1.0 -0.0915599924
N  N20  1  0.03020000  0.83450000  0.21620000  1.0 -0.0915599924
N  N21  1  0.16550000  0.21620000  0.96980000  1.0 -0.0915599924
N  N22  1  0.16550000  0.78380000  0.03020000  1.0 -0.0915599924
N  N23  1  0.83450000  0.21620000  0.03020000  1.0 -0.0915599924
N  N24  1  0.83450000  0.78380000  0.96980000  1.0 -0.0915599924
O  O1  1  0.26940000  0.33040000  0.45340000  1.0 -0.5146811939
O  O2  1  0.73060000  0.66960000  0.45340000  1.0 -0.5146811939
O  O3  1  0.73060000  0.33040000  0.54660000  1.0 -0.5146811939
O  O4  1  0.26940000  0.66960000  0.54660000  1.0 -0.5146811939
O  O5  1  0.45340000  0.26940000  0.33040000  1.0 -0.5146811939
O  O6  1  0.45340000  0.73060000  0.66960000  1.0 -0.5146811939
O  O7  1  0.54660000  0.73060000  0.33040000  1.0 -0.5146811939
O  O8  1  0.54660000  0.26940000  0.66960000  1.0 -0.5146811939
O  O9  1  0.33040000  0.45340000  0.26940000  1.0 -0.5146811939
O  O10  1  0.66960000  0.45340000  0.73060000  1.0 -0.5146811939
O  O11  1  0.33040000  0.54660000  0.73060000  1.0 -0.5146811939
O  O12  1  0.66960000  0.54660000  0.26940000  1.0 -0.5146811939
O  O13  1  0.33040000  0.26940000  0.54660000  1.0 -0.5146811939
O  O14  1  0.66960000  0.73060000  0.54660000  1.0 -0.5146811939
O  O15  1  0.33040000  0.73060000  0.45340000  1.0 -0.5146811939
O  O16  1  0.66960000  0.26940000  0.45340000  1.0 -0.5146811939
O  O17  1  0.26940000  0.45340000  0.66960000  1.0 -0.5146811939
O  O18  1  0.73060000  0.45340000  0.33040000  1.0 -0.5146811939
O  O19  1  0.73060000  0.54660000  0.66960000  1.0 -0.5146811939
O  O20  1  0.26940000  0.54660000  0.33040000  1.0 -0.5146811939
O  O21  1  0.45340000  0.33040000  0.73060000  1.0 -0.5146811939
O  O22  1  0.45340000  0.66960000  0.26940000  1.0 -0.5146811939
O  O23  1  0.54660000  0.33040000  0.26940000  1.0 -0.5146811939
O  O24  1  0.54660000  0.66960000  0.73060000  1.0 -0.5146811939
O  O25  1  0.21220000  0.27640000  0.45610000  1.0 -0.5180070114
O  O26  1  0.78780000  0.72360000  0.45610000  1.0 -0.5180070114
O  O27  1  0.78780000  0.27640000  0.54390000  1.0 -0.5180070114
O  O28  1  0.21220000  0.72360000  0.54390000  1.0 -0.5180070114
O  O29  1  0.45610000  0.21220000  0.27640000  1.0 -0.5180070114
O  O30  1  0.45610000  0.78780000  0.72360000  1.0 -0.5180070114
O  O31  1  0.54390000  0.78780000  0.27640000  1.0 -0.5180070114
O  O32  1  0.54390000  0.21220000  0.72360000  1.0 -0.5180070114
O  O33  1  0.27640000  0.45610000  0.21220000  1.0 -0.5180070114
O  O34  1  0.72360000  0.45610000  0.78780000  1.0 -0.5180070114
O  O35  1  0.27640000  0.54390000  0.78780000  1.0 -0.5180070114
O  O36  1  0.72360000  0.54390000  0.21220000  1.0 -0.5180070114
O  O37  1  0.27640000  0.21220000  0.54390000  1.0 -0.5180070114
O  O38  1  0.72360000  0.78780000  0.54390000  1.0 -0.5180070114
O  O39  1  0.27640000  0.78780000  0.45610000  1.0 -0.5180070114
O  O40  1  0.72360000  0.21220000  0.45610000  1.0 -0.5180070114
O  O41  1  0.21220000  0.45610000  0.72360000  1.0 -0.5180070114
O  O42  1  0.78780000  0.45610000  0.27640000  1.0 -0.5180070114
O  O43  1  0.78780000  0.54390000  0.72360000  1.0 -0.5180070114
O  O44  1  0.21220000  0.54390000  0.27640000  1.0 -0.5180070114
O  O45  1  0.45610000  0.27640000  0.78780000  1.0 -0.5180070114
O  O46  1  0.45610000  0.72360000  0.21220000  1.0 -0.5180070114
O  O47  1  0.54390000  0.27640000  0.21220000  1.0 -0.5180070114
O  O48  1  0.54390000  0.72360000  0.78780000  1.0 -0.5180070114
O  O49  1  0.26640000  0.45240000  0.33760000  1.0 -0.5360774708
O  O50  1  0.73360000  0.54760000  0.33760000  1.0 -0.5360774708
O  O51  1  0.73360000  0.45240000  0.66240000  1.0 -0.5360774708
O  O52  1  0.26640000  0.54760000  0.66240000  1.0 -0.5360774708
O  O53  1  0.33760000  0.26640000  0.45240000  1.0 -0.5360774708
O  O54  1  0.33760000  0.73360000  0.54760000  1.0 -0.5360774708
O  O55  1  0.66240000  0.73360000  0.45240000  1.0 -0.5360774708
O  O56  1  0.66240000  0.26640000  0.54760000  1.0 -0.5360774708
O  O57  1  0.45240000  0.33760000  0.26640000  1.0 -0.5360774708
O  O58  1  0.54760000  0.33760000  0.73360000  1.0 -0.5360774708
O  O59  1  0.45240000  0.66240000  0.73360000  1.0 -0.5360774708
O  O60  1  0.54760000  0.66240000  0.26640000  1.0 -0.5360774708
O  O61  1  0.45240000  0.26640000  0.66240000  1.0 -0.5360774708
O  O62  1  0.54760000  0.73360000  0.66240000  1.0 -0.5360774708
O  O63  1  0.45240000  0.73360000  0.33760000  1.0 -0.5360774708
O  O64  1  0.54760000  0.26640000  0.33760000  1.0 -0.5360774708
O  O65  1  0.26640000  0.33760000  0.54760000  1.0 -0.5360774708
O  O66  1  0.73360000  0.33760000  0.45240000  1.0 -0.5360774708
O  O67  1  0.73360000  0.66240000  0.54760000  1.0 -0.5360774708
O  O68  1  0.26640000  0.66240000  0.45240000  1.0 -0.5360774708
O  O69  1  0.33760000  0.45240000  0.73360000  1.0 -0.5360774708
O  O70  1  0.33760000  0.54760000  0.26640000  1.0 -0.5360774708
O  O71  1  0.66240000  0.45240000  0.26640000  1.0 -0.5360774708
O  O72  1  0.66240000  0.54760000  0.73360000  1.0 -0.5360774708
O  O73  1  0.21070000  0.45010000  0.28010000  1.0 -0.5496959649
O  O74  1  0.78930000  0.54990000  0.28010000  1.0 -0.5496959649
O  O75  1  0.78930000  0.45010000  0.71990000  1.0 -0.5496959649
O  O76  1  0.21070000  0.54990000  0.71990000  1.0 -0.5496959649
O  O77  1  0.28010000  0.21070000  0.45010000  1.0 -0.5496959649
O  O78  1  0.28010000  0.78930000  0.54990000  1.0 -0.5496959649
O  O79  1  0.71990000  0.78930000  0.45010000  1.0 -0.5496959649
O  O80  1  0.71990000  0.21070000  0.54990000  1.0 -0.5496959649
O  O81  1  0.45010000  0.28010000  0.21070000  1.0 -0.5496959649
O  O82  1  0.54990000  0.28010000  0.78930000  1.0 -0.5496959649
O  O83  1  0.45010000  0.71990000  0.78930000  1.0 -0.5496959649
O  O84  1  0.54990000  0.71990000  0.21070000  1.0 -0.5496959649
O  O85  1  0.45010000  0.21070000  0.71990000  1.0 -0.5496959649
O  O86  1  0.54990000  0.78930000  0.71990000  1.0 -0.5496959649
O  O87  1  0.45010000  0.78930000  0.28010000  1.0 -0.5496959649
O  O88  1  0.54990000  0.21070000  0.28010000  1.0 -0.5496959649
O  O89  1  0.21070000  0.28010000  0.54990000  1.0 -0.5496959649
O  O90  1  0.78930000  0.28010000  0.45010000  1.0 -0.5496959649
O  O91  1  0.78930000  0.71990000  0.54990000  1.0 -0.5496959649
O  O92  1  0.21070000  0.71990000  0.45010000  1.0 -0.5496959649
O  O93  1  0.28010000  0.45010000  0.78930000  1.0 -0.5496959649
O  O94  1  0.28010000  0.54990000  0.21070000  1.0 -0.5496959649
O  O95  1  0.71990000  0.45010000  0.21070000  1.0 -0.5496959649
O  O96  1  0.71990000  0.54990000  0.78930000  1.0 -0.5496959649
O  O97  1  0.00030000  0.19200000  0.24680000  1.0 -0.2201184078
O  O98  1  0.99970000  0.80800000  0.24680000  1.0 -0.2201184078
O  O99  1  0.99970000  0.19200000  0.75320000  1.0 -0.2201184078
O  O100  1  0.00030000  0.80800000  0.75320000  1.0 -0.2201184078
O  O101  1  0.24680000  0.00030000  0.19200000  1.0 -0.2201184078
O  O102  1  0.24680000  0.99970000  0.80800000  1.0 -0.2201184078
O  O103  1  0.75320000  0.99970000  0.19200000  1.0 -0.2201184078
O  O104  1  0.75320000  0.00030000  0.80800000  1.0 -0.2201184078
O  O105  1  0.19200000  0.24680000  0.00030000  1.0 -0.2201184078
O  O106  1  0.80800000  0.24680000  0.99970000  1.0 -0.2201184078
O  O107  1  0.19200000  0.75320000  0.99970000  1.0 -0.2201184078
O  O108  1  0.80800000  0.75320000  0.00030000  1.0 -0.2201184078
O  O109  1  0.19200000  0.00030000  0.75320000  1.0 -0.2201184078
O  O110  1  0.80800000  0.99970000  0.75320000  1.0 -0.2201184078
O  O111  1  0.19200000  0.99970000  0.24680000  1.0 -0.2201184078
O  O112  1  0.80800000  0.00030000  0.24680000  1.0 -0.2201184078
O  O113  1  0.00030000  0.24680000  0.80800000  1.0 -0.2201184078
O  O114  1  0.99970000  0.24680000  0.19200000  1.0 -0.2201184078
O  O115  1  0.99970000  0.75320000  0.80800000  1.0 -0.2201184078
O  O116  1  0.00030000  0.75320000  0.19200000  1.0 -0.2201184078
O  O117  1  0.24680000  0.19200000  0.99970000  1.0 -0.2201184078
O  O118  1  0.24680000  0.80800000  0.00030000  1.0 -0.2201184078
O  O119  1  0.75320000  0.19200000  0.00030000  1.0 -0.2201184078
O  O120  1  0.75320000  0.80800000  0.99970000  1.0 -0.2201184078
