# DDEC6 charges by PACMAN v1.1 (https://github.com/mtap-research/PACMAN-charge/)
data_TAKYEL_ASR_pacman
_symmetry_space_group_name_H-M   'P 1'
_cell_length_a   15.29700000
_cell_length_b   15.29700000
_cell_length_c   15.37000000
_cell_angle_alpha   90.00000000
_cell_angle_beta   90.00000000
_cell_angle_gamma   120.00000000
_symmetry_Int_Tables_number   1
_chemical_formula_structural   Eu2Co3H18C42(NO4)6
_chemical_formula_sum   'Eu4 Co6 H36 C84 N12 O48'
_cell_volume   3114.70580708
_cell_formula_units_Z   2
loop_
 _symmetry_equiv_pos_site_id
 _symmetry_equiv_pos_as_xyz
  1  'x, y, z'
loop_
 _atom_site_type_symbol
 _atom_site_label
 _atom_site_symmetry_multiplicity
 _atom_site_fract_x
 _atom_site_fract_y
 _atom_site_fract_z
 _atom_site_occupancy
 _atom_site_charge
Eu  Eu1  1  0.33333333  0.66666667  0.25000000  1.0 1.8675279817
Eu  Eu2  1  0.66666667  0.33333333  0.25000000  1.0 1.8675279817
Eu  Eu3  1  0.66666667  0.33333333  0.75000000  1.0 1.8675279817
Eu  Eu4  1  0.33333333  0.66666667  0.75000000  1.0 1.8675279817
Co  Co1  1  0.50000000  0.00000000  0.50000000  1.0 1.0812545916
Co  Co2  1  0.00000000  0.50000000  0.50000000  1.0 1.0812545916
Co  Co3  1  0.50000000  0.50000000  0.50000000  1.0 1.0812545916
Co  Co4  1  0.00000000  0.50000000  0.00000000  1.0 1.0812545916
Co  Co5  1  0.50000000  0.00000000  0.00000000  1.0 1.0812545916
Co  Co6  1  0.50000000  0.50000000  0.00000000  1.0 1.0812545916
H  H1  1  0.71470000  0.94710000  0.34510000  1.0 0.1394633916
H  H2  1  0.05290000  0.76760000  0.34510000  1.0 0.1394633916
H  H3  1  0.23240000  0.28530000  0.34510000  1.0 0.1394633916
H  H4  1  0.28530000  0.05290000  0.34510000  1.0 0.1394633916
H  H5  1  0.94710000  0.23240000  0.34510000  1.0 0.1394633916
H  H6  1  0.76760000  0.71470000  0.34510000  1.0 0.1394633916
H  H7  1  0.94710000  0.71470000  0.15490000  1.0 0.1394633916
H  H8  1  0.76760000  0.05290000  0.15490000  1.0 0.1394633916
H  H9  1  0.28530000  0.23240000  0.15490000  1.0 0.1394633916
H  H10  1  0.05290000  0.28530000  0.15490000  1.0 0.1394633916
H  H11  1  0.23240000  0.94710000  0.15490000  1.0 0.1394633916
H  H12  1  0.71470000  0.76760000  0.15490000  1.0 0.1394633916
H  H13  1  0.28530000  0.05290000  0.65490000  1.0 0.1394633916
H  H14  1  0.94710000  0.23240000  0.65490000  1.0 0.1394633916
H  H15  1  0.76760000  0.71470000  0.65490000  1.0 0.1394633916
H  H16  1  0.71470000  0.94710000  0.65490000  1.0 0.1394633916
H  H17  1  0.05290000  0.76760000  0.65490000  1.0 0.1394633916
H  H18  1  0.23240000  0.28530000  0.65490000  1.0 0.1394633916
H  H19  1  0.05290000  0.28530000  0.84510000  1.0 0.1394633916
H  H20  1  0.23240000  0.94710000  0.84510000  1.0 0.1394633916
H  H21  1  0.71470000  0.76760000  0.84510000  1.0 0.1394633916
H  H22  1  0.94710000  0.71470000  0.84510000  1.0 0.1394633916
H  H23  1  0.76760000  0.05290000  0.84510000  1.0 0.1394633916
H  H24  1  0.28530000  0.23240000  0.84510000  1.0 0.1394633916
H  H25  1  0.79970000  0.89985000  0.25000000  1.0 0.1106705419
H  H26  1  0.10015000  0.89985000  0.25000000  1.0 0.1106705419
H  H27  1  0.10015000  0.20030000  0.25000000  1.0 0.1106705419
H  H28  1  0.20030000  0.10015000  0.25000000  1.0 0.1106705419
H  H29  1  0.89985000  0.10015000  0.25000000  1.0 0.1106705419
H  H30  1  0.89985000  0.79970000  0.25000000  1.0 0.1106705419
H  H31  1  0.20030000  0.10015000  0.75000000  1.0 0.1106705419
H  H32  1  0.89985000  0.10015000  0.75000000  1.0 0.1106705419
H  H33  1  0.89985000  0.79970000  0.75000000  1.0 0.1106705419
H  H34  1  0.79970000  0.89985000  0.75000000  1.0 0.1106705419
H  H35  1  0.10015000  0.89985000  0.75000000  1.0 0.1106705419
H  H36  1  0.10015000  0.20030000  0.75000000  1.0 0.1106705419
C  C1  1  0.50900000  0.86305000  0.36090000  1.0 0.580057795
C  C2  1  0.13695000  0.64595000  0.36090000  1.0 0.580057795
C  C3  1  0.35405000  0.49100000  0.36090000  1.0 0.580057795
C  C4  1  0.49100000  0.13695000  0.36090000  1.0 0.580057795
C  C5  1  0.86305000  0.35405000  0.36090000  1.0 0.580057795
C  C6  1  0.64595000  0.50900000  0.36090000  1.0 0.580057795
C  C7  1  0.86305000  0.50900000  0.13910000  1.0 0.580057795
C  C8  1  0.64595000  0.13695000  0.13910000  1.0 0.580057795
C  C9  1  0.49100000  0.35405000  0.13910000  1.0 0.580057795
C  C10  1  0.13695000  0.49100000  0.13910000  1.0 0.580057795
C  C11  1  0.35405000  0.86305000  0.13910000  1.0 0.580057795
C  C12  1  0.50900000  0.64595000  0.13910000  1.0 0.580057795
C  C13  1  0.49100000  0.13695000  0.63910000  1.0 0.580057795
C  C14  1  0.86305000  0.35405000  0.63910000  1.0 0.580057795
C  C15  1  0.64595000  0.50900000  0.63910000  1.0 0.580057795
C  C16  1  0.50900000  0.86305000  0.63910000  1.0 0.580057795
C  C17  1  0.13695000  0.64595000  0.63910000  1.0 0.580057795
C  C18  1  0.35405000  0.49100000  0.63910000  1.0 0.580057795
C  C19  1  0.13695000  0.49100000  0.86090000  1.0 0.580057795
C  C20  1  0.35405000  0.86305000  0.86090000  1.0 0.580057795
C  C21  1  0.50900000  0.64595000  0.86090000  1.0 0.580057795
C  C22  1  0.86305000  0.50900000  0.86090000  1.0 0.580057795
C  C23  1  0.64595000  0.13695000  0.86090000  1.0 0.580057795
C  C24  1  0.49100000  0.35405000  0.86090000  1.0 0.580057795
C  C25  1  0.57492000  0.83967000  0.30380000  1.0 0.1394633916
C  C26  1  0.16033000  0.73525000  0.30380000  1.0 0.1394633916
C  C27  1  0.26475000  0.42508000  0.30380000  1.0 0.1394633916
C  C28  1  0.42508000  0.16033000  0.30380000  1.0 0.1394633916
C  C29  1  0.83967000  0.26475000  0.30380000  1.0 0.1394633916
C  C30  1  0.73525000  0.57492000  0.30380000  1.0 0.1394633916
C  C31  1  0.83967000  0.57492000  0.19620000  1.0 0.1394633916
C  C32  1  0.73525000  0.16033000  0.19620000  1.0 0.1394633916
C  C33  1  0.42508000  0.26475000  0.19620000  1.0 0.1394633916
C  C34  1  0.16033000  0.42508000  0.19620000  1.0 0.1394633916
C  C35  1  0.26475000  0.83967000  0.19620000  1.0 0.1394633916
C  C36  1  0.57492000  0.73525000  0.19620000  1.0 0.1394633916
C  C37  1  0.42508000  0.16033000  0.69620000  1.0 0.1394633916
C  C38  1  0.83967000  0.26475000  0.69620000  1.0 0.1394633916
C  C39  1  0.73525000  0.57492000  0.69620000  1.0 0.1394633916
C  C40  1  0.57492000  0.83967000  0.69620000  1.0 0.1394633916
C  C41  1  0.16033000  0.73525000  0.69620000  1.0 0.1394633916
C  C42  1  0.26475000  0.42508000  0.69620000  1.0 0.1394633916
C  C43  1  0.16033000  0.42508000  0.80380000  1.0 0.1394633916
C  C44  1  0.26475000  0.83967000  0.80380000  1.0 0.1394633916
C  C45  1  0.57492000  0.73525000  0.80380000  1.0 0.1394633916
C  C46  1  0.83967000  0.57492000  0.80380000  1.0 0.1394633916
C  C47  1  0.73525000  0.16033000  0.80380000  1.0 0.1394633916
C  C48  1  0.42508000  0.26475000  0.80380000  1.0 0.1394633916
C  C49  1  0.67992000  0.89376000  0.30660000  1.0 -0.1352395215
C  C50  1  0.10624000  0.78616000  0.30660000  1.0 -0.1352395215
C  C51  1  0.21384000  0.32008000  0.30660000  1.0 -0.1352395215
C  C52  1  0.32008000  0.10624000  0.30660000  1.0 -0.1352395215
C  C53  1  0.89376000  0.21384000  0.30660000  1.0 -0.1352395215
C  C54  1  0.78616000  0.67992000  0.30660000  1.0 -0.1352395215
C  C55  1  0.89376000  0.67992000  0.19340000  1.0 -0.1352395215
C  C56  1  0.78616000  0.10624000  0.19340000  1.0 -0.1352395215
C  C57  1  0.32008000  0.21384000  0.19340000  1.0 -0.1352395215
C  C58  1  0.10624000  0.32008000  0.19340000  1.0 -0.1352395215
C  C59  1  0.21384000  0.89376000  0.19340000  1.0 -0.1352395215
C  C60  1  0.67992000  0.78616000  0.19340000  1.0 -0.1352395215
C  C61  1  0.32008000  0.10624000  0.69340000  1.0 -0.1352395215
C  C62  1  0.89376000  0.21384000  0.69340000  1.0 -0.1352395215
C  C63  1  0.78616000  0.67992000  0.69340000  1.0 -0.1352395215
C  C64  1  0.67992000  0.89376000  0.69340000  1.0 -0.1352395215
C  C65  1  0.10624000  0.78616000  0.69340000  1.0 -0.1352395215
C  C66  1  0.21384000  0.32008000  0.69340000  1.0 -0.1352395215
C  C67  1  0.10624000  0.32008000  0.80660000  1.0 -0.1352395215
C  C68  1  0.21384000  0.89376000  0.80660000  1.0 -0.1352395215
C  C69  1  0.67992000  0.78616000  0.80660000  1.0 -0.1352395215
C  C70  1  0.89376000  0.67992000  0.80660000  1.0 -0.1352395215
C  C71  1  0.78616000  0.10624000  0.80660000  1.0 -0.1352395215
C  C72  1  0.32008000  0.21384000  0.80660000  1.0 -0.1352395215
C  C73  1  0.72950000  0.86475000  0.25000000  1.0 -0.0609365874
C  C74  1  0.13525000  0.86475000  0.25000000  1.0 -0.0609365874
C  C75  1  0.13525000  0.27050000  0.25000000  1.0 -0.0609365874
C  C76  1  0.27050000  0.13525000  0.25000000  1.0 -0.0609365874
C  C77  1  0.86475000  0.13525000  0.25000000  1.0 -0.0609365874
C  C78  1  0.86475000  0.72950000  0.25000000  1.0 -0.0609365874
C  C79  1  0.27050000  0.13525000  0.75000000  1.0 -0.0609365874
C  C80  1  0.86475000  0.13525000  0.75000000  1.0 -0.0609365874
C  C81  1  0.86475000  0.72950000  0.75000000  1.0 -0.0609365874
C  C82  1  0.72950000  0.86475000  0.75000000  1.0 -0.0609365874
C  C83  1  0.13525000  0.86475000  0.75000000  1.0 -0.0609365874
C  C84  1  0.13525000  0.27050000  0.75000000  1.0 -0.0609365874
N  N1  1  0.52230000  0.76115000  0.25000000  1.0 -0.3362186028
N  N2  1  0.23885000  0.76115000  0.25000000  1.0 -0.3362186028
N  N3  1  0.23885000  0.47770000  0.25000000  1.0 -0.3362186028
N  N4  1  0.47770000  0.23885000  0.25000000  1.0 -0.3362186028
N  N5  1  0.76115000  0.23885000  0.25000000  1.0 -0.3362186028
N  N6  1  0.76115000  0.52230000  0.25000000  1.0 -0.3362186028
N  N7  1  0.47770000  0.23885000  0.75000000  1.0 -0.3362186028
N  N8  1  0.76115000  0.23885000  0.75000000  1.0 -0.3362186028
N  N9  1  0.76115000  0.52230000  0.75000000  1.0 -0.3362186028
N  N10  1  0.52230000  0.76115000  0.75000000  1.0 -0.3362186028
N  N11  1  0.23885000  0.76115000  0.75000000  1.0 -0.3362186028
N  N12  1  0.23885000  0.47770000  0.75000000  1.0 -0.3362186028
O  O1  1  0.41387000  0.80245000  0.35650000  1.0 -0.6004096591
O  O2  1  0.19755000  0.61142000  0.35650000  1.0 -0.6004096591
O  O3  1  0.38858000  0.58613000  0.35650000  1.0 -0.6004096591
O  O4  1  0.58613000  0.19755000  0.35650000  1.0 -0.6004096591
O  O5  1  0.80245000  0.38858000  0.35650000  1.0 -0.6004096591
O  O6  1  0.61142000  0.41387000  0.35650000  1.0 -0.6004096591
O  O7  1  0.80245000  0.41387000  0.14350000  1.0 -0.6004096591
O  O8  1  0.61142000  0.19755000  0.14350000  1.0 -0.6004096591
O  O9  1  0.58613000  0.38858000  0.14350000  1.0 -0.6004096591
O  O10  1  0.19755000  0.58613000  0.14350000  1.0 -0.6004096591
O  O11  1  0.38858000  0.80245000  0.14350000  1.0 -0.6004096591
O  O12  1  0.41387000  0.61142000  0.14350000  1.0 -0.6004096591
O  O13  1  0.58613000  0.19755000  0.64350000  1.0 -0.6004096591
O  O14  1  0.80245000  0.38858000  0.64350000  1.0 -0.6004096591
O  O15  1  0.61142000  0.41387000  0.64350000  1.0 -0.6004096591
O  O16  1  0.41387000  0.80245000  0.64350000  1.0 -0.6004096591
O  O17  1  0.19755000  0.61142000  0.64350000  1.0 -0.6004096591
O  O18  1  0.38858000  0.58613000  0.64350000  1.0 -0.6004096591
O  O19  1  0.19755000  0.58613000  0.85650000  1.0 -0.6004096591
O  O20  1  0.38858000  0.80245000  0.85650000  1.0 -0.6004096591
O  O21  1  0.41387000  0.61142000  0.85650000  1.0 -0.6004096591
O  O22  1  0.80245000  0.41387000  0.85650000  1.0 -0.6004096591
O  O23  1  0.61142000  0.19755000  0.85650000  1.0 -0.6004096591
O  O24  1  0.58613000  0.38858000  0.85650000  1.0 -0.6004096591
O  O25  1  0.55341000  0.93987000  0.40790000  1.0 -0.5616613849
O  O26  1  0.06013000  0.61354000  0.40790000  1.0 -0.5616613849
O  O27  1  0.38646000  0.44659000  0.40790000  1.0 -0.5616613849
O  O28  1  0.44659000  0.06013000  0.40790000  1.0 -0.5616613849
O  O29  1  0.93987000  0.38646000  0.40790000  1.0 -0.5616613849
O  O30  1  0.61354000  0.55341000  0.40790000  1.0 -0.5616613849
O  O31  1  0.93987000  0.55341000  0.09210000  1.0 -0.5616613849
O  O32  1  0.61354000  0.06013000  0.09210000  1.0 -0.5616613849
O  O33  1  0.44659000  0.38646000  0.09210000  1.0 -0.5616613849
O  O34  1  0.06013000  0.44659000  0.09210000  1.0 -0.5616613849
O  O35  1  0.38646000  0.93987000  0.09210000  1.0 -0.5616613849
O  O36  1  0.55341000  0.61354000  0.09210000  1.0 -0.5616613849
O  O37  1  0.44659000  0.06013000  0.59210000  1.0 -0.5616613849
O  O38  1  0.93987000  0.38646000  0.59210000  1.0 -0.5616613849
O  O39  1  0.61354000  0.55341000  0.59210000  1.0 -0.5616613849
O  O40  1  0.55341000  0.93987000  0.59210000  1.0 -0.5616613849
O  O41  1  0.06013000  0.61354000  0.59210000  1.0 -0.5616613849
O  O42  1  0.38646000  0.44659000  0.59210000  1.0 -0.5616613849
O  O43  1  0.06013000  0.44659000  0.90790000  1.0 -0.5616613849
O  O44  1  0.38646000  0.93987000  0.90790000  1.0 -0.5616613849
O  O45  1  0.55341000  0.61354000  0.90790000  1.0 -0.5616613849
O  O46  1  0.93987000  0.55341000  0.90790000  1.0 -0.5616613849
O  O47  1  0.61354000  0.06013000  0.90790000  1.0 -0.5616613849
O  O48  1  0.44659000  0.38646000  0.90790000  1.0 -0.5616613849
