# DDEC6 charges by PACMAN v1.1 (https://github.com/mtap-research/PACMAN-charge/)
data_TALJUM_ion_pacman
_symmetry_space_group_name_H-M   'P 1'
_cell_length_a   20.44360000
_cell_length_b   16.94890000
_cell_length_c   24.46320000
_cell_angle_alpha   90.00000000
_cell_angle_beta   118.78000000
_cell_angle_gamma   90.00000000
_symmetry_Int_Tables_number   1
_chemical_formula_structural   Cu9B2H76C96(N5F)8
_chemical_formula_sum   'Cu18 B4 H152 C192 N80 F16'
_cell_volume   7429.36315129
_cell_formula_units_Z   2
loop_
 _symmetry_equiv_pos_site_id
 _symmetry_equiv_pos_as_xyz
  1  'x, y, z'
loop_
 _atom_site_type_symbol
 _atom_site_label
 _atom_site_symmetry_multiplicity
 _atom_site_fract_x
 _atom_site_fract_y
 _atom_site_fract_z
 _atom_site_occupancy
 _atom_site_charge
Cu  Cu1  1  0.59717000  0.81556000  0.05136000  1.0 0.2460427988
Cu  Cu2  1  0.40283000  0.31556000  0.44864000  1.0 0.2460427988
Cu  Cu3  1  0.40283000  0.18444000  0.94864000  1.0 0.2460427988
Cu  Cu4  1  0.59717000  0.68444000  0.55136000  1.0 0.2460427988
Cu  Cu5  1  0.34247000  0.60078000  0.88425000  1.0 0.222604129
Cu  Cu6  1  0.65753000  0.10078000  0.61575000  1.0 0.222604129
Cu  Cu7  1  0.65753000  0.39922000  0.11575000  1.0 0.222604129
Cu  Cu8  1  0.34247000  0.89922000  0.38425000  1.0 0.222604129
Cu  Cu9  1  0.28297000  0.70285000  0.34427000  1.0 0.2401485774
Cu  Cu10  1  0.71703000  0.20285000  0.15573000  1.0 0.2401485774
Cu  Cu11  1  0.71703000  0.29715000  0.65573000  1.0 0.2401485774
Cu  Cu12  1  0.28297000  0.79715000  0.84427000  1.0 0.2401485774
Cu  Cu13  1  0.00000000  0.50000000  0.50000000  1.0 0.6675479222
Cu  Cu14  1  0.00000000  0.00000000  0.00000000  1.0 0.6675479222
Cu  Cu15  1  0.95701000  0.77130000  0.94210000  1.0 0.7472223747
Cu  Cu16  1  0.04299000  0.27130000  0.55790000  1.0 0.7472223747
Cu  Cu17  1  0.04299000  0.22870000  0.05790000  1.0 0.7472223747
Cu  Cu18  1  0.95701000  0.72870000  0.44210000  1.0 0.7472223747
B  B1  1  0.54020000  0.25030000  0.70740000  1.0 1.0429449785
B  B2  1  0.45980000  0.75030000  0.79260000  1.0 1.0429449785
B  B3  1  0.45980000  0.74970000  0.29260000  1.0 1.0429449785
B  B4  1  0.54020000  0.24970000  0.20740000  1.0 1.0429449785
H  H1  1  0.89760000  0.72590000  0.32840000  1.0 0.2783542867
H  H2  1  0.10240000  0.22590000  0.17160000  1.0 0.2783542867
H  H3  1  0.10240000  0.27410000  0.67160000  1.0 0.2783542867
H  H4  1  0.89760000  0.77410000  0.82840000  1.0 0.2783542867
H  H5  1  0.37550000  0.04890000  0.85460000  1.0 0.099387838
H  H6  1  0.62450000  0.54890000  0.64540000  1.0 0.099387838
H  H7  1  0.62450000  0.95110000  0.14540000  1.0 0.099387838
H  H8  1  0.37550000  0.45110000  0.35460000  1.0 0.099387838
H  H9  1  0.53870000  0.65980000  0.09130000  1.0 0.1304062797
H  H10  1  0.46130000  0.15980000  0.40870000  1.0 0.1304062797
H  H11  1  0.46130000  0.34020000  0.90870000  1.0 0.1304062797
H  H12  1  0.53870000  0.84020000  0.59130000  1.0 0.1304062797
H  H13  1  0.89550000  0.68490000  0.50300000  1.0 0.2783542867
H  H14  1  0.10450000  0.18490000  0.99700000  1.0 0.2783542867
H  H15  1  0.10450000  0.31510000  0.49700000  1.0 0.2783542867
H  H16  1  0.89550000  0.81510000  0.00300000  1.0 0.2783542867
H  H17  1  0.39580000  0.91710000  0.85500000  1.0 0.1396148414
H  H18  1  0.60420000  0.41710000  0.64500000  1.0 0.1396148414
H  H19  1  0.60420000  0.08290000  0.14500000  1.0 0.1396148414
H  H20  1  0.39580000  0.58290000  0.35500000  1.0 0.1396148414
H  H21  1  0.04490000  0.53070000  0.42770000  1.0 0.2705390412
H  H22  1  0.95510000  0.03070000  0.07230000  1.0 0.2705390412
H  H23  1  0.95510000  0.46930000  0.57230000  1.0 0.2705390412
H  H24  1  0.04490000  0.96930000  0.92770000  1.0 0.2705390412
H  H25  1  0.01490000  0.78600000  0.05500000  1.0 0.2783542867
H  H26  1  0.98510000  0.28600000  0.44500000  1.0 0.2783542867
H  H27  1  0.98510000  0.21400000  0.94500000  1.0 0.2783542867
H  H28  1  0.01490000  0.71400000  0.55500000  1.0 0.2783542867
H  H29  1  0.02360000  0.73650000  0.88670000  1.0 0.2783542867
H  H30  1  0.97640000  0.23650000  0.61330000  1.0 0.2783542867
H  H31  1  0.97640000  0.26350000  0.11330000  1.0 0.2783542867
H  H32  1  0.02360000  0.76350000  0.38670000  1.0 0.2783542867
H  H33  1  0.29970000  0.66680000  0.23540000  1.0 0.1103411648
H  H34  1  0.70030000  0.16680000  0.26460000  1.0 0.1103411648
H  H35  1  0.70030000  0.33320000  0.76460000  1.0 0.1103411648
H  H36  1  0.29970000  0.83320000  0.73540000  1.0 0.1103411648
H  H37  1  0.53290000  0.58530000  0.93460000  1.0 0.1473993171
H  H38  1  0.46710000  0.08530000  0.56540000  1.0 0.1473993171
H  H39  1  0.46710000  0.41470000  0.06540000  1.0 0.1473993171
H  H40  1  0.53290000  0.91470000  0.43460000  1.0 0.1473993171
H  H41  1  0.41390000  0.04640000  0.02620000  1.0 0.1103411648
H  H42  1  0.58610000  0.54640000  0.47380000  1.0 0.1103411648
H  H43  1  0.58610000  0.95360000  0.97380000  1.0 0.1103411648
H  H44  1  0.41390000  0.45360000  0.52620000  1.0 0.1103411648
H  H45  1  0.60560000  0.47810000  0.98970000  1.0 0.0909765942
H  H46  1  0.39440000  0.97810000  0.51030000  1.0 0.0909765942
H  H47  1  0.39440000  0.52190000  0.01030000  1.0 0.0909765942
H  H48  1  0.60560000  0.02190000  0.48970000  1.0 0.0909765942
H  H49  1  0.60690000  0.55230000  0.14210000  1.0 0.099387838
H  H50  1  0.39310000  0.05230000  0.35790000  1.0 0.099387838
H  H51  1  0.39310000  0.44770000  0.85790000  1.0 0.099387838
H  H52  1  0.60690000  0.94770000  0.64210000  1.0 0.099387838
H  H53  1  0.43540000  0.91360000  0.03370000  1.0 0.1304062797
H  H54  1  0.56460000  0.41360000  0.46630000  1.0 0.1304062797
H  H55  1  0.56460000  0.08640000  0.96630000  1.0 0.1304062797
H  H56  1  0.43540000  0.58640000  0.53370000  1.0 0.1304062797
H  H57  1  0.16490000  0.62060000  0.82080000  1.0 0.099387838
H  H58  1  0.83510000  0.12060000  0.67920000  1.0 0.099387838
H  H59  1  0.83510000  0.37940000  0.17920000  1.0 0.099387838
H  H60  1  0.16490000  0.87940000  0.32080000  1.0 0.099387838
H  H61  1  0.81950000  0.61590000  0.52540000  1.0 0.1208748381
H  H62  1  0.18050000  0.11590000  0.97460000  1.0 0.1208748381
H  H63  1  0.18050000  0.38410000  0.47460000  1.0 0.1208748381
H  H64  1  0.81950000  0.88410000  0.02540000  1.0 0.1208748381
H  H65  1  0.30660000  0.69270000  0.47460000  1.0 0.099387838
H  H66  1  0.69340000  0.19270000  0.02540000  1.0 0.099387838
H  H67  1  0.69340000  0.30730000  0.52540000  1.0 0.099387838
H  H68  1  0.30660000  0.80730000  0.97460000  1.0 0.099387838
H  H69  1  0.27120000  0.63000000  0.65880000  1.0 0.1396148414
H  H70  1  0.72880000  0.13000000  0.84120000  1.0 0.1396148414
H  H71  1  0.72880000  0.37000000  0.34120000  1.0 0.1396148414
H  H72  1  0.27120000  0.87000000  0.15880000  1.0 0.1396148414
H  H73  1  0.59390000  0.80540000  0.17230000  1.0 0.1208748381
H  H74  1  0.40610000  0.30540000  0.32770000  1.0 0.1208748381
H  H75  1  0.40610000  0.19460000  0.82770000  1.0 0.1208748381
H  H76  1  0.59390000  0.69460000  0.67230000  1.0 0.1208748381
H  H77  1  0.07140000  0.51090000  0.61150000  1.0 0.2705390412
H  H78  1  0.92860000  0.01090000  0.88850000  1.0 0.2705390412
H  H79  1  0.92860000  0.48910000  0.38850000  1.0 0.2705390412
H  H80  1  0.07140000  0.98910000  0.11150000  1.0 0.2705390412
H  H81  1  0.24170000  0.48310000  0.80040000  1.0 0.0909765942
H  H82  1  0.75830000  0.98310000  0.69960000  1.0 0.0909765942
H  H83  1  0.75830000  0.51690000  0.19960000  1.0 0.0909765942
H  H84  1  0.24170000  0.01690000  0.30040000  1.0 0.0909765942
H  H85  1  0.15820000  0.46480000  0.69730000  1.0 0.1208748381
H  H86  1  0.84180000  0.96480000  0.80270000  1.0 0.1208748381
H  H87  1  0.84180000  0.53520000  0.30270000  1.0 0.1208748381
H  H88  1  0.15820000  0.03520000  0.19730000  1.0 0.1208748381
H  H89  1  0.82200000  0.69630000  0.22810000  1.0 0.1304062797
H  H90  1  0.17800000  0.19630000  0.27190000  1.0 0.1304062797
H  H91  1  0.17800000  0.30370000  0.77190000  1.0 0.1304062797
H  H92  1  0.82200000  0.80370000  0.72810000  1.0 0.1304062797
H  H93  1  0.34070000  0.65250000  0.76310000  1.0 0.1304062797
H  H94  1  0.65930000  0.15250000  0.73690000  1.0 0.1304062797
H  H95  1  0.65930000  0.34750000  0.23690000  1.0 0.1304062797
H  H96  1  0.34070000  0.84750000  0.26310000  1.0 0.1304062797
H  H97  1  0.74100000  0.72990000  0.12700000  1.0 0.099387838
H  H98  1  0.25900000  0.22990000  0.37300000  1.0 0.099387838
H  H99  1  0.25900000  0.27010000  0.87300000  1.0 0.099387838
H  H100  1  0.74100000  0.77010000  0.62700000  1.0 0.099387838
H  H101  1  0.08000000  0.66880000  0.84870000  1.0 0.1304062797
H  H102  1  0.92000000  0.16880000  0.65130000  1.0 0.1304062797
H  H103  1  0.92000000  0.33120000  0.15130000  1.0 0.1304062797
H  H104  1  0.08000000  0.83120000  0.34870000  1.0 0.1304062797
H  H105  1  0.32590000  0.64660000  0.99050000  1.0 0.099387838
H  H106  1  0.67410000  0.14660000  0.50950000  1.0 0.099387838
H  H107  1  0.67410000  0.35340000  0.00950000  1.0 0.099387838
H  H108  1  0.32590000  0.85340000  0.49050000  1.0 0.099387838
H  H109  1  0.25680000  0.63980000  0.53150000  1.0 0.1396148414
H  H110  1  0.74320000  0.13980000  0.96850000  1.0 0.1396148414
H  H111  1  0.74320000  0.36020000  0.46850000  1.0 0.1396148414
H  H112  1  0.25680000  0.86020000  0.03150000  1.0 0.1396148414
H  H113  1  0.23390000  0.68040000  0.12830000  1.0 0.1304062797
H  H114  1  0.76610000  0.18040000  0.37170000  1.0 0.1304062797
H  H115  1  0.76610000  0.31960000  0.87170000  1.0 0.1304062797
H  H116  1  0.23390000  0.81960000  0.62830000  1.0 0.1304062797
H  H117  1  0.74330000  0.62500000  0.57130000  1.0 0.099387838
H  H118  1  0.25670000  0.12500000  0.92870000  1.0 0.099387838
H  H119  1  0.25670000  0.37500000  0.42870000  1.0 0.099387838
H  H120  1  0.74330000  0.87500000  0.07130000  1.0 0.099387838
H  H121  1  0.66940000  0.77580000  0.27220000  1.0 0.1473993171
H  H122  1  0.33060000  0.27580000  0.22780000  1.0 0.1473993171
H  H123  1  0.33060000  0.22420000  0.72780000  1.0 0.1473993171
H  H124  1  0.66940000  0.72420000  0.77220000  1.0 0.1473993171
H  H125  1  0.67630000  0.76580000  0.39290000  1.0 0.1396148414
H  H126  1  0.32370000  0.26580000  0.10710000  1.0 0.1396148414
H  H127  1  0.32370000  0.23420000  0.60710000  1.0 0.1396148414
H  H128  1  0.67630000  0.73420000  0.89290000  1.0 0.1396148414
H  H129  1  0.05780000  0.75640000  0.14300000  1.0 0.1208748381
H  H130  1  0.94220000  0.25640000  0.35700000  1.0 0.1208748381
H  H131  1  0.94220000  0.24360000  0.85700000  1.0 0.1208748381
H  H132  1  0.05780000  0.74360000  0.64300000  1.0 0.1208748381
H  H133  1  0.59970000  0.75650000  0.43620000  1.0 0.1103411648
H  H134  1  0.40030000  0.25650000  0.06380000  1.0 0.1103411648
H  H135  1  0.40030000  0.24350000  0.56380000  1.0 0.1103411648
H  H136  1  0.59970000  0.74350000  0.93620000  1.0 0.1103411648
H  H137  1  0.23830000  0.66170000  0.02550000  1.0 0.1304062797
H  H138  1  0.76170000  0.16170000  0.47450000  1.0 0.1304062797
H  H139  1  0.76170000  0.33830000  0.97450000  1.0 0.1304062797
H  H140  1  0.23830000  0.83830000  0.52550000  1.0 0.1304062797
H  H141  1  0.13030000  0.73620000  0.25280000  1.0 0.0909765942
H  H142  1  0.86970000  0.23620000  0.24720000  1.0 0.0909765942
H  H143  1  0.86970000  0.26380000  0.74720000  1.0 0.0909765942
H  H144  1  0.13030000  0.76380000  0.75280000  1.0 0.0909765942
H  H145  1  0.10480000  0.53680000  0.38080000  1.0 0.1208748381
H  H146  1  0.89520000  0.03680000  0.11920000  1.0 0.1208748381
H  H147  1  0.89520000  0.46320000  0.61920000  1.0 0.1208748381
H  H148  1  0.10480000  0.96320000  0.88080000  1.0 0.1208748381
H  H149  1  0.16230000  0.58820000  0.32640000  1.0 0.099387838
H  H150  1  0.83770000  0.08820000  0.17360000  1.0 0.099387838
H  H151  1  0.83770000  0.41180000  0.67360000  1.0 0.099387838
H  H152  1  0.16230000  0.91180000  0.82640000  1.0 0.099387838
C  C1  1  0.52570000  0.63400000  0.00570000  1.0 0.0603054617
C  C2  1  0.47430000  0.13400000  0.49430000  1.0 0.0603054617
C  C3  1  0.47430000  0.36600000  0.99430000  1.0 0.0603054617
C  C4  1  0.52570000  0.86600000  0.50570000  1.0 0.0603054617
C  C5  1  0.43360000  0.81390000  0.94810000  1.0 0.2596456367
C  C6  1  0.56640000  0.31390000  0.55190000  1.0 0.2596456367
C  C7  1  0.56640000  0.18610000  0.05190000  1.0 0.2596456367
C  C8  1  0.43360000  0.68610000  0.44810000  1.0 0.2596456367
C  C9  1  0.42370000  0.90220000  0.94500000  1.0 0.0603054617
C  C10  1  0.57630000  0.40220000  0.55500000  1.0 0.0603054617
C  C11  1  0.57630000  0.09780000  0.05500000  1.0 0.0603054617
C  C12  1  0.42370000  0.59780000  0.44500000  1.0 0.0603054617
C  C13  1  0.47710000  0.69880000  0.97090000  1.0 0.2460427988
C  C14  1  0.52290000  0.19880000  0.52910000  1.0 0.2460427988
C  C15  1  0.52290000  0.30120000  0.02910000  1.0 0.2460427988
C  C16  1  0.47710000  0.80120000  0.47090000  1.0 0.2460427988
C  C17  1  0.38980000  0.02140000  0.89210000  1.0 0.0147601157
C  C18  1  0.61020000  0.52140000  0.60790000  1.0 0.0147601157
C  C19  1  0.61020000  0.97860000  0.10790000  1.0 0.0147601157
C  C20  1  0.38980000  0.47860000  0.39210000  1.0 0.0147601157
C  C21  1  0.55100000  0.62250000  0.06920000  1.0 -0.2001437735
C  C22  1  0.44900000  0.12250000  0.43080000  1.0 -0.2001437735
C  C23  1  0.44900000  0.37750000  0.93080000  1.0 -0.2001437735
C  C24  1  0.55100000  0.87750000  0.56920000  1.0 -0.2001437735
C  C25  1  0.40210000  0.94250000  0.89140000  1.0 -0.1794613455
C  C26  1  0.59790000  0.44250000  0.60860000  1.0 -0.1794613455
C  C27  1  0.59790000  0.05750000  0.10860000  1.0 -0.1794613455
C  C28  1  0.40210000  0.55750000  0.39140000  1.0 -0.1794613455
C  C29  1  0.25040000  0.68560000  0.21740000  1.0 0.0707975915
C  C30  1  0.74960000  0.18560000  0.28260000  1.0 0.0707975915
C  C31  1  0.74960000  0.31440000  0.78260000  1.0 0.0707975915
C  C32  1  0.25040000  0.81440000  0.71740000  1.0 0.0707975915
C  C33  1  0.54750000  0.57970000  0.97720000  1.0 -0.1794613455
C  C34  1  0.45250000  0.07970000  0.52280000  1.0 -0.1794613455
C  C35  1  0.45250000  0.42030000  0.02280000  1.0 -0.1794613455
C  C36  1  0.54750000  0.92030000  0.47720000  1.0 -0.1794613455
C  C37  1  0.15100000  0.67260000  0.94160000  1.0 0.0603054617
C  C38  1  0.84900000  0.17260000  0.55840000  1.0 0.0603054617
C  C39  1  0.84900000  0.32740000  0.05840000  1.0 0.0603054617
C  C40  1  0.15100000  0.82740000  0.44160000  1.0 0.0603054617
C  C41  1  0.41180000  0.02050000  0.99140000  1.0 0.0603054617
C  C42  1  0.58820000  0.52050000  0.50860000  1.0 0.0603054617
C  C43  1  0.58820000  0.97950000  0.00860000  1.0 0.0603054617
C  C44  1  0.41180000  0.47950000  0.49140000  1.0 0.0603054617
C  C45  1  0.59150000  0.51550000  0.01050000  1.0 0.0707975915
C  C46  1  0.40850000  0.01550000  0.48950000  1.0 0.0707975915
C  C47  1  0.40850000  0.48450000  0.98950000  1.0 0.0707975915
C  C48  1  0.59150000  0.98450000  0.51050000  1.0 0.0707975915
C  C49  1  0.09800000  0.70450000  0.96210000  1.0 0.4116133894
C  C50  1  0.90200000  0.20450000  0.53790000  1.0 0.4116133894
C  C51  1  0.90200000  0.29550000  0.03790000  1.0 0.4116133894
C  C52  1  0.09800000  0.79550000  0.46210000  1.0 0.4116133894
C  C53  1  0.75990000  0.69380000  0.45550000  1.0 0.050853973
C  C54  1  0.24010000  0.19380000  0.04450000  1.0 0.050853973
C  C55  1  0.24010000  0.30620000  0.54450000  1.0 0.050853973
C  C56  1  0.75990000  0.80620000  0.95550000  1.0 0.050853973
C  C57  1  0.59260000  0.55920000  0.09970000  1.0 0.050853973
C  C58  1  0.40740000  0.05920000  0.40030000  1.0 0.050853973
C  C59  1  0.40740000  0.44080000  0.90030000  1.0 0.050853973
C  C60  1  0.59260000  0.94080000  0.59970000  1.0 0.050853973
C  C61  1  0.42540000  0.94100000  0.99710000  1.0 -0.1794613455
C  C62  1  0.57460000  0.44100000  0.50290000  1.0 -0.1794613455
C  C63  1  0.57460000  0.05900000  0.00290000  1.0 -0.1794613455
C  C64  1  0.42540000  0.55900000  0.49710000  1.0 -0.1794613455
C  C65  1  0.18180000  0.63440000  0.86270000  1.0 0.0392742119
C  C66  1  0.81820000  0.13440000  0.63730000  1.0 0.0392742119
C  C67  1  0.81820000  0.36560000  0.13730000  1.0 0.0392742119
C  C68  1  0.18180000  0.86560000  0.36270000  1.0 0.0392742119
C  C69  1  0.77700000  0.64840000  0.50780000  1.0 -0.2001437735
C  C70  1  0.22300000  0.14840000  0.99220000  1.0 -0.2001437735
C  C71  1  0.22300000  0.35160000  0.49220000  1.0 -0.2001437735
C  C72  1  0.77700000  0.85160000  0.00780000  1.0 -0.2001437735
C  C73  1  0.26410000  0.66060000  0.45420000  1.0 0.0392742119
C  C74  1  0.73590000  0.16060000  0.04580000  1.0 0.0392742119
C  C75  1  0.73590000  0.33940000  0.54580000  1.0 0.0392742119
C  C76  1  0.26410000  0.83940000  0.95420000  1.0 0.0392742119
C  C77  1  0.13700000  0.71780000  0.12470000  1.0 0.050853973
C  C78  1  0.86300000  0.21780000  0.37530000  1.0 0.050853973
C  C79  1  0.86300000  0.28220000  0.87530000  1.0 0.050853973
C  C80  1  0.13700000  0.78220000  0.62470000  1.0 0.050853973
C  C81  1  0.20430000  0.54620000  0.66490000  1.0 0.0603054617
C  C82  1  0.79570000  0.04620000  0.83510000  1.0 0.0603054617
C  C83  1  0.79570000  0.45380000  0.33510000  1.0 0.0603054617
C  C84  1  0.20430000  0.95380000  0.16490000  1.0 0.0603054617
C  C85  1  0.80900000  0.69660000  0.42690000  1.0 0.4116133894
C  C86  1  0.19100000  0.19660000  0.07310000  1.0 0.4116133894
C  C87  1  0.19100000  0.30340000  0.57310000  1.0 0.4116133894
C  C88  1  0.80900000  0.80340000  0.92690000  1.0 0.4116133894
C  C89  1  0.13550000  0.55430000  0.49840000  1.0 0.4116133894
C  C90  1  0.86450000  0.05430000  0.00160000  1.0 0.4116133894
C  C91  1  0.86450000  0.44570000  0.50160000  1.0 0.4116133894
C  C92  1  0.13550000  0.94570000  0.99840000  1.0 0.4116133894
C  C93  1  0.26150000  0.60110000  0.68690000  1.0 -0.1616759839
C  C94  1  0.73850000  0.10110000  0.81310000  1.0 -0.1616759839
C  C95  1  0.73850000  0.39890000  0.31310000  1.0 -0.1616759839
C  C96  1  0.26150000  0.89890000  0.18690000  1.0 -0.1616759839
C  C97  1  0.75770000  0.73500000  0.26340000  1.0 0.050853973
C  C98  1  0.24230000  0.23500000  0.23660000  1.0 0.050853973
C  C99  1  0.24230000  0.26500000  0.73660000  1.0 0.050853973
C  C100  1  0.75770000  0.76500000  0.76340000  1.0 0.050853973
C  C101  1  0.64130000  0.78450000  0.18370000  1.0 0.0204903107
C  C102  1  0.35870000  0.28450000  0.31630000  1.0 0.0204903107
C  C103  1  0.35870000  0.21550000  0.81630000  1.0 0.0204903107
C  C104  1  0.64130000  0.71550000  0.68370000  1.0 0.0204903107
C  C105  1  0.17250000  0.58600000  0.46120000  1.0 0.0603054617
C  C106  1  0.82750000  0.08600000  0.03880000  1.0 0.0603054617
C  C107  1  0.82750000  0.41400000  0.53880000  1.0 0.0603054617
C  C108  1  0.17250000  0.91400000  0.96120000  1.0 0.0603054617
C  C109  1  0.80890000  0.72080000  0.33040000  1.0 0.4116133894
C  C110  1  0.19110000  0.22080000  0.16960000  1.0 0.4116133894
C  C111  1  0.19110000  0.27920000  0.66960000  1.0 0.4116133894
C  C112  1  0.80890000  0.77920000  0.83040000  1.0 0.4116133894
C  C113  1  0.24490000  0.51630000  0.77100000  1.0 0.050853973
C  C114  1  0.75510000  0.01630000  0.72900000  1.0 0.050853973
C  C115  1  0.75510000  0.48370000  0.22900000  1.0 0.050853973
C  C116  1  0.24490000  0.98370000  0.27100000  1.0 0.050853973
C  C117  1  0.14810000  0.53560000  0.59630000  1.0 0.4044285449
C  C118  1  0.85190000  0.03560000  0.90370000  1.0 0.4044285449
C  C119  1  0.85190000  0.46440000  0.40370000  1.0 0.4044285449
C  C120  1  0.14810000  0.96440000  0.09630000  1.0 0.4044285449
C  C121  1  0.19620000  0.50270000  0.70930000  1.0 -0.2269214317
C  C122  1  0.80380000  0.00270000  0.79070000  1.0 -0.2269214317
C  C123  1  0.80380000  0.49730000  0.29070000  1.0 -0.2269214317
C  C124  1  0.19620000  0.99730000  0.20930000  1.0 -0.2269214317
C  C125  1  0.77620000  0.72020000  0.21830000  1.0 -0.2086337735
C  C126  1  0.22380000  0.22020000  0.28170000  1.0 -0.2086337735
C  C127  1  0.22380000  0.27980000  0.78170000  1.0 -0.2086337735
C  C128  1  0.77620000  0.77980000  0.71830000  1.0 -0.2086337735
C  C129  1  0.30380000  0.61320000  0.74930000  1.0 0.0603054617
C  C130  1  0.69620000  0.11320000  0.75070000  1.0 0.0603054617
C  C131  1  0.69620000  0.38680000  0.25070000  1.0 0.0603054617
C  C132  1  0.30380000  0.88680000  0.24930000  1.0 0.0603054617
C  C133  1  0.72670000  0.74050000  0.15750000  1.0 0.050853973
C  C134  1  0.27330000  0.24050000  0.34250000  1.0 0.050853973
C  C135  1  0.27330000  0.25950000  0.84250000  1.0 0.050853973
C  C136  1  0.72670000  0.75950000  0.65750000  1.0 0.050853973
C  C137  1  0.12970000  0.66000000  0.87940000  1.0 -0.2199673357
C  C138  1  0.87030000  0.16000000  0.62060000  1.0 -0.2199673357
C  C139  1  0.87030000  0.34000000  0.12060000  1.0 -0.2199673357
C  C140  1  0.12970000  0.84000000  0.37940000  1.0 -0.2199673357
C  C141  1  0.27480000  0.64480000  0.96150000  1.0 0.050853973
C  C142  1  0.72520000  0.14480000  0.53850000  1.0 0.050853973
C  C143  1  0.72520000  0.35520000  0.03850000  1.0 0.050853973
C  C144  1  0.27480000  0.85520000  0.46150000  1.0 0.050853973
C  C145  1  0.23400000  0.63000000  0.48840000  1.0 -0.2001437735
C  C146  1  0.76600000  0.13000000  0.01160000  1.0 -0.2001437735
C  C147  1  0.76600000  0.37000000  0.51160000  1.0 -0.2001437735
C  C148  1  0.23400000  0.87000000  0.98840000  1.0 -0.2001437735
C  C149  1  0.21100000  0.69260000  0.15270000  1.0 -0.1681206361
C  C150  1  0.78900000  0.19260000  0.34730000  1.0 -0.1681206361
C  C151  1  0.78900000  0.30740000  0.84730000  1.0 -0.1681206361
C  C152  1  0.21100000  0.80740000  0.65270000  1.0 -0.1681206361
C  C153  1  0.72900000  0.65250000  0.53380000  1.0 0.050853973
C  C154  1  0.27100000  0.15250000  0.96620000  1.0 0.050853973
C  C155  1  0.27100000  0.34750000  0.46620000  1.0 0.050853973
C  C156  1  0.72900000  0.84750000  0.03380000  1.0 0.050853973
C  C157  1  0.09330000  0.72510000  0.05530000  1.0 0.4287873987
C  C158  1  0.90670000  0.22510000  0.44470000  1.0 0.4287873987
C  C159  1  0.90670000  0.27490000  0.94470000  1.0 0.4287873987
C  C160  1  0.09330000  0.77490000  0.55530000  1.0 0.4287873987
C  C161  1  0.68600000  0.76690000  0.24300000  1.0 -0.1681206361
C  C162  1  0.31400000  0.26690000  0.25700000  1.0 -0.1681206361
C  C163  1  0.31400000  0.23310000  0.75700000  1.0 -0.1681206361
C  C164  1  0.68600000  0.73310000  0.74300000  1.0 -0.1681206361
C  C165  1  0.69110000  0.73530000  0.42910000  1.0 -0.1616759839
C  C166  1  0.30890000  0.23530000  0.07090000  1.0 -0.1616759839
C  C167  1  0.30890000  0.26470000  0.57090000  1.0 -0.1616759839
C  C168  1  0.69110000  0.76470000  0.92910000  1.0 -0.1616759839
C  C169  1  0.10680000  0.73680000  0.16040000  1.0 -0.1895786357
C  C170  1  0.89320000  0.23680000  0.33960000  1.0 -0.1895786357
C  C171  1  0.89320000  0.26320000  0.83960000  1.0 -0.1895786357
C  C172  1  0.10680000  0.76320000  0.66040000  1.0 -0.1895786357
C  C173  1  0.64620000  0.73090000  0.45610000  1.0 0.0707975915
C  C174  1  0.35380000  0.23090000  0.04390000  1.0 0.0707975915
C  C175  1  0.35380000  0.26910000  0.54390000  1.0 0.0707975915
C  C176  1  0.64620000  0.76910000  0.95610000  1.0 0.0707975915
C  C177  1  0.22250000  0.66020000  0.98250000  1.0 -0.1616759839
C  C178  1  0.77750000  0.16020000  0.51750000  1.0 -0.1616759839
C  C179  1  0.77750000  0.33980000  0.01750000  1.0 -0.1616759839
C  C180  1  0.22250000  0.83980000  0.48250000  1.0 -0.1616759839
C  C181  1  0.15250000  0.72630000  0.22760000  1.0 0.0392742119
C  C182  1  0.84750000  0.22630000  0.27240000  1.0 0.0392742119
C  C183  1  0.84750000  0.27370000  0.77240000  1.0 0.0392742119
C  C184  1  0.15250000  0.77370000  0.72760000  1.0 0.0392742119
C  C185  1  0.14660000  0.56980000  0.40150000  1.0 -0.2269214317
C  C186  1  0.85340000  0.06980000  0.09850000  1.0 -0.2199673357
C  C187  1  0.85340000  0.43020000  0.59850000  1.0 -0.2199673357
C  C188  1  0.14660000  0.93020000  0.90150000  1.0 -0.2199673357
C  C189  1  0.18110000  0.60160000  0.36860000  1.0 0.0707975915
C  C190  1  0.81890000  0.10160000  0.13140000  1.0 0.0707975915
C  C191  1  0.81890000  0.39840000  0.63140000  1.0 0.0707975915
C  C192  1  0.18110000  0.89840000  0.86860000  1.0 0.0707975915
N  N1  1  0.66122000  0.77370000  0.13892000  1.0 -0.2001437735
N  N2  1  0.33878000  0.27370000  0.36108000  1.0 -0.2001437735
N  N3  1  0.33878000  0.22630000  0.86108000  1.0 -0.2001437735
N  N4  1  0.66122000  0.72630000  0.63892000  1.0 -0.2001437735
N  N5  1  0.38332000  0.76750000  0.90432000  1.0 -0.2199673357
N  N6  1  0.61668000  0.26750000  0.59568000  1.0 -0.2199673357
N  N7  1  0.61668000  0.23250000  0.09568000  1.0 -0.2199673357
N  N8  1  0.38332000  0.73250000  0.40432000  1.0 -0.2199673357
N  N9  1  0.49422000  0.77520000  0.99122000  1.0 -0.3949744892
N  N10  1  0.50578000  0.27520000  0.50878000  1.0 -0.3949744892
N  N11  1  0.50578000  0.22480000  0.00878000  1.0 -0.3949744892
N  N12  1  0.49422000  0.72480000  0.49122000  1.0 -0.3949744892
N  N13  1  0.41330000  0.69280000  0.92230000  1.0 -0.2001437735
N  N14  1  0.58670000  0.19280000  0.57770000  1.0 -0.1895786357
N  N15  1  0.58670000  0.30720000  0.07770000  1.0 -0.1895786357
N  N16  1  0.41330000  0.80720000  0.42230000  1.0 -0.2001437735
N  N17  1  0.22330000  0.70360000  0.25540000  1.0 -0.2001437735
N  N18  1  0.77670000  0.20360000  0.24460000  1.0 -0.2001437735
N  N19  1  0.77670000  0.29640000  0.74460000  1.0 -0.2001437735
N  N20  1  0.22330000  0.79640000  0.75540000  1.0 -0.2001437735
N  N21  1  0.88081000  0.72480000  0.35501000  1.0 -0.5972287965
N  N22  1  0.11919000  0.22480000  0.14499000  1.0 -0.5972287965
N  N23  1  0.11919000  0.27520000  0.64499000  1.0 -0.5972287965
N  N24  1  0.88081000  0.77520000  0.85501000  1.0 -0.5972287965
N  N25  1  0.66461000  0.69230000  0.50941000  1.0 -0.2199673357
N  N26  1  0.33539000  0.19230000  0.99059000  1.0 -0.2199673357
N  N27  1  0.33539000  0.30770000  0.49059000  1.0 -0.2199673357
N  N28  1  0.66461000  0.80770000  0.00941000  1.0 -0.2199673357
N  N29  1  0.29520000  0.57160000  0.79210000  1.0 -0.1895786357
N  N30  1  0.70480000  0.07160000  0.70790000  1.0 -0.1895786357
N  N31  1  0.70480000  0.42840000  0.20790000  1.0 -0.1895786357
N  N32  1  0.29520000  0.92840000  0.29210000  1.0 -0.1895786357
N  N33  1  0.61390000  0.50590000  0.07100000  1.0 -0.2086337735
N  N34  1  0.38610000  0.00590000  0.42900000  1.0 -0.2086337735
N  N35  1  0.38610000  0.49410000  0.92900000  1.0 -0.2086337735
N  N36  1  0.61390000  0.99410000  0.57100000  1.0 -0.2086337735
N  N37  1  0.39598000  0.06510000  0.94158000  1.0 -0.2269214317
N  N38  1  0.60402000  0.56510000  0.55842000  1.0 -0.2269214317
N  N39  1  0.60402000  0.93490000  0.05842000  1.0 -0.2269214317
N  N40  1  0.39598000  0.43490000  0.44158000  1.0 -0.2269214317
N  N41  1  0.77198000  0.70560000  0.36378000  1.0 -0.4860160839
N  N42  1  0.22802000  0.20560000  0.13622000  1.0 -0.4860160839
N  N43  1  0.22802000  0.29440000  0.63622000  1.0 -0.4860160839
N  N44  1  0.77198000  0.79440000  0.86378000  1.0 -0.4860160839
N  N45  1  0.25439000  0.62810000  0.90239000  1.0 -0.2001437735
N  N46  1  0.74561000  0.12810000  0.59761000  1.0 -0.2001437735
N  N47  1  0.74561000  0.37190000  0.09761000  1.0 -0.2001437735
N  N48  1  0.25439000  0.87190000  0.40239000  1.0 -0.2001437735
N  N49  1  0.88030000  0.69840000  0.46450000  1.0 -0.5938665632
N  N50  1  0.11970000  0.19840000  0.03550000  1.0 -0.5938665632
N  N51  1  0.11970000  0.30160000  0.53550000  1.0 -0.5938665632
N  N52  1  0.88030000  0.80160000  0.96450000  1.0 -0.5938665632
N  N53  1  0.06470000  0.53150000  0.46810000  1.0 -0.6742488336
N  N54  1  0.93530000  0.03150000  0.03190000  1.0 -0.6742488336
N  N55  1  0.93530000  0.46850000  0.53190000  1.0 -0.6769697857
N  N56  1  0.06470000  0.96850000  0.96810000  1.0 -0.6769697857
N  N57  1  0.02720000  0.76290000  0.02950000  1.0 -0.6574995262
N  N58  1  0.97280000  0.26290000  0.47050000  1.0 -0.6574995262
N  N59  1  0.97280000  0.23710000  0.97050000  1.0 -0.6574995262
N  N60  1  0.02720000  0.73710000  0.52950000  1.0 -0.6574995262
N  N61  1  0.03390000  0.73340000  0.92550000  1.0 -0.5735711944
N  N62  1  0.96610000  0.23340000  0.57450000  1.0 -0.5735711944
N  N63  1  0.96610000  0.26660000  0.07450000  1.0 -0.5735711944
N  N64  1  0.03390000  0.76660000  0.42550000  1.0 -0.5735711944
N  N65  1  0.17780000  0.55550000  0.55830000  1.0 -0.4474919778
N  N66  1  0.82220000  0.05550000  0.94170000  1.0 -0.4474919778
N  N67  1  0.82220000  0.44450000  0.44170000  1.0 -0.4474919778
N  N68  1  0.17780000  0.94450000  0.05830000  1.0 -0.4474919778
N  N69  1  0.12850000  0.69450000  0.02690000  1.0 -0.4789256942
N  N70  1  0.87150000  0.19450000  0.47310000  1.0 -0.4789256942
N  N71  1  0.87150000  0.30550000  0.97310000  1.0 -0.4789256942
N  N72  1  0.12850000  0.80550000  0.52690000  1.0 -0.4789256942
N  N73  1  0.23707000  0.64820000  0.39407000  1.0 -0.1794613455
N  N74  1  0.76293000  0.14820000  0.10593000  1.0 -0.1794613455
N  N75  1  0.76293000  0.35180000  0.60593000  1.0 -0.1794613455
N  N76  1  0.23707000  0.85180000  0.89407000  1.0 -0.1794613455
N  N77  1  0.08120000  0.51680000  0.58080000  1.0 -0.5938665632
N  N78  1  0.91880000  0.01680000  0.91920000  1.0 -0.5938665632
N  N79  1  0.91880000  0.48320000  0.41920000  1.0 -0.5972287965
N  N80  1  0.08120000  0.98320000  0.08080000  1.0 -0.5938665632
F  F1  1  0.48870000  0.18830000  0.69000000  1.0 -0.4992151302
F  F2  1  0.57690000  0.25010000  0.77300000  1.0 -0.4992151302
F  F3  1  0.50640000  0.31420000  0.68550000  1.0 -0.4789256942
F  F4  1  0.59130000  0.23190000  0.69080000  1.0 -0.4633948472
F  F5  1  0.51130000  0.68830000  0.81000000  1.0 -0.4992151302
F  F6  1  0.42310000  0.75010000  0.72700000  1.0 -0.4992151302
F  F7  1  0.49360000  0.81420000  0.81450000  1.0 -0.4789256942
F  F8  1  0.40870000  0.73190000  0.80920000  1.0 -0.4633948472
F  F9  1  0.51130000  0.81170000  0.31000000  1.0 -0.4992151302
F  F10  1  0.42310000  0.74990000  0.22700000  1.0 -0.4992151302
F  F11  1  0.49360000  0.68580000  0.31450000  1.0 -0.4789256942
F  F12  1  0.40870000  0.76810000  0.30920000  1.0 -0.4633948472
F  F13  1  0.48870000  0.31170000  0.19000000  1.0 -0.4992151302
F  F14  1  0.57690000  0.24990000  0.27300000  1.0 -0.4992151302
F  F15  1  0.50640000  0.18580000  0.18550000  1.0 -0.4789256942
F  F16  1  0.59130000  0.26810000  0.19080000  1.0 -0.4633948472
