# DDEC6 charges by PACMAN v1.1 (https://github.com/mtap-research/PACMAN-charge/)
data_TANBAN_ion_pacman
_symmetry_space_group_name_H-M   'P 1'
_cell_length_a   11.03960000
_cell_length_b   12.51100000
_cell_length_c   22.49800000
_cell_angle_alpha   101.49200000
_cell_angle_beta   102.41600000
_cell_angle_gamma   95.97500000
_symmetry_Int_Tables_number   1
_chemical_formula_structural   La2CoH30C36(NO3)9
_chemical_formula_sum   'La4 Co2 H60 C72 N18 O54'
_cell_volume   2938.57587110
_cell_formula_units_Z   2
loop_
 _symmetry_equiv_pos_site_id
 _symmetry_equiv_pos_as_xyz
  1  'x, y, z'
loop_
 _atom_site_type_symbol
 _atom_site_label
 _atom_site_symmetry_multiplicity
 _atom_site_fract_x
 _atom_site_fract_y
 _atom_site_fract_z
 _atom_site_occupancy
 _atom_site_charge
La  La1  1  0.69902000  0.55373000  0.54809000  1.0 1.9048150341
La  La2  1  0.30098000  0.44627000  0.45191000  1.0 1.9048150341
La  La3  1  0.04026000  0.36712000  0.05017000  1.0 1.892069296
La  La4  1  0.95974000  0.63288000  0.94983000  1.0 1.892069296
Co  Co1  1  0.67800000  0.91333000  0.25739000  1.0 0.4831687371
Co  Co2  1  0.32200000  0.08667000  0.74261000  1.0 0.4831687371
H  H1  1  0.77400000  0.87390000  0.38780000  1.0 0.130924653
H  H2  1  0.22600000  0.12610000  0.61220000  1.0 0.130924653
H  H3  1  0.69220000  0.76610000  0.45090000  1.0 0.1491609255
H  H4  1  0.30780000  0.23390000  0.54910000  1.0 0.1491609255
H  H5  1  0.40360000  0.64090000  0.29720000  1.0 0.1491609255
H  H6  1  0.59640000  0.35910000  0.70280000  1.0 0.1491609255
H  H7  1  0.32290000  0.63240000  0.19210000  1.0 0.13936219
H  H8  1  0.67710000  0.36760000  0.80790000  1.0 0.13936219
H  H9  1  0.31910000  0.81610000  0.06670000  1.0 0.1590479175
H  H10  1  0.68090000  0.18390000  0.93330000  1.0 0.1590479175
H  H11  1  0.50180000  0.92700000  0.13150000  1.0 0.1176680867
H  H12  1  0.49820000  0.07300000  0.86850000  1.0 0.1176680867
H  H13  1  0.68160000  0.15040000  0.22600000  1.0 0.1176680867
H  H14  1  0.31840000  0.84960000  0.77400000  1.0 0.1176680867
H  H15  1  0.76170000  0.22770000  0.15860000  1.0 0.13936219
H  H16  1  0.23830000  0.77230000  0.84140000  1.0 0.13936219
H  H17  1  0.84990000  0.93630000  0.07880000  1.0 0.13936219
H  H18  1  0.15010000  0.06370000  0.92120000  1.0 0.13936219
H  H19  1  0.83840000  0.75380000  0.08040000  1.0 0.130924653
H  H20  1  0.16160000  0.24620000  0.91960000  1.0 0.130924653
H  H21  1  0.80240000  0.54360000  0.18700000  1.0 0.1491609255
H  H22  1  0.19760000  0.45640000  0.81300000  1.0 0.1491609255
H  H23  1  0.73480000  0.67500000  0.25140000  1.0 0.1176680867
H  H24  1  0.26520000  0.32500000  0.74860000  1.0 0.1176680867
H  H25  1  0.94850000  0.86990000  0.28210000  1.0 0.1106642942
H  H26  1  0.05150000  0.13010000  0.71790000  1.0 0.1106642942
H  H27  1  0.13860000  0.95930000  0.34820000  1.0 0.13936219
H  H28  1  0.86140000  0.04070000  0.65180000  1.0 0.13936219
H  H29  1  0.95790000  0.21260000  0.41230000  1.0 0.130924653
H  H30  1  0.04210000  0.78740000  0.58770000  1.0 0.130924653
H  H31  1  0.76900000  0.25400000  0.41650000  1.0 0.1491609255
H  H32  1  0.23100000  0.74600000  0.58350000  1.0 0.1491609255
H  H33  1  0.40110000  0.16890000  0.33170000  1.0 0.13936219
H  H34  1  0.59890000  0.83110000  0.66830000  1.0 0.13936219
H  H35  1  0.43960000  0.01660000  0.27010000  1.0 0.1176680867
H  H36  1  0.56040000  0.98340000  0.72990000  1.0 0.1176680867
H  H37  1  0.74250000  0.67510000  0.68160000  1.0 0.4277505884
H  H38  1  0.25750000  0.32490000  0.31840000  1.0 0.4277505884
H  H39  1  0.87360000  0.68290000  0.66690000  1.0 0.4012827336
H  H40  1  0.12640000  0.31710000  0.33310000  1.0 0.4012827336
H  H41  1  0.83880000  0.39920000  0.60100000  1.0 0.4012827336
H  H42  1  0.16120000  0.60080000  0.39900000  1.0 0.4012827336
H  H43  1  0.93080000  0.51100000  0.61780000  1.0 0.4012827336
H  H44  1  0.06920000  0.48900000  0.38220000  1.0 0.4012827336
H  H45  1  0.88080000  0.61530000  0.48370000  1.0 0.4277505884
H  H46  1  0.11920000  0.38470000  0.51630000  1.0 0.4277505884
H  H47  1  0.77260000  0.53410000  0.43110000  1.0 0.4277505884
H  H48  1  0.22740000  0.46590000  0.56890000  1.0 0.4277505884
H  H49  1  0.05100000  0.35540000  0.18070000  1.0 0.4277505884
H  H50  1  0.94900000  0.64460000  0.81930000  1.0 0.4277505884
H  H51  1  0.16570000  0.44290000  0.18530000  1.0 0.4105349789
H  H52  1  0.83430000  0.55710000  0.81470000  1.0 0.4105349789
H  H53  1  0.25590000  0.27700000  0.03100000  1.0 0.4186942587
H  H54  1  0.74410000  0.72300000  0.96900000  1.0 0.4186942587
H  H55  1  0.30510000  0.39030000  0.08180000  1.0 0.4105349789
H  H56  1  0.69490000  0.60970000  0.91820000  1.0 0.4105349789
H  H57  1  0.98200000  0.19900000  0.93420000  1.0 0.3336059163
H  H58  1  0.01800000  0.80100000  0.06580000  1.0 0.3336059163
H  H59  1  0.98290000  0.13770000  0.97680000  1.0 0.3422361175
H  H60  1  0.01710000  0.86230000  0.02320000  1.0 0.3422361175
C  C1  1  0.69750000  0.82760000  0.37100000  1.0 0.0697681727
C  C2  1  0.30250000  0.17240000  0.62900000  1.0 0.0697681727
C  C3  1  0.65090000  0.75980000  0.40940000  1.0 -0.1173257632
C  C4  1  0.34910000  0.24020000  0.59060000  1.0 -0.1173257632
C  C5  1  0.54490000  0.68760000  0.38190000  1.0 0.0207950701
C  C6  1  0.45510000  0.31240000  0.61810000  1.0 0.0207950701
C  C7  1  0.47780000  0.68920000  0.31640000  1.0 -0.1760574718
C  C8  1  0.52220000  0.31080000  0.68360000  1.0 -0.1760574718
C  C9  1  0.52260000  0.75870000  0.28500000  1.0 0.13936219
C  C10  1  0.47740000  0.24130000  0.71500000  1.0 0.13936219
C  C11  1  0.46530000  0.76660000  0.22140000  1.0 0.177548186
C  C12  1  0.53470000  0.23340000  0.77860000  1.0 0.177548186
C  C13  1  0.35890000  0.69220000  0.17970000  1.0 -0.1885756393
C  C14  1  0.64110000  0.30780000  0.82030000  1.0 -0.1885756393
C  C15  1  0.30790000  0.71120000  0.11800000  1.0 0.0207950701
C  C16  1  0.69210000  0.28880000  0.88200000  1.0 0.0207950701
C  C17  1  0.35600000  0.79850000  0.10400000  1.0 -0.1173257632
C  C18  1  0.64400000  0.20150000  0.89600000  1.0 -0.1173257632
C  C19  1  0.46450000  0.86860000  0.14460000  1.0 0.0571679185
C  C20  1  0.53550000  0.13140000  0.85540000  1.0 0.0571679185
C  C21  1  0.49300000  0.60810000  0.41530000  1.0 0.6302931169
C  C22  1  0.50700000  0.39190000  0.58470000  1.0 0.6302931169
C  C23  1  0.19530000  0.63130000  0.07480000  1.0 0.6049040119
C  C24  1  0.80470000  0.36870000  0.92520000  1.0 0.6049040119
C  C25  1  0.71670000  0.10780000  0.19740000  1.0 0.0310318331
C  C26  1  0.28330000  0.89220000  0.80260000  1.0 0.0310318331
C  C27  1  0.76210000  0.15280000  0.15700000  1.0 -0.1259001335
C  C28  1  0.23790000  0.84720000  0.84300000  1.0 -0.1259001335
C  C29  1  0.81160000  0.08870000  0.11090000  1.0 0.0104503902
C  C30  1  0.18840000  0.91130000  0.88910000  1.0 0.0104503902
C  C31  1  0.81750000  0.97910000  0.10860000  1.0 -0.1686553002
C  C32  1  0.18250000  0.02090000  0.89140000  1.0 -0.1686553002
C  C33  1  0.77160000  0.93490000  0.15400000  1.0 0.1590479175
C  C34  1  0.22840000  0.06510000  0.84600000  1.0 0.1590479175
C  C35  1  0.77010000  0.81760000  0.15560000  1.0 0.13936219
C  C36  1  0.22990000  0.18240000  0.84440000  1.0 0.13936219
C  C37  1  0.81450000  0.73640000  0.11490000  1.0 -0.1686553002
C  C38  1  0.18550000  0.26360000  0.88510000  1.0 -0.1686553002
C  C39  1  0.82220000  0.63490000  0.12570000  1.0 0.0104503902
C  C40  1  0.17780000  0.36510000  0.87430000  1.0 0.0104503902
C  C41  1  0.79420000  0.61180000  0.17740000  1.0 -0.1407228401
C  C42  1  0.20580000  0.38820000  0.82260000  1.0 -0.1407228401
C  C43  1  0.75270000  0.69350000  0.21580000  1.0 0.0960663418
C  C44  1  0.24730000  0.30650000  0.78420000  1.0 0.0960663418
C  C45  1  0.86510000  0.14010000  0.06730000  1.0 0.5930909673
C  C46  1  0.13490000  0.85990000  0.93270000  1.0 0.5930909673
C  C47  1  0.88000000  0.55940000  0.08480000  1.0 0.6302931169
C  C48  1  0.12000000  0.44060000  0.91520000  1.0 0.6302931169
C  C49  1  0.95160000  0.93730000  0.30920000  1.0 0.0782966251
C  C50  1  0.04840000  0.06270000  0.69080000  1.0 0.0782966251
C  C51  1  0.06680000  0.99240000  0.34700000  1.0 -0.1259001335
C  C52  1  0.93320000  0.00760000  0.65300000  1.0 -0.1259001335
C  C53  1  0.07240000  0.09640000  0.38250000  1.0 0.0407377994
C  C54  1  0.92760000  0.90360000  0.61750000  1.0 0.0407377994
C  C55  1  0.95660000  0.14460000  0.38620000  1.0 -0.1686553002
C  C56  1  0.04340000  0.85540000  0.61380000  1.0 -0.1686553002
C  C57  1  0.84760000  0.08260000  0.34860000  1.0 0.1491609255
C  C58  1  0.15240000  0.91740000  0.65140000  1.0 0.1491609255
C  C59  1  0.72480000  0.11340000  0.34940000  1.0 0.13936219
C  C60  1  0.27520000  0.88660000  0.65060000  1.0 0.13936219
C  C61  1  0.70270000  0.20510000  0.38830000  1.0 -0.1466471245
C  C62  1  0.29730000  0.79490000  0.61170000  1.0 -0.1466471245
C  C63  1  0.57790000  0.22390000  0.38480000  1.0 0.045310081
C  C64  1  0.42210000  0.77610000  0.61520000  1.0 0.045310081
C  C65  1  0.48280000  0.15310000  0.33730000  1.0 -0.1407228401
C  C66  1  0.51720000  0.84690000  0.66270000  1.0 -0.1407228401
C  C67  1  0.50550000  0.06330000  0.29990000  1.0 0.0697681727
C  C68  1  0.49450000  0.93670000  0.70010000  1.0 0.0697681727
C  C69  1  0.19370000  0.17010000  0.41810000  1.0 0.5695893029
C  C70  1  0.80630000  0.82990000  0.58190000  1.0 0.5695893029
C  C71  1  0.54190000  0.32190000  0.42580000  1.0 0.6176300804
C  C72  1  0.45810000  0.67810000  0.57420000  1.0 0.6176300804
N  N1  1  0.63310000  0.82650000  0.31020000  1.0 -0.2107901638
N  N2  1  0.36690000  0.17350000  0.68980000  1.0 -0.2107901638
N  N3  1  0.51530000  0.85170000  0.20310000  1.0 -0.1951693138
N  N4  1  0.48470000  0.14830000  0.79690000  1.0 -0.1951693138
N  N5  1  0.72090000  0.99370000  0.19762000  1.0 -0.2390151424
N  N6  1  0.27910000  0.00630000  0.80238000  1.0 -0.2390151424
N  N7  1  0.73520000  0.79170000  0.20970000  1.0 -0.2316433703
N  N8  1  0.26480000  0.20830000  0.79030000  1.0 -0.2316433703
N  N9  1  0.84430000  0.97890000  0.31090000  1.0 -0.220214746
N  N10  1  0.15570000  0.02110000  0.68910000  1.0 -0.220214746
N  N11  1  0.62480000  0.04090000  0.30551000  1.0 -0.2390151424
N  N12  1  0.37520000  0.95910000  0.69449000  1.0 -0.2390151424
N  N13  1  0.21220000  0.84820000  0.46160000  1.0 0.6604440471
N  N14  1  0.78780000  0.15180000  0.53840000  1.0 0.6604440471
N  N15  1  0.12350000  0.60530000  0.70880000  1.0 0.6604440471
N  N16  1  0.87650000  0.39470000  0.29120000  1.0 0.6604440471
N  N17  1  0.86150000  0.03460000  0.79910000  1.0 0.6604440471
N  N18  1  0.13850000  0.96540000  0.20090000  1.0 0.6604440471
O  O1  1  0.56780000  0.58970000  0.46225000  1.0 -0.6701568803
O  O2  1  0.43220000  0.41030000  0.53775000  1.0 -0.6701568803
O  O3  1  0.37710000  0.56810000  0.39910000  1.0 -0.5989149054
O  O4  1  0.62290000  0.43190000  0.60090000  1.0 -0.5989149054
O  O5  1  0.16140000  0.54830000  0.09116000  1.0 -0.6072395583
O  O6  1  0.83860000  0.45170000  0.90884000  1.0 -0.6072395583
O  O7  1  0.14500000  0.65880000  0.02800000  1.0 -0.5489345034
O  O8  1  0.85500000  0.34120000  0.97200000  1.0 -0.5489345034
O  O9  1  0.90730000  0.24490000  0.08175000  1.0 -0.6485617896
O  O10  1  0.09270000  0.75510000  0.91825000  1.0 -0.6485617896
O  O11  1  0.87080000  0.07600000  0.01689000  1.0 -0.537230595
O  O12  1  0.12920000  0.92400000  0.98311000  1.0 -0.537230595
O  O13  1  0.90580000  0.58350000  0.03737000  1.0 -0.6701568803
O  O14  1  0.09420000  0.41650000  0.96263000  1.0 -0.6701568803
O  O15  1  0.90780000  0.47080000  0.10333000  1.0 -0.6243857582
O  O16  1  0.09220000  0.52920000  0.89667000  1.0 -0.6265438437
O  O17  1  0.28720000  0.12510000  0.42820000  1.0 -0.4840601524
O  O18  1  0.71280000  0.87490000  0.57180000  1.0 -0.4840601524
O  O19  1  0.19470000  0.27230000  0.43854000  1.0 -0.6828005155
O  O20  1  0.80530000  0.72770000  0.56146000  1.0 -0.6828005155
O  O21  1  0.63610000  0.37740000  0.47008000  1.0 -0.6265438437
O  O22  1  0.36390000  0.62260000  0.52992000  1.0 -0.6265438437
O  O23  1  0.44400000  0.35250000  0.41294000  1.0 -0.5666016777
O  O24  1  0.55600000  0.64750000  0.58706000  1.0 -0.5666016777
O  O25  1  0.79840000  0.63400000  0.66249000  1.0 -0.7795421422
O  O26  1  0.20160000  0.36600000  0.33751000  1.0 -0.7795421422
O  O27  1  0.86790000  0.45950000  0.58460000  1.0 -0.7861830433
O  O28  1  0.13210000  0.54050000  0.41540000  1.0 -0.7861830433
O  O29  1  0.82540000  0.54630000  0.47358000  1.0 -0.7795421422
O  O30  1  0.17460000  0.45370000  0.52642000  1.0 -0.7795421422
O  O31  1  0.11950000  0.37090000  0.16290000  1.0 -0.765220805
O  O32  1  0.88050000  0.62910000  0.83710000  1.0 -0.765220805
O  O33  1  0.24560000  0.32350000  0.06930000  1.0 -0.7795421422
O  O34  1  0.75440000  0.67650000  0.93070000  1.0 -0.7795421422
O  O35  1  0.02110000  0.18950000  0.97411000  1.0 -0.7229053219
O  O36  1  0.97890000  0.81050000  0.02589000  1.0 -0.7229053219
O  O37  1  0.31580000  0.89610000  0.47720000  1.0 -0.3319295784
O  O38  1  0.18970000  0.74790000  0.43747000  1.0 -0.4130464435
O  O39  1  0.12330000  0.89880000  0.46841000  1.0 -0.3984538866
O  O40  1  0.68420000  0.10390000  0.52280000  1.0 -0.3319295784
O  O41  1  0.81030000  0.25210000  0.56253000  1.0 -0.4130464435
O  O42  1  0.87670000  0.10120000  0.53159000  1.0 -0.3984538866
O  O43  1  0.03850000  0.62280000  0.73512000  1.0 -0.4130464435
O  O44  1  0.21190000  0.57130000  0.73845000  1.0 -0.3984538866
O  O45  1  0.12540000  0.62870000  0.65860000  1.0 -0.4130464435
O  O46  1  0.96150000  0.37720000  0.26488000  1.0 -0.4130464435
O  O47  1  0.78810000  0.42870000  0.26155000  1.0 -0.3984538866
O  O48  1  0.87460000  0.37130000  0.34140000  1.0 -0.4130464435
O  O49  1  0.90190000  0.94720000  0.79700000  1.0 -0.3984538866
O  O50  1  0.90880000  0.11710000  0.84410000  1.0 -0.4532596012
O  O51  1  0.77520000  0.04540000  0.75834000  1.0 -0.3984538866
O  O52  1  0.09810000  0.05280000  0.20300000  1.0 -0.3984538866
O  O53  1  0.09120000  0.88290000  0.15590000  1.0 -0.4532596012
O  O54  1  0.22480000  0.95460000  0.24166000  1.0 -0.3984538866
