# DDEC6 charges by PACMAN v1.1 (https://github.com/mtap-research/PACMAN-charge/)
data_TAPXIT01_ASR_pacman
_symmetry_space_group_name_H-M   'P 1'
_cell_length_a   15.44410000
_cell_length_b   15.44410000
_cell_length_c   7.17820000
_cell_angle_alpha   90.00000000
_cell_angle_beta   90.00000000
_cell_angle_gamma   119.44800000
_symmetry_Int_Tables_number   1
_chemical_formula_structural   NaYbH16(C14O5)2
_chemical_formula_sum   'Na2 Yb2 H32 C56 O20'
_cell_volume   1490.94047731
_cell_formula_units_Z   2
loop_
 _symmetry_equiv_pos_site_id
 _symmetry_equiv_pos_as_xyz
  1  'x, y, z'
loop_
 _atom_site_type_symbol
 _atom_site_label
 _atom_site_symmetry_multiplicity
 _atom_site_fract_x
 _atom_site_fract_y
 _atom_site_fract_z
 _atom_site_occupancy
 _atom_site_charge
Na  Na1  1  0.32050000  0.32050000  0.22520000  1.0 0.8772638354
Na  Na2  1  0.67950000  0.67950000  0.72520000  1.0 0.8772638354
Yb  Yb1  1  0.63360000  0.63360000  0.23140000  1.0 1.9938775811
Yb  Yb2  1  0.36640000  0.36640000  0.73140000  1.0 1.9938775811
H  H1  1  0.97570000  0.68930000  0.18620000  1.0 0.1077018865
H  H2  1  0.02430000  0.31070000  0.68620000  1.0 0.1077018865
H  H3  1  0.31070000  0.02430000  0.68620000  1.0 0.1077018865
H  H4  1  0.68930000  0.97570000  0.18620000  1.0 0.1077018865
H  H5  1  0.88930000  0.69470000  0.70830000  1.0 0.1044201019
H  H6  1  0.11070000  0.30530000  0.20830000  1.0 0.1044201019
H  H7  1  0.30530000  0.11070000  0.20830000  1.0 0.1044201019
H  H8  1  0.69470000  0.88930000  0.70830000  1.0 0.1044201019
H  H9  1  0.11970000  0.69870000  0.29590000  1.0 0.1320039805
H  H10  1  0.88030000  0.30130000  0.79590000  1.0 0.1320039805
H  H11  1  0.30130000  0.88030000  0.79590000  1.0 0.1320039805
H  H12  1  0.69870000  0.11970000  0.29590000  1.0 0.1320039805
H  H13  1  0.03360000  0.70080000  0.83120000  1.0 0.1320039805
H  H14  1  0.96640000  0.29920000  0.33120000  1.0 0.1320039805
H  H15  1  0.29920000  0.96640000  0.33120000  1.0 0.1320039805
H  H16  1  0.70080000  0.03360000  0.83120000  1.0 0.1320039805
H  H17  1  0.36490000  0.80570000  0.54270000  1.0 0.1377438034
H  H18  1  0.63510000  0.19430000  0.04270000  1.0 0.1377438034
H  H19  1  0.19430000  0.63510000  0.04270000  1.0 0.1377438034
H  H20  1  0.80570000  0.36490000  0.54270000  1.0 0.1377438034
H  H21  1  0.10910000  0.52730000  0.57550000  1.0 0.1245862457
H  H22  1  0.89090000  0.47270000  0.07550000  1.0 0.1245862457
H  H23  1  0.47270000  0.89090000  0.07550000  1.0 0.1245862457
H  H24  1  0.52730000  0.10910000  0.57550000  1.0 0.1245862457
H  H25  1  0.45070000  0.72370000  0.46180000  1.0 0.1077018865
H  H26  1  0.54930000  0.27630000  0.96180000  1.0 0.1077018865
H  H27  1  0.27630000  0.54930000  0.96180000  1.0 0.1077018865
H  H28  1  0.72370000  0.45070000  0.46180000  1.0 0.1077018865
H  H29  1  0.20830000  0.45770000  0.48240000  1.0 0.1077018865
H  H30  1  0.79170000  0.54230000  0.98240000  1.0 0.1077018865
H  H31  1  0.54230000  0.79170000  0.98240000  1.0 0.1077018865
H  H32  1  0.45770000  0.20830000  0.48240000  1.0 0.1077018865
C  C1  1  0.82330000  0.68130000  0.36610000  1.0 0.5315115961
C  C2  1  0.17670000  0.31870000  0.86610000  1.0 0.5315115961
C  C3  1  0.31870000  0.17670000  0.86610000  1.0 0.5315115961
C  C4  1  0.68130000  0.82330000  0.36610000  1.0 0.5315115961
C  C5  1  0.91260000  0.68680000  0.43370000  1.0 -0.1280026373
C  C6  1  0.08740000  0.31320000  0.93370000  1.0 -0.1280026373
C  C7  1  0.31320000  0.08740000  0.93370000  1.0 -0.1280026373
C  C8  1  0.68680000  0.91260000  0.43370000  1.0 -0.1280026373
C  C9  1  0.98590000  0.69090000  0.31410000  1.0 -0.0700345219
C  C10  1  0.01410000  0.30910000  0.81410000  1.0 -0.0700345219
C  C11  1  0.30910000  0.01410000  0.81410000  1.0 -0.0700345219
C  C12  1  0.69090000  0.98590000  0.31410000  1.0 -0.0700345219
C  C13  1  0.93520000  0.69360000  0.62600000  1.0 -0.075255235
C  C14  1  0.06480000  0.30640000  0.12600000  1.0 -0.075255235
C  C15  1  0.30640000  0.06480000  0.12600000  1.0 -0.075255235
C  C16  1  0.69360000  0.93520000  0.62600000  1.0 -0.075255235
C  C17  1  0.07260000  0.69700000  0.37900000  1.0 -0.2245651322
C  C18  1  0.92740000  0.30300000  0.87900000  1.0 -0.2245651322
C  C19  1  0.30300000  0.92740000  0.87900000  1.0 -0.2322418664
C  C20  1  0.69700000  0.07260000  0.37900000  1.0 -0.2245651322
C  C21  1  0.02190000  0.69870000  0.70400000  1.0 -0.2420247433
C  C22  1  0.97810000  0.30130000  0.20400000  1.0 -0.2322418664
C  C23  1  0.30130000  0.97810000  0.20400000  1.0 -0.2322418664
C  C24  1  0.69870000  0.02190000  0.70400000  1.0 -0.2322418664
C  C25  1  0.08830000  0.70050000  0.56800000  1.0 0.253543942
C  C26  1  0.91170000  0.29950000  0.06800000  1.0 0.253543942
C  C27  1  0.29950000  0.91170000  0.06800000  1.0 0.253543942
C  C28  1  0.70050000  0.08830000  0.56800000  1.0 0.253543942
C  C29  1  0.23120000  0.67480000  0.55400000  1.0 0.2651560518
C  C30  1  0.76880000  0.32520000  0.05400000  1.0 0.2651560518
C  C31  1  0.32520000  0.76880000  0.05400000  1.0 0.2651560518
C  C32  1  0.67480000  0.23120000  0.55400000  1.0 0.2651560518
C  C33  1  0.33350000  0.73710000  0.52910000  1.0 -0.2122702238
C  C34  1  0.66650000  0.26290000  0.02910000  1.0 -0.2122702238
C  C35  1  0.26290000  0.66650000  0.02910000  1.0 -0.2122702238
C  C36  1  0.73710000  0.33350000  0.52910000  1.0 -0.2122702238
C  C37  1  0.17650000  0.56570000  0.54800000  1.0 -0.2420247433
C  C38  1  0.82350000  0.43430000  0.04800000  1.0 -0.2420247433
C  C39  1  0.43430000  0.82350000  0.04800000  1.0 -0.2420247433
C  C40  1  0.56570000  0.17650000  0.54800000  1.0 -0.2420247433
C  C41  1  0.38250000  0.68730000  0.48300000  1.0 -0.0918687668
C  C42  1  0.61750000  0.31270000  0.98300000  1.0 -0.0918687668
C  C43  1  0.31270000  0.61750000  0.98300000  1.0 -0.0918687668
C  C44  1  0.68730000  0.38250000  0.48300000  1.0 -0.0918687668
C  C45  1  0.23670000  0.52630000  0.49600000  1.0 -0.1037543875
C  C46  1  0.76330000  0.47370000  0.99600000  1.0 -0.1037543875
C  C47  1  0.47370000  0.76330000  0.99600000  1.0 -0.1037543875
C  C48  1  0.52630000  0.23670000  0.49600000  1.0 -0.1037543875
C  C49  1  0.33520000  0.58420000  0.46500000  1.0 -0.0397020311
C  C50  1  0.66480000  0.41580000  0.96500000  1.0 -0.0397020311
C  C51  1  0.41580000  0.66480000  0.96500000  1.0 -0.0397020311
C  C52  1  0.58420000  0.33520000  0.46500000  1.0 -0.0397020311
C  C53  1  0.39910000  0.53610000  0.40930000  1.0 0.6429330024
C  C54  1  0.60090000  0.46390000  0.90930000  1.0 0.6429330024
C  C55  1  0.46390000  0.60090000  0.90930000  1.0 0.6429330024
C  C56  1  0.53610000  0.39910000  0.40930000  1.0 0.6429330024
O  O1  1  0.80860000  0.68800000  0.22500000  1.0 -0.3986991581
O  O2  1  0.19140000  0.31200000  0.72500000  1.0 -0.3986991581
O  O3  1  0.31200000  0.19140000  0.72500000  1.0 -0.3986991581
O  O4  1  0.68800000  0.80860000  0.22500000  1.0 -0.3986991581
O  O5  1  0.75230000  0.66590000  0.47080000  1.0 -0.607815021
O  O6  1  0.24770000  0.33410000  0.97080000  1.0 -0.607815021
O  O7  1  0.33410000  0.24770000  0.97080000  1.0 -0.607815021
O  O8  1  0.66590000  0.75230000  0.47080000  1.0 -0.607815021
O  O9  1  0.18150000  0.72070000  0.64820000  1.0 -0.258937252
O  O10  1  0.81850000  0.27930000  0.14820000  1.0 -0.258937252
O  O11  1  0.27930000  0.81850000  0.14820000  1.0 -0.258937252
O  O12  1  0.72070000  0.18150000  0.64820000  1.0 -0.258937252
O  O13  1  0.47910000  0.58650000  0.33140000  1.0 -0.662994453
O  O14  1  0.52090000  0.41350000  0.83140000  1.0 -0.662994453
O  O15  1  0.41350000  0.52090000  0.83140000  1.0 -0.662994453
O  O16  1  0.58650000  0.47910000  0.33140000  1.0 -0.662994453
O  O17  1  0.35940000  0.43940000  0.45380000  1.0 -0.7300487396
O  O18  1  0.64060000  0.56060000  0.95380000  1.0 -0.7300487396
O  O19  1  0.56060000  0.64060000  0.95380000  1.0 -0.7300487396
O  O20  1  0.43940000  0.35940000  0.45380000  1.0 -0.7300487396
