# DDEC6 charges by PACMAN v1.1 (https://github.com/mtap-research/PACMAN-charge/)
data_TAQTUE_ASR_pacman
_symmetry_space_group_name_H-M   'P 1'
_cell_length_a   22.78990000
_cell_length_b   22.78990000
_cell_length_c   22.78990000
_cell_angle_alpha   95.89470000
_cell_angle_beta   95.89470000
_cell_angle_gamma   142.61700000
_symmetry_Int_Tables_number   1
_chemical_formula_structural   Zn2H13C26(N3O5)2
_chemical_formula_sum   'Zn8 H52 C104 N24 O40'
_cell_volume   6807.46457656
_cell_formula_units_Z   4
loop_
 _symmetry_equiv_pos_site_id
 _symmetry_equiv_pos_as_xyz
  1  'x, y, z'
loop_
 _atom_site_type_symbol
 _atom_site_label
 _atom_site_symmetry_multiplicity
 _atom_site_fract_x
 _atom_site_fract_y
 _atom_site_fract_z
 _atom_site_occupancy
 _atom_site_charge
Zn  Zn1  1  0.99211000  0.60413000  0.14144000  1.0 0.9587809423
Zn  Zn2  1  0.82881000  0.57776000  0.62277000  1.0 0.9587809423
Zn  Zn3  1  0.46269000  0.85067000  0.85856000  1.0 0.9587809423
Zn  Zn4  1  0.95499000  0.20604000  0.37723000  1.0 0.9587809423
Zn  Zn5  1  0.85067000  0.99211000  0.38798000  1.0 0.9587809423
Zn  Zn6  1  0.20604000  0.82881000  0.25105000  1.0 0.9587809423
Zn  Zn7  1  0.60413000  0.46269000  0.61202000  1.0 0.9587809423
Zn  Zn8  1  0.57776000  0.95499000  0.74895000  1.0 0.9587809423
H  H1  1  0.92157000  0.57038000  0.93635000  1.0 0.3254435339
H  H2  1  0.23769000  0.70565000  0.89850000  1.0 0.31014741
H  H3  1  0.21379000  0.71413000  0.76406000  1.0 0.1456193456
H  H4  1  0.13493000  0.68373000  0.01660000  1.0 0.138492096
H  H5  1  0.97692000  0.58920000  0.71238000  1.0 0.3160799199
H  H6  1  0.85021000  0.55521000  0.78562000  1.0 0.138492096
H  H7  1  0.37526000  0.85087000  0.16035000  1.0 0.1456193456
H  H8  1  0.30229000  0.80690000  0.61327000  1.0 0.138492096
H  H9  1  0.46584000  0.88088000  0.09262000  1.0 0.1087738888
H  H10  1  0.15267000  0.73940000  0.57341000  1.0 0.1292359063
H  H11  1  0.78020000  0.50360000  0.94392000  1.0 0.138492096
H  H12  1  0.63356000  0.43248000  0.89926000  1.0 0.1087738888
H  H13  1  0.59230000  0.43161000  0.79777000  1.0 0.1292359063
H  H14  1  0.63403000  0.98522000  0.06365000  1.0 0.3254435339
H  H15  1  0.80715000  0.33919000  0.10150000  1.0 0.31014741
H  H16  1  0.95007000  0.44973000  0.23594000  1.0 0.1456193456
H  H17  1  0.66713000  0.11833000  0.98340000  1.0 0.138492096
H  H18  1  0.87682000  0.26454000  0.28762000  1.0 0.3160799199
H  H19  1  0.76959000  0.06459000  0.21438000  1.0 0.138492096
H  H20  1  0.69052000  0.21491000  0.83965000  1.0 0.1456193456
H  H21  1  0.19363000  0.68902000  0.38673000  1.0 0.138492096
H  H22  1  0.78826000  0.37322000  0.90738000  1.0 0.1087738888
H  H23  1  0.16599000  0.57926000  0.42659000  1.0 0.1292359063
H  H24  1  0.55968000  0.83628000  0.05608000  1.0 0.138492096
H  H25  1  0.53322000  0.73430000  0.10074000  1.0 0.1087738888
H  H26  1  0.63384000  0.79453000  0.20223000  1.0 0.1292359063
H  H27  1  0.98522000  0.92157000  0.35119000  1.0 0.3254435339
H  H28  1  0.33919000  0.23769000  0.53204000  1.0 0.31014741
H  H29  1  0.44973000  0.21379000  0.49966000  1.0 0.1456193456
H  H30  1  0.11833000  0.13493000  0.45120000  1.0 0.138492096
H  H31  1  0.26454000  0.97692000  0.38772000  1.0 0.3160799199
H  H32  1  0.06459000  0.85021000  0.29500000  1.0 0.138492096
H  H33  1  0.21491000  0.37526000  0.52439000  1.0 0.1456193456
H  H34  1  0.68902000  0.30229000  0.49539000  1.0 0.138492096
H  H35  1  0.37322000  0.46584000  0.58496000  1.0 0.1087738888
H  H36  1  0.57926000  0.15267000  0.41327000  1.0 0.1292359063
H  H37  1  0.83628000  0.78020000  0.27660000  1.0 0.138492096
H  H38  1  0.73430000  0.63356000  0.20108000  1.0 0.1087738888
H  H39  1  0.79453000  0.59230000  0.16069000  1.0 0.1292359063
H  H40  1  0.57038000  0.63403000  0.64881000  1.0 0.3254435339
H  H41  1  0.70565000  0.80715000  0.46796000  1.0 0.31014741
H  H42  1  0.71413000  0.95007000  0.50034000  1.0 0.1456193456
H  H43  1  0.68373000  0.66713000  0.54880000  1.0 0.138492096
H  H44  1  0.58920000  0.87682000  0.61228000  1.0 0.3160799199
H  H45  1  0.55521000  0.76959000  0.70500000  1.0 0.138492096
H  H46  1  0.85087000  0.69052000  0.47561000  1.0 0.1456193456
H  H47  1  0.80690000  0.19363000  0.50461000  1.0 0.138492096
H  H48  1  0.88088000  0.78826000  0.41504000  1.0 0.1087738888
H  H49  1  0.73940000  0.16599000  0.58673000  1.0 0.1292359063
H  H50  1  0.50360000  0.55968000  0.72340000  1.0 0.138492096
H  H51  1  0.43248000  0.53322000  0.79892000  1.0 0.1087738888
H  H52  1  0.43161000  0.63384000  0.83931000  1.0 0.1292359063
C  C1  1  0.19890000  0.71730000  0.72500000  1.0 -0.1603854642
C  C2  1  0.20370000  0.72750000  0.03160000  1.0 -0.1603854642
C  C3  1  0.97400000  0.59180000  0.87440000  1.0 0.5165226364
C  C4  1  0.10510000  0.67030000  0.70580000  1.0 0.2467762547
C  C5  1  0.34970000  0.79970000  0.01020000  1.0 -0.1332341528
C  C6  1  0.26690000  0.76320000  0.69790000  1.0 0.0247048869
C  C7  1  0.09120000  0.68380000  0.64600000  1.0 -0.1192083436
C  C8  1  0.25500000  0.77460000  0.09340000  1.0 0.000600875
C  C9  1  0.12200000  0.66260000  0.89020000  1.0 0.5517936552
C  C10  1  0.04270000  0.62760000  0.79610000  1.0 0.5410024577
C  C11  1  0.80660000  0.53290000  0.80930000  1.0 -0.1858480519
C  C12  1  0.40890000  0.82150000  0.97220000  1.0 0.5599482411
C  C13  1  0.72070000  0.50190000  0.78380000  1.0 -0.0544375705
C  C14  1  0.34560000  0.82550000  0.11670000  1.0 -0.091353719
C  C15  1  0.82430000  0.52930000  0.87040000  1.0 0.2057103345
C  C16  1  0.25680000  0.74610000  0.99010000  1.0 0.229931792
C  C17  1  0.99510000  0.64350000  0.61840000  1.0 0.5599482411
C  C18  1  0.37180000  0.81980000  0.72800000  1.0 0.5984333807
C  C19  1  0.70940000  0.50510000  0.72230000  1.0 0.5850956494
C  C20  1  0.25380000  0.77470000  0.63490000  1.0 -0.1192083436
C  C21  1  0.39960000  0.84270000  0.07650000  1.0 -0.091353719
C  C22  1  0.19520000  0.75150000  0.13330000  1.0 0.5984333807
C  C23  1  0.16550000  0.73430000  0.61220000  1.0 -0.0845124333
C  C24  1  0.76460000  0.49910000  0.90190000  1.0 -0.1720287895
C  C25  1  0.67910000  0.46070000  0.87580000  1.0 -0.0696883167
C  C26  1  0.65300000  0.45980000  0.81480000  1.0 -0.091353719
C  C27  1  0.99230000  0.47390000  0.27500000  1.0 -0.1549040323
C  C28  1  0.69590000  0.17210000  0.96840000  1.0 -0.1603854642
C  C29  1  0.71740000  0.09960000  0.12560000  1.0 0.5165226364
C  C30  1  0.96450000  0.39930000  0.29420000  1.0 0.2467762547
C  C31  1  0.78950000  0.33950000  0.98980000  1.0 -0.1332341528
C  C32  1  0.06530000  0.56900000  0.30210000  1.0 0.0247048869
C  C33  1  0.03780000  0.44520000  0.35400000  1.0 -0.1192083436
C  C34  1  0.68120000  0.16160000  0.90660000  1.0 0.000600875
C  C35  1  0.77240000  0.23180000  0.10980000  1.0 0.5517936552
C  C36  1  0.83150000  0.24660000  0.20390000  1.0 0.5410024577
C  C37  1  0.72360000  0.99730000  0.19070000  1.0 -0.1858480519
C  C38  1  0.84930000  0.43670000  0.02780000  1.0 0.5599482411
C  C39  1  0.71810000  0.93690000  0.21620000  1.0 -0.0544375705
C  C40  1  0.70880000  0.22890000  0.88330000  1.0 -0.091353719
C  C41  1  0.65890000  0.95390000  0.12960000  1.0 0.2057103345
C  C42  1  0.75600000  0.26670000  0.00990000  1.0 0.229931792
C  C43  1  0.02510000  0.37670000  0.38160000  1.0 0.5599482411
C  C44  1  0.09180000  0.64380000  0.27200000  1.0 0.5984333807
C  C45  1  0.78280000  0.98710000  0.27770000  1.0 0.5850956494
C  C46  1  0.13980000  0.61890000  0.36510000  1.0 -0.1192083436
C  C47  1  0.76620000  0.32310000  0.92350000  1.0 -0.091353719
C  C48  1  0.61820000  0.06190000  0.86670000  1.0 0.5984333807
C  C49  1  0.12210000  0.55330000  0.38780000  1.0 -0.0845124333
C  C50  1  0.59720000  0.86270000  0.09810000  1.0 -0.1720287895
C  C51  1  0.58490000  0.80330000  0.12420000  1.0 -0.0696883167
C  C52  1  0.64500000  0.83820000  0.18520000  1.0 -0.091353719
C  C53  1  0.47390000  0.19890000  0.48160000  1.0 -0.1549040323
C  C54  1  0.17210000  0.20370000  0.47620000  1.0 -0.1603854642
C  C55  1  0.09960000  0.97400000  0.38220000  1.0 0.5165226364
C  C56  1  0.39930000  0.10510000  0.43480000  1.0 0.2467762547
C  C57  1  0.33950000  0.34970000  0.55000000  1.0 -0.1332341528
C  C58  1  0.56900000  0.26690000  0.50370000  1.0 0.0247048869
C  C59  1  0.44520000  0.09120000  0.40740000  1.0 -0.1192083436
C  C60  1  0.16160000  0.25500000  0.48040000  1.0 0.000600875
C  C61  1  0.23180000  0.12200000  0.45940000  1.0 0.5517936552
C  C62  1  0.24660000  0.04270000  0.41510000  1.0 0.5410024577
C  C63  1  0.99730000  0.80660000  0.27370000  1.0 -0.1858480519
C  C64  1  0.43670000  0.40890000  0.58740000  1.0 0.5599482411
C  C65  1  0.93690000  0.72070000  0.21880000  1.0 -0.0544375705
C  C66  1  0.22890000  0.34560000  0.52010000  1.0 -0.091353719
C  C67  1  0.95390000  0.82430000  0.29500000  1.0 0.2057103345
C  C68  1  0.26670000  0.25680000  0.51070000  1.0 0.229931792
C  C69  1  0.37670000  0.99510000  0.35160000  1.0 0.5599482411
C  C70  1  0.64380000  0.37180000  0.55200000  1.0 0.5984333807
C  C71  1  0.98710000  0.70940000  0.20430000  1.0 0.5850956494
C  C72  1  0.61890000  0.25380000  0.47910000  1.0 -0.1192083436
C  C73  1  0.32310000  0.39960000  0.55690000  1.0 -0.091353719
C  C74  1  0.06190000  0.19520000  0.44370000  1.0 0.5984333807
C  C75  1  0.55330000  0.16550000  0.43120000  1.0 -0.0845124333
C  C76  1  0.86270000  0.76460000  0.26550000  1.0 -0.1720287895
C  C77  1  0.80330000  0.67910000  0.21840000  1.0 -0.0696883167
C  C78  1  0.83820000  0.65300000  0.19320000  1.0 -0.091353719
C  C79  1  0.71730000  0.99230000  0.51840000  1.0 -0.1603854642
C  C80  1  0.72750000  0.69590000  0.52380000  1.0 -0.1603854642
C  C81  1  0.59180000  0.71740000  0.61780000  1.0 0.5165226364
C  C82  1  0.67030000  0.96450000  0.56520000  1.0 0.2467762547
C  C83  1  0.79970000  0.78950000  0.45000000  1.0 -0.1332341528
C  C84  1  0.76320000  0.06530000  0.49630000  1.0 0.0247048869
C  C85  1  0.68380000  0.03780000  0.59260000  1.0 -0.1192083436
C  C86  1  0.77460000  0.68120000  0.51960000  1.0 0.000600875
C  C87  1  0.66260000  0.77240000  0.54060000  1.0 0.5517936552
C  C88  1  0.62760000  0.83150000  0.58490000  1.0 0.5410024577
C  C89  1  0.53290000  0.72360000  0.72630000  1.0 -0.1858480519
C  C90  1  0.82150000  0.84930000  0.41260000  1.0 0.5599482411
C  C91  1  0.50190000  0.71810000  0.78120000  1.0 -0.0544375705
C  C92  1  0.82550000  0.70880000  0.47990000  1.0 -0.091353719
C  C93  1  0.52930000  0.65890000  0.70500000  1.0 0.2057103345
C  C94  1  0.74610000  0.75600000  0.48930000  1.0 0.229931792
C  C95  1  0.64350000  0.02510000  0.64840000  1.0 0.5599482411
C  C96  1  0.81980000  0.09180000  0.44800000  1.0 0.5984333807
C  C97  1  0.50510000  0.78280000  0.79570000  1.0 0.5850956494
C  C98  1  0.77470000  0.13980000  0.52090000  1.0 -0.1192083436
C  C99  1  0.84270000  0.76620000  0.44310000  1.0 -0.091353719
C  C100  1  0.75150000  0.61820000  0.55630000  1.0 0.5984333807
C  C101  1  0.73430000  0.12210000  0.56880000  1.0 -0.0845124333
C  C102  1  0.49910000  0.59720000  0.73450000  1.0 -0.1720287895
C  C103  1  0.46070000  0.58490000  0.78160000  1.0 -0.0696883167
C  C104  1  0.45980000  0.64500000  0.80680000  1.0 -0.091353719
N  N1  1  0.05650000  0.63350000  0.91440000  1.0 -0.5013055152
N  N2  1  0.96730000  0.58870000  0.81240000  1.0 -0.5086032695
N  N3  1  0.91060000  0.56550000  0.89690000  1.0 -0.2961496061
N  N4  1  0.12730000  0.66730000  0.83120000  1.0 -0.5294560736
N  N5  1  0.20770000  0.70380000  0.92150000  1.0 -0.3587988263
N  N6  1  0.03620000  0.62570000  0.73550000  1.0 -0.2961496061
N  N7  1  0.71910000  0.14210000  0.08560000  1.0 -0.5013055152
N  N8  1  0.77630000  0.15490000  0.18760000  1.0 -0.5086032695
N  N9  1  0.66860000  0.01370000  0.10310000  1.0 -0.2946940309
N  N10  1  0.83610000  0.29610000  0.16880000  1.0 -0.5294560736
N  N11  1  0.78230000  0.28620000  0.07850000  1.0 -0.3587988263
N  N12  1  0.89020000  0.30070000  0.26450000  1.0 -0.2961496061
N  N13  1  0.14210000  0.05650000  0.42300000  1.0 -0.5013055152
N  N14  1  0.15490000  0.96730000  0.37860000  1.0 -0.5086032695
N  N15  1  0.01370000  0.91060000  0.34510000  1.0 -0.2946940309
N  N16  1  0.29610000  0.12730000  0.46000000  1.0 -0.5294560736
N  N17  1  0.28620000  0.20770000  0.50390000  1.0 -0.3587988263
N  N18  1  0.30070000  0.03620000  0.41050000  1.0 -0.2961496061
N  N19  1  0.63350000  0.71910000  0.57700000  1.0 -0.5013055152
N  N20  1  0.58870000  0.77630000  0.62140000  1.0 -0.5086032695
N  N21  1  0.56550000  0.66860000  0.65490000  1.0 -0.2946940309
N  N22  1  0.66730000  0.83610000  0.54000000  1.0 -0.5294560736
N  N23  1  0.70380000  0.78230000  0.49610000  1.0 -0.3587988263
N  N24  1  0.62570000  0.89020000  0.58950000  1.0 -0.2961496061
O  O1  1  0.10840000  0.69330000  0.11010000  1.0 -0.4830407372
O  O2  1  0.76990000  0.53800000  0.69170000  1.0 -0.5788885897
O  O3  1  0.94040000  0.61160000  0.64820000  1.0 -0.5294560736
O  O4  1  0.49720000  0.86990000  0.99390000  1.0 -0.5736180937
O  O5  1  0.43730000  0.86760000  0.70610000  1.0 -0.4053112066
O  O6  1  0.37880000  0.80540000  0.90820000  1.0 -0.6357939786
O  O7  1  0.63360000  0.47810000  0.70070000  1.0 -0.5201759433
O  O8  1  0.37070000  0.80490000  0.78220000  1.0 -0.5888385719
O  O9  1  0.24680000  0.80300000  0.19240000  1.0 -0.5544334745
O  O10  1  0.99480000  0.65850000  0.56630000  1.0 -0.5201759433
O  O11  1  0.58320000  0.99830000  0.88990000  1.0 -0.4830407372
O  O12  1  0.84630000  0.07820000  0.30830000  1.0 -0.5788885897
O  O13  1  0.96340000  0.29220000  0.35180000  1.0 -0.5294560736
O  O14  1  0.87600000  0.50330000  0.00610000  1.0 -0.5736180937
O  O15  1  0.16150000  0.73120000  0.29390000  1.0 -0.4053112066
O  O16  1  0.89720000  0.47060000  0.09180000  1.0 -0.6357939786
O  O17  1  0.77740000  0.93290000  0.29930000  1.0 -0.5201759433
O  O18  1  0.02270000  0.58850000  0.21780000  1.0 -0.5888385719
O  O19  1  0.61060000  0.05440000  0.80760000  1.0 -0.5544334745
O  O20  1  0.09220000  0.42850000  0.43370000  1.0 -0.5201759433
O  O21  1  0.99830000  0.10840000  0.41510000  1.0 -0.4830407372
O  O22  1  0.07820000  0.76990000  0.23190000  1.0 -0.5788885897
O  O23  1  0.29220000  0.94040000  0.32880000  1.0 -0.5294560736
O  O24  1  0.50330000  0.49720000  0.62730000  1.0 -0.5736180937
O  O25  1  0.73120000  0.43730000  0.56970000  1.0 -0.4053112066
O  O26  1  0.47060000  0.37880000  0.57340000  1.0 -0.6357939786
O  O27  1  0.93290000  0.63360000  0.15550000  1.0 -0.5201759433
O  O28  1  0.58850000  0.37070000  0.56580000  1.0 -0.5888385719
O  O29  1  0.05440000  0.24680000  0.44380000  1.0 -0.5544334745
O  O30  1  0.42850000  0.99480000  0.33630000  1.0 -0.5201759433
O  O31  1  0.69330000  0.58320000  0.58490000  1.0 -0.4830407372
O  O32  1  0.53800000  0.84630000  0.76810000  1.0 -0.5788885897
O  O33  1  0.61160000  0.96340000  0.67120000  1.0 -0.5294560736
O  O34  1  0.86990000  0.87600000  0.37270000  1.0 -0.5736180937
O  O35  1  0.86760000  0.16150000  0.43030000  1.0 -0.4053112066
O  O36  1  0.80540000  0.89720000  0.42660000  1.0 -0.6357939786
O  O37  1  0.47810000  0.77740000  0.84450000  1.0 -0.5201759433
O  O38  1  0.80490000  0.02270000  0.43420000  1.0 -0.5888385719
O  O39  1  0.80300000  0.61060000  0.55620000  1.0 -0.5544334745
O  O40  1  0.65850000  0.09220000  0.66370000  1.0 -0.5201759433
