# DDEC6 charges by PACMAN v1.1 (https://github.com/mtap-research/PACMAN-charge/)
data_TARJUV_ASR_pacman
_symmetry_space_group_name_H-M   'P 1'
_cell_length_a   29.18240000
_cell_length_b   29.18240000
_cell_length_c   29.18240000
_cell_angle_alpha   58.77420000
_cell_angle_beta   58.77420000
_cell_angle_gamma   58.77420000
_symmetry_Int_Tables_number   1
_chemical_formula_structural   Mg5H37C88Br10N8O21
_chemical_formula_sum   'Mg30 H222 C528 Br60 N48 O126'
_cell_volume   17081.08059663
_cell_formula_units_Z   6
loop_
 _symmetry_equiv_pos_site_id
 _symmetry_equiv_pos_as_xyz
  1  'x, y, z'
loop_
 _atom_site_type_symbol
 _atom_site_label
 _atom_site_symmetry_multiplicity
 _atom_site_fract_x
 _atom_site_fract_y
 _atom_site_fract_z
 _atom_site_occupancy
 _atom_site_charge
Mg  Mg1  1  0.86004000  0.13617000  0.86460000  1.0 1.1394950389
Mg  Mg2  1  0.78389000  0.27332000  0.78440000  1.0 0.6631308237
Mg  Mg3  1  0.78008000  0.16578000  0.78508000  1.0 0.7174432019
Mg  Mg4  1  0.72442000  0.21922000  0.84292000  1.0 0.7884287874
Mg  Mg5  1  0.83334000  0.21877000  0.73127000  1.0 0.6189012666
Mg  Mg6  1  0.86460000  0.86004000  0.13617000  1.0 1.1394950389
Mg  Mg7  1  0.78440000  0.78389000  0.27332000  1.0 0.6710307637
Mg  Mg8  1  0.78508000  0.78008000  0.16578000  1.0 0.7131099293
Mg  Mg9  1  0.84292000  0.72442000  0.21922000  1.0 0.7834194044
Mg  Mg10  1  0.73127000  0.83334000  0.21877000  1.0 0.6189012666
Mg  Mg11  1  0.13617000  0.86460000  0.86004000  1.0 1.1394950389
Mg  Mg12  1  0.27332000  0.78440000  0.78389000  1.0 0.6631308237
Mg  Mg13  1  0.16578000  0.78508000  0.78008000  1.0 0.7131099293
Mg  Mg14  1  0.21922000  0.84292000  0.72442000  1.0 0.7834194044
Mg  Mg15  1  0.21877000  0.73127000  0.83334000  1.0 0.6189012666
Mg  Mg16  1  0.13996000  0.86383000  0.13540000  1.0 1.1394950389
Mg  Mg17  1  0.21611000  0.72668000  0.21560000  1.0 0.6710307637
Mg  Mg18  1  0.21992000  0.83422000  0.21492000  1.0 0.7131099293
Mg  Mg19  1  0.27558000  0.78078000  0.15708000  1.0 0.7834194044
Mg  Mg20  1  0.16666000  0.78123000  0.26873000  1.0 0.6189012666
Mg  Mg21  1  0.13540000  0.13996000  0.86383000  1.0 1.1394950389
Mg  Mg22  1  0.21560000  0.21611000  0.72668000  1.0 0.6710307637
Mg  Mg23  1  0.21492000  0.21992000  0.83422000  1.0 0.7174432019
Mg  Mg24  1  0.15708000  0.27558000  0.78078000  1.0 0.7884287874
Mg  Mg25  1  0.26873000  0.16666000  0.78123000  1.0 0.6189012666
Mg  Mg26  1  0.86383000  0.13540000  0.13996000  1.0 1.1394950389
Mg  Mg27  1  0.72668000  0.21560000  0.21611000  1.0 0.6631308237
Mg  Mg28  1  0.83422000  0.21492000  0.21992000  1.0 0.7131099293
Mg  Mg29  1  0.78078000  0.15708000  0.27558000  1.0 0.7834194044
Mg  Mg30  1  0.78123000  0.26873000  0.16666000  1.0 0.6189012666
H  H1  1  0.80508000  0.19790000  0.00087000  1.0 0.100907265
H  H2  1  0.68427000  0.32245000  0.93045000  1.0 0.1096835658
H  H3  1  0.68295000  0.32099000  0.06894000  1.0 0.100907265
H  H4  1  0.69705000  0.52166000  0.89830000  1.0 0.100907265
H  H5  1  0.71891000  0.41737000  0.94075000  1.0 0.1096835658
H  H6  1  0.59541000  0.28283000  0.05893000  1.0 0.1096835658
H  H7  1  0.49262000  0.29667000  0.09914000  1.0 0.100907265
H  H8  1  0.32706000  0.30844000  0.11242000  1.0 0.0694369095
H  H9  1  0.31111000  0.26900000  0.20939000  1.0 0.0615061673
H  H10  1  0.32564000  0.30744000  0.25259000  1.0 0.0509156305
H  H11  1  0.79811000  0.99796000  0.00369000  1.0 0.0913658968
H  H12  1  0.67979000  0.92602000  0.07214000  1.0 0.0913658968
H  H13  1  0.67263000  0.07378000  0.93906000  1.0 0.100907265
H  H14  1  0.58867000  0.01185000  0.10831000  1.0 0.0793009087
H  H15  1  0.48746000  0.02207000  0.17052000  1.0 0.0615061673
H  H16  1  0.31124000  0.01962000  0.16595000  1.0 0.0615061673
H  H17  1  0.28613000  0.01797000  0.09913000  1.0 0.0793009087
H  H18  1  0.29929000  0.11971000  0.24102000  1.0 0.100907265
H  H19  1  0.29328000  0.04218000  0.32201000  1.0 0.0615061673
H  H20  1  0.34557000  0.94974000  0.32215000  1.0 0.100907265
H  H21  1  0.36254000  0.29308000  0.06917000  1.0 0.0509156305
H  H22  1  0.33607000  0.24954000  0.16750000  1.0 0.0793009087
H  H23  1  0.34524000  0.28036000  0.21978000  1.0 0.0793009087
H  H24  1  0.47031000  0.07711000  0.13835000  1.0 0.0694369095
H  H25  1  0.57379000  0.04167000  0.09346000  1.0 0.100907265
H  H26  1  0.29022000  0.03755000  0.07033000  1.0 0.0913658968
H  H27  1  0.29535000  0.08024000  0.12066000  1.0 0.0913658968
H  H28  1  0.28007000  0.22136000  0.15345000  1.0 0.0913658968
H  H29  1  0.24715000  0.16591000  0.25017000  1.0 0.0793009087
H  H30  1  0.28725000  0.06627000  0.28061000  1.0 0.0793009087
H  H31  1  0.50682000  0.96217000  0.19185000  1.0 0.0793009087
H  H32  1  0.59454000  0.98335000  0.11924000  1.0 0.0913658968
H  H33  1  0.29736000  0.98710000  0.11016000  1.0 0.0913658968
H  H34  1  0.32934000  0.96212000  0.18626000  1.0 0.0793009087
H  H35  1  0.32824000  0.98367000  0.32475000  1.0 0.0913658968
H  H36  1  0.35372000  0.88643000  0.37243000  1.0 0.1405984026
H  H37  1  0.41718000  0.82256000  0.32362000  1.0 0.1211580847
H  H38  1  0.00087000  0.80508000  0.19790000  1.0 0.100907265
H  H39  1  0.93045000  0.68427000  0.32245000  1.0 0.1096835658
H  H40  1  0.06894000  0.68295000  0.32099000  1.0 0.100907265
H  H41  1  0.89830000  0.69705000  0.52166000  1.0 0.100907265
H  H42  1  0.94075000  0.71891000  0.41737000  1.0 0.1096835658
H  H43  1  0.05893000  0.59541000  0.28283000  1.0 0.1096835658
H  H44  1  0.09914000  0.49262000  0.29667000  1.0 0.100907265
H  H45  1  0.11242000  0.32706000  0.30844000  1.0 0.0694369095
H  H46  1  0.20939000  0.31111000  0.26900000  1.0 0.0615061673
H  H47  1  0.25259000  0.32564000  0.30744000  1.0 0.0509156305
H  H48  1  0.00369000  0.79811000  0.99796000  1.0 0.0913658968
H  H49  1  0.07214000  0.67979000  0.92602000  1.0 0.0913658968
H  H50  1  0.93906000  0.67263000  0.07378000  1.0 0.100907265
H  H51  1  0.10831000  0.58867000  0.01185000  1.0 0.0793009087
H  H52  1  0.17052000  0.48746000  0.02207000  1.0 0.0615061673
H  H53  1  0.16595000  0.31124000  0.01962000  1.0 0.0615061673
H  H54  1  0.09913000  0.28613000  0.01797000  1.0 0.0793009087
H  H55  1  0.24102000  0.29929000  0.11971000  1.0 0.100907265
H  H56  1  0.32201000  0.29328000  0.04218000  1.0 0.0615061673
H  H57  1  0.32215000  0.34557000  0.94974000  1.0 0.100907265
H  H58  1  0.06917000  0.36254000  0.29308000  1.0 0.0509156305
H  H59  1  0.16750000  0.33607000  0.24954000  1.0 0.0793009087
H  H60  1  0.21978000  0.34524000  0.28036000  1.0 0.0793009087
H  H61  1  0.13835000  0.47031000  0.07711000  1.0 0.0694369095
H  H62  1  0.09346000  0.57379000  0.04167000  1.0 0.100907265
H  H63  1  0.07033000  0.29022000  0.03755000  1.0 0.0913658968
H  H64  1  0.12066000  0.29535000  0.08024000  1.0 0.0913658968
H  H65  1  0.15345000  0.28007000  0.22136000  1.0 0.0913658968
H  H66  1  0.25017000  0.24715000  0.16591000  1.0 0.0793009087
H  H67  1  0.28061000  0.28725000  0.06627000  1.0 0.0793009087
H  H68  1  0.19185000  0.50682000  0.96217000  1.0 0.0793009087
H  H69  1  0.11924000  0.59454000  0.98335000  1.0 0.0913658968
H  H70  1  0.11016000  0.29736000  0.98710000  1.0 0.0913658968
H  H71  1  0.18626000  0.32934000  0.96212000  1.0 0.0793009087
H  H72  1  0.32475000  0.32824000  0.98367000  1.0 0.0913658968
H  H73  1  0.37243000  0.35372000  0.88643000  1.0 0.1405984026
H  H74  1  0.32362000  0.41718000  0.82256000  1.0 0.1211580847
H  H75  1  0.19790000  0.00087000  0.80508000  1.0 0.100907265
H  H76  1  0.32245000  0.93045000  0.68427000  1.0 0.1096835658
H  H77  1  0.32099000  0.06894000  0.68295000  1.0 0.1096835658
H  H78  1  0.52166000  0.89830000  0.69705000  1.0 0.100907265
H  H79  1  0.41737000  0.94075000  0.71891000  1.0 0.1096835658
H  H80  1  0.28283000  0.05893000  0.59541000  1.0 0.1096835658
H  H81  1  0.29667000  0.09914000  0.49262000  1.0 0.100907265
H  H82  1  0.30844000  0.11242000  0.32706000  1.0 0.0694369095
H  H83  1  0.26900000  0.20939000  0.31111000  1.0 0.0615061673
H  H84  1  0.30744000  0.25259000  0.32564000  1.0 0.0509156305
H  H85  1  0.99796000  0.00369000  0.79811000  1.0 0.0913658968
H  H86  1  0.92602000  0.07214000  0.67979000  1.0 0.0913658968
H  H87  1  0.07378000  0.93906000  0.67263000  1.0 0.100907265
H  H88  1  0.01185000  0.10831000  0.58867000  1.0 0.0793009087
H  H89  1  0.02207000  0.17052000  0.48746000  1.0 0.0615061673
H  H90  1  0.01962000  0.16595000  0.31124000  1.0 0.0615061673
H  H91  1  0.01797000  0.09913000  0.28613000  1.0 0.0793009087
H  H92  1  0.11971000  0.24102000  0.29929000  1.0 0.100907265
H  H93  1  0.04218000  0.32201000  0.29328000  1.0 0.0615061673
H  H94  1  0.94974000  0.32215000  0.34557000  1.0 0.100907265
H  H95  1  0.29308000  0.06917000  0.36254000  1.0 0.0509156305
H  H96  1  0.24954000  0.16750000  0.33607000  1.0 0.0793009087
H  H97  1  0.28036000  0.21978000  0.34524000  1.0 0.0793009087
H  H98  1  0.07711000  0.13835000  0.47031000  1.0 0.0694369095
H  H99  1  0.04167000  0.09346000  0.57379000  1.0 0.100907265
H  H100  1  0.03755000  0.07033000  0.29022000  1.0 0.0913658968
H  H101  1  0.08024000  0.12066000  0.29535000  1.0 0.0913658968
H  H102  1  0.22136000  0.15345000  0.28007000  1.0 0.0913658968
H  H103  1  0.16591000  0.25017000  0.24715000  1.0 0.0793009087
H  H104  1  0.06627000  0.28061000  0.28725000  1.0 0.0793009087
H  H105  1  0.96217000  0.19185000  0.50682000  1.0 0.0793009087
H  H106  1  0.98335000  0.11924000  0.59454000  1.0 0.0913658968
H  H107  1  0.98710000  0.11016000  0.29736000  1.0 0.0913658968
H  H108  1  0.96212000  0.18626000  0.32934000  1.0 0.0793009087
H  H109  1  0.98367000  0.32475000  0.32824000  1.0 0.0913658968
H  H110  1  0.88643000  0.37243000  0.35372000  1.0 0.1405984026
H  H111  1  0.82256000  0.32362000  0.41718000  1.0 0.1211580847
H  H112  1  0.19492000  0.80210000  0.99913000  1.0 0.100907265
H  H113  1  0.31573000  0.67755000  0.06955000  1.0 0.1096835658
H  H114  1  0.31705000  0.67901000  0.93106000  1.0 0.100907265
H  H115  1  0.30295000  0.47834000  0.10170000  1.0 0.100907265
H  H116  1  0.28109000  0.58263000  0.05925000  1.0 0.1096835658
H  H117  1  0.40459000  0.71717000  0.94107000  1.0 0.1096835658
H  H118  1  0.50738000  0.70333000  0.90086000  1.0 0.100907265
H  H119  1  0.67294000  0.69156000  0.88758000  1.0 0.0694369095
H  H120  1  0.68889000  0.73100000  0.79061000  1.0 0.0615061673
H  H121  1  0.67436000  0.69256000  0.74741000  1.0 0.0509156305
H  H122  1  0.20189000  0.00204000  0.99631000  1.0 0.0913658968
H  H123  1  0.32021000  0.07398000  0.92786000  1.0 0.0913658968
H  H124  1  0.32737000  0.92622000  0.06094000  1.0 0.100907265
H  H125  1  0.41133000  0.98815000  0.89169000  1.0 0.0793009087
H  H126  1  0.51254000  0.97793000  0.82948000  1.0 0.0615061673
H  H127  1  0.68876000  0.98038000  0.83405000  1.0 0.0615061673
H  H128  1  0.71387000  0.98203000  0.90087000  1.0 0.0793009087
H  H129  1  0.70071000  0.88029000  0.75898000  1.0 0.100907265
H  H130  1  0.70672000  0.95782000  0.67799000  1.0 0.0615061673
H  H131  1  0.65443000  0.05026000  0.67785000  1.0 0.100907265
H  H132  1  0.63746000  0.70692000  0.93083000  1.0 0.0509156305
H  H133  1  0.66393000  0.75046000  0.83250000  1.0 0.0793009087
H  H134  1  0.65476000  0.71964000  0.78022000  1.0 0.0793009087
H  H135  1  0.52969000  0.92289000  0.86165000  1.0 0.0694369095
H  H136  1  0.42621000  0.95833000  0.90654000  1.0 0.100907265
H  H137  1  0.70978000  0.96245000  0.92967000  1.0 0.0913658968
H  H138  1  0.70465000  0.91976000  0.87934000  1.0 0.0913658968
H  H139  1  0.71993000  0.77864000  0.84655000  1.0 0.0913658968
H  H140  1  0.75285000  0.83409000  0.74983000  1.0 0.0793009087
H  H141  1  0.71275000  0.93373000  0.71939000  1.0 0.0793009087
H  H142  1  0.49318000  0.03783000  0.80815000  1.0 0.0793009087
H  H143  1  0.40546000  0.01665000  0.88076000  1.0 0.100907265
H  H144  1  0.70264000  0.01290000  0.88984000  1.0 0.0913658968
H  H145  1  0.67066000  0.03788000  0.81374000  1.0 0.0793009087
H  H146  1  0.67176000  0.01633000  0.67525000  1.0 0.0913658968
H  H147  1  0.64628000  0.11357000  0.62757000  1.0 0.1405984026
H  H148  1  0.58282000  0.17744000  0.67638000  1.0 0.1211580847
H  H149  1  0.99913000  0.19492000  0.80210000  1.0 0.100907265
H  H150  1  0.06955000  0.31573000  0.67755000  1.0 0.1096835658
H  H151  1  0.93106000  0.31705000  0.67901000  1.0 0.100907265
H  H152  1  0.10170000  0.30295000  0.47834000  1.0 0.100907265
H  H153  1  0.05925000  0.28109000  0.58263000  1.0 0.1096835658
H  H154  1  0.94107000  0.40459000  0.71717000  1.0 0.1096835658
H  H155  1  0.90086000  0.50738000  0.70333000  1.0 0.100907265
H  H156  1  0.88758000  0.67294000  0.69156000  1.0 0.0694369095
H  H157  1  0.79061000  0.68889000  0.73100000  1.0 0.0615061673
H  H158  1  0.74741000  0.67436000  0.69256000  1.0 0.0509156305
H  H159  1  0.99631000  0.20189000  0.00204000  1.0 0.0913658968
H  H160  1  0.92786000  0.32021000  0.07398000  1.0 0.0913658968
H  H161  1  0.06094000  0.32737000  0.92622000  1.0 0.100907265
H  H162  1  0.89169000  0.41133000  0.98815000  1.0 0.0793009087
H  H163  1  0.82948000  0.51254000  0.97793000  1.0 0.0615061673
H  H164  1  0.83405000  0.68876000  0.98038000  1.0 0.0615061673
H  H165  1  0.90087000  0.71387000  0.98203000  1.0 0.0793009087
H  H166  1  0.75898000  0.70071000  0.88029000  1.0 0.100907265
H  H167  1  0.67799000  0.70672000  0.95782000  1.0 0.0615061673
H  H168  1  0.67785000  0.65443000  0.05026000  1.0 0.100907265
H  H169  1  0.93083000  0.63746000  0.70692000  1.0 0.0509156305
H  H170  1  0.83250000  0.66393000  0.75046000  1.0 0.0793009087
H  H171  1  0.78022000  0.65476000  0.71964000  1.0 0.0793009087
H  H172  1  0.86165000  0.52969000  0.92289000  1.0 0.0694369095
H  H173  1  0.90654000  0.42621000  0.95833000  1.0 0.100907265
H  H174  1  0.92967000  0.70978000  0.96245000  1.0 0.0913658968
H  H175  1  0.87934000  0.70465000  0.91976000  1.0 0.0913658968
H  H176  1  0.84655000  0.71993000  0.77864000  1.0 0.0913658968
H  H177  1  0.74983000  0.75285000  0.83409000  1.0 0.0793009087
H  H178  1  0.71939000  0.71275000  0.93373000  1.0 0.0793009087
H  H179  1  0.80815000  0.49318000  0.03783000  1.0 0.0793009087
H  H180  1  0.88076000  0.40546000  0.01665000  1.0 0.100907265
H  H181  1  0.88984000  0.70264000  0.01290000  1.0 0.0913658968
H  H182  1  0.81374000  0.67066000  0.03788000  1.0 0.0793009087
H  H183  1  0.67525000  0.67176000  0.01633000  1.0 0.0913658968
H  H184  1  0.62757000  0.64628000  0.11357000  1.0 0.1405984026
H  H185  1  0.67638000  0.58282000  0.17744000  1.0 0.1211580847
H  H186  1  0.80210000  0.99913000  0.19492000  1.0 0.100907265
H  H187  1  0.67755000  0.06955000  0.31573000  1.0 0.1096835658
H  H188  1  0.67901000  0.93106000  0.31705000  1.0 0.100907265
H  H189  1  0.47834000  0.10170000  0.30295000  1.0 0.100907265
H  H190  1  0.58263000  0.05925000  0.28109000  1.0 0.1096835658
H  H191  1  0.71717000  0.94107000  0.40459000  1.0 0.1096835658
H  H192  1  0.70333000  0.90086000  0.50738000  1.0 0.100907265
H  H193  1  0.69156000  0.88758000  0.67294000  1.0 0.0694369095
H  H194  1  0.73100000  0.79061000  0.68889000  1.0 0.0615061673
H  H195  1  0.69256000  0.74741000  0.67436000  1.0 0.0509156305
H  H196  1  0.00204000  0.99631000  0.20189000  1.0 0.0913658968
H  H197  1  0.07398000  0.92786000  0.32021000  1.0 0.0913658968
H  H198  1  0.92622000  0.06094000  0.32737000  1.0 0.100907265
H  H199  1  0.98815000  0.89169000  0.41133000  1.0 0.0793009087
H  H200  1  0.97793000  0.82948000  0.51254000  1.0 0.0615061673
H  H201  1  0.98038000  0.83405000  0.68876000  1.0 0.0615061673
H  H202  1  0.98203000  0.90087000  0.71387000  1.0 0.0793009087
H  H203  1  0.88029000  0.75898000  0.70071000  1.0 0.100907265
H  H204  1  0.95782000  0.67799000  0.70672000  1.0 0.0615061673
H  H205  1  0.05026000  0.67785000  0.65443000  1.0 0.100907265
H  H206  1  0.70692000  0.93083000  0.63746000  1.0 0.0509156305
H  H207  1  0.75046000  0.83250000  0.66393000  1.0 0.0793009087
H  H208  1  0.71964000  0.78022000  0.65476000  1.0 0.0793009087
H  H209  1  0.92289000  0.86165000  0.52969000  1.0 0.0694369095
H  H210  1  0.95833000  0.90654000  0.42621000  1.0 0.100907265
H  H211  1  0.96245000  0.92967000  0.70978000  1.0 0.0913658968
H  H212  1  0.91976000  0.87934000  0.70465000  1.0 0.0913658968
H  H213  1  0.77864000  0.84655000  0.71993000  1.0 0.0913658968
H  H214  1  0.83409000  0.74983000  0.75285000  1.0 0.0793009087
H  H215  1  0.93373000  0.71939000  0.71275000  1.0 0.0793009087
H  H216  1  0.03783000  0.80815000  0.49318000  1.0 0.0793009087
H  H217  1  0.01665000  0.88076000  0.40546000  1.0 0.100907265
H  H218  1  0.01290000  0.88984000  0.70264000  1.0 0.0913658968
H  H219  1  0.03788000  0.81374000  0.67066000  1.0 0.0793009087
H  H220  1  0.01633000  0.67525000  0.67176000  1.0 0.0913658968
H  H221  1  0.11357000  0.62757000  0.64628000  1.0 0.1405984026
H  H222  1  0.17744000  0.67638000  0.58282000  1.0 0.1211580847
C  C1  1  0.77811000  0.23431000  0.90971000  1.0 0.311050496
C  C2  1  0.76920000  0.22530000  0.09170000  1.0 0.3597358674
C  C3  1  0.77267000  0.23180000  0.00010000  1.0 -0.1287453625
C  C4  1  0.75054000  0.25711000  0.95705000  1.0 -0.0107327576
C  C5  1  0.70108000  0.30571000  0.95851000  1.0 -0.1626201254
C  C6  1  0.67666000  0.32938000  0.99907000  1.0 0.0615061673
C  C7  1  0.69995000  0.30446000  0.04060000  1.0 -0.153331852
C  C8  1  0.74849000  0.25495000  0.04184000  1.0 -0.0107327576
C  C9  1  0.60818000  0.52788000  0.93868000  1.0 0.1211580847
C  C10  1  0.67034000  0.50214000  0.92104000  1.0 -0.2185967474
C  C11  1  0.68201000  0.44561000  0.94331000  1.0 -0.1868294699
C  C12  1  0.62796000  0.43476000  0.97236000  1.0 0.2017596403
C  C13  1  0.62297000  0.38204000  0.99980000  1.0 -0.1082715895
C  C14  1  0.57099000  0.37291000  0.02710000  1.0 0.2050447354
C  C15  1  0.56510000  0.31840000  0.05570000  1.0 -0.1868294699
C  C16  1  0.50915000  0.32575000  0.07745000  1.0 -0.2185967474
C  C17  1  0.47967000  0.38597000  0.06147000  1.0 0.0913658968
C  C18  1  0.42144000  0.41314000  0.07504000  1.0 -0.030114139
C  C19  1  0.38470000  0.37390000  0.11820000  1.0 0.0034305213
C  C20  1  0.37270000  0.35430000  0.09370000  1.0 0.0410407987
C  C21  1  0.34020000  0.31860000  0.12860000  1.0 -0.030114139
C  C22  1  0.32760000  0.29810000  0.18630000  1.0 -0.0780860069
C  C23  1  0.33820000  0.31880000  0.21230000  1.0 -0.1287453625
C  C24  1  0.36770000  0.35650000  0.17630000  1.0 0.0088172036
C  C25  1  0.76090000  0.09190000  0.92260000  1.0 0.3534510383
C  C26  1  0.76840000  0.91020000  0.09050000  1.0 0.2795394281
C  C27  1  0.76447000  0.99902000  0.00477000  1.0 -0.1287453625
C  C28  1  0.74187000  0.95629000  0.04637000  1.0 -0.0593522729
C  C29  1  0.69432000  0.95632000  0.04532000  1.0 -0.3163774928
C  C30  1  0.66840000  0.99998000  0.00562000  1.0 0.0615061673
C  C31  1  0.69078000  0.04343000  0.96589000  1.0 -0.3109648274
C  C32  1  0.73902000  0.04364000  0.96439000  1.0 -0.0593522729
C  C33  1  0.56890000  0.00650000  0.05030000  1.0 0.0694369095
C  C34  1  0.56080000  0.01180000  0.10050000  1.0 -0.0032064144
C  C35  1  0.50598000  0.01678000  0.13468000  1.0 -0.030114139
C  C36  1  0.48094000  0.01234000  0.10584000  1.0 0.0913658968
C  C37  1  0.61795000  0.99919000  0.00421000  1.0 -0.1082715895
C  C38  1  0.37280000  0.00570000  0.04500000  1.0 0.0509156305
C  C39  1  0.39596000  0.01386000  0.10116000  1.0 0.100907265
C  C40  1  0.33580000  0.01670000  0.12920000  1.0 -0.0500905431
C  C41  1  0.32280000  0.01440000  0.09350000  1.0 0.0215781774
C  C42  1  0.42589000  0.01119000  0.12829000  1.0 -0.0107327576
C  C43  1  0.39129000  0.01939000  0.18439000  1.0 -0.0107327576
C  C44  1  0.35877000  0.07277000  0.18807000  1.0 -0.030114139
C  C45  1  0.32160000  0.08230000  0.23950000  1.0 -0.030114139
C  C46  1  0.31850000  0.03620000  0.28660000  1.0 -0.1763072034
C  C47  1  0.34910000  0.98130000  0.28750000  1.0 -0.0780860069
C  C48  1  0.38535000  0.97415000  0.23545000  1.0 -0.1626201254
C  C49  1  0.76560000  0.22360000  0.92300000  1.0 0.311050496
C  C50  1  0.77973000  0.23583000  0.08003000  1.0 0.3534510383
C  C51  1  0.38690000  0.37340000  0.09580000  1.0 0.0088172036
C  C52  1  0.39010000  0.34810000  0.06450000  1.0 0.0215781774
C  C53  1  0.36670000  0.30480000  0.09130000  1.0 -0.1390251014
C  C54  1  0.35020000  0.28000000  0.14910000  1.0 -0.0905479344
C  C55  1  0.35410000  0.29920000  0.17970000  1.0 -0.030114139
C  C56  1  0.37080000  0.34520000  0.15420000  1.0 0.0509156305
C  C57  1  0.76840000  0.08470000  0.91510000  1.0 0.3325086076
C  C58  1  0.77000000  0.90830000  0.08870000  1.0 0.2795394281
C  C59  1  0.46680000  0.04880000  0.08610000  1.0 0.0410407987
C  C60  1  0.49060000  0.06000000  0.10990000  1.0 -0.1626201254
C  C61  1  0.54700000  0.04170000  0.08410000  1.0 -0.0677527515
C  C62  1  0.56190000  0.02200000  0.04030000  1.0 0.0509156305
C  C63  1  0.38000000  0.01570000  0.03080000  1.0 0.0615061673
C  C64  1  0.32400000  0.03840000  0.06680000  1.0 -0.0677527515
C  C65  1  0.32630000  0.06100000  0.09500000  1.0 -0.1701250522
C  C66  1  0.38710000  0.04960000  0.07740000  1.0 0.0284904621
C  C67  1  0.40740000  0.05850000  0.10670000  1.0 -0.099576298
C  C68  1  0.36338000  0.09348000  0.14658000  1.0 -0.0032064144
C  C69  1  0.33990000  0.15370000  0.12700000  1.0 -0.0677527515
C  C70  1  0.29650000  0.18100000  0.16560000  1.0 -0.2123836217
C  C71  1  0.27700000  0.14760000  0.22330000  1.0 -0.153331852
C  C72  1  0.30090000  0.08810000  0.24150000  1.0 -0.0107327576
C  C73  1  0.34396000  0.06136000  0.20316000  1.0 -0.0677527515
C  C74  1  0.49060000  0.97490000  0.12090000  1.0 0.0509156305
C  C75  1  0.51940000  0.97050000  0.15200000  1.0 -0.1626201254
C  C76  1  0.56760000  0.98100000  0.11220000  1.0 -0.0677527515
C  C77  1  0.57270000  0.98820000  0.05670000  1.0 0.0615061673
C  C78  1  0.37720000  0.99740000  0.05100000  1.0 0.0694369095
C  C79  1  0.33310000  0.98550000  0.10490000  1.0 -0.0593522729
C  C80  1  0.35010000  0.97170000  0.14640000  1.0 -0.1701250522
C  C81  1  0.40740000  0.97470000  0.11730000  1.0 0.0410407987
C  C82  1  0.43580000  0.97010000  0.14720000  1.0 -0.0677527515
C  C83  1  0.41595000  0.94295000  0.21265000  1.0 -0.0107327576
C  C84  1  0.37765000  0.97785000  0.24545000  1.0 -0.1287453625
C  C85  1  0.35430000  0.95790000  0.30420000  1.0 -0.030114139
C  C86  1  0.36960000  0.90040000  0.33200000  1.0 -0.2415060897
C  C87  1  0.40680000  0.86250000  0.30390000  1.0 -0.1390251014
C  C88  1  0.42891000  0.88511000  0.24481000  1.0 -0.0905479344
C  C89  1  0.90971000  0.77811000  0.23431000  1.0 0.311050496
C  C90  1  0.09170000  0.76920000  0.22530000  1.0 0.3597358674
C  C91  1  0.00010000  0.77267000  0.23180000  1.0 -0.1287453625
C  C92  1  0.95705000  0.75054000  0.25711000  1.0 -0.0107327576
C  C93  1  0.95851000  0.70108000  0.30571000  1.0 -0.1626201254
C  C94  1  0.99907000  0.67666000  0.32938000  1.0 0.0615061673
C  C95  1  0.04060000  0.69995000  0.30446000  1.0 -0.153331852
C  C96  1  0.04184000  0.74849000  0.25495000  1.0 -0.0211970645
C  C97  1  0.93868000  0.60818000  0.52788000  1.0 0.1211580847
C  C98  1  0.92104000  0.67034000  0.50214000  1.0 -0.2185967474
C  C99  1  0.94331000  0.68201000  0.44561000  1.0 -0.1868294699
C  C100  1  0.97236000  0.62796000  0.43476000  1.0 0.2017596403
C  C101  1  0.99980000  0.62297000  0.38204000  1.0 -0.1082715895
C  C102  1  0.02710000  0.57099000  0.37291000  1.0 0.2050447354
C  C103  1  0.05570000  0.56510000  0.31840000  1.0 -0.1868294699
C  C104  1  0.07745000  0.50915000  0.32575000  1.0 -0.2185967474
C  C105  1  0.06147000  0.47967000  0.38597000  1.0 0.0913658968
C  C106  1  0.07504000  0.42144000  0.41314000  1.0 -0.030114139
C  C107  1  0.11820000  0.38470000  0.37390000  1.0 0.0034305213
C  C108  1  0.09370000  0.37270000  0.35430000  1.0 0.0410407987
C  C109  1  0.12860000  0.34020000  0.31860000  1.0 -0.030114139
C  C110  1  0.18630000  0.32760000  0.29810000  1.0 -0.0780860069
C  C111  1  0.21230000  0.33820000  0.31880000  1.0 -0.1287453625
C  C112  1  0.17630000  0.36770000  0.35650000  1.0 0.0088172036
C  C113  1  0.92260000  0.76090000  0.09190000  1.0 0.3534510383
C  C114  1  0.09050000  0.76840000  0.91020000  1.0 0.2700750271
C  C115  1  0.00477000  0.76447000  0.99902000  1.0 -0.1287453625
C  C116  1  0.04637000  0.74187000  0.95629000  1.0 -0.0593522729
C  C117  1  0.04532000  0.69432000  0.95632000  1.0 -0.3163774928
C  C118  1  0.00562000  0.66840000  0.99998000  1.0 0.0615061673
C  C119  1  0.96589000  0.69078000  0.04343000  1.0 -0.3109648274
C  C120  1  0.96439000  0.73902000  0.04364000  1.0 -0.0593522729
C  C121  1  0.05030000  0.56890000  0.00650000  1.0 0.0694369095
C  C122  1  0.10050000  0.56080000  0.01180000  1.0 -0.0032064144
C  C123  1  0.13468000  0.50598000  0.01678000  1.0 -0.030114139
C  C124  1  0.10584000  0.48094000  0.01234000  1.0 0.0913658968
C  C125  1  0.00421000  0.61795000  0.99919000  1.0 -0.1082715895
C  C126  1  0.04500000  0.37280000  0.00570000  1.0 0.0509156305
C  C127  1  0.10116000  0.39596000  0.01386000  1.0 0.100907265
C  C128  1  0.12920000  0.33580000  0.01670000  1.0 -0.0500905431
C  C129  1  0.09350000  0.32280000  0.01440000  1.0 0.0215781774
C  C130  1  0.12829000  0.42589000  0.01119000  1.0 -0.0107327576
C  C131  1  0.18439000  0.39129000  0.01939000  1.0 -0.0107327576
C  C132  1  0.18807000  0.35877000  0.07277000  1.0 -0.030114139
C  C133  1  0.23950000  0.32160000  0.08230000  1.0 -0.030114139
C  C134  1  0.28660000  0.31850000  0.03620000  1.0 -0.1763072034
C  C135  1  0.28750000  0.34910000  0.98130000  1.0 -0.0780860069
C  C136  1  0.23545000  0.38535000  0.97415000  1.0 -0.1626201254
C  C137  1  0.92300000  0.76560000  0.22360000  1.0 0.311050496
C  C138  1  0.08003000  0.77973000  0.23583000  1.0 0.3534510383
C  C139  1  0.09580000  0.38690000  0.37340000  1.0 0.0088172036
C  C140  1  0.06450000  0.39010000  0.34810000  1.0 0.0215781774
C  C141  1  0.09130000  0.36670000  0.30480000  1.0 -0.1390251014
C  C142  1  0.14910000  0.35020000  0.28000000  1.0 -0.0905479344
C  C143  1  0.17970000  0.35410000  0.29920000  1.0 -0.030114139
C  C144  1  0.15420000  0.37080000  0.34520000  1.0 0.0509156305
C  C145  1  0.91510000  0.76840000  0.08470000  1.0 0.3393192852
C  C146  1  0.08870000  0.77000000  0.90830000  1.0 0.2795394281
C  C147  1  0.08610000  0.46680000  0.04880000  1.0 0.0410407987
C  C148  1  0.10990000  0.49060000  0.06000000  1.0 -0.1626201254
C  C149  1  0.08410000  0.54700000  0.04170000  1.0 -0.0677527515
C  C150  1  0.04030000  0.56190000  0.02200000  1.0 0.0509156305
C  C151  1  0.03080000  0.38000000  0.01570000  1.0 0.0615061673
C  C152  1  0.06680000  0.32400000  0.03840000  1.0 -0.0677527515
C  C153  1  0.09500000  0.32630000  0.06100000  1.0 -0.1701250522
C  C154  1  0.07740000  0.38710000  0.04960000  1.0 0.0284904621
C  C155  1  0.10670000  0.40740000  0.05850000  1.0 -0.099576298
C  C156  1  0.14658000  0.36338000  0.09348000  1.0 -0.0032064144
C  C157  1  0.12700000  0.33990000  0.15370000  1.0 -0.0677527515
C  C158  1  0.16560000  0.29650000  0.18100000  1.0 -0.2123836217
C  C159  1  0.22330000  0.27700000  0.14760000  1.0 -0.153331852
C  C160  1  0.24150000  0.30090000  0.08810000  1.0 -0.0107327576
C  C161  1  0.20316000  0.34396000  0.06136000  1.0 -0.0677527515
C  C162  1  0.12090000  0.49060000  0.97490000  1.0 0.0509156305
C  C163  1  0.15200000  0.51940000  0.97050000  1.0 -0.1626201254
C  C164  1  0.11220000  0.56760000  0.98100000  1.0 -0.0677527515
C  C165  1  0.05670000  0.57270000  0.98820000  1.0 0.0509156305
C  C166  1  0.05100000  0.37720000  0.99740000  1.0 0.0694369095
C  C167  1  0.10490000  0.33310000  0.98550000  1.0 -0.0593522729
C  C168  1  0.14640000  0.35010000  0.97170000  1.0 -0.1626201254
C  C169  1  0.11730000  0.40740000  0.97470000  1.0 0.0410407987
C  C170  1  0.14720000  0.43580000  0.97010000  1.0 -0.0677527515
C  C171  1  0.21265000  0.41595000  0.94295000  1.0 -0.0107327576
C  C172  1  0.24545000  0.37765000  0.97785000  1.0 -0.1287453625
C  C173  1  0.30420000  0.35430000  0.95790000  1.0 -0.0412372923
C  C174  1  0.33200000  0.36960000  0.90040000  1.0 -0.2415060897
C  C175  1  0.30390000  0.40680000  0.86250000  1.0 -0.1390251014
C  C176  1  0.24481000  0.42891000  0.88511000  1.0 -0.0905479344
C  C177  1  0.23431000  0.90971000  0.77811000  1.0 0.311050496
C  C178  1  0.22530000  0.09170000  0.76920000  1.0 0.3597358674
C  C179  1  0.23180000  0.00010000  0.77267000  1.0 -0.1287453625
C  C180  1  0.25711000  0.95705000  0.75054000  1.0 -0.0107327576
C  C181  1  0.30571000  0.95851000  0.70108000  1.0 -0.1626201254
C  C182  1  0.32938000  0.99907000  0.67666000  1.0 0.0615061673
C  C183  1  0.30446000  0.04060000  0.69995000  1.0 -0.153331852
C  C184  1  0.25495000  0.04184000  0.74849000  1.0 -0.0107327576
C  C185  1  0.52788000  0.93868000  0.60818000  1.0 0.1211580847
C  C186  1  0.50214000  0.92104000  0.67034000  1.0 -0.2185967474
C  C187  1  0.44561000  0.94331000  0.68201000  1.0 -0.1868294699
C  C188  1  0.43476000  0.97236000  0.62796000  1.0 0.2017596403
C  C189  1  0.38204000  0.99980000  0.62297000  1.0 -0.1082715895
C  C190  1  0.37291000  0.02710000  0.57099000  1.0 0.2050447354
C  C191  1  0.31840000  0.05570000  0.56510000  1.0 -0.1868294699
C  C192  1  0.32575000  0.07745000  0.50915000  1.0 -0.2185967474
C  C193  1  0.38597000  0.06147000  0.47967000  1.0 0.0913658968
C  C194  1  0.41314000  0.07504000  0.42144000  1.0 -0.030114139
C  C195  1  0.37390000  0.11820000  0.38470000  1.0 0.0034305213
C  C196  1  0.35430000  0.09370000  0.37270000  1.0 0.0410407987
C  C197  1  0.31860000  0.12860000  0.34020000  1.0 -0.030114139
C  C198  1  0.29810000  0.18630000  0.32760000  1.0 -0.0780860069
C  C199  1  0.31880000  0.21230000  0.33820000  1.0 -0.1287453625
C  C200  1  0.35650000  0.17630000  0.36770000  1.0 0.0088172036
C  C201  1  0.09190000  0.92260000  0.76090000  1.0 0.3393192852
C  C202  1  0.91020000  0.09050000  0.76840000  1.0 0.2643154303
C  C203  1  0.99902000  0.00477000  0.76447000  1.0 -0.1287453625
C  C204  1  0.95629000  0.04637000  0.74187000  1.0 -0.0593522729
C  C205  1  0.95632000  0.04532000  0.69432000  1.0 -0.3163774928
C  C206  1  0.99998000  0.00562000  0.66840000  1.0 0.0509156305
C  C207  1  0.04343000  0.96589000  0.69078000  1.0 -0.3109648274
C  C208  1  0.04364000  0.96439000  0.73902000  1.0 -0.0593522729
C  C209  1  0.00650000  0.05030000  0.56890000  1.0 0.0615061673
C  C210  1  0.01180000  0.10050000  0.56080000  1.0 -0.0107327576
C  C211  1  0.01678000  0.13468000  0.50598000  1.0 -0.030114139
C  C212  1  0.01234000  0.10584000  0.48094000  1.0 0.0913658968
C  C213  1  0.99919000  0.00421000  0.61795000  1.0 -0.1082715895
C  C214  1  0.00570000  0.04500000  0.37280000  1.0 0.0509156305
C  C215  1  0.01386000  0.10116000  0.39596000  1.0 0.100907265
C  C216  1  0.01670000  0.12920000  0.33580000  1.0 -0.0500905431
C  C217  1  0.01440000  0.09350000  0.32280000  1.0 0.0215781774
C  C218  1  0.01119000  0.12829000  0.42589000  1.0 -0.0107327576
C  C219  1  0.01939000  0.18439000  0.39129000  1.0 -0.0107327576
C  C220  1  0.07277000  0.18807000  0.35877000  1.0 -0.030114139
C  C221  1  0.08230000  0.23950000  0.32160000  1.0 -0.030114139
C  C222  1  0.03620000  0.28660000  0.31850000  1.0 -0.1763072034
C  C223  1  0.98130000  0.28750000  0.34910000  1.0 -0.0780860069
C  C224  1  0.97415000  0.23545000  0.38535000  1.0 -0.1626201254
C  C225  1  0.22360000  0.92300000  0.76560000  1.0 0.311050496
C  C226  1  0.23583000  0.08003000  0.77973000  1.0 0.3534510383
C  C227  1  0.37340000  0.09580000  0.38690000  1.0 0.0088172036
C  C228  1  0.34810000  0.06450000  0.39010000  1.0 0.0215781774
C  C229  1  0.30480000  0.09130000  0.36670000  1.0 -0.1390251014
C  C230  1  0.28000000  0.14910000  0.35020000  1.0 -0.0905479344
C  C231  1  0.29920000  0.17970000  0.35410000  1.0 -0.030114139
C  C232  1  0.34520000  0.15420000  0.37080000  1.0 0.0509156305
C  C233  1  0.08470000  0.91510000  0.76840000  1.0 0.3325086076
C  C234  1  0.90830000  0.08870000  0.77000000  1.0 0.2881522963
C  C235  1  0.04880000  0.08610000  0.46680000  1.0 0.0410407987
C  C236  1  0.06000000  0.10990000  0.49060000  1.0 -0.1626201254
C  C237  1  0.04170000  0.08410000  0.54700000  1.0 -0.0677527515
C  C238  1  0.02200000  0.04030000  0.56190000  1.0 0.0509156305
C  C239  1  0.01570000  0.03080000  0.38000000  1.0 0.0615061673
C  C240  1  0.03840000  0.06680000  0.32400000  1.0 -0.0677527515
C  C241  1  0.06100000  0.09500000  0.32630000  1.0 -0.1701250522
C  C242  1  0.04960000  0.07740000  0.38710000  1.0 0.0284904621
C  C243  1  0.05850000  0.10670000  0.40740000  1.0 -0.099576298
C  C244  1  0.09348000  0.14658000  0.36338000  1.0 -0.0032064144
C  C245  1  0.15370000  0.12700000  0.33990000  1.0 -0.0677527515
C  C246  1  0.18100000  0.16560000  0.29650000  1.0 -0.2123836217
C  C247  1  0.14760000  0.22330000  0.27700000  1.0 -0.153331852
C  C248  1  0.08810000  0.24150000  0.30090000  1.0 -0.0107327576
C  C249  1  0.06136000  0.20316000  0.34396000  1.0 -0.0677527515
C  C250  1  0.97490000  0.12090000  0.49060000  1.0 0.0509156305
C  C251  1  0.97050000  0.15200000  0.51940000  1.0 -0.1626201254
C  C252  1  0.98100000  0.11220000  0.56760000  1.0 -0.0677527515
C  C253  1  0.98820000  0.05670000  0.57270000  1.0 0.0509156305
C  C254  1  0.99740000  0.05100000  0.37720000  1.0 0.0694369095
C  C255  1  0.98550000  0.10490000  0.33310000  1.0 -0.0593522729
C  C256  1  0.97170000  0.14640000  0.35010000  1.0 -0.1626201254
C  C257  1  0.97470000  0.11730000  0.40740000  1.0 0.0410407987
C  C258  1  0.97010000  0.14720000  0.43580000  1.0 -0.0677527515
C  C259  1  0.94295000  0.21265000  0.41595000  1.0 -0.0107327576
C  C260  1  0.97785000  0.24545000  0.37765000  1.0 -0.1287453625
C  C261  1  0.95790000  0.30420000  0.35430000  1.0 -0.030114139
C  C262  1  0.90040000  0.33200000  0.36960000  1.0 -0.2415060897
C  C263  1  0.86250000  0.30390000  0.40680000  1.0 -0.1390251014
C  C264  1  0.88511000  0.24481000  0.42891000  1.0 -0.0905479344
C  C265  1  0.22189000  0.76569000  0.09029000  1.0 0.311050496
C  C266  1  0.23080000  0.77470000  0.90830000  1.0 0.3597358674
C  C267  1  0.22733000  0.76820000  0.99990000  1.0 -0.1287453625
C  C268  1  0.24946000  0.74289000  0.04295000  1.0 -0.0107327576
C  C269  1  0.29892000  0.69429000  0.04149000  1.0 -0.1626201254
C  C270  1  0.32334000  0.67062000  0.00093000  1.0 0.0615061673
C  C271  1  0.30005000  0.69554000  0.95940000  1.0 -0.153331852
C  C272  1  0.25151000  0.74505000  0.95816000  1.0 -0.0211970645
C  C273  1  0.39182000  0.47212000  0.06132000  1.0 0.1211580847
C  C274  1  0.32966000  0.49786000  0.07896000  1.0 -0.2185967474
C  C275  1  0.31799000  0.55439000  0.05669000  1.0 -0.1868294699
C  C276  1  0.37204000  0.56524000  0.02764000  1.0 0.2017596403
C  C277  1  0.37703000  0.61796000  0.00020000  1.0 -0.1082715895
C  C278  1  0.42901000  0.62709000  0.97290000  1.0 0.2050447354
C  C279  1  0.43490000  0.68160000  0.94430000  1.0 -0.1868294699
C  C280  1  0.49085000  0.67425000  0.92255000  1.0 -0.2185967474
C  C281  1  0.52033000  0.61403000  0.93853000  1.0 0.0913658968
C  C282  1  0.57856000  0.58686000  0.92496000  1.0 -0.030114139
C  C283  1  0.61530000  0.62610000  0.88180000  1.0 0.0034305213
C  C284  1  0.62730000  0.64570000  0.90630000  1.0 0.0410407987
C  C285  1  0.65980000  0.68140000  0.87140000  1.0 -0.030114139
C  C286  1  0.67240000  0.70190000  0.81370000  1.0 -0.0780860069
C  C287  1  0.66180000  0.68120000  0.78770000  1.0 -0.1287453625
C  C288  1  0.63230000  0.64350000  0.82370000  1.0 0.0088172036
C  C289  1  0.23910000  0.90810000  0.07740000  1.0 0.3534510383
C  C290  1  0.23160000  0.08980000  0.90950000  1.0 0.2700750271
C  C291  1  0.23553000  0.00098000  0.99523000  1.0 -0.1287453625
C  C292  1  0.25813000  0.04371000  0.95363000  1.0 -0.0593522729
C  C293  1  0.30568000  0.04368000  0.95468000  1.0 -0.3109648274
C  C294  1  0.33160000  0.00002000  0.99438000  1.0 0.0509156305
C  C295  1  0.30922000  0.95657000  0.03411000  1.0 -0.3109648274
C  C296  1  0.26098000  0.95636000  0.03561000  1.0 -0.0593522729
C  C297  1  0.43110000  0.99350000  0.94970000  1.0 0.0694369095
C  C298  1  0.43920000  0.98820000  0.89950000  1.0 -0.0107327576
C  C299  1  0.49402000  0.98322000  0.86532000  1.0 -0.030114139
C  C300  1  0.51906000  0.98766000  0.89416000  1.0 0.0913658968
C  C301  1  0.38205000  0.00081000  0.99579000  1.0 -0.1082715895
C  C302  1  0.62720000  0.99430000  0.95500000  1.0 0.0509156305
C  C303  1  0.60404000  0.98614000  0.89884000  1.0 0.100907265
C  C304  1  0.66420000  0.98330000  0.87080000  1.0 -0.0500905431
C  C305  1  0.67720000  0.98560000  0.90650000  1.0 0.0088172036
C  C306  1  0.57411000  0.98881000  0.87171000  1.0 -0.0107327576
C  C307  1  0.60871000  0.98061000  0.81561000  1.0 -0.0107327576
C  C308  1  0.64123000  0.92723000  0.81193000  1.0 -0.030114139
C  C309  1  0.67840000  0.91770000  0.76050000  1.0 -0.030114139
C  C310  1  0.68150000  0.96380000  0.71340000  1.0 -0.1701250522
C  C311  1  0.65090000  0.01870000  0.71250000  1.0 -0.0780860069
C  C312  1  0.61465000  0.02585000  0.76455000  1.0 -0.1626201254
C  C313  1  0.23440000  0.77640000  0.07700000  1.0 0.311050496
C  C314  1  0.22027000  0.76417000  0.91997000  1.0 0.3534510383
C  C315  1  0.61310000  0.62660000  0.90420000  1.0 0.0088172036
C  C316  1  0.60990000  0.65190000  0.93550000  1.0 0.0215781774
C  C317  1  0.63330000  0.69520000  0.90870000  1.0 -0.1390251014
C  C318  1  0.64980000  0.72000000  0.85090000  1.0 -0.0905479344
C  C319  1  0.64590000  0.70080000  0.82030000  1.0 -0.030114139
C  C320  1  0.62920000  0.65480000  0.84580000  1.0 0.0509156305
C  C321  1  0.23160000  0.91530000  0.08490000  1.0 0.3393192852
C  C322  1  0.23000000  0.09170000  0.91130000  1.0 0.2795394281
C  C323  1  0.53320000  0.95120000  0.91390000  1.0 0.0410407987
C  C324  1  0.50940000  0.94000000  0.89010000  1.0 -0.1626201254
C  C325  1  0.45300000  0.95830000  0.91590000  1.0 -0.0677527515
C  C326  1  0.43810000  0.97800000  0.95970000  1.0 0.0509156305
C  C327  1  0.62000000  0.98430000  0.96920000  1.0 0.0615061673
C  C328  1  0.67600000  0.96160000  0.93320000  1.0 -0.0677527515
C  C329  1  0.67370000  0.93900000  0.90500000  1.0 -0.1701250522
C  C330  1  0.61290000  0.95040000  0.92260000  1.0 0.0284904621
C  C331  1  0.59260000  0.94150000  0.89330000  1.0 -0.099576298
C  C332  1  0.63662000  0.90652000  0.85342000  1.0 -0.0032064144
C  C333  1  0.66010000  0.84630000  0.87300000  1.0 -0.0677527515
C  C334  1  0.70350000  0.81900000  0.83440000  1.0 -0.2123836217
C  C335  1  0.72300000  0.85240000  0.77670000  1.0 -0.153331852
C  C336  1  0.69910000  0.91190000  0.75850000  1.0 -0.0107327576
C  C337  1  0.65604000  0.93864000  0.79684000  1.0 -0.0677527515
C  C338  1  0.50940000  0.02510000  0.87910000  1.0 0.0509156305
C  C339  1  0.48060000  0.02950000  0.84800000  1.0 -0.1626201254
C  C340  1  0.43240000  0.01900000  0.88780000  1.0 -0.0677527515
C  C341  1  0.42730000  0.01180000  0.94330000  1.0 0.0509156305
C  C342  1  0.62280000  0.00260000  0.94900000  1.0 0.0694369095
C  C343  1  0.66690000  0.01450000  0.89510000  1.0 -0.0593522729
C  C344  1  0.64990000  0.02830000  0.85360000  1.0 -0.1626201254
C  C345  1  0.59260000  0.02530000  0.88270000  1.0 0.0410407987
C  C346  1  0.56420000  0.02990000  0.85280000  1.0 -0.0593522729
C  C347  1  0.58405000  0.05705000  0.78735000  1.0 -0.0107327576
C  C348  1  0.62235000  0.02215000  0.75455000  1.0 -0.1287453625
C  C349  1  0.64570000  0.04210000  0.69580000  1.0 -0.030114139
C  C350  1  0.63040000  0.09960000  0.66800000  1.0 -0.2415060897
C  C351  1  0.59320000  0.13750000  0.69610000  1.0 -0.1390251014
C  C352  1  0.57109000  0.11489000  0.75519000  1.0 -0.0905479344
C  C353  1  0.09029000  0.22189000  0.76569000  1.0 0.311050496
C  C354  1  0.90830000  0.23080000  0.77470000  1.0 0.3597358674
C  C355  1  0.99990000  0.22733000  0.76820000  1.0 -0.1287453625
C  C356  1  0.04295000  0.24946000  0.74289000  1.0 -0.0107327576
C  C357  1  0.04149000  0.29892000  0.69429000  1.0 -0.1626201254
C  C358  1  0.00093000  0.32334000  0.67062000  1.0 0.0615061673
C  C359  1  0.95940000  0.30005000  0.69554000  1.0 -0.153331852
C  C360  1  0.95816000  0.25151000  0.74505000  1.0 -0.0107327576
C  C361  1  0.06132000  0.39182000  0.47212000  1.0 0.1211580847
C  C362  1  0.07896000  0.32966000  0.49786000  1.0 -0.2185967474
C  C363  1  0.05669000  0.31799000  0.55439000  1.0 -0.1868294699
C  C364  1  0.02764000  0.37204000  0.56524000  1.0 0.2017596403
C  C365  1  0.00020000  0.37703000  0.61796000  1.0 -0.099576298
C  C366  1  0.97290000  0.42901000  0.62709000  1.0 0.2050447354
C  C367  1  0.94430000  0.43490000  0.68160000  1.0 -0.1868294699
C  C368  1  0.92255000  0.49085000  0.67425000  1.0 -0.2185967474
C  C369  1  0.93853000  0.52033000  0.61403000  1.0 0.0913658968
C  C370  1  0.92496000  0.57856000  0.58686000  1.0 -0.030114139
C  C371  1  0.88180000  0.61530000  0.62610000  1.0 0.0034305213
C  C372  1  0.90630000  0.62730000  0.64570000  1.0 0.0410407987
C  C373  1  0.87140000  0.65980000  0.68140000  1.0 -0.030114139
C  C374  1  0.81370000  0.67240000  0.70190000  1.0 -0.0780860069
C  C375  1  0.78770000  0.66180000  0.68120000  1.0 -0.1287453625
C  C376  1  0.82370000  0.63230000  0.64350000  1.0 0.0088172036
C  C377  1  0.07740000  0.23910000  0.90810000  1.0 0.3534510383
C  C378  1  0.90950000  0.23160000  0.08980000  1.0 0.2700750271
C  C379  1  0.99523000  0.23553000  0.00098000  1.0 -0.1287453625
C  C380  1  0.95363000  0.25813000  0.04371000  1.0 -0.0593522729
C  C381  1  0.95468000  0.30568000  0.04368000  1.0 -0.3163774928
C  C382  1  0.99438000  0.33160000  0.00002000  1.0 0.0509156305
C  C383  1  0.03411000  0.30922000  0.95657000  1.0 -0.3109648274
C  C384  1  0.03561000  0.26098000  0.95636000  1.0 -0.0593522729
C  C385  1  0.94970000  0.43110000  0.99350000  1.0 0.0694369095
C  C386  1  0.89950000  0.43920000  0.98820000  1.0 -0.0107327576
C  C387  1  0.86532000  0.49402000  0.98322000  1.0 -0.030114139
C  C388  1  0.89416000  0.51906000  0.98766000  1.0 0.0913658968
C  C389  1  0.99579000  0.38205000  0.00081000  1.0 -0.1082715895
C  C390  1  0.95500000  0.62720000  0.99430000  1.0 0.0509156305
C  C391  1  0.89884000  0.60404000  0.98614000  1.0 0.100907265
C  C392  1  0.87080000  0.66420000  0.98330000  1.0 -0.0500905431
C  C393  1  0.90650000  0.67720000  0.98560000  1.0 0.0088172036
C  C394  1  0.87171000  0.57411000  0.98881000  1.0 -0.0107327576
C  C395  1  0.81561000  0.60871000  0.98061000  1.0 -0.0107327576
C  C396  1  0.81193000  0.64123000  0.92723000  1.0 -0.030114139
C  C397  1  0.76050000  0.67840000  0.91770000  1.0 -0.030114139
C  C398  1  0.71340000  0.68150000  0.96380000  1.0 -0.1763072034
C  C399  1  0.71250000  0.65090000  0.01870000  1.0 -0.0780860069
C  C400  1  0.76455000  0.61465000  0.02585000  1.0 -0.1626201254
C  C401  1  0.07700000  0.23440000  0.77640000  1.0 0.311050496
C  C402  1  0.91997000  0.22027000  0.76417000  1.0 0.3534510383
C  C403  1  0.90420000  0.61310000  0.62660000  1.0 0.0088172036
C  C404  1  0.93550000  0.60990000  0.65190000  1.0 0.0215781774
C  C405  1  0.90870000  0.63330000  0.69520000  1.0 -0.1390251014
C  C406  1  0.85090000  0.64980000  0.72000000  1.0 -0.0905479344
C  C407  1  0.82030000  0.64590000  0.70080000  1.0 -0.030114139
C  C408  1  0.84580000  0.62920000  0.65480000  1.0 0.0509156305
C  C409  1  0.08490000  0.23160000  0.91530000  1.0 0.3325086076
C  C410  1  0.91130000  0.23000000  0.09170000  1.0 0.2881522963
C  C411  1  0.91390000  0.53320000  0.95120000  1.0 0.0410407987
C  C412  1  0.89010000  0.50940000  0.94000000  1.0 -0.1626201254
C  C413  1  0.91590000  0.45300000  0.95830000  1.0 -0.0677527515
C  C414  1  0.95970000  0.43810000  0.97800000  1.0 0.0509156305
C  C415  1  0.96920000  0.62000000  0.98430000  1.0 0.0615061673
C  C416  1  0.93320000  0.67600000  0.96160000  1.0 -0.0677527515
C  C417  1  0.90500000  0.67370000  0.93900000  1.0 -0.1701250522
C  C418  1  0.92260000  0.61290000  0.95040000  1.0 0.0284904621
C  C419  1  0.89330000  0.59260000  0.94150000  1.0 -0.099576298
C  C420  1  0.85342000  0.63662000  0.90652000  1.0 -0.0032064144
C  C421  1  0.87300000  0.66010000  0.84630000  1.0 -0.0677527515
C  C422  1  0.83440000  0.70350000  0.81900000  1.0 -0.2123836217
C  C423  1  0.77670000  0.72300000  0.85240000  1.0 -0.153331852
C  C424  1  0.75850000  0.69910000  0.91190000  1.0 -0.0107327576
C  C425  1  0.79684000  0.65604000  0.93864000  1.0 -0.0677527515
C  C426  1  0.87910000  0.50940000  0.02510000  1.0 0.0509156305
C  C427  1  0.84800000  0.48060000  0.02950000  1.0 -0.1626201254
C  C428  1  0.88780000  0.43240000  0.01900000  1.0 -0.0677527515
C  C429  1  0.94330000  0.42730000  0.01180000  1.0 0.0615061673
C  C430  1  0.94900000  0.62280000  0.00260000  1.0 0.0694369095
C  C431  1  0.89510000  0.66690000  0.01450000  1.0 -0.0593522729
C  C432  1  0.85360000  0.64990000  0.02830000  1.0 -0.1626201254
C  C433  1  0.88270000  0.59260000  0.02530000  1.0 0.0410407987
C  C434  1  0.85280000  0.56420000  0.02990000  1.0 -0.0677527515
C  C435  1  0.78735000  0.58405000  0.05705000  1.0 -0.0107327576
C  C436  1  0.75455000  0.62235000  0.02215000  1.0 -0.1287453625
C  C437  1  0.69580000  0.64570000  0.04210000  1.0 -0.030114139
C  C438  1  0.66800000  0.63040000  0.09960000  1.0 -0.2415060897
C  C439  1  0.69610000  0.59320000  0.13750000  1.0 -0.1390251014
C  C440  1  0.75519000  0.57109000  0.11489000  1.0 -0.0905479344
C  C441  1  0.76569000  0.09029000  0.22189000  1.0 0.311050496
C  C442  1  0.77470000  0.90830000  0.23080000  1.0 0.3597358674
C  C443  1  0.76820000  0.99990000  0.22733000  1.0 -0.1287453625
C  C444  1  0.74289000  0.04295000  0.24946000  1.0 -0.0107327576
C  C445  1  0.69429000  0.04149000  0.29892000  1.0 -0.1626201254
C  C446  1  0.67062000  0.00093000  0.32334000  1.0 0.0615061673
C  C447  1  0.69554000  0.95940000  0.30005000  1.0 -0.153331852
C  C448  1  0.74505000  0.95816000  0.25151000  1.0 -0.0211970645
C  C449  1  0.47212000  0.06132000  0.39182000  1.0 0.1211580847
C  C450  1  0.49786000  0.07896000  0.32966000  1.0 -0.2185967474
C  C451  1  0.55439000  0.05669000  0.31799000  1.0 -0.1868294699
C  C452  1  0.56524000  0.02764000  0.37204000  1.0 0.2017596403
C  C453  1  0.61796000  0.00020000  0.37703000  1.0 -0.1082715895
C  C454  1  0.62709000  0.97290000  0.42901000  1.0 0.2050447354
C  C455  1  0.68160000  0.94430000  0.43490000  1.0 -0.1868294699
C  C456  1  0.67425000  0.92255000  0.49085000  1.0 -0.2185967474
C  C457  1  0.61403000  0.93853000  0.52033000  1.0 0.0913658968
C  C458  1  0.58686000  0.92496000  0.57856000  1.0 -0.030114139
C  C459  1  0.62610000  0.88180000  0.61530000  1.0 0.0034305213
C  C460  1  0.64570000  0.90630000  0.62730000  1.0 0.0410407987
C  C461  1  0.68140000  0.87140000  0.65980000  1.0 -0.030114139
C  C462  1  0.70190000  0.81370000  0.67240000  1.0 -0.0780860069
C  C463  1  0.68120000  0.78770000  0.66180000  1.0 -0.1287453625
C  C464  1  0.64350000  0.82370000  0.63230000  1.0 0.0088172036
C  C465  1  0.90810000  0.07740000  0.23910000  1.0 0.3597358674
C  C466  1  0.08980000  0.90950000  0.23160000  1.0 0.2700750271
C  C467  1  0.00098000  0.99523000  0.23553000  1.0 -0.1287453625
C  C468  1  0.04371000  0.95363000  0.25813000  1.0 -0.0593522729
C  C469  1  0.04368000  0.95468000  0.30568000  1.0 -0.3163774928
C  C470  1  0.00002000  0.99438000  0.33160000  1.0 0.0509156305
C  C471  1  0.95657000  0.03411000  0.30922000  1.0 -0.3109648274
C  C472  1  0.95636000  0.03561000  0.26098000  1.0 -0.0593522729
C  C473  1  0.99350000  0.94970000  0.43110000  1.0 0.0694369095
C  C474  1  0.98820000  0.89950000  0.43920000  1.0 -0.0032064144
C  C475  1  0.98322000  0.86532000  0.49402000  1.0 -0.030114139
C  C476  1  0.98766000  0.89416000  0.51906000  1.0 0.0913658968
C  C477  1  0.00081000  0.99579000  0.38205000  1.0 -0.1082715895
C  C478  1  0.99430000  0.95500000  0.62720000  1.0 0.0509156305
C  C479  1  0.98614000  0.89884000  0.60404000  1.0 0.100907265
C  C480  1  0.98330000  0.87080000  0.66420000  1.0 -0.0500905431
C  C481  1  0.98560000  0.90650000  0.67720000  1.0 0.0088172036
C  C482  1  0.98881000  0.87171000  0.57411000  1.0 -0.0107327576
C  C483  1  0.98061000  0.81561000  0.60871000  1.0 -0.0107327576
C  C484  1  0.92723000  0.81193000  0.64123000  1.0 -0.030114139
C  C485  1  0.91770000  0.76050000  0.67840000  1.0 -0.030114139
C  C486  1  0.96380000  0.71340000  0.68150000  1.0 -0.1763072034
C  C487  1  0.01870000  0.71250000  0.65090000  1.0 -0.0780860069
C  C488  1  0.02585000  0.76455000  0.61465000  1.0 -0.1626201254
C  C489  1  0.77640000  0.07700000  0.23440000  1.0 0.311050496
C  C490  1  0.76417000  0.91997000  0.22027000  1.0 0.3534510383
C  C491  1  0.62660000  0.90420000  0.61310000  1.0 0.0088172036
C  C492  1  0.65190000  0.93550000  0.60990000  1.0 0.0215781774
C  C493  1  0.69520000  0.90870000  0.63330000  1.0 -0.1390251014
C  C494  1  0.72000000  0.85090000  0.64980000  1.0 -0.0905479344
C  C495  1  0.70080000  0.82030000  0.64590000  1.0 -0.030114139
C  C496  1  0.65480000  0.84580000  0.62920000  1.0 0.0509156305
C  C497  1  0.91530000  0.08490000  0.23160000  1.0 0.3393192852
C  C498  1  0.09170000  0.91130000  0.23000000  1.0 0.2795394281
C  C499  1  0.95120000  0.91390000  0.53320000  1.0 0.0410407987
C  C500  1  0.94000000  0.89010000  0.50940000  1.0 -0.1626201254
C  C501  1  0.95830000  0.91590000  0.45300000  1.0 -0.0677527515
C  C502  1  0.97800000  0.95970000  0.43810000  1.0 0.0509156305
C  C503  1  0.98430000  0.96920000  0.62000000  1.0 0.0615061673
C  C504  1  0.96160000  0.93320000  0.67600000  1.0 -0.0677527515
C  C505  1  0.93900000  0.90500000  0.67370000  1.0 -0.1701250522
C  C506  1  0.95040000  0.92260000  0.61290000  1.0 0.0284904621
C  C507  1  0.94150000  0.89330000  0.59260000  1.0 -0.099576298
C  C508  1  0.90652000  0.85342000  0.63662000  1.0 -0.0032064144
C  C509  1  0.84630000  0.87300000  0.66010000  1.0 -0.0677527515
C  C510  1  0.81900000  0.83440000  0.70350000  1.0 -0.2123836217
C  C511  1  0.85240000  0.77670000  0.72300000  1.0 -0.153331852
C  C512  1  0.91190000  0.75850000  0.69910000  1.0 -0.0107327576
C  C513  1  0.93864000  0.79684000  0.65604000  1.0 -0.0677527515
C  C514  1  0.02510000  0.87910000  0.50940000  1.0 0.0509156305
C  C515  1  0.02950000  0.84800000  0.48060000  1.0 -0.1626201254
C  C516  1  0.01900000  0.88780000  0.43240000  1.0 -0.0677527515
C  C517  1  0.01180000  0.94330000  0.42730000  1.0 0.0509156305
C  C518  1  0.00260000  0.94900000  0.62280000  1.0 0.0694369095
C  C519  1  0.01450000  0.89510000  0.66690000  1.0 -0.0593522729
C  C520  1  0.02830000  0.85360000  0.64990000  1.0 -0.1626201254
C  C521  1  0.02530000  0.88270000  0.59260000  1.0 0.0410407987
C  C522  1  0.02990000  0.85280000  0.56420000  1.0 -0.0677527515
C  C523  1  0.05705000  0.78735000  0.58405000  1.0 -0.0107327576
C  C524  1  0.02215000  0.75455000  0.62235000  1.0 -0.1287453625
C  C525  1  0.04210000  0.69580000  0.64570000  1.0 -0.0412372923
C  C526  1  0.09960000  0.66800000  0.63040000  1.0 -0.2415060897
C  C527  1  0.13750000  0.69610000  0.59320000  1.0 -0.1390251014
C  C528  1  0.11489000  0.75519000  0.57109000  1.0 -0.0905479344
Br  Br1  1  0.38450000  0.38180000  0.21340000  1.0 -0.030114139
Br  Br2  1  0.40027000  0.37387000  0.01347000  1.0 0.0410407987
Br  Br3  1  0.42880000  0.89980000  0.23320000  1.0 0.1818530375
Br  Br4  1  0.35937000  0.13943000  0.12609000  1.0 0.1405984026
Br  Br5  1  0.37436000  0.36786000  0.20136000  1.0 0.0793009087
Br  Br6  1  0.40595000  0.39135000  0.98485000  1.0 -0.0032064144
Br  Br7  1  0.37830000  0.98140000  0.22460000  1.0 0.0509156305
Br  Br8  1  0.36751000  0.19711000  0.04851000  1.0 -0.1082715895
Br  Br9  1  0.48070000  0.83340000  0.20480000  1.0 -0.0905479344
Br  Br10  1  0.35790000  0.05580000  0.20600000  1.0 0.0694369095
Br  Br11  1  0.21340000  0.38450000  0.38180000  1.0 -0.030114139
Br  Br12  1  0.01347000  0.40027000  0.37387000  1.0 0.0284904621
Br  Br13  1  0.23320000  0.42880000  0.89980000  1.0 0.1818530375
Br  Br14  1  0.12609000  0.35937000  0.13943000  1.0 0.1405984026
Br  Br15  1  0.20136000  0.37436000  0.36786000  1.0 0.0793009087
Br  Br16  1  0.98485000  0.40595000  0.39135000  1.0 -0.0032064144
Br  Br17  1  0.22460000  0.37830000  0.98140000  1.0 0.0509156305
Br  Br18  1  0.04851000  0.36751000  0.19711000  1.0 -0.1082715895
Br  Br19  1  0.20480000  0.48070000  0.83340000  1.0 -0.0905479344
Br  Br20  1  0.20600000  0.35790000  0.05580000  1.0 0.0694369095
Br  Br21  1  0.38180000  0.21340000  0.38450000  1.0 -0.030114139
Br  Br22  1  0.37387000  0.01347000  0.40027000  1.0 0.0410407987
Br  Br23  1  0.89980000  0.23320000  0.42880000  1.0 0.1818530375
Br  Br24  1  0.13943000  0.12609000  0.35937000  1.0 0.1405984026
Br  Br25  1  0.36786000  0.20136000  0.37436000  1.0 0.0793009087
Br  Br26  1  0.39135000  0.98485000  0.40595000  1.0 -0.0032064144
Br  Br27  1  0.98140000  0.22460000  0.37830000  1.0 0.0509156305
Br  Br28  1  0.19711000  0.04851000  0.36751000  1.0 -0.1082715895
Br  Br29  1  0.83340000  0.20480000  0.48070000  1.0 -0.0780860069
Br  Br30  1  0.05580000  0.20600000  0.35790000  1.0 0.0694369095
Br  Br31  1  0.61550000  0.61820000  0.78660000  1.0 -0.030114139
Br  Br32  1  0.59973000  0.62613000  0.98653000  1.0 0.0410407987
Br  Br33  1  0.57120000  0.10020000  0.76680000  1.0 0.1818530375
Br  Br34  1  0.64063000  0.86057000  0.87391000  1.0 0.1405984026
Br  Br35  1  0.62564000  0.63214000  0.79864000  1.0 0.0793009087
Br  Br36  1  0.59405000  0.60865000  0.01515000  1.0 -0.0032064144
Br  Br37  1  0.62170000  0.01860000  0.77540000  1.0 0.0410407987
Br  Br38  1  0.63249000  0.80289000  0.95149000  1.0 -0.1082715895
Br  Br39  1  0.51930000  0.16660000  0.79520000  1.0 -0.0905479344
Br  Br40  1  0.64210000  0.94420000  0.79400000  1.0 0.0793009087
Br  Br41  1  0.78660000  0.61550000  0.61820000  1.0 -0.030114139
Br  Br42  1  0.98653000  0.59973000  0.62613000  1.0 0.0410407987
Br  Br43  1  0.76680000  0.57120000  0.10020000  1.0 0.1818530375
Br  Br44  1  0.87391000  0.64063000  0.86057000  1.0 0.1405984026
Br  Br45  1  0.79864000  0.62564000  0.63214000  1.0 0.0793009087
Br  Br46  1  0.01515000  0.59405000  0.60865000  1.0 -0.0032064144
Br  Br47  1  0.77540000  0.62170000  0.01860000  1.0 0.0509156305
Br  Br48  1  0.95149000  0.63249000  0.80289000  1.0 -0.1082715895
Br  Br49  1  0.79520000  0.51930000  0.16660000  1.0 -0.0905479344
Br  Br50  1  0.79400000  0.64210000  0.94420000  1.0 0.0694369095
Br  Br51  1  0.61820000  0.78660000  0.61550000  1.0 -0.030114139
Br  Br52  1  0.62613000  0.98653000  0.59973000  1.0 0.0410407987
Br  Br53  1  0.10020000  0.76680000  0.57120000  1.0 0.1818530375
Br  Br54  1  0.86057000  0.87391000  0.64063000  1.0 0.1456923971
Br  Br55  1  0.63214000  0.79864000  0.62564000  1.0 0.0793009087
Br  Br56  1  0.60865000  0.01515000  0.59405000  1.0 -0.0032064144
Br  Br57  1  0.01860000  0.77540000  0.62170000  1.0 0.0509156305
Br  Br58  1  0.80289000  0.95149000  0.63249000  1.0 -0.1082715895
Br  Br59  1  0.16660000  0.79520000  0.51930000  1.0 -0.0905479344
Br  Br60  1  0.94420000  0.79400000  0.64210000  1.0 0.0793009087
N  N1  1  0.58600000  0.48588000  0.96698000  1.0 -0.2541501185
N  N2  1  0.51899000  0.41379000  0.03207000  1.0 -0.2975218555
N  N3  1  0.52000000  0.00480000  0.05620000  1.0 -0.0593522729
N  N4  1  0.41680000  0.00410000  0.05210000  1.0 -0.1287453625
N  N5  1  0.50980000  0.02550000  0.04600000  1.0 -0.0412372923
N  N6  1  0.41850000  0.02280000  0.03830000  1.0 -0.0211970645
N  N7  1  0.52200000  0.98660000  0.06490000  1.0 -0.0780860069
N  N8  1  0.42250000  0.98990000  0.06030000  1.0 -0.1390251014
N  N9  1  0.96698000  0.58600000  0.48588000  1.0 -0.2541501185
N  N10  1  0.03207000  0.51899000  0.41379000  1.0 -0.2975218555
N  N11  1  0.05620000  0.52000000  0.00480000  1.0 -0.0593522729
N  N12  1  0.05210000  0.41680000  0.00410000  1.0 -0.1287453625
N  N13  1  0.04600000  0.50980000  0.02550000  1.0 -0.0412372923
N  N14  1  0.03830000  0.41850000  0.02280000  1.0 -0.0211970645
N  N15  1  0.06490000  0.52200000  0.98660000  1.0 -0.0780860069
N  N16  1  0.06030000  0.42250000  0.98990000  1.0 -0.1390251014
N  N17  1  0.48588000  0.96698000  0.58600000  1.0 -0.2556636816
N  N18  1  0.41379000  0.03207000  0.51899000  1.0 -0.2975218555
N  N19  1  0.00480000  0.05620000  0.52000000  1.0 -0.0593522729
N  N20  1  0.00410000  0.05210000  0.41680000  1.0 -0.1287453625
N  N21  1  0.02550000  0.04600000  0.50980000  1.0 -0.0412372923
N  N22  1  0.02280000  0.03830000  0.41850000  1.0 -0.0211970645
N  N23  1  0.98660000  0.06490000  0.52200000  1.0 -0.0780860069
N  N24  1  0.98990000  0.06030000  0.42250000  1.0 -0.1390251014
N  N25  1  0.41400000  0.51412000  0.03302000  1.0 -0.2556636816
N  N26  1  0.48101000  0.58621000  0.96793000  1.0 -0.2975218555
N  N27  1  0.48000000  0.99520000  0.94380000  1.0 -0.0500905431
N  N28  1  0.58320000  0.99590000  0.94790000  1.0 -0.1287453625
N  N29  1  0.49020000  0.97450000  0.95400000  1.0 -0.0412372923
N  N30  1  0.58150000  0.97720000  0.96170000  1.0 -0.0211970645
N  N31  1  0.47800000  0.01340000  0.93510000  1.0 -0.0780860069
N  N32  1  0.57750000  0.01010000  0.93970000  1.0 -0.1390251014
N  N33  1  0.03302000  0.41400000  0.51412000  1.0 -0.2541501185
N  N34  1  0.96793000  0.48101000  0.58621000  1.0 -0.2975218555
N  N35  1  0.94380000  0.48000000  0.99520000  1.0 -0.0500905431
N  N36  1  0.94790000  0.58320000  0.99590000  1.0 -0.1287453625
N  N37  1  0.95400000  0.49020000  0.97450000  1.0 -0.0412372923
N  N38  1  0.96170000  0.58150000  0.97720000  1.0 -0.0211970645
N  N39  1  0.93510000  0.47800000  0.01340000  1.0 -0.0780860069
N  N40  1  0.93970000  0.57750000  0.01010000  1.0 -0.1390251014
N  N41  1  0.51412000  0.03302000  0.41400000  1.0 -0.2541501185
N  N42  1  0.58621000  0.96793000  0.48101000  1.0 -0.2975218555
N  N43  1  0.99520000  0.94380000  0.48000000  1.0 -0.0500905431
N  N44  1  0.99590000  0.94790000  0.58320000  1.0 -0.1287453625
N  N45  1  0.97450000  0.95400000  0.49020000  1.0 -0.0412372923
N  N46  1  0.97720000  0.96170000  0.58150000  1.0 -0.0211970645
N  N47  1  0.01340000  0.93510000  0.47800000  1.0 -0.0780860069
N  N48  1  0.01010000  0.93970000  0.57750000  1.0 -0.1390251014
O  O1  1  0.80509000  0.18932000  0.81438000  1.0 -1.0359961947
O  O2  1  0.69870000  0.28730000  0.80860000  1.0 -0.0780860069
O  O3  1  0.79440000  0.27960000  0.70470000  1.0 -0.0677527515
O  O4  1  0.81358000  0.18465000  0.91625000  1.0 -0.3912391165
O  O5  1  0.76184000  0.26594000  0.86714000  1.0 -0.2185967474
O  O6  1  0.81600000  0.18580000  0.08719000  1.0 -0.3999637565
O  O7  1  0.73930000  0.24350000  0.13220000  1.0 -0.2415060897
O  O8  1  0.80846000  0.08679000  0.91810000  1.0 -0.3912391165
O  O9  1  0.72940000  0.13440000  0.89390000  1.0 -0.2185967474
O  O10  1  0.81354000  0.90948000  0.08637000  1.0 -0.3912391165
O  O11  1  0.73580000  0.88480000  0.13410000  1.0 -0.1971891086
O  O12  1  0.73500000  0.24030000  0.89520000  1.0 -0.2185967474
O  O13  1  0.76170000  0.26560000  0.10900000  1.0 -0.2415060897
O  O14  1  0.75090000  0.11840000  0.87340000  1.0 -0.2185967474
O  O15  1  0.75510000  0.86500000  0.11750000  1.0 -0.2185967474
O  O16  1  0.79430000  0.22860000  0.70360000  1.0 -0.0500905431
O  O17  1  0.76977000  0.20807000  0.72967000  1.0 -0.0905479344
O  O18  1  0.70670000  0.20080000  0.79530000  1.0 -0.1204409158
O  O19  1  0.69860000  0.22550000  0.80630000  1.0 -0.030114139
O  O20  1  0.78060000  0.30430000  0.72290000  1.0 -0.0593522729
O  O21  1  0.72070000  0.29850000  0.77660000  1.0 -0.0500905431
O  O22  1  0.81438000  0.80509000  0.18932000  1.0 -1.0334754547
O  O23  1  0.80860000  0.69870000  0.28730000  1.0 -0.0905479344
O  O24  1  0.70470000  0.79440000  0.27960000  1.0 -0.0593522729
O  O25  1  0.91625000  0.81358000  0.18465000  1.0 -0.3999637565
O  O26  1  0.86714000  0.76184000  0.26594000  1.0 -0.2185967474
O  O27  1  0.08719000  0.81600000  0.18580000  1.0 -0.3999637565
O  O28  1  0.13220000  0.73930000  0.24350000  1.0 -0.2415060897
O  O29  1  0.91810000  0.80846000  0.08679000  1.0 -0.3912391165
O  O30  1  0.89390000  0.72940000  0.13440000  1.0 -0.2123836217
O  O31  1  0.08637000  0.81354000  0.90948000  1.0 -0.3912391165
O  O32  1  0.13410000  0.73580000  0.88480000  1.0 -0.1971891086
O  O33  1  0.89520000  0.73500000  0.24030000  1.0 -0.2123836217
O  O34  1  0.10900000  0.76170000  0.26560000  1.0 -0.2415060897
O  O35  1  0.87340000  0.75090000  0.11840000  1.0 -0.2185967474
O  O36  1  0.11750000  0.75510000  0.86500000  1.0 -0.2185967474
O  O37  1  0.70360000  0.79430000  0.22860000  1.0 -0.0500905431
O  O38  1  0.72967000  0.76977000  0.20807000  1.0 -0.099576298
O  O39  1  0.79530000  0.70670000  0.20080000  1.0 -0.1082715895
O  O40  1  0.80630000  0.69860000  0.22550000  1.0 -0.030114139
O  O41  1  0.72290000  0.78060000  0.30430000  1.0 -0.0677527515
O  O42  1  0.77660000  0.72070000  0.29850000  1.0 -0.0500905431
O  O43  1  0.18932000  0.81438000  0.80509000  1.0 -1.0334754547
O  O44  1  0.28730000  0.80860000  0.69870000  1.0 -0.0905479344
O  O45  1  0.27960000  0.70470000  0.79440000  1.0 -0.0593522729
O  O46  1  0.18465000  0.91625000  0.81358000  1.0 -0.3999637565
O  O47  1  0.26594000  0.86714000  0.76184000  1.0 -0.2123836217
O  O48  1  0.18580000  0.08719000  0.81600000  1.0 -0.3999637565
O  O49  1  0.24350000  0.13220000  0.73930000  1.0 -0.2415060897
O  O50  1  0.08679000  0.91810000  0.80846000  1.0 -0.3912391165
O  O51  1  0.13440000  0.89390000  0.72940000  1.0 -0.2123836217
O  O52  1  0.90948000  0.08637000  0.81354000  1.0 -0.3912391165
O  O53  1  0.88480000  0.13410000  0.73580000  1.0 -0.1971891086
O  O54  1  0.24030000  0.89520000  0.73500000  1.0 -0.2185967474
O  O55  1  0.26560000  0.10900000  0.76170000  1.0 -0.2415060897
O  O56  1  0.11840000  0.87340000  0.75090000  1.0 -0.2185967474
O  O57  1  0.86500000  0.11750000  0.75510000  1.0 -0.2185967474
O  O58  1  0.22860000  0.70360000  0.79430000  1.0 -0.0500905431
O  O59  1  0.20807000  0.72967000  0.76977000  1.0 -0.099576298
O  O60  1  0.20080000  0.79530000  0.70670000  1.0 -0.1204409158
O  O61  1  0.22550000  0.80630000  0.69860000  1.0 -0.0211970645
O  O62  1  0.30430000  0.72290000  0.78060000  1.0 -0.0677527515
O  O63  1  0.29850000  0.77660000  0.72070000  1.0 -0.0500905431
O  O64  1  0.19491000  0.81068000  0.18562000  1.0 -1.0596572121
O  O65  1  0.30130000  0.71270000  0.19140000  1.0 -0.0905479344
O  O66  1  0.20560000  0.72040000  0.29530000  1.0 -0.0677527515
O  O67  1  0.18642000  0.81535000  0.08375000  1.0 -0.3912391165
O  O68  1  0.23816000  0.73406000  0.13286000  1.0 -0.2185967474
O  O69  1  0.18400000  0.81420000  0.91281000  1.0 -0.3999637565
O  O70  1  0.26070000  0.75650000  0.86780000  1.0 -0.2415060897
O  O71  1  0.19154000  0.91321000  0.08190000  1.0 -0.3912391165
O  O72  1  0.27060000  0.86560000  0.10610000  1.0 -0.2123836217
O  O73  1  0.18646000  0.09052000  0.91363000  1.0 -0.3912391165
O  O74  1  0.26420000  0.11520000  0.86590000  1.0 -0.1971891086
O  O75  1  0.26500000  0.75970000  0.10480000  1.0 -0.2185967474
O  O76  1  0.23830000  0.73440000  0.89100000  1.0 -0.2415060897
O  O77  1  0.24910000  0.88160000  0.12660000  1.0 -0.2185967474
O  O78  1  0.24490000  0.13500000  0.88250000  1.0 -0.2185967474
O  O79  1  0.20570000  0.77140000  0.29640000  1.0 -0.0500905431
O  O80  1  0.23023000  0.79193000  0.27033000  1.0 -0.099576298
O  O81  1  0.29330000  0.79920000  0.20470000  1.0 -0.1204409158
O  O82  1  0.30140000  0.77450000  0.19370000  1.0 -0.030114139
O  O83  1  0.21940000  0.69570000  0.27710000  1.0 -0.0677527515
O  O84  1  0.27930000  0.70150000  0.22340000  1.0 -0.0412372923
O  O85  1  0.18562000  0.19491000  0.81068000  1.0 -1.0596572121
O  O86  1  0.19140000  0.30130000  0.71270000  1.0 -0.0905479344
O  O87  1  0.29530000  0.20560000  0.72040000  1.0 -0.0677527515
O  O88  1  0.08375000  0.18642000  0.81535000  1.0 -0.3999637565
O  O89  1  0.13286000  0.23816000  0.73406000  1.0 -0.2185967474
O  O90  1  0.91281000  0.18400000  0.81420000  1.0 -0.3999637565
O  O91  1  0.86780000  0.26070000  0.75650000  1.0 -0.2317966035
O  O92  1  0.08190000  0.19154000  0.91321000  1.0 -0.3912391165
O  O93  1  0.10610000  0.27060000  0.86560000  1.0 -0.2123836217
O  O94  1  0.91363000  0.18646000  0.09052000  1.0 -0.3912391165
O  O95  1  0.86590000  0.26420000  0.11520000  1.0 -0.1971891086
O  O96  1  0.10480000  0.26500000  0.75970000  1.0 -0.2185967474
O  O97  1  0.89100000  0.23830000  0.73440000  1.0 -0.2415060897
O  O98  1  0.12660000  0.24910000  0.88160000  1.0 -0.2185967474
O  O99  1  0.88250000  0.24490000  0.13500000  1.0 -0.2185967474
O  O100  1  0.29640000  0.20570000  0.77140000  1.0 -0.0500905431
O  O101  1  0.27033000  0.23023000  0.79193000  1.0 -0.0905479344
O  O102  1  0.20470000  0.29330000  0.79920000  1.0 -0.1204409158
O  O103  1  0.19370000  0.30140000  0.77450000  1.0 -0.0211970645
O  O104  1  0.27710000  0.21940000  0.69570000  1.0 -0.0677527515
O  O105  1  0.22340000  0.27930000  0.70150000  1.0 -0.0412372923
O  O106  1  0.81068000  0.18562000  0.19491000  1.0 -1.0359961947
O  O107  1  0.71270000  0.19140000  0.30130000  1.0 -0.0905479344
O  O108  1  0.72040000  0.29530000  0.20560000  1.0 -0.0593522729
O  O109  1  0.81535000  0.08375000  0.18642000  1.0 -0.3999637565
O  O110  1  0.73406000  0.13286000  0.23816000  1.0 -0.2185967474
O  O111  1  0.81420000  0.91281000  0.18400000  1.0 -0.3999637565
O  O112  1  0.75650000  0.86780000  0.26070000  1.0 -0.2415060897
O  O113  1  0.91321000  0.08190000  0.19154000  1.0 -0.3831290564
O  O114  1  0.86560000  0.10610000  0.27060000  1.0 -0.2123836217
O  O115  1  0.09052000  0.91363000  0.18646000  1.0 -0.3912391165
O  O116  1  0.11520000  0.86590000  0.26420000  1.0 -0.1971891086
O  O117  1  0.75970000  0.10480000  0.26500000  1.0 -0.2185967474
O  O118  1  0.73440000  0.89100000  0.23830000  1.0 -0.2415060897
O  O119  1  0.88160000  0.12660000  0.24910000  1.0 -0.2185967474
O  O120  1  0.13500000  0.88250000  0.24490000  1.0 -0.2185967474
O  O121  1  0.77140000  0.29640000  0.20570000  1.0 -0.0412372923
O  O122  1  0.79193000  0.27033000  0.23023000  1.0 -0.0905479344
O  O123  1  0.79920000  0.20470000  0.29330000  1.0 -0.1204409158
O  O124  1  0.77450000  0.19370000  0.30140000  1.0 -0.030114139
O  O125  1  0.69570000  0.27710000  0.21940000  1.0 -0.0677527515
O  O126  1  0.70150000  0.22340000  0.27930000  1.0 -0.0500905431
