# DDEC6 charges by PACMAN v1.1 (https://github.com/mtap-research/PACMAN-charge/)
data_TASJUT_ASR_pacman
_symmetry_space_group_name_H-M   'P 1'
_cell_length_a   20.78390000
_cell_length_b   20.78390000
_cell_length_c   20.78390000
_cell_angle_alpha   109.04500000
_cell_angle_beta   109.04500000
_cell_angle_gamma   110.32700000
_symmetry_Int_Tables_number   1
_chemical_formula_structural   AgH11C13N4
_chemical_formula_sum   'Ag16 H176 C208 N64'
_cell_volume   6910.13922922
_cell_formula_units_Z   16
loop_
 _symmetry_equiv_pos_site_id
 _symmetry_equiv_pos_as_xyz
  1  'x, y, z'
loop_
 _atom_site_type_symbol
 _atom_site_label
 _atom_site_symmetry_multiplicity
 _atom_site_fract_x
 _atom_site_fract_y
 _atom_site_fract_z
 _atom_site_occupancy
 _atom_site_charge
Ag  Ag1  1  0.04649000  0.12500000  0.42149000  1.0 0.2866734913
Ag  Ag2  1  0.87500000  0.79649000  0.42149000  1.0 0.2866734913
Ag  Ag3  1  0.37500000  0.45351000  0.57851000  1.0 0.2866734913
Ag  Ag4  1  0.70351000  0.62500000  0.57851000  1.0 0.2866734913
Ag  Ag5  1  0.88019000  0.88019000  0.00000000  1.0 0.1490814431
Ag  Ag6  1  0.13019000  0.63019000  0.50000000  1.0 0.1490814431
Ag  Ag7  1  0.61981000  0.61981000  0.00000000  1.0 0.1490814431
Ag  Ag8  1  0.86981000  0.36981000  0.50000000  1.0 0.1490814431
Ag  Ag9  1  0.20351000  0.62500000  0.07851000  1.0 0.2866734913
Ag  Ag10  1  0.37500000  0.95351000  0.07851000  1.0 0.2866734913
Ag  Ag11  1  0.87500000  0.29649000  0.92149000  1.0 0.2866734913
Ag  Ag12  1  0.54649000  0.12500000  0.92149000  1.0 0.2866734913
Ag  Ag13  1  0.36981000  0.86981000  0.50000000  1.0 0.1490814431
Ag  Ag14  1  0.11981000  0.11981000  0.00000000  1.0 0.1490814431
Ag  Ag15  1  0.63019000  0.13019000  0.50000000  1.0 0.1490814431
Ag  Ag16  1  0.38019000  0.38019000  0.00000000  1.0 0.1490814431
H  H1  1  0.98420000  0.12930000  0.25230000  1.0 0.1187237
H  H2  1  0.98190000  0.73420000  0.35490000  1.0 0.1187237
H  H3  1  0.37930000  0.62700000  0.64510000  1.0 0.1187237
H  H4  1  0.76810000  0.62300000  0.25230000  1.0 0.1187237
H  H5  1  0.37070000  0.51580000  0.74770000  1.0 0.1187237
H  H6  1  0.87700000  0.73190000  0.74770000  1.0 0.1187237
H  H7  1  0.76580000  0.51810000  0.64510000  1.0 0.1187237
H  H8  1  0.87300000  0.12070000  0.35490000  1.0 0.1187237
H  H9  1  0.93180000  0.05140000  0.12140000  1.0 0.1110104987
H  H10  1  0.06040000  0.68180000  0.38040000  1.0 0.1110104987
H  H11  1  0.30140000  0.68000000  0.61960000  1.0 0.1110104987
H  H12  1  0.68960000  0.57000000  0.12140000  1.0 0.1110104987
H  H13  1  0.44860000  0.56820000  0.87860000  1.0 0.1110104987
H  H14  1  0.93000000  0.81040000  0.87860000  1.0 0.1110104987
H  H15  1  0.81820000  0.43960000  0.61960000  1.0 0.1110104987
H  H16  1  0.82000000  0.19860000  0.38040000  1.0 0.1110104987
H  H17  1  0.92670000  0.87850000  0.15800000  1.0 0.1187237
H  H18  1  0.01870000  0.67670000  0.54820000  1.0 0.1187237
H  H19  1  0.12850000  0.47050000  0.45180000  1.0 0.1187237
H  H20  1  0.73130000  0.77950000  0.15800000  1.0 0.1187237
H  H21  1  0.62150000  0.57330000  0.84200000  1.0 0.1187237
H  H22  1  0.72050000  0.76870000  0.84200000  1.0 0.1187237
H  H23  1  0.82330000  0.48130000  0.45180000  1.0 0.1187237
H  H24  1  0.02950000  0.37150000  0.54820000  1.0 0.1187237
H  H25  1  0.00280000  0.85880000  0.32700000  1.0 0.1490814431
H  H26  1  0.92580000  0.75280000  0.64400000  1.0 0.1490814431
H  H27  1  0.10880000  0.28180000  0.35600000  1.0 0.1490814431
H  H28  1  0.82420000  0.96820000  0.32700000  1.0 0.1490814431
H  H29  1  0.64120000  0.49720000  0.67300000  1.0 0.1490814431
H  H30  1  0.53180000  0.67580000  0.67300000  1.0 0.1490814431
H  H31  1  0.74720000  0.57420000  0.35600000  1.0 0.1490814431
H  H32  1  0.21820000  0.39120000  0.64400000  1.0 0.1490814431
H  H33  1  0.01790000  0.86360000  0.25910000  1.0 0.143039225
H  H34  1  0.00880000  0.76790000  0.65430000  1.0 0.143039225
H  H35  1  0.11360000  0.35450000  0.34570000  1.0 0.143039225
H  H36  1  0.74120000  0.89550000  0.25910000  1.0 0.143039225
H  H37  1  0.63640000  0.48210000  0.74090000  1.0 0.1490814431
H  H38  1  0.60450000  0.75880000  0.74090000  1.0 0.1490814431
H  H39  1  0.73210000  0.49120000  0.34570000  1.0 0.143039225
H  H40  1  0.14550000  0.38640000  0.65430000  1.0 0.1490814431
H  H41  1  0.93180000  0.82910000  0.24610000  1.0 0.143039225
H  H42  1  0.93570000  0.68180000  0.60270000  1.0 0.143039225
H  H43  1  0.07910000  0.33300000  0.39730000  1.0 0.143039225
H  H44  1  0.81430000  0.91700000  0.24610000  1.0 0.143039225
H  H45  1  0.67090000  0.56820000  0.75390000  1.0 0.143039225
H  H46  1  0.58300000  0.68570000  0.75390000  1.0 0.143039225
H  H47  1  0.81820000  0.56430000  0.39730000  1.0 0.143039225
H  H48  1  0.16700000  0.42090000  0.60270000  1.0 0.143039225
H  H49  1  0.12360000  0.92980000  0.50980000  1.0 0.1110104987
H  H50  1  0.86380000  0.87360000  0.69380000  1.0 0.1110104987
H  H51  1  0.17980000  0.17000000  0.30620000  1.0 0.1110104987
H  H52  1  0.88620000  0.08000000  0.50980000  1.0 0.1110104987
H  H53  1  0.57020000  0.37640000  0.49020000  1.0 0.1110104987
H  H54  1  0.42000000  0.61380000  0.49020000  1.0 0.1110104987
H  H55  1  0.62640000  0.63620000  0.30620000  1.0 0.1110104987
H  H56  1  0.33000000  0.32020000  0.69380000  1.0 0.1110104987
H  H57  1  0.17370000  0.89910000  0.60400000  1.0 0.1005143882
H  H58  1  0.81970000  0.92370000  0.77460000  1.0 0.0949574946
H  H59  1  0.14910000  0.04510000  0.22540000  1.0 0.1005143882
H  H60  1  0.93030000  0.20490000  0.60400000  1.0 0.0949574946
H  H61  1  0.60090000  0.32630000  0.39600000  1.0 0.0949574946
H  H62  1  0.29510000  0.56970000  0.39600000  1.0 0.0949574946
H  H63  1  0.57630000  0.68030000  0.22540000  1.0 0.1005143882
H  H64  1  0.45490000  0.35090000  0.77460000  1.0 0.0949574946
H  H65  1  0.13810000  0.91390000  0.70040000  1.0 0.1005143882
H  H66  1  0.68770000  0.88810000  0.72420000  1.0 0.1005143882
H  H67  1  0.16390000  0.96350000  0.27580000  1.0 0.1005143882
H  H68  1  0.06230000  0.28650000  0.70040000  1.0 0.1005143882
H  H69  1  0.58610000  0.36190000  0.29960000  1.0 0.1005143882
H  H70  1  0.21350000  0.43770000  0.29960000  1.0 0.1005143882
H  H71  1  0.61190000  0.81230000  0.27580000  1.0 0.1005143882
H  H72  1  0.53650000  0.33610000  0.72420000  1.0 0.1005143882
H  H73  1  0.04000000  0.94400000  0.69360000  1.0 0.1110104987
H  H74  1  0.59640000  0.79000000  0.59600000  1.0 0.1110104987
H  H75  1  0.19400000  0.00040000  0.40400000  1.0 0.1110104987
H  H76  1  0.15360000  0.24960000  0.69360000  1.0 0.1110104987
H  H77  1  0.55600000  0.46000000  0.30640000  1.0 0.1110104987
H  H78  1  0.25040000  0.34640000  0.30640000  1.0 0.1110104987
H  H79  1  0.71000000  0.90360000  0.40400000  1.0 0.1110104987
H  H80  1  0.49960000  0.30600000  0.59600000  1.0 0.1110104987
H  H81  1  0.98790000  0.97610000  0.59920000  1.0 0.1110104987
H  H82  1  0.63870000  0.73790000  0.51180000  1.0 0.1110104987
H  H83  1  0.22610000  0.12690000  0.48820000  1.0 0.1110104987
H  H84  1  0.11130000  0.12310000  0.59920000  1.0 0.1110104987
H  H85  1  0.52390000  0.51210000  0.40080000  1.0 0.1110104987
H  H86  1  0.37690000  0.38870000  0.40080000  1.0 0.1110104987
H  H87  1  0.76210000  0.86130000  0.48820000  1.0 0.1110104987
H  H88  1  0.37310000  0.27390000  0.51180000  1.0 0.1110104987
H  H89  1  0.26580000  0.62070000  0.24770000  1.0 0.1187237
H  H90  1  0.26810000  0.01580000  0.14510000  1.0 0.1187237
H  H91  1  0.87070000  0.12300000  0.85490000  1.0 0.1187237
H  H92  1  0.48190000  0.12700000  0.24770000  1.0 0.1187237
H  H93  1  0.87930000  0.23420000  0.75230000  1.0 0.1187237
H  H94  1  0.37300000  0.01810000  0.75230000  1.0 0.1187237
H  H95  1  0.48420000  0.23190000  0.85490000  1.0 0.1187237
H  H96  1  0.37700000  0.62930000  0.14510000  1.0 0.1187237
H  H97  1  0.31820000  0.69860000  0.37860000  1.0 0.1110104987
H  H98  1  0.18960000  0.06820000  0.11960000  1.0 0.1110104987
H  H99  1  0.94860000  0.07000000  0.88040000  1.0 0.1110104987
H  H100  1  0.56040000  0.18000000  0.37860000  1.0 0.1110104987
H  H101  1  0.80140000  0.18180000  0.62140000  1.0 0.1110104987
H  H102  1  0.32000000  0.93960000  0.62140000  1.0 0.1110104987
H  H103  1  0.43180000  0.31040000  0.88040000  1.0 0.1110104987
H  H104  1  0.43000000  0.55140000  0.11960000  1.0 0.1110104987
H  H105  1  0.32330000  0.87150000  0.34200000  1.0 0.1187237
H  H106  1  0.23130000  0.07330000  0.95180000  1.0 0.1187237
H  H107  1  0.12150000  0.27950000  0.04820000  1.0 0.1187237
H  H108  1  0.51870000  0.97050000  0.34200000  1.0 0.1187237
H  H109  1  0.62850000  0.17670000  0.65800000  1.0 0.1187237
H  H110  1  0.52950000  0.98130000  0.65800000  1.0 0.1187237
H  H111  1  0.42670000  0.26870000  0.04820000  1.0 0.1187237
H  H112  1  0.22050000  0.37850000  0.95180000  1.0 0.1187237
H  H113  1  0.24720000  0.89120000  0.17300000  1.0 0.1490814431
H  H114  1  0.32420000  0.99720000  0.85600000  1.0 0.1490814431
H  H115  1  0.14120000  0.46820000  0.14400000  1.0 0.1490814431
H  H116  1  0.42580000  0.78180000  0.17300000  1.0 0.1490814431
H  H117  1  0.60880000  0.25280000  0.82700000  1.0 0.1490814431
H  H118  1  0.71820000  0.07420000  0.82700000  1.0 0.1490814431
H  H119  1  0.50280000  0.17580000  0.14400000  1.0 0.1490814431
H  H120  1  0.03180000  0.35880000  0.85600000  1.0 0.1490814431
H  H121  1  0.23210000  0.88640000  0.24090000  1.0 0.143039225
H  H122  1  0.24120000  0.98210000  0.84570000  1.0 0.1490814431
H  H123  1  0.13640000  0.39550000  0.15430000  1.0 0.143039225
H  H124  1  0.50880000  0.85450000  0.24090000  1.0 0.143039225
H  H125  1  0.61360000  0.26790000  0.75910000  1.0 0.1490814431
H  H126  1  0.64550000  0.99120000  0.75910000  1.0 0.1490814431
H  H127  1  0.51790000  0.25880000  0.15430000  1.0 0.143039225
H  H128  1  0.10450000  0.36360000  0.84570000  1.0 0.1490814431
H  H129  1  0.31820000  0.92090000  0.25390000  1.0 0.143039225
H  H130  1  0.31430000  0.06820000  0.89730000  1.0 0.143039225
H  H131  1  0.17090000  0.41700000  0.10270000  1.0 0.143039225
H  H132  1  0.43570000  0.83300000  0.25390000  1.0 0.143039225
H  H133  1  0.57910000  0.18180000  0.74610000  1.0 0.143039225
H  H134  1  0.66700000  0.06430000  0.74610000  1.0 0.143039225
H  H135  1  0.43180000  0.18570000  0.10270000  1.0 0.143039225
H  H136  1  0.08300000  0.32910000  0.89730000  1.0 0.143039225
H  H137  1  0.12640000  0.82020000  0.99020000  1.0 0.1110104987
H  H138  1  0.38620000  0.87640000  0.80620000  1.0 0.1110104987
H  H139  1  0.07020000  0.58000000  0.19380000  1.0 0.1110104987
H  H140  1  0.36380000  0.67000000  0.99020000  1.0 0.1110104987
H  H141  1  0.67980000  0.37360000  0.00980000  1.0 0.1110104987
H  H142  1  0.83000000  0.13620000  0.00980000  1.0 0.1110104987
H  H143  1  0.62360000  0.11380000  0.19380000  1.0 0.1110104987
H  H144  1  0.92000000  0.42980000  0.80620000  1.0 0.1110104987
H  H145  1  0.07630000  0.85090000  0.89600000  1.0 0.0949574946
H  H146  1  0.43030000  0.82630000  0.72540000  1.0 0.0949574946
H  H147  1  0.10090000  0.70490000  0.27460000  1.0 0.0949574946
H  H148  1  0.31970000  0.54510000  0.89600000  1.0 0.0949574946
H  H149  1  0.64910000  0.42370000  0.10400000  1.0 0.0949574946
H  H150  1  0.95490000  0.18030000  0.10400000  1.0 0.0949574946
H  H151  1  0.67370000  0.06970000  0.27460000  1.0 0.0949574946
H  H152  1  0.79510000  0.39910000  0.72540000  1.0 0.0949574946
H  H153  1  0.11190000  0.83610000  0.79960000  1.0 0.1005143882
H  H154  1  0.56230000  0.86190000  0.77580000  1.0 0.1005143882
H  H155  1  0.08610000  0.78650000  0.22420000  1.0 0.1005143882
H  H156  1  0.18770000  0.46350000  0.79960000  1.0 0.1005143882
H  H157  1  0.66390000  0.38810000  0.20040000  1.0 0.1005143882
H  H158  1  0.03650000  0.31230000  0.20040000  1.0 0.1005143882
H  H159  1  0.63810000  0.93770000  0.22420000  1.0 0.1005143882
H  H160  1  0.71350000  0.41390000  0.77580000  1.0 0.1005143882
H  H161  1  0.21000000  0.80600000  0.80640000  1.0 0.1110104987
H  H162  1  0.65360000  0.96000000  0.90400000  1.0 0.1110104987
H  H163  1  0.05600000  0.74960000  0.09600000  1.0 0.1110104987
H  H164  1  0.09640000  0.50040000  0.80640000  1.0 0.1110104987
H  H165  1  0.69400000  0.29000000  0.19360000  1.0 0.1110104987
H  H166  1  0.99960000  0.40360000  0.19360000  1.0 0.1110104987
H  H167  1  0.54000000  0.84640000  0.09600000  1.0 0.1110104987
H  H168  1  0.75040000  0.44400000  0.90400000  1.0 0.1110104987
H  H169  1  0.26210000  0.77390000  0.90080000  1.0 0.1110104987
H  H170  1  0.61130000  0.01210000  0.98820000  1.0 0.1110104987
H  H171  1  0.02390000  0.62310000  0.01180000  1.0 0.1110104987
H  H172  1  0.13870000  0.62690000  0.90080000  1.0 0.1110104987
H  H173  1  0.72610000  0.23790000  0.09920000  1.0 0.1110104987
H  H174  1  0.87310000  0.36130000  0.09920000  1.0 0.1110104987
H  H175  1  0.48790000  0.88870000  0.01180000  1.0 0.1110104987
H  H176  1  0.87690000  0.47610000  0.98820000  1.0 0.1110104987
C  C1  1  0.97370000  0.07750000  0.23340000  1.0 -0.0417600116
C  C2  1  0.99030000  0.72370000  0.39620000  1.0 -0.0417600116
C  C3  1  0.32750000  0.59410000  0.60380000  1.0 -0.0417600116
C  C4  1  0.75970000  0.65590000  0.23340000  1.0 -0.0417600116
C  C5  1  0.42250000  0.52630000  0.76660000  1.0 -0.0417600116
C  C6  1  0.84410000  0.74030000  0.76660000  1.0 -0.0417600116
C  C7  1  0.77630000  0.50970000  0.60380000  1.0 -0.0417600116
C  C8  1  0.90590000  0.17250000  0.39620000  1.0 -0.0417600116
C  C9  1  0.94170000  0.03100000  0.15490000  1.0 -0.0231485005
C  C10  1  0.03680000  0.69170000  0.41070000  1.0 -0.0231485005
C  C11  1  0.28100000  0.62610000  0.58930000  1.0 -0.0231485005
C  C12  1  0.71320000  0.62390000  0.15490000  1.0 -0.0231485005
C  C13  1  0.46900000  0.55830000  0.84510000  1.0 -0.0231485005
C  C14  1  0.87610000  0.78680000  0.84510000  1.0 -0.0231485005
C  C15  1  0.80830000  0.46320000  0.58930000  1.0 -0.0231485005
C  C16  1  0.87390000  0.21900000  0.41070000  1.0 -0.0231485005
C  C17  1  0.94060000  0.93140000  0.17740000  1.0 -0.0897536445
C  C18  1  0.01320000  0.69060000  0.50920000  1.0 -0.0897536445
C  C19  1  0.18140000  0.50400000  0.49080000  1.0 -0.0897536445
C  C20  1  0.73680000  0.74600000  0.17740000  1.0 -0.0897536445
C  C21  1  0.56860000  0.55940000  0.82260000  1.0 -0.0897536445
C  C22  1  0.75400000  0.76320000  0.82260000  1.0 -0.0897536445
C  C23  1  0.80940000  0.48680000  0.49080000  1.0 -0.0897536445
C  C24  1  0.99600000  0.31860000  0.50920000  1.0 -0.0897536445
C  C25  1  0.97560000  0.97870000  0.25590000  1.0 0.1187237
C  C26  1  0.96970000  0.72560000  0.49690000  1.0 0.1187237
C  C27  1  0.22870000  0.47280000  0.50310000  1.0 0.1187237
C  C28  1  0.78030000  0.77720000  0.25590000  1.0 0.1187237
C  C29  1  0.52130000  0.52440000  0.74410000  1.0 0.1187237
C  C30  1  0.72280000  0.71970000  0.74410000  1.0 0.1187237
C  C31  1  0.77440000  0.53030000  0.50310000  1.0 0.1187237
C  C32  1  0.02720000  0.27130000  0.49690000  1.0 0.1187237
C  C33  1  0.99710000  0.95100000  0.31290000  1.0 0.226825045
C  C34  1  0.93420000  0.74710000  0.54610000  1.0 0.226825045
C  C35  1  0.20100000  0.38810000  0.45390000  1.0 0.226825045
C  C36  1  0.81580000  0.86190000  0.31290000  1.0 0.226825045
C  C37  1  0.54900000  0.50290000  0.68710000  1.0 0.226825045
C  C38  1  0.63810000  0.68420000  0.68710000  1.0 0.226825045
C  C39  1  0.75290000  0.56580000  0.45390000  1.0 0.226825045
C  C40  1  0.11190000  0.29900000  0.54610000  1.0 0.226825045
C  C41  1  0.98640000  0.86790000  0.28350000  1.0 -0.496852227
C  C42  1  0.95290000  0.73640000  0.61850000  1.0 -0.496852227
C  C43  1  0.11790000  0.33440000  0.38150000  1.0 -0.496852227
C  C44  1  0.79710000  0.91560000  0.28350000  1.0 -0.496852227
C  C45  1  0.63210000  0.51360000  0.71650000  1.0 -0.496852227
C  C46  1  0.58440000  0.70290000  0.71650000  1.0 -0.496852227
C  C47  1  0.76360000  0.54710000  0.38150000  1.0 -0.496852227
C  C48  1  0.16560000  0.38210000  0.61850000  1.0 -0.496852227
C  C49  1  0.02270000  0.97970000  0.48820000  1.0 0.1110104987
C  C50  1  0.78450000  0.77270000  0.54300000  1.0 0.1110104987
C  C51  1  0.22970000  0.24150000  0.45700000  1.0 0.1110104987
C  C52  1  0.96550000  0.00850000  0.48820000  1.0 0.1110104987
C  C53  1  0.52030000  0.47730000  0.51180000  1.0 0.1110104987
C  C54  1  0.49150000  0.53450000  0.51180000  1.0 0.1110104987
C  C55  1  0.72730000  0.71550000  0.45700000  1.0 0.1110104987
C  C56  1  0.25850000  0.27030000  0.54300000  1.0 0.1110104987
C  C57  1  0.05180000  0.95880000  0.54660000  1.0 0.0264438703
C  C58  1  0.75520000  0.80180000  0.59300000  1.0 0.0264438703
C  C59  1  0.20880000  0.16220000  0.40700000  1.0 0.0264438703
C  C60  1  0.99480000  0.08780000  0.54660000  1.0 0.0264438703
C  C61  1  0.54120000  0.44820000  0.45340000  1.0 0.0264438703
C  C62  1  0.41220000  0.50520000  0.45340000  1.0 0.0264438703
C  C63  1  0.69820000  0.74480000  0.40700000  1.0 0.0264438703
C  C64  1  0.33780000  0.29120000  0.59300000  1.0 0.0264438703
C  C65  1  0.10780000  0.93390000  0.54730000  1.0 -0.1457654336
C  C66  1  0.81050000  0.85780000  0.67390000  1.0 -0.1457654336
C  C67  1  0.18390000  0.13660000  0.32610000  1.0 -0.1457654336
C  C68  1  0.93950000  0.11340000  0.54730000  1.0 -0.1457654336
C  C69  1  0.56610000  0.39220000  0.45270000  1.0 -0.1457654336
C  C70  1  0.38660000  0.56050000  0.45270000  1.0 -0.1457654336
C  C71  1  0.64220000  0.68950000  0.32610000  1.0 -0.1457654336
C  C72  1  0.36340000  0.31610000  0.67390000  1.0 -0.1457654336
C  C73  1  0.13770000  0.91600000  0.60350000  1.0 -0.1088258843
C  C74  1  0.78420000  0.88770000  0.72170000  1.0 -0.1088258843
C  C75  1  0.16600000  0.06250000  0.27830000  1.0 -0.1088258843
C  C76  1  0.96580000  0.18750000  0.60350000  1.0 -0.1088258843
C  C77  1  0.58400000  0.36230000  0.39650000  1.0 -0.1088258843
C  C78  1  0.31250000  0.53420000  0.39650000  1.0 -0.1088258843
C  C79  1  0.61230000  0.71580000  0.27830000  1.0 -0.1088258843
C  C80  1  0.43750000  0.33400000  0.72170000  1.0 -0.1088258843
C  C81  1  0.11460000  0.92290000  0.66030000  1.0 -0.130564394
C  C82  1  0.70430000  0.86460000  0.69170000  1.0 -0.130564394
C  C83  1  0.17290000  0.01260000  0.30830000  1.0 -0.130564394
C  C84  1  0.04570000  0.23740000  0.66030000  1.0 -0.130564394
C  C85  1  0.57710000  0.38540000  0.33970000  1.0 -0.130564394
C  C86  1  0.26260000  0.45430000  0.33970000  1.0 -0.130564394
C  C87  1  0.63540000  0.79570000  0.30830000  1.0 -0.130564394
C  C88  1  0.48740000  0.32710000  0.69170000  1.0 -0.130564394
C  C89  1  0.05750000  0.94300000  0.65770000  1.0 -0.0897536445
C  C90  1  0.64980000  0.80750000  0.61450000  1.0 -0.0897536445
C  C91  1  0.19300000  0.03530000  0.38550000  1.0 -0.0897536445
C  C92  1  0.10020000  0.21470000  0.65770000  1.0 -0.0897536445
C  C93  1  0.55700000  0.44250000  0.34230000  1.0 -0.0897536445
C  C94  1  0.28530000  0.39980000  0.34230000  1.0 -0.0897536445
C  C95  1  0.69250000  0.85020000  0.38550000  1.0 -0.0897536445
C  C96  1  0.46470000  0.30700000  0.61450000  1.0 -0.0897536445
C  C97  1  0.02590000  0.96180000  0.60090000  1.0 -0.1582101932
C  C98  1  0.67500000  0.77590000  0.56410000  1.0 -0.1582101932
C  C99  1  0.21180000  0.11090000  0.43590000  1.0 -0.1582101932
C  C100  1  0.07500000  0.13910000  0.60090000  1.0 -0.1582101932
C  C101  1  0.53820000  0.47410000  0.39910000  1.0 -0.1582101932
C  C102  1  0.36090000  0.42500000  0.39910000  1.0 -0.1582101932
C  C103  1  0.72410000  0.82500000  0.43590000  1.0 -0.1582101932
C  C104  1  0.38910000  0.28820000  0.56410000  1.0 -0.1582101932
C  C105  1  0.27630000  0.67250000  0.26660000  1.0 -0.0417600116
C  C106  1  0.25970000  0.02630000  0.10380000  1.0 -0.0417600116
C  C107  1  0.92250000  0.15590000  0.89620000  1.0 -0.0417600116
C  C108  1  0.49030000  0.09410000  0.26660000  1.0 -0.0417600116
C  C109  1  0.82750000  0.22370000  0.73340000  1.0 -0.0417600116
C  C110  1  0.40590000  0.00970000  0.73340000  1.0 -0.0417600116
C  C111  1  0.47370000  0.24030000  0.89620000  1.0 -0.0417600116
C  C112  1  0.34410000  0.57750000  0.10380000  1.0 -0.0417600116
C  C113  1  0.30830000  0.71900000  0.34510000  1.0 -0.0231485005
C  C114  1  0.21320000  0.05830000  0.08930000  1.0 -0.0231485005
C  C115  1  0.96900000  0.12390000  0.91070000  1.0 -0.0231485005
C  C116  1  0.53680000  0.12610000  0.34510000  1.0 -0.0231485005
C  C117  1  0.78100000  0.19170000  0.65490000  1.0 -0.0231485005
C  C118  1  0.37390000  0.96320000  0.65490000  1.0 -0.0231485005
C  C119  1  0.44170000  0.28680000  0.91070000  1.0 -0.0231485005
C  C120  1  0.37610000  0.53100000  0.08930000  1.0 -0.0231485005
C  C121  1  0.30940000  0.81860000  0.32260000  1.0 -0.0897536445
C  C122  1  0.23680000  0.05940000  0.99080000  1.0 -0.0897536445
C  C123  1  0.06860000  0.24600000  0.00920000  1.0 -0.0897536445
C  C124  1  0.51320000  0.00400000  0.32260000  1.0 -0.0897536445
C  C125  1  0.68140000  0.19060000  0.67740000  1.0 -0.0897536445
C  C126  1  0.49600000  0.98680000  0.67740000  1.0 -0.0897536445
C  C127  1  0.44060000  0.26320000  0.00920000  1.0 -0.0897536445
C  C128  1  0.25400000  0.43140000  0.99080000  1.0 -0.0897536445
C  C129  1  0.27440000  0.77130000  0.24410000  1.0 0.1187237
C  C130  1  0.28030000  0.02440000  0.00310000  1.0 0.1187237
C  C131  1  0.02130000  0.27720000  0.99690000  1.0 0.1187237
C  C132  1  0.46970000  0.97280000  0.24410000  1.0 0.1187237
C  C133  1  0.72870000  0.22560000  0.75590000  1.0 0.1187237
C  C134  1  0.52720000  0.03030000  0.75590000  1.0 0.1187237
C  C135  1  0.47560000  0.21970000  0.99690000  1.0 0.1187237
C  C136  1  0.22280000  0.47870000  0.00310000  1.0 0.1187237
C  C137  1  0.25290000  0.79900000  0.18710000  1.0 0.226825045
C  C138  1  0.31580000  0.00290000  0.95390000  1.0 0.226825045
C  C139  1  0.04900000  0.36190000  0.04610000  1.0 0.226825045
C  C140  1  0.43420000  0.88810000  0.18710000  1.0 0.226825045
C  C141  1  0.70100000  0.24710000  0.81290000  1.0 0.226825045
C  C142  1  0.61190000  0.06580000  0.81290000  1.0 0.226825045
C  C143  1  0.49710000  0.18420000  0.04610000  1.0 0.226825045
C  C144  1  0.13810000  0.45100000  0.95390000  1.0 0.226825045
C  C145  1  0.26360000  0.88210000  0.21650000  1.0 -0.496852227
C  C146  1  0.29710000  0.01360000  0.88150000  1.0 -0.496852227
C  C147  1  0.13210000  0.41560000  0.11850000  1.0 -0.496852227
C  C148  1  0.45290000  0.83440000  0.21650000  1.0 -0.496852227
C  C149  1  0.61790000  0.23640000  0.78350000  1.0 -0.496852227
C  C150  1  0.66560000  0.04710000  0.78350000  1.0 -0.496852227
C  C151  1  0.48640000  0.20290000  0.11850000  1.0 -0.496852227
C  C152  1  0.08440000  0.36790000  0.88150000  1.0 -0.496852227
C  C153  1  0.22730000  0.77030000  0.01180000  1.0 0.1110104987
C  C154  1  0.46550000  0.97730000  0.95700000  1.0 0.1110104987
C  C155  1  0.02030000  0.50850000  0.04300000  1.0 0.1110104987
C  C156  1  0.28450000  0.74150000  0.01180000  1.0 0.1110104987
C  C157  1  0.72970000  0.27270000  0.98820000  1.0 0.1110104987
C  C158  1  0.75850000  0.21550000  0.98820000  1.0 0.1110104987
C  C159  1  0.52270000  0.03450000  0.04300000  1.0 0.1110104987
C  C160  1  0.99150000  0.47970000  0.95700000  1.0 0.1110104987
C  C161  1  0.19820000  0.79120000  0.95340000  1.0 0.0264438703
C  C162  1  0.49480000  0.94820000  0.90700000  1.0 0.0264438703
C  C163  1  0.04120000  0.58780000  0.09300000  1.0 0.0264438703
C  C164  1  0.25520000  0.66220000  0.95340000  1.0 0.0264438703
C  C165  1  0.70880000  0.30180000  0.04660000  1.0 0.0264438703
C  C166  1  0.83780000  0.24480000  0.04660000  1.0 0.0264438703
C  C167  1  0.55180000  0.00520000  0.09300000  1.0 0.0264438703
C  C168  1  0.91220000  0.45880000  0.90700000  1.0 0.0264438703
C  C169  1  0.14220000  0.81610000  0.95270000  1.0 -0.1457654336
C  C170  1  0.43950000  0.89220000  0.82610000  1.0 -0.1457654336
C  C171  1  0.06610000  0.61340000  0.17390000  1.0 -0.1457654336
C  C172  1  0.31050000  0.63660000  0.95270000  1.0 -0.1457654336
C  C173  1  0.68390000  0.35780000  0.04730000  1.0 -0.1457654336
C  C174  1  0.86340000  0.18950000  0.04730000  1.0 -0.1457654336
C  C175  1  0.60780000  0.06050000  0.17390000  1.0 -0.1457654336
C  C176  1  0.88660000  0.43390000  0.82610000  1.0 -0.1457654336
C  C177  1  0.11230000  0.83400000  0.89650000  1.0 -0.1088258843
C  C178  1  0.46580000  0.86230000  0.77830000  1.0 -0.1088258843
C  C179  1  0.08400000  0.68750000  0.22170000  1.0 -0.1088258843
C  C180  1  0.28420000  0.56250000  0.89650000  1.0 -0.1088258843
C  C181  1  0.66600000  0.38770000  0.10350000  1.0 -0.1088258843
C  C182  1  0.93750000  0.21580000  0.10350000  1.0 -0.1088258843
C  C183  1  0.63770000  0.03420000  0.22170000  1.0 -0.1088258843
C  C184  1  0.81250000  0.41600000  0.77830000  1.0 -0.1088258843
C  C185  1  0.13540000  0.82710000  0.83970000  1.0 -0.130564394
C  C186  1  0.54570000  0.88540000  0.80830000  1.0 -0.130564394
C  C187  1  0.07710000  0.73740000  0.19170000  1.0 -0.130564394
C  C188  1  0.20430000  0.51260000  0.83970000  1.0 -0.130564394
C  C189  1  0.67290000  0.36460000  0.16030000  1.0 -0.130564394
C  C190  1  0.98740000  0.29570000  0.16030000  1.0 -0.130564394
C  C191  1  0.61460000  0.95430000  0.19170000  1.0 -0.130564394
C  C192  1  0.76260000  0.42290000  0.80830000  1.0 -0.130564394
C  C193  1  0.19250000  0.80700000  0.84230000  1.0 -0.0897536445
C  C194  1  0.60020000  0.94250000  0.88550000  1.0 -0.0897536445
C  C195  1  0.05700000  0.71470000  0.11450000  1.0 -0.0897536445
C  C196  1  0.14980000  0.53530000  0.84230000  1.0 -0.0897536445
C  C197  1  0.69300000  0.30750000  0.15770000  1.0 -0.0897536445
C  C198  1  0.96470000  0.35020000  0.15770000  1.0 -0.0897536445
C  C199  1  0.55750000  0.89980000  0.11450000  1.0 -0.0897536445
C  C200  1  0.78530000  0.44300000  0.88550000  1.0 -0.0897536445
C  C201  1  0.22410000  0.78820000  0.89910000  1.0 -0.1582101932
C  C202  1  0.57500000  0.97410000  0.93590000  1.0 -0.1582101932
C  C203  1  0.03820000  0.63910000  0.06410000  1.0 -0.1582101932
C  C204  1  0.17500000  0.61090000  0.89910000  1.0 -0.1582101932
C  C205  1  0.71180000  0.27590000  0.10090000  1.0 -0.1582101932
C  C206  1  0.88910000  0.32500000  0.10090000  1.0 -0.1582101932
C  C207  1  0.52590000  0.92500000  0.06410000  1.0 -0.1582101932
C  C208  1  0.86090000  0.46180000  0.93590000  1.0 -0.1582101932
N  N1  1  0.99050000  0.05230000  0.28420000  1.0 -0.2113537057
N  N2  1  0.95630000  0.74050000  0.43820000  1.0 -0.2113537057
N  N3  1  0.30230000  0.51810000  0.56180000  1.0 -0.2113537057
N  N4  1  0.79370000  0.73190000  0.28420000  1.0 -0.2113537057
N  N5  1  0.44770000  0.50950000  0.71580000  1.0 -0.2113537057
N  N6  1  0.76810000  0.70630000  0.71580000  1.0 -0.2113537057
N  N7  1  0.75950000  0.54370000  0.56180000  1.0 -0.2113537057
N  N8  1  0.98190000  0.19770000  0.43820000  1.0 -0.2113537057
N  N9  1  0.92520000  0.95790000  0.12670000  1.0 -0.130564394
N  N10  1  0.04850000  0.67520000  0.46730000  1.0 -0.130564394
N  N11  1  0.20790000  0.58120000  0.53270000  1.0 -0.130564394
N  N12  1  0.70150000  0.66880000  0.12670000  1.0 -0.130564394
N  N13  1  0.54210000  0.57480000  0.87330000  1.0 -0.130564394
N  N14  1  0.83120000  0.79850000  0.87330000  1.0 -0.130564394
N  N15  1  0.82480000  0.45150000  0.53270000  1.0 -0.130564394
N  N16  1  0.91880000  0.29210000  0.46730000  1.0 -0.130564394
N  N17  1  0.01850000  0.99690000  0.38400000  1.0 -0.1858167961
N  N18  1  0.88450000  0.76850000  0.52160000  1.0 -0.1858167961
N  N19  1  0.24690000  0.36290000  0.47840000  1.0 -0.1858167961
N  N20  1  0.86550000  0.88710000  0.38400000  1.0 -0.1858167961
N  N21  1  0.50310000  0.48150000  0.61600000  1.0 -0.1858167961
N  N22  1  0.61290000  0.63450000  0.61600000  1.0 -0.1858167961
N  N23  1  0.73150000  0.61550000  0.47840000  1.0 -0.1858167961
N  N24  1  0.13710000  0.25310000  0.52160000  1.0 -0.1858167961
N  N25  1  0.04620000  0.97190000  0.43810000  1.0 -0.2043183106
N  N26  1  0.85810000  0.79620000  0.57430000  1.0 -0.2043183106
N  N27  1  0.22190000  0.28380000  0.42570000  1.0 -0.2043183106
N  N28  1  0.89190000  0.96620000  0.43810000  1.0 -0.2043183106
N  N29  1  0.52810000  0.45380000  0.56190000  1.0 -0.2043183106
N  N30  1  0.53380000  0.60810000  0.56190000  1.0 -0.2043183106
N  N31  1  0.70380000  0.64190000  0.42570000  1.0 -0.2043183106
N  N32  1  0.21620000  0.27810000  0.57430000  1.0 -0.2043183106
N  N33  1  0.25950000  0.69770000  0.21580000  1.0 -0.2113537057
N  N34  1  0.29370000  0.00950000  0.06180000  1.0 -0.2113537057
N  N35  1  0.94770000  0.23190000  0.93820000  1.0 -0.2113537057
N  N36  1  0.45630000  0.01810000  0.21580000  1.0 -0.2113537057
N  N37  1  0.80230000  0.24050000  0.78420000  1.0 -0.2113537057
N  N38  1  0.48190000  0.04370000  0.78420000  1.0 -0.2113537057
N  N39  1  0.49050000  0.20630000  0.93820000  1.0 -0.2113537057
N  N40  1  0.26810000  0.55230000  0.06180000  1.0 -0.2113537057
N  N41  1  0.32480000  0.79210000  0.37330000  1.0 -0.130564394
N  N42  1  0.20150000  0.07480000  0.03270000  1.0 -0.130564394
N  N43  1  0.04210000  0.16880000  0.96730000  1.0 -0.130564394
N  N44  1  0.54850000  0.08120000  0.37330000  1.0 -0.130564394
N  N45  1  0.70790000  0.17520000  0.62670000  1.0 -0.130564394
N  N46  1  0.41880000  0.95150000  0.62670000  1.0 -0.130564394
N  N47  1  0.42520000  0.29850000  0.96730000  1.0 -0.130564394
N  N48  1  0.33120000  0.45790000  0.03270000  1.0 -0.130564394
N  N49  1  0.23150000  0.75310000  0.11600000  1.0 -0.1858167961
N  N50  1  0.36550000  0.98150000  0.97840000  1.0 -0.1858167961
N  N51  1  0.00310000  0.38710000  0.02160000  1.0 -0.1858167961
N  N52  1  0.38450000  0.86290000  0.11600000  1.0 -0.1858167961
N  N53  1  0.74690000  0.26850000  0.88400000  1.0 -0.1858167961
N  N54  1  0.63710000  0.11550000  0.88400000  1.0 -0.1858167961
N  N55  1  0.51850000  0.13450000  0.02160000  1.0 -0.1858167961
N  N56  1  0.11290000  0.49690000  0.97840000  1.0 -0.1858167961
N  N57  1  0.20380000  0.77810000  0.06190000  1.0 -0.2043183106
N  N58  1  0.39190000  0.95380000  0.92570000  1.0 -0.2043183106
N  N59  1  0.02810000  0.46620000  0.07430000  1.0 -0.2043183106
N  N60  1  0.35810000  0.78380000  0.06190000  1.0 -0.2043183106
N  N61  1  0.72190000  0.29620000  0.93810000  1.0 -0.2043183106
N  N62  1  0.71620000  0.14190000  0.93810000  1.0 -0.2043183106
N  N63  1  0.54620000  0.10810000  0.07430000  1.0 -0.2043183106
N  N64  1  0.03380000  0.47190000  0.92570000  1.0 -0.2043183106
