# DDEC6 charges by PACMAN v1.1 (https://github.com/mtap-research/PACMAN-charge/)
data_TASVUG_ASR_pacman
_symmetry_space_group_name_H-M   'P 1'
_cell_length_a   15.18800000
_cell_length_b   25.73000000
_cell_length_c   26.94000000
_cell_angle_alpha   90.00000000
_cell_angle_beta   90.00000000
_cell_angle_gamma   90.00000000
_symmetry_Int_Tables_number   1
_chemical_formula_structural   TbHC22(Cl2O)6
_chemical_formula_sum   'Tb8 H8 C176 Cl96 O48'
_cell_volume   10527.80824560
_cell_formula_units_Z   8
loop_
 _symmetry_equiv_pos_site_id
 _symmetry_equiv_pos_as_xyz
  1  'x, y, z'
loop_
 _atom_site_type_symbol
 _atom_site_label
 _atom_site_symmetry_multiplicity
 _atom_site_fract_x
 _atom_site_fract_y
 _atom_site_fract_z
 _atom_site_occupancy
 _atom_site_charge
Tb  Tb1  1  0.64990000  0.60286000  0.18366000  1.0 2.1739152762
Tb  Tb2  1  0.64990000  0.89714000  0.81634000  1.0 2.1739152762
Tb  Tb3  1  0.85010000  0.89714000  0.68366000  1.0 2.1753585192
Tb  Tb4  1  0.85010000  0.60286000  0.31634000  1.0 2.1739152762
Tb  Tb5  1  0.35010000  0.39714000  0.81634000  1.0 2.1739152762
Tb  Tb6  1  0.35010000  0.10286000  0.18366000  1.0 2.1739152762
Tb  Tb7  1  0.14990000  0.10286000  0.31634000  1.0 2.1753585192
Tb  Tb8  1  0.14990000  0.39714000  0.68366000  1.0 2.1753585192
H  H1  1  0.45670000  0.36370000  0.41020000  1.0 0.0807405839
H  H2  1  0.45670000  0.13630000  0.58980000  1.0 0.0807405839
H  H3  1  0.04330000  0.13630000  0.91020000  1.0 0.0807405839
H  H4  1  0.04330000  0.36370000  0.08980000  1.0 0.0807405839
H  H5  1  0.54330000  0.63630000  0.58980000  1.0 0.0807405839
H  H6  1  0.54330000  0.86370000  0.41020000  1.0 0.0807405839
H  H7  1  0.95670000  0.86370000  0.08980000  1.0 0.0807405839
H  H8  1  0.95670000  0.63630000  0.91020000  1.0 0.0807405839
C  C1  1  0.41120000  0.37770000  0.38820000  1.0 -0.0662578863
C  C2  1  0.41120000  0.12230000  0.61180000  1.0 -0.0662578863
C  C3  1  0.08880000  0.12230000  0.88820000  1.0 -0.0662578863
C  C4  1  0.08880000  0.37770000  0.11180000  1.0 -0.0662578863
C  C5  1  0.58880000  0.62230000  0.61180000  1.0 -0.0662578863
C  C6  1  0.58880000  0.87770000  0.38820000  1.0 -0.0662578863
C  C7  1  0.91120000  0.87770000  0.11180000  1.0 -0.0662578863
C  C8  1  0.91120000  0.62230000  0.88820000  1.0 -0.0662578863
C  C9  1  0.34960000  0.39100000  0.42880000  1.0 -0.0309016957
C  C10  1  0.34960000  0.10900000  0.57120000  1.0 -0.0309016957
C  C11  1  0.15040000  0.10900000  0.92880000  1.0 -0.0212914612
C  C12  1  0.15040000  0.39100000  0.07120000  1.0 -0.0212914612
C  C13  1  0.65040000  0.60900000  0.57120000  1.0 -0.0212914612
C  C14  1  0.65040000  0.89100000  0.42880000  1.0 -0.0212914612
C  C15  1  0.84960000  0.89100000  0.07120000  1.0 -0.0309016957
C  C16  1  0.84960000  0.60900000  0.92880000  1.0 -0.0309016957
C  C17  1  0.25650000  0.38380000  0.42960000  1.0 0.0575152634
C  C18  1  0.25650000  0.11620000  0.57040000  1.0 0.0575152634
C  C19  1  0.24350000  0.11620000  0.92960000  1.0 0.0575152634
C  C20  1  0.24350000  0.38380000  0.07040000  1.0 0.0575152634
C  C21  1  0.74350000  0.61620000  0.57040000  1.0 0.0575152634
C  C22  1  0.74350000  0.88380000  0.42960000  1.0 0.0575152634
C  C23  1  0.75650000  0.88380000  0.07040000  1.0 0.0575152634
C  C24  1  0.75650000  0.61620000  0.92960000  1.0 0.0575152634
C  C25  1  0.20440000  0.39670000  0.47120000  1.0 0.0438335038
C  C26  1  0.20440000  0.10330000  0.52880000  1.0 0.0438335038
C  C27  1  0.29560000  0.10330000  0.97120000  1.0 0.0438335038
C  C28  1  0.29560000  0.39670000  0.02880000  1.0 0.0438335038
C  C29  1  0.79560000  0.60330000  0.52880000  1.0 0.0438335038
C  C30  1  0.79560000  0.89670000  0.47120000  1.0 0.0438335038
C  C31  1  0.70440000  0.89670000  0.02880000  1.0 0.0438335038
C  C32  1  0.70440000  0.60330000  0.97120000  1.0 0.0438335038
C  C33  1  0.23920000  0.41790000  0.51400000  1.0 -0.0990344942
C  C34  1  0.23920000  0.08210000  0.48600000  1.0 -0.0990344942
C  C35  1  0.26080000  0.08210000  0.01400000  1.0 -0.0990344942
C  C36  1  0.26080000  0.41790000  0.98600000  1.0 -0.0990344942
C  C37  1  0.76080000  0.58210000  0.48600000  1.0 -0.0990344942
C  C38  1  0.76080000  0.91790000  0.51400000  1.0 -0.0990344942
C  C39  1  0.73920000  0.91790000  0.98600000  1.0 -0.0990344942
C  C40  1  0.73920000  0.58210000  0.01400000  1.0 -0.0990344942
C  C41  1  0.33210000  0.42480000  0.51540000  1.0 0.0963974583
C  C42  1  0.33210000  0.07520000  0.48460000  1.0 0.0963974583
C  C43  1  0.16790000  0.07520000  0.01540000  1.0 0.0963974583
C  C44  1  0.16790000  0.42480000  0.98460000  1.0 0.094302662
C  C45  1  0.66790000  0.57520000  0.48460000  1.0 0.094302662
C  C46  1  0.66790000  0.92480000  0.51540000  1.0 0.094302662
C  C47  1  0.83210000  0.92480000  0.98460000  1.0 0.0963974583
C  C48  1  0.83210000  0.57520000  0.01540000  1.0 0.0963974583
C  C49  1  0.38980000  0.41330000  0.47330000  1.0 0.0575152634
C  C50  1  0.38980000  0.08670000  0.52670000  1.0 0.0575152634
C  C51  1  0.11020000  0.08670000  0.97330000  1.0 0.0575152634
C  C52  1  0.11020000  0.41330000  0.02670000  1.0 0.0575152634
C  C53  1  0.61020000  0.58670000  0.52670000  1.0 0.0575152634
C  C54  1  0.61020000  0.91330000  0.47330000  1.0 0.0520233304
C  C55  1  0.88980000  0.91330000  0.02670000  1.0 0.0575152634
C  C56  1  0.88980000  0.58670000  0.97330000  1.0 0.0575152634
C  C57  1  0.18410000  0.43180000  0.55980000  1.0 0.6205487031
C  C58  1  0.18410000  0.06820000  0.44020000  1.0 0.6205487031
C  C59  1  0.31590000  0.06820000  0.05980000  1.0 0.6205487031
C  C60  1  0.31590000  0.43180000  0.94020000  1.0 0.6205487031
C  C61  1  0.81590000  0.56820000  0.44020000  1.0 0.6205487031
C  C62  1  0.81590000  0.93180000  0.55980000  1.0 0.6205487031
C  C63  1  0.68410000  0.93180000  0.94020000  1.0 0.6205487031
C  C64  1  0.68410000  0.56820000  0.05980000  1.0 0.6205487031
C  C65  1  0.47380000  0.41970000  0.36330000  1.0 0.0048100308
C  C66  1  0.47380000  0.08030000  0.63670000  1.0 0.0048100308
C  C67  1  0.02620000  0.08030000  0.86330000  1.0 0.0048100308
C  C68  1  0.02620000  0.41970000  0.13670000  1.0 0.0048100308
C  C69  1  0.52620000  0.58030000  0.63670000  1.0 0.0048100308
C  C70  1  0.52620000  0.91970000  0.36330000  1.0 0.0048100308
C  C71  1  0.97380000  0.91970000  0.13670000  1.0 0.0048100308
C  C72  1  0.97380000  0.58030000  0.86330000  1.0 0.0048100308
C  C73  1  0.44280000  0.47140000  0.35160000  1.0 0.0520233304
C  C74  1  0.44280000  0.02860000  0.64840000  1.0 0.0520233304
C  C75  1  0.05720000  0.02860000  0.85160000  1.0 0.0520233304
C  C76  1  0.05720000  0.47140000  0.14840000  1.0 0.0520233304
C  C77  1  0.55720000  0.52860000  0.64840000  1.0 0.0520233304
C  C78  1  0.55720000  0.97140000  0.35160000  1.0 0.0520233304
C  C79  1  0.94280000  0.97140000  0.14840000  1.0 0.0520233304
C  C80  1  0.94280000  0.52860000  0.85160000  1.0 0.0520233304
C  C81  1  0.50310000  0.50720000  0.33070000  1.0 0.0575152634
C  C82  1  0.50310000  0.99280000  0.66930000  1.0 0.0575152634
C  C83  1  0.99690000  0.99280000  0.83070000  1.0 0.0575152634
C  C84  1  0.99690000  0.50720000  0.16930000  1.0 0.0575152634
C  C85  1  0.49690000  0.49280000  0.66930000  1.0 0.0575152634
C  C86  1  0.49690000  0.00720000  0.33070000  1.0 0.0575152634
C  C87  1  0.00310000  0.00720000  0.16930000  1.0 0.0575152634
C  C88  1  0.00310000  0.49280000  0.83070000  1.0 0.0575152634
C  C89  1  0.59190000  0.49600000  0.31990000  1.0 -0.1159960234
C  C90  1  0.59190000  0.00400000  0.68010000  1.0 -0.1159960234
C  C91  1  0.90810000  0.00400000  0.81990000  1.0 -0.1159960234
C  C92  1  0.90810000  0.49600000  0.18010000  1.0 -0.1159960234
C  C93  1  0.40810000  0.50400000  0.68010000  1.0 -0.1159960234
C  C94  1  0.40810000  0.99600000  0.31990000  1.0 -0.1159960234
C  C95  1  0.09190000  0.99600000  0.18010000  1.0 -0.1159960234
C  C96  1  0.09190000  0.50400000  0.81990000  1.0 -0.1159960234
C  C97  1  0.62210000  0.44480000  0.32930000  1.0 0.0807405839
C  C98  1  0.62210000  0.05520000  0.67070000  1.0 0.0807405839
C  C99  1  0.87790000  0.05520000  0.82930000  1.0 0.0807405839
C  C100  1  0.87790000  0.44480000  0.17070000  1.0 0.0807405839
C  C101  1  0.37790000  0.55520000  0.67070000  1.0 0.0807405839
C  C102  1  0.37790000  0.94480000  0.32930000  1.0 0.0807405839
C  C103  1  0.12210000  0.94480000  0.17070000  1.0 0.0807405839
C  C104  1  0.12210000  0.55520000  0.82930000  1.0 0.0807405839
C  C105  1  0.56040000  0.40810000  0.35150000  1.0 0.0520233304
C  C106  1  0.56040000  0.09190000  0.64850000  1.0 0.0520233304
C  C107  1  0.93960000  0.09190000  0.85150000  1.0 0.0520233304
C  C108  1  0.93960000  0.40810000  0.14850000  1.0 0.0520233304
C  C109  1  0.43960000  0.59190000  0.64850000  1.0 0.0520233304
C  C110  1  0.43960000  0.90810000  0.35150000  1.0 0.0520233304
C  C111  1  0.06040000  0.90810000  0.14850000  1.0 0.0520233304
C  C112  1  0.06040000  0.59190000  0.85150000  1.0 0.0520233304
C  C113  1  0.65540000  0.53530000  0.29660000  1.0 0.6818278286
C  C114  1  0.65540000  0.96470000  0.70340000  1.0 0.6818278286
C  C115  1  0.84460000  0.96470000  0.79660000  1.0 0.6818278286
C  C116  1  0.84460000  0.53530000  0.20340000  1.0 0.6818278286
C  C117  1  0.34460000  0.46470000  0.70340000  1.0 0.6818278286
C  C118  1  0.34460000  0.03530000  0.29660000  1.0 0.6818278286
C  C119  1  0.15540000  0.03530000  0.20340000  1.0 0.6818278286
C  C120  1  0.15540000  0.46470000  0.79660000  1.0 0.6818278286
C  C121  1  0.40230000  0.32780000  0.35730000  1.0 -0.0212914612
C  C122  1  0.40230000  0.17220000  0.64270000  1.0 -0.0212914612
C  C123  1  0.09770000  0.17220000  0.85730000  1.0 -0.0212914612
C  C124  1  0.09770000  0.32780000  0.14270000  1.0 -0.0212914612
C  C125  1  0.59770000  0.67220000  0.64270000  1.0 -0.0212914612
C  C126  1  0.59770000  0.82780000  0.35730000  1.0 -0.0212914612
C  C127  1  0.90230000  0.82780000  0.14270000  1.0 -0.0212914612
C  C128  1  0.90230000  0.67220000  0.85730000  1.0 -0.0212914612
C  C129  1  0.40390000  0.28150000  0.38550000  1.0 0.0520233304
C  C130  1  0.40390000  0.21850000  0.61450000  1.0 0.0520233304
C  C131  1  0.09610000  0.21850000  0.88550000  1.0 0.0520233304
C  C132  1  0.09610000  0.28150000  0.11450000  1.0 0.0520233304
C  C133  1  0.59610000  0.71850000  0.61450000  1.0 0.0575152634
C  C134  1  0.59610000  0.78150000  0.38550000  1.0 0.0575152634
C  C135  1  0.90390000  0.78150000  0.11450000  1.0 0.0520233304
C  C136  1  0.90390000  0.71850000  0.88550000  1.0 0.0520233304
C  C137  1  0.39510000  0.23310000  0.36230000  1.0 0.0720808406
C  C138  1  0.39510000  0.26690000  0.63770000  1.0 0.0720808406
C  C139  1  0.10490000  0.26690000  0.86230000  1.0 0.0720808406
C  C140  1  0.10490000  0.23310000  0.13770000  1.0 0.0720808406
C  C141  1  0.60490000  0.76690000  0.63770000  1.0 0.0720808406
C  C142  1  0.60490000  0.73310000  0.36230000  1.0 0.0720808406
C  C143  1  0.89510000  0.73310000  0.13770000  1.0 0.0720808406
C  C144  1  0.89510000  0.76690000  0.86230000  1.0 0.0720808406
C  C145  1  0.36890000  0.22980000  0.31120000  1.0 -0.1124263981
C  C146  1  0.36890000  0.27020000  0.68880000  1.0 -0.1124263981
C  C147  1  0.13110000  0.27020000  0.81120000  1.0 -0.1124263981
C  C148  1  0.13110000  0.22980000  0.18880000  1.0 -0.1124263981
C  C149  1  0.63110000  0.77020000  0.68880000  1.0 -0.1124263981
C  C150  1  0.63110000  0.72980000  0.31120000  1.0 -0.1124263981
C  C151  1  0.86890000  0.72980000  0.18880000  1.0 -0.1124263981
C  C152  1  0.86890000  0.77020000  0.81120000  1.0 -0.1124263981
C  C153  1  0.37790000  0.27570000  0.28340000  1.0 0.0520233304
C  C154  1  0.37790000  0.22430000  0.71660000  1.0 0.0520233304
C  C155  1  0.12210000  0.22430000  0.78340000  1.0 0.0520233304
C  C156  1  0.12210000  0.27570000  0.21660000  1.0 0.0520233304
C  C157  1  0.62210000  0.72430000  0.71660000  1.0 0.0520233304
C  C158  1  0.62210000  0.77570000  0.28340000  1.0 0.0520233304
C  C159  1  0.87790000  0.77570000  0.21660000  1.0 0.0520233304
C  C160  1  0.87790000  0.72430000  0.78340000  1.0 0.0520233304
C  C161  1  0.38590000  0.32440000  0.30580000  1.0 0.0520233304
C  C162  1  0.38590000  0.17560000  0.69420000  1.0 0.0520233304
C  C163  1  0.11410000  0.17560000  0.80580000  1.0 0.0520233304
C  C164  1  0.11410000  0.32440000  0.19420000  1.0 0.0520233304
C  C165  1  0.61410000  0.67560000  0.69420000  1.0 0.0520233304
C  C166  1  0.61410000  0.82440000  0.30580000  1.0 0.0520233304
C  C167  1  0.88590000  0.82440000  0.19420000  1.0 0.0520233304
C  C168  1  0.88590000  0.67560000  0.80580000  1.0 0.0520233304
C  C169  1  0.34810000  0.17890000  0.28600000  1.0 0.6735244247
C  C170  1  0.34810000  0.32110000  0.71400000  1.0 0.6735244247
C  C171  1  0.15190000  0.32110000  0.78600000  1.0 0.6735244247
C  C172  1  0.15190000  0.17890000  0.21400000  1.0 0.6735244247
C  C173  1  0.65190000  0.82110000  0.71400000  1.0 0.6735244247
C  C174  1  0.65190000  0.67890000  0.28600000  1.0 0.6735244247
C  C175  1  0.84810000  0.67890000  0.21400000  1.0 0.6735244247
C  C176  1  0.84810000  0.82110000  0.78600000  1.0 0.6735244247
Cl  Cl1  1  0.20300000  0.36142000  0.37582000  1.0 -0.0504457633
Cl  Cl2  1  0.20300000  0.13858000  0.62418000  1.0 -0.0504457633
Cl  Cl3  1  0.29700000  0.13858000  0.87582000  1.0 -0.0504457633
Cl  Cl4  1  0.29700000  0.36142000  0.12418000  1.0 -0.0504457633
Cl  Cl5  1  0.79700000  0.63858000  0.62418000  1.0 -0.0583061457
Cl  Cl6  1  0.79700000  0.86142000  0.37582000  1.0 -0.0583061457
Cl  Cl7  1  0.70300000  0.86142000  0.12418000  1.0 -0.0583061457
Cl  Cl8  1  0.70300000  0.63858000  0.87582000  1.0 -0.0583061457
Cl  Cl9  1  0.08520000  0.38570000  0.47088000  1.0 -0.0309016957
Cl  Cl10  1  0.08520000  0.11430000  0.52912000  1.0 -0.0309016957
Cl  Cl11  1  0.41480000  0.11430000  0.97088000  1.0 -0.0401349105
Cl  Cl12  1  0.41480000  0.38570000  0.02912000  1.0 -0.0401349105
Cl  Cl13  1  0.91480000  0.61430000  0.52912000  1.0 -0.0309016957
Cl  Cl14  1  0.91480000  0.88570000  0.47088000  1.0 -0.0309016957
Cl  Cl15  1  0.58520000  0.88570000  0.02912000  1.0 -0.0309016957
Cl  Cl16  1  0.58520000  0.61430000  0.97088000  1.0 -0.0309016957
Cl  Cl17  1  0.38450000  0.45454000  0.56709000  1.0 -0.0990344942
Cl  Cl18  1  0.38450000  0.04546000  0.43291000  1.0 -0.0990344942
Cl  Cl19  1  0.11550000  0.04546000  0.06709000  1.0 -0.0990344942
Cl  Cl20  1  0.11550000  0.45454000  0.93291000  1.0 -0.0893877866
Cl  Cl21  1  0.61550000  0.54546000  0.43291000  1.0 -0.0893877866
Cl  Cl22  1  0.61550000  0.95454000  0.56709000  1.0 -0.0893877866
Cl  Cl23  1  0.88450000  0.95454000  0.93291000  1.0 -0.0990344942
Cl  Cl24  1  0.88450000  0.54546000  0.06709000  1.0 -0.0990344942
Cl  Cl25  1  0.50580000  0.42174000  0.47808000  1.0 -0.0583061457
Cl  Cl26  1  0.50580000  0.07826000  0.52192000  1.0 -0.0583061457
Cl  Cl27  1  0.99420000  0.07826000  0.97808000  1.0 -0.0583061457
Cl  Cl28  1  0.99420000  0.42174000  0.02192000  1.0 -0.0583061457
Cl  Cl29  1  0.49420000  0.57826000  0.52192000  1.0 -0.0583061457
Cl  Cl30  1  0.49420000  0.92174000  0.47808000  1.0 -0.0583061457
Cl  Cl31  1  0.00580000  0.92174000  0.02192000  1.0 -0.0583061457
Cl  Cl32  1  0.00580000  0.57826000  0.97808000  1.0 -0.0583061457
Cl  Cl33  1  0.33210000  0.48830000  0.36400000  1.0 -0.0504457633
Cl  Cl34  1  0.33210000  0.01170000  0.63600000  1.0 -0.0504457633
Cl  Cl35  1  0.16790000  0.01170000  0.86400000  1.0 -0.0504457633
Cl  Cl36  1  0.16790000  0.48830000  0.13600000  1.0 -0.0504457633
Cl  Cl37  1  0.66790000  0.51170000  0.63600000  1.0 -0.0504457633
Cl  Cl38  1  0.66790000  0.98830000  0.36400000  1.0 -0.0504457633
Cl  Cl39  1  0.83210000  0.98830000  0.13600000  1.0 -0.0504457633
Cl  Cl40  1  0.83210000  0.51170000  0.86400000  1.0 -0.0504457633
Cl  Cl41  1  0.46670000  0.57008000  0.32190000  1.0 -0.0401349105
Cl  Cl42  1  0.46670000  0.92992000  0.67810000  1.0 -0.0401349105
Cl  Cl43  1  0.03330000  0.92992000  0.82190000  1.0 -0.0401349105
Cl  Cl44  1  0.03330000  0.57008000  0.17810000  1.0 -0.0401349105
Cl  Cl45  1  0.53330000  0.42992000  0.67810000  1.0 -0.0309016957
Cl  Cl46  1  0.53330000  0.07008000  0.32190000  1.0 -0.0309016957
Cl  Cl47  1  0.96670000  0.07008000  0.17810000  1.0 -0.0401349105
Cl  Cl48  1  0.96670000  0.42992000  0.82190000  1.0 -0.0401349105
Cl  Cl49  1  0.73360000  0.42901000  0.31706000  1.0 -0.0767669535
Cl  Cl50  1  0.73360000  0.07099000  0.68294000  1.0 -0.0767669535
Cl  Cl51  1  0.76640000  0.07099000  0.81706000  1.0 -0.0767669535
Cl  Cl52  1  0.76640000  0.42901000  0.18294000  1.0 -0.0767669535
Cl  Cl53  1  0.26640000  0.57099000  0.68294000  1.0 -0.0767669535
Cl  Cl54  1  0.26640000  0.92901000  0.31706000  1.0 -0.0767669535
Cl  Cl55  1  0.23360000  0.92901000  0.18294000  1.0 -0.0767669535
Cl  Cl56  1  0.23360000  0.57099000  0.81706000  1.0 -0.0767669535
Cl  Cl57  1  0.60670000  0.34751000  0.36484000  1.0 -0.0309016957
Cl  Cl58  1  0.60670000  0.15249000  0.63516000  1.0 -0.0309016957
Cl  Cl59  1  0.89330000  0.15249000  0.86484000  1.0 -0.0309016957
Cl  Cl60  1  0.89330000  0.34751000  0.13516000  1.0 -0.0309016957
Cl  Cl61  1  0.39330000  0.65249000  0.63516000  1.0 -0.0309016957
Cl  Cl62  1  0.39330000  0.84751000  0.36484000  1.0 -0.0309016957
Cl  Cl63  1  0.10670000  0.84751000  0.13516000  1.0 -0.0309016957
Cl  Cl64  1  0.10670000  0.65249000  0.86484000  1.0 -0.0309016957
Cl  Cl65  1  0.42890000  0.28227000  0.44839000  1.0 -0.0504457633
Cl  Cl66  1  0.42890000  0.21773000  0.55161000  1.0 -0.0504457633
Cl  Cl67  1  0.07110000  0.21773000  0.94839000  1.0 -0.0504457633
Cl  Cl68  1  0.07110000  0.28227000  0.05161000  1.0 -0.0504457633
Cl  Cl69  1  0.57110000  0.71773000  0.55161000  1.0 -0.0583061457
Cl  Cl70  1  0.57110000  0.78227000  0.44839000  1.0 -0.0583061457
Cl  Cl71  1  0.92890000  0.78227000  0.05161000  1.0 -0.0583061457
Cl  Cl72  1  0.92890000  0.71773000  0.94839000  1.0 -0.0583061457
Cl  Cl73  1  0.39790000  0.17724000  0.39666000  1.0 -0.0583061457
Cl  Cl74  1  0.39790000  0.32276000  0.60334000  1.0 -0.0583061457
Cl  Cl75  1  0.10210000  0.32276000  0.89666000  1.0 -0.0504457633
Cl  Cl76  1  0.10210000  0.17724000  0.10334000  1.0 -0.0504457633
Cl  Cl77  1  0.60210000  0.82276000  0.60334000  1.0 -0.0504457633
Cl  Cl78  1  0.60210000  0.67724000  0.39666000  1.0 -0.0504457633
Cl  Cl79  1  0.89790000  0.67724000  0.10334000  1.0 -0.0504457633
Cl  Cl80  1  0.89790000  0.82276000  0.89666000  1.0 -0.0504457633
Cl  Cl81  1  0.35480000  0.27399000  0.21840000  1.0 -0.0583061457
Cl  Cl82  1  0.35480000  0.22601000  0.78160000  1.0 -0.0583061457
Cl  Cl83  1  0.14520000  0.22601000  0.71840000  1.0 -0.0583061457
Cl  Cl84  1  0.14520000  0.27399000  0.28160000  1.0 -0.0583061457
Cl  Cl85  1  0.64520000  0.72601000  0.78160000  1.0 -0.0583061457
Cl  Cl86  1  0.64520000  0.77399000  0.21840000  1.0 -0.0583061457
Cl  Cl87  1  0.85480000  0.77399000  0.28160000  1.0 -0.0583061457
Cl  Cl88  1  0.85480000  0.72601000  0.71840000  1.0 -0.0583061457
Cl  Cl89  1  0.37630000  0.37941000  0.26894000  1.0 -0.0401349105
Cl  Cl90  1  0.37630000  0.12059000  0.73106000  1.0 -0.0401349105
Cl  Cl91  1  0.12370000  0.12059000  0.76894000  1.0 -0.0401349105
Cl  Cl92  1  0.12370000  0.37941000  0.23106000  1.0 -0.0401349105
Cl  Cl93  1  0.62370000  0.62059000  0.73106000  1.0 -0.0401349105
Cl  Cl94  1  0.62370000  0.87941000  0.26894000  1.0 -0.0401349105
Cl  Cl95  1  0.87630000  0.87941000  0.23106000  1.0 -0.0401349105
Cl  Cl96  1  0.87630000  0.62059000  0.76894000  1.0 -0.0401349105
O  O1  1  0.14230000  0.47420000  0.55770000  1.0 -0.480479568
O  O2  1  0.14230000  0.02580000  0.44230000  1.0 -0.480479568
O  O3  1  0.35770000  0.02580000  0.05770000  1.0 -0.4707548764
O  O4  1  0.35770000  0.47420000  0.94230000  1.0 -0.4707548764
O  O5  1  0.85770000  0.52580000  0.44230000  1.0 -0.480479568
O  O6  1  0.85770000  0.97420000  0.55770000  1.0 -0.480479568
O  O7  1  0.64230000  0.97420000  0.94230000  1.0 -0.480479568
O  O8  1  0.64230000  0.52580000  0.05770000  1.0 -0.480479568
O  O9  1  0.63660000  0.54960000  0.25320000  1.0 -0.693487583
O  O10  1  0.63660000  0.95040000  0.74680000  1.0 -0.693487583
O  O11  1  0.86340000  0.95040000  0.75320000  1.0 -0.693487583
O  O12  1  0.86340000  0.54960000  0.24680000  1.0 -0.693487583
O  O13  1  0.36340000  0.45040000  0.74680000  1.0 -0.693487583
O  O14  1  0.36340000  0.04960000  0.25320000  1.0 -0.693487583
O  O15  1  0.13660000  0.04960000  0.24680000  1.0 -0.693487583
O  O16  1  0.13660000  0.45040000  0.75320000  1.0 -0.693487583
O  O17  1  0.39450000  0.16180000  0.25090000  1.0 -0.6161214259
O  O18  1  0.39450000  0.33820000  0.74910000  1.0 -0.6161214259
O  O19  1  0.10550000  0.33820000  0.75090000  1.0 -0.6104705927
O  O20  1  0.10550000  0.16180000  0.24910000  1.0 -0.6104705927
O  O21  1  0.60550000  0.83820000  0.74910000  1.0 -0.6104705927
O  O22  1  0.60550000  0.66180000  0.25090000  1.0 -0.6104705927
O  O23  1  0.89450000  0.66180000  0.24910000  1.0 -0.6161214259
O  O24  1  0.89450000  0.83820000  0.75090000  1.0 -0.6161214259
O  O25  1  0.18150000  0.40050000  0.59570000  1.0 -0.6968009261
O  O26  1  0.18150000  0.09950000  0.40430000  1.0 -0.6968009261
O  O27  1  0.31850000  0.09950000  0.09570000  1.0 -0.6968009261
O  O28  1  0.31850000  0.40050000  0.90430000  1.0 -0.693487583
O  O29  1  0.81850000  0.59950000  0.40430000  1.0 -0.6968009261
O  O30  1  0.81850000  0.90050000  0.59570000  1.0 -0.693487583
O  O31  1  0.68150000  0.90050000  0.90430000  1.0 -0.693487583
O  O32  1  0.68150000  0.59950000  0.09570000  1.0 -0.6968009261
O  O33  1  0.27410000  0.15890000  0.30590000  1.0 -0.7462703285
O  O34  1  0.27410000  0.34110000  0.69410000  1.0 -0.7462703285
O  O35  1  0.22590000  0.34110000  0.80590000  1.0 -0.7462703285
O  O36  1  0.22590000  0.15890000  0.19410000  1.0 -0.7462703285
O  O37  1  0.72590000  0.84110000  0.69410000  1.0 -0.7462703285
O  O38  1  0.72590000  0.65890000  0.30590000  1.0 -0.7462703285
O  O39  1  0.77410000  0.65890000  0.19410000  1.0 -0.7462703285
O  O40  1  0.77410000  0.84110000  0.80590000  1.0 -0.7462703285
O  O41  1  0.72010000  0.54950000  0.32310000  1.0 -0.6512822879
O  O42  1  0.72010000  0.95050000  0.67690000  1.0 -0.6512822879
O  O43  1  0.77990000  0.95050000  0.82310000  1.0 -0.6512822879
O  O44  1  0.77990000  0.54950000  0.17690000  1.0 -0.6512822879
O  O45  1  0.27990000  0.45050000  0.67690000  1.0 -0.6512822879
O  O46  1  0.27990000  0.04950000  0.32310000  1.0 -0.6512822879
O  O47  1  0.22010000  0.04950000  0.17690000  1.0 -0.6512822879
O  O48  1  0.22010000  0.45050000  0.82310000  1.0 -0.6512822879
