# DDEC6 charges by PACMAN v1.1 (https://github.com/mtap-research/PACMAN-charge/)
data_TASWIV_ASR_pacman
_symmetry_space_group_name_H-M   'P 1'
_cell_length_a   14.85000000
_cell_length_b   25.12800000
_cell_length_c   26.70400000
_cell_angle_alpha   90.00000000
_cell_angle_beta   90.00000000
_cell_angle_gamma   90.00000000
_symmetry_Int_Tables_number   1
_chemical_formula_structural   EuC22(Cl2O)6
_chemical_formula_sum   'Eu8 C176 Cl96 O48'
_cell_volume   9964.61896320
_cell_formula_units_Z   8
loop_
 _symmetry_equiv_pos_site_id
 _symmetry_equiv_pos_as_xyz
  1  'x, y, z'
loop_
 _atom_site_type_symbol
 _atom_site_label
 _atom_site_symmetry_multiplicity
 _atom_site_fract_x
 _atom_site_fract_y
 _atom_site_fract_z
 _atom_site_occupancy
 _atom_site_charge
Eu  Eu1  1  0.64956000  0.89933000  0.68422000  1.0 2.1604533537
Eu  Eu2  1  0.64956000  0.60067000  0.31578000  1.0 2.1604533537
Eu  Eu3  1  0.85044000  0.60067000  0.18422000  1.0 2.1604533537
Eu  Eu4  1  0.85044000  0.89933000  0.81578000  1.0 2.1604533537
Eu  Eu5  1  0.35044000  0.10067000  0.31578000  1.0 2.1604533537
Eu  Eu6  1  0.35044000  0.39933000  0.68422000  1.0 2.1604533537
Eu  Eu7  1  0.14956000  0.39933000  0.81578000  1.0 2.1604533537
Eu  Eu8  1  0.14956000  0.10067000  0.18422000  1.0 2.1604533537
C  C1  1  0.65600000  0.96820000  0.79690000  1.0 0.6654380107
C  C2  1  0.65600000  0.53180000  0.20310000  1.0 0.6654380107
C  C3  1  0.84400000  0.53180000  0.29690000  1.0 0.6654380107
C  C4  1  0.84400000  0.96820000  0.70310000  1.0 0.6654380107
C  C5  1  0.34400000  0.03180000  0.20310000  1.0 0.6636482342
C  C6  1  0.34400000  0.46820000  0.79690000  1.0 0.6636482342
C  C7  1  0.15600000  0.46820000  0.70310000  1.0 0.6654380107
C  C8  1  0.15600000  0.03180000  0.29690000  1.0 0.6654380107
C  C9  1  0.18320000  0.06230000  0.06130000  1.0 0.5910429849
C  C10  1  0.18320000  0.43770000  0.93870000  1.0 0.5910429849
C  C11  1  0.31680000  0.43770000  0.56130000  1.0 0.5910429849
C  C12  1  0.31680000  0.06230000  0.43870000  1.0 0.5910429849
C  C13  1  0.81680000  0.93770000  0.93870000  1.0 0.5910429849
C  C14  1  0.81680000  0.56230000  0.06130000  1.0 0.5910429849
C  C15  1  0.68320000  0.56230000  0.43870000  1.0 0.5910429849
C  C16  1  0.68320000  0.93770000  0.56130000  1.0 0.5910429849
C  C17  1  0.34200000  0.32110000  0.78800000  1.0 0.6636482342
C  C18  1  0.34200000  0.17890000  0.21200000  1.0 0.6636482342
C  C19  1  0.15800000  0.17890000  0.28800000  1.0 0.6636482342
C  C20  1  0.15800000  0.32110000  0.71200000  1.0 0.6636482342
C  C21  1  0.65800000  0.67890000  0.21200000  1.0 0.6636482342
C  C22  1  0.65800000  0.82110000  0.78800000  1.0 0.6636482342
C  C23  1  0.84200000  0.82110000  0.71200000  1.0 0.6636482342
C  C24  1  0.84200000  0.67890000  0.28800000  1.0 0.6636482342
C  C25  1  0.59000000  0.00730000  0.82130000  1.0 -0.1037435153
C  C26  1  0.59000000  0.49270000  0.17870000  1.0 -0.1037435153
C  C27  1  0.91000000  0.49270000  0.32130000  1.0 -0.1037435153
C  C28  1  0.91000000  0.00730000  0.67870000  1.0 -0.1037435153
C  C29  1  0.41000000  0.99270000  0.17870000  1.0 -0.1037435153
C  C30  1  0.41000000  0.50730000  0.82130000  1.0 -0.1037435153
C  C31  1  0.09000000  0.50730000  0.67870000  1.0 -0.1037435153
C  C32  1  0.09000000  0.99270000  0.32130000  1.0 -0.1037435153
C  C33  1  0.61310000  0.05930000  0.83050000  1.0 0.0478682574
C  C34  1  0.61310000  0.44070000  0.16950000  1.0 0.0478682574
C  C35  1  0.88690000  0.44070000  0.33050000  1.0 0.0478682574
C  C36  1  0.88690000  0.05930000  0.66950000  1.0 0.0478682574
C  C37  1  0.38690000  0.94070000  0.16950000  1.0 0.0478682574
C  C38  1  0.38690000  0.55930000  0.83050000  1.0 0.0478682574
C  C39  1  0.11310000  0.55930000  0.66950000  1.0 0.0478682574
C  C40  1  0.11310000  0.94070000  0.33050000  1.0 0.0478682574
C  C41  1  0.55220000  0.09420000  0.85250000  1.0 0.0478682574
C  C42  1  0.55220000  0.40580000  0.14750000  1.0 0.0478682574
C  C43  1  0.94780000  0.40580000  0.35250000  1.0 0.0478682574
C  C44  1  0.94780000  0.09420000  0.64750000  1.0 0.0478682574
C  C45  1  0.44780000  0.90580000  0.14750000  1.0 0.0478682574
C  C46  1  0.44780000  0.59420000  0.85250000  1.0 0.0478682574
C  C47  1  0.05220000  0.59420000  0.64750000  1.0 0.0478682574
C  C48  1  0.05220000  0.90580000  0.35250000  1.0 0.0478682574
C  C49  1  0.46670000  0.07810000  0.86640000  1.0 -0.048373608
C  C50  1  0.46670000  0.42190000  0.13360000  1.0 -0.048373608
C  C51  1  0.03330000  0.42190000  0.36640000  1.0 -0.048373608
C  C52  1  0.03330000  0.07810000  0.63360000  1.0 -0.048373608
C  C53  1  0.53330000  0.92190000  0.13360000  1.0 -0.048373608
C  C54  1  0.53330000  0.57810000  0.86640000  1.0 -0.048373608
C  C55  1  0.96670000  0.57810000  0.63360000  1.0 -0.048373608
C  C56  1  0.96670000  0.92190000  0.36640000  1.0 -0.048373608
C  C57  1  0.44490000  0.02470000  0.85840000  1.0 0.0478682574
C  C58  1  0.44490000  0.47530000  0.14160000  1.0 0.0478682574
C  C59  1  0.05510000  0.47530000  0.35840000  1.0 0.0478682574
C  C60  1  0.05510000  0.02470000  0.64160000  1.0 0.0478682574
C  C61  1  0.55510000  0.97530000  0.14160000  1.0 0.0478682574
C  C62  1  0.55510000  0.52470000  0.85840000  1.0 0.0478682574
C  C63  1  0.94490000  0.52470000  0.64160000  1.0 0.0478682574
C  C64  1  0.94490000  0.97530000  0.35840000  1.0 0.0478682574
C  C65  1  0.50480000  0.99070000  0.83600000  1.0 0.0393032658
C  C66  1  0.50480000  0.50930000  0.16400000  1.0 0.0393032658
C  C67  1  0.99520000  0.50930000  0.33600000  1.0 0.0393032658
C  C68  1  0.99520000  0.99070000  0.66400000  1.0 0.0393032658
C  C69  1  0.49520000  0.00930000  0.16400000  1.0 0.0393032658
C  C70  1  0.49520000  0.49070000  0.83600000  1.0 0.0393032658
C  C71  1  0.00480000  0.49070000  0.66400000  1.0 0.0393032658
C  C72  1  0.00480000  0.00930000  0.33600000  1.0 0.0393032658
C  C73  1  0.40130000  0.11710000  0.88580000  1.0 0.0319147672
C  C74  1  0.40130000  0.38290000  0.11420000  1.0 0.0319147672
C  C75  1  0.09870000  0.38290000  0.38580000  1.0 0.0319147672
C  C76  1  0.09870000  0.11710000  0.61420000  1.0 0.0319147672
C  C77  1  0.59870000  0.88290000  0.11420000  1.0 0.0319147672
C  C78  1  0.59870000  0.61710000  0.88580000  1.0 0.0319147672
C  C79  1  0.90130000  0.61710000  0.61420000  1.0 0.0319147672
C  C80  1  0.90130000  0.88290000  0.38580000  1.0 0.0319147672
C  C81  1  0.23970000  0.07790000  0.01580000  1.0 -0.0901316697
C  C82  1  0.23970000  0.42210000  0.98420000  1.0 -0.0901316697
C  C83  1  0.26030000  0.42210000  0.51580000  1.0 -0.0901316697
C  C84  1  0.26030000  0.07790000  0.48420000  1.0 -0.0901316697
C  C85  1  0.76030000  0.92210000  0.98420000  1.0 -0.0901316697
C  C86  1  0.76030000  0.57790000  0.01580000  1.0 -0.0901316697
C  C87  1  0.73970000  0.57790000  0.48420000  1.0 -0.0901316697
C  C88  1  0.73970000  0.92210000  0.51580000  1.0 -0.0901316697
C  C89  1  0.33130000  0.06980000  0.01490000  1.0 0.0581169067
C  C90  1  0.33130000  0.43020000  0.98510000  1.0 0.0581169067
C  C91  1  0.16870000  0.43020000  0.51490000  1.0 0.0581169067
C  C92  1  0.16870000  0.06980000  0.48510000  1.0 0.0581169067
C  C93  1  0.66870000  0.93020000  0.98510000  1.0 0.0581169067
C  C94  1  0.66870000  0.56980000  0.01490000  1.0 0.0478682574
C  C95  1  0.83130000  0.56980000  0.48510000  1.0 0.0581169067
C  C96  1  0.83130000  0.93020000  0.51490000  1.0 0.0581169067
C  C97  1  0.38590000  0.08430000  0.97420000  1.0 0.0393032658
C  C98  1  0.38590000  0.41570000  0.02580000  1.0 0.0393032658
C  C99  1  0.11410000  0.41570000  0.47420000  1.0 0.0393032658
C  C100  1  0.11410000  0.08430000  0.52580000  1.0 0.0393032658
C  C101  1  0.61410000  0.91570000  0.02580000  1.0 0.0393032658
C  C102  1  0.61410000  0.58430000  0.97420000  1.0 0.0393032658
C  C103  1  0.88590000  0.58430000  0.52580000  1.0 0.0393032658
C  C104  1  0.88590000  0.91570000  0.47420000  1.0 0.0393032658
C  C105  1  0.34500000  0.10400000  0.93070000  1.0 -0.048373608
C  C106  1  0.34500000  0.39600000  0.06930000  1.0 -0.048373608
C  C107  1  0.15500000  0.39600000  0.43070000  1.0 -0.0392006257
C  C108  1  0.15500000  0.10400000  0.56930000  1.0 -0.0392006257
C  C109  1  0.65500000  0.89600000  0.06930000  1.0 -0.048373608
C  C110  1  0.65500000  0.60400000  0.93070000  1.0 -0.048373608
C  C111  1  0.84500000  0.60400000  0.56930000  1.0 -0.048373608
C  C112  1  0.84500000  0.89600000  0.43070000  1.0 -0.048373608
C  C113  1  0.25220000  0.11170000  0.93140000  1.0 0.0478682574
C  C114  1  0.25220000  0.38830000  0.06860000  1.0 0.0478682574
C  C115  1  0.24780000  0.38830000  0.43140000  1.0 0.0478682574
C  C116  1  0.24780000  0.11170000  0.56860000  1.0 0.0478682574
C  C117  1  0.74780000  0.88830000  0.06860000  1.0 0.0478682574
C  C118  1  0.74780000  0.61170000  0.93140000  1.0 0.0478682574
C  C119  1  0.75220000  0.61170000  0.56860000  1.0 0.0478682574
C  C120  1  0.75220000  0.88830000  0.43140000  1.0 0.0478682574
C  C121  1  0.20230000  0.10000000  0.97290000  1.0 0.0319147672
C  C122  1  0.20230000  0.40000000  0.02710000  1.0 0.0319147672
C  C123  1  0.29770000  0.40000000  0.47290000  1.0 0.0393032658
C  C124  1  0.29770000  0.10000000  0.52710000  1.0 0.0393032658
C  C125  1  0.79770000  0.90000000  0.02710000  1.0 0.0319147672
C  C126  1  0.79770000  0.60000000  0.97290000  1.0 0.0319147672
C  C127  1  0.70230000  0.60000000  0.52710000  1.0 0.0319147672
C  C128  1  0.70230000  0.90000000  0.47290000  1.0 0.0319147672
C  C129  1  0.38990000  0.16870000  0.86050000  1.0 -0.048373608
C  C130  1  0.38990000  0.33130000  0.13950000  1.0 -0.048373608
C  C131  1  0.11010000  0.33130000  0.36050000  1.0 -0.048373608
C  C132  1  0.11010000  0.16870000  0.63950000  1.0 -0.048373608
C  C133  1  0.61010000  0.83130000  0.13950000  1.0 -0.048373608
C  C134  1  0.61010000  0.66870000  0.86050000  1.0 -0.048373608
C  C135  1  0.88990000  0.66870000  0.63950000  1.0 -0.048373608
C  C136  1  0.88990000  0.83130000  0.36050000  1.0 -0.048373608
C  C137  1  0.39100000  0.21690000  0.88680000  1.0 0.0478682574
C  C138  1  0.39100000  0.28310000  0.11320000  1.0 0.0478682574
C  C139  1  0.10900000  0.28310000  0.38680000  1.0 0.0478682574
C  C140  1  0.10900000  0.21690000  0.61320000  1.0 0.0478682574
C  C141  1  0.60900000  0.78310000  0.11320000  1.0 0.0478682574
C  C142  1  0.60900000  0.71690000  0.88680000  1.0 0.0478682574
C  C143  1  0.89100000  0.71690000  0.61320000  1.0 0.0478682574
C  C144  1  0.89100000  0.78310000  0.38680000  1.0 0.0478682574
C  C145  1  0.37900000  0.26570000  0.86370000  1.0 0.0581169067
C  C146  1  0.37900000  0.23430000  0.13630000  1.0 0.0581169067
C  C147  1  0.12100000  0.23430000  0.36370000  1.0 0.0581169067
C  C148  1  0.12100000  0.26570000  0.63630000  1.0 0.0581169067
C  C149  1  0.62100000  0.73430000  0.13630000  1.0 0.0581169067
C  C150  1  0.62100000  0.76570000  0.86370000  1.0 0.0581169067
C  C151  1  0.87900000  0.76570000  0.63630000  1.0 0.0581169067
C  C152  1  0.87900000  0.73430000  0.36370000  1.0 0.0581169067
C  C153  1  0.36700000  0.26930000  0.81250000  1.0 -0.1212551905
C  C154  1  0.36700000  0.23070000  0.18750000  1.0 -0.1212551905
C  C155  1  0.13300000  0.23070000  0.31250000  1.0 -0.1212551905
C  C156  1  0.13300000  0.26930000  0.68750000  1.0 -0.1212551905
C  C157  1  0.63300000  0.73070000  0.18750000  1.0 -0.1212551905
C  C158  1  0.63300000  0.76930000  0.81250000  1.0 -0.1212551905
C  C159  1  0.86700000  0.76930000  0.68750000  1.0 -0.1212551905
C  C160  1  0.86700000  0.73070000  0.31250000  1.0 -0.1212551905
C  C161  1  0.37020000  0.22180000  0.78520000  1.0 0.0478682574
C  C162  1  0.37020000  0.27820000  0.21480000  1.0 0.0478682574
C  C163  1  0.12980000  0.27820000  0.28520000  1.0 0.0478682574
C  C164  1  0.12980000  0.22180000  0.71480000  1.0 0.0478682574
C  C165  1  0.62980000  0.77820000  0.21480000  1.0 0.0478682574
C  C166  1  0.62980000  0.72180000  0.78520000  1.0 0.0478682574
C  C167  1  0.87020000  0.72180000  0.71480000  1.0 0.0478682574
C  C168  1  0.87020000  0.77820000  0.28520000  1.0 0.0478682574
C  C169  1  0.37940000  0.17270000  0.80810000  1.0 0.0393032658
C  C170  1  0.37940000  0.32730000  0.19190000  1.0 0.0393032658
C  C171  1  0.12060000  0.32730000  0.30810000  1.0 0.0393032658
C  C172  1  0.12060000  0.17270000  0.69190000  1.0 0.0393032658
C  C173  1  0.62060000  0.82730000  0.19190000  1.0 0.0393032658
C  C174  1  0.62060000  0.67270000  0.80810000  1.0 0.0393032658
C  C175  1  0.87940000  0.67270000  0.69190000  1.0 0.0393032658
C  C176  1  0.87940000  0.82730000  0.30810000  1.0 0.0393032658
Cl  Cl1  1  0.71935000  0.08050000  0.81314000  1.0 -0.0320525863
Cl  Cl2  1  0.71935000  0.41950000  0.18686000  1.0 -0.0320525863
Cl  Cl3  1  0.78065000  0.41950000  0.31314000  1.0 -0.0320525863
Cl  Cl4  1  0.78065000  0.08050000  0.68686000  1.0 -0.0320525863
Cl  Cl5  1  0.28065000  0.91950000  0.18686000  1.0 -0.0320525863
Cl  Cl6  1  0.28065000  0.58050000  0.81314000  1.0 -0.0320525863
Cl  Cl7  1  0.21935000  0.58050000  0.68686000  1.0 -0.0320525863
Cl  Cl8  1  0.21935000  0.91950000  0.31314000  1.0 -0.0320525863
Cl  Cl9  1  0.59030000  0.15804000  0.86565000  1.0 -0.0192081093
Cl  Cl10  1  0.59030000  0.34196000  0.13435000  1.0 -0.0192081093
Cl  Cl11  1  0.90970000  0.34196000  0.36565000  1.0 -0.0192081093
Cl  Cl12  1  0.90970000  0.15804000  0.63435000  1.0 -0.0192081093
Cl  Cl13  1  0.40970000  0.84196000  0.13435000  1.0 -0.0192081093
Cl  Cl14  1  0.40970000  0.65804000  0.86565000  1.0 -0.0192081093
Cl  Cl15  1  0.09030000  0.65804000  0.63435000  1.0 -0.0192081093
Cl  Cl16  1  0.09030000  0.84196000  0.36565000  1.0 -0.0192081093
Cl  Cl17  1  0.33887000  0.00129000  0.87340000  1.0 -0.0192081093
Cl  Cl18  1  0.33887000  0.49871000  0.12660000  1.0 -0.0192081093
Cl  Cl19  1  0.16113000  0.49871000  0.37340000  1.0 -0.0192081093
Cl  Cl20  1  0.16113000  0.00129000  0.62660000  1.0 -0.0192081093
Cl  Cl21  1  0.66113000  0.99871000  0.12660000  1.0 -0.0192081093
Cl  Cl22  1  0.66113000  0.50129000  0.87340000  1.0 -0.0192081093
Cl  Cl23  1  0.83887000  0.50129000  0.62660000  1.0 -0.0192081093
Cl  Cl24  1  0.83887000  0.99871000  0.37340000  1.0 -0.0192081093
Cl  Cl25  1  0.47616000  0.92405000  0.82728000  1.0 -0.0392006257
Cl  Cl26  1  0.47616000  0.57595000  0.17272000  1.0 -0.0392006257
Cl  Cl27  1  0.02384000  0.57595000  0.32728000  1.0 -0.0392006257
Cl  Cl28  1  0.02384000  0.92405000  0.67272000  1.0 -0.0392006257
Cl  Cl29  1  0.52384000  0.07595000  0.17272000  1.0 -0.0392006257
Cl  Cl30  1  0.52384000  0.42405000  0.82728000  1.0 -0.0392006257
Cl  Cl31  1  0.97616000  0.42405000  0.67272000  1.0 -0.0392006257
Cl  Cl32  1  0.97616000  0.07595000  0.32728000  1.0 -0.0392006257
Cl  Cl33  1  0.38110000  0.04173000  0.06711000  1.0 -0.0320525863
Cl  Cl34  1  0.38110000  0.45827000  0.93289000  1.0 -0.0320525863
Cl  Cl35  1  0.11890000  0.45827000  0.56711000  1.0 -0.0320525863
Cl  Cl36  1  0.11890000  0.04173000  0.43289000  1.0 -0.0320525863
Cl  Cl37  1  0.61890000  0.95827000  0.93289000  1.0 -0.0320525863
Cl  Cl38  1  0.61890000  0.54173000  0.06711000  1.0 -0.0192081093
Cl  Cl39  1  0.88110000  0.54173000  0.43289000  1.0 -0.0320525863
Cl  Cl40  1  0.88110000  0.95827000  0.56711000  1.0 -0.0320525863
Cl  Cl41  1  0.49988000  0.07766000  0.97872000  1.0 -0.048373608
Cl  Cl42  1  0.49988000  0.42234000  0.02128000  1.0 -0.048373608
Cl  Cl43  1  0.00012000  0.42234000  0.47872000  1.0 -0.048373608
Cl  Cl44  1  0.00012000  0.07766000  0.52128000  1.0 -0.048373608
Cl  Cl45  1  0.50012000  0.92234000  0.02128000  1.0 -0.048373608
Cl  Cl46  1  0.50012000  0.57766000  0.97872000  1.0 -0.048373608
Cl  Cl47  1  0.99988000  0.57766000  0.52128000  1.0 -0.048373608
Cl  Cl48  1  0.99988000  0.92234000  0.47872000  1.0 -0.048373608
Cl  Cl49  1  0.19740000  0.13288000  0.87740000  1.0 -0.048373608
Cl  Cl50  1  0.19740000  0.36712000  0.12260000  1.0 -0.048373608
Cl  Cl51  1  0.30260000  0.36712000  0.37740000  1.0 -0.048373608
Cl  Cl52  1  0.30260000  0.13288000  0.62260000  1.0 -0.048373608
Cl  Cl53  1  0.80260000  0.86712000  0.12260000  1.0 -0.048373608
Cl  Cl54  1  0.80260000  0.63288000  0.87740000  1.0 -0.048373608
Cl  Cl55  1  0.69740000  0.63288000  0.62260000  1.0 -0.048373608
Cl  Cl56  1  0.69740000  0.86712000  0.37740000  1.0 -0.048373608
Cl  Cl57  1  0.08558000  0.11071000  0.97330000  1.0 0.0054208898
Cl  Cl58  1  0.08558000  0.38929000  0.02670000  1.0 0.0054208898
Cl  Cl59  1  0.41442000  0.38929000  0.47330000  1.0 0.0031377619
Cl  Cl60  1  0.41442000  0.11071000  0.52670000  1.0 0.0031377619
Cl  Cl61  1  0.91442000  0.88929000  0.02670000  1.0 0.0031377619
Cl  Cl62  1  0.91442000  0.61071000  0.97330000  1.0 0.0031377619
Cl  Cl63  1  0.58558000  0.61071000  0.52670000  1.0 0.0054208898
Cl  Cl64  1  0.58558000  0.88929000  0.47330000  1.0 0.0054208898
Cl  Cl65  1  0.41440000  0.21603000  0.95034000  1.0 -0.0392006257
Cl  Cl66  1  0.41440000  0.28397000  0.04966000  1.0 -0.0392006257
Cl  Cl67  1  0.08560000  0.28397000  0.45034000  1.0 -0.0392006257
Cl  Cl68  1  0.08560000  0.21603000  0.54966000  1.0 -0.0392006257
Cl  Cl69  1  0.58560000  0.78397000  0.04966000  1.0 -0.0320525863
Cl  Cl70  1  0.58560000  0.71603000  0.95034000  1.0 -0.0320525863
Cl  Cl71  1  0.91440000  0.71603000  0.54966000  1.0 -0.0392006257
Cl  Cl72  1  0.91440000  0.78397000  0.45034000  1.0 -0.0392006257
Cl  Cl73  1  0.38470000  0.32363000  0.89815000  1.0 -0.0392006257
Cl  Cl74  1  0.38470000  0.17637000  0.10185000  1.0 -0.0392006257
Cl  Cl75  1  0.11530000  0.17637000  0.39815000  1.0 -0.0392006257
Cl  Cl76  1  0.11530000  0.32363000  0.60185000  1.0 -0.0392006257
Cl  Cl77  1  0.61530000  0.67637000  0.10185000  1.0 -0.0392006257
Cl  Cl78  1  0.61530000  0.82363000  0.89815000  1.0 -0.0392006257
Cl  Cl79  1  0.88470000  0.82363000  0.60185000  1.0 -0.0392006257
Cl  Cl80  1  0.88470000  0.67637000  0.39815000  1.0 -0.0392006257
Cl  Cl81  1  0.35534000  0.22308000  0.72100000  1.0 -0.0192081093
Cl  Cl82  1  0.35534000  0.27692000  0.27900000  1.0 -0.0192081093
Cl  Cl83  1  0.14466000  0.27692000  0.22100000  1.0 -0.0192081093
Cl  Cl84  1  0.14466000  0.22308000  0.77900000  1.0 -0.0192081093
Cl  Cl85  1  0.64466000  0.77692000  0.27900000  1.0 -0.0192081093
Cl  Cl86  1  0.64466000  0.72308000  0.72100000  1.0 -0.0192081093
Cl  Cl87  1  0.85534000  0.72308000  0.77900000  1.0 -0.0320525863
Cl  Cl88  1  0.85534000  0.77692000  0.22100000  1.0 -0.0320525863
Cl  Cl89  1  0.37091000  0.11560000  0.77286000  1.0 -0.0320525863
Cl  Cl90  1  0.37091000  0.38440000  0.22714000  1.0 -0.0320525863
Cl  Cl91  1  0.12909000  0.38440000  0.27286000  1.0 -0.0320525863
Cl  Cl92  1  0.12909000  0.11560000  0.72714000  1.0 -0.0320525863
Cl  Cl93  1  0.62909000  0.88440000  0.22714000  1.0 -0.0320525863
Cl  Cl94  1  0.62909000  0.61560000  0.77286000  1.0 -0.0320525863
Cl  Cl95  1  0.87091000  0.61560000  0.72714000  1.0 -0.0320525863
Cl  Cl96  1  0.87091000  0.88440000  0.27286000  1.0 -0.0320525863
O  O1  1  0.63930000  0.95410000  0.75408000  1.0 -0.6695877755
O  O2  1  0.63930000  0.54590000  0.24592000  1.0 -0.6695877755
O  O3  1  0.86070000  0.54590000  0.25408000  1.0 -0.6695877755
O  O4  1  0.86070000  0.95410000  0.74592000  1.0 -0.6695877755
O  O5  1  0.36070000  0.04590000  0.24592000  1.0 -0.6695877755
O  O6  1  0.36070000  0.45410000  0.75408000  1.0 -0.6695877755
O  O7  1  0.13930000  0.45410000  0.74592000  1.0 -0.6695877755
O  O8  1  0.13930000  0.04590000  0.25408000  1.0 -0.6695877755
O  O9  1  0.72230000  0.95490000  0.82342000  1.0 -0.6621867673
O  O10  1  0.72230000  0.54510000  0.17658000  1.0 -0.6621867673
O  O11  1  0.77770000  0.54510000  0.32342000  1.0 -0.6621867673
O  O12  1  0.77770000  0.95490000  0.67658000  1.0 -0.6621867673
O  O13  1  0.27770000  0.04510000  0.17658000  1.0 -0.6621867673
O  O14  1  0.27770000  0.45490000  0.82342000  1.0 -0.6621867673
O  O15  1  0.22230000  0.45490000  0.67658000  1.0 -0.6621867673
O  O16  1  0.22230000  0.04510000  0.32342000  1.0 -0.6621867673
O  O17  1  0.14910000  0.01810000  0.06080000  1.0 -0.4638893313
O  O18  1  0.14910000  0.48190000  0.93920000  1.0 -0.4638893313
O  O19  1  0.35090000  0.48190000  0.56080000  1.0 -0.4638893313
O  O20  1  0.35090000  0.01810000  0.43920000  1.0 -0.4655330734
O  O21  1  0.85090000  0.98190000  0.93920000  1.0 -0.4638893313
O  O22  1  0.85090000  0.51810000  0.06080000  1.0 -0.4655330734
O  O23  1  0.64910000  0.51810000  0.43920000  1.0 -0.4638893313
O  O24  1  0.64910000  0.98190000  0.56080000  1.0 -0.4638893313
O  O25  1  0.18040000  0.09560000  0.09604000  1.0 -0.6961522655
O  O26  1  0.18040000  0.40440000  0.90396000  1.0 -0.6961522655
O  O27  1  0.31960000  0.40440000  0.59604000  1.0 -0.6961522655
O  O28  1  0.31960000  0.09560000  0.40396000  1.0 -0.6961522655
O  O29  1  0.81960000  0.90440000  0.90396000  1.0 -0.6961522655
O  O30  1  0.81960000  0.59560000  0.09604000  1.0 -0.6961522655
O  O31  1  0.68040000  0.59560000  0.40396000  1.0 -0.6961522655
O  O32  1  0.68040000  0.90440000  0.59604000  1.0 -0.6961522655
O  O33  1  0.27190000  0.34200000  0.80430000  1.0 -0.6824406641
O  O34  1  0.27190000  0.15800000  0.19570000  1.0 -0.6824406641
O  O35  1  0.22810000  0.15800000  0.30430000  1.0 -0.6824406641
O  O36  1  0.22810000  0.34200000  0.69570000  1.0 -0.6824406641
O  O37  1  0.72810000  0.65800000  0.19570000  1.0 -0.6824406641
O  O38  1  0.72810000  0.84200000  0.80430000  1.0 -0.6824406641
O  O39  1  0.77190000  0.84200000  0.69570000  1.0 -0.6824406641
O  O40  1  0.77190000  0.65800000  0.30430000  1.0 -0.6824406641
O  O41  1  0.39140000  0.33740000  0.75250000  1.0 -0.6695877755
O  O42  1  0.39140000  0.16260000  0.24750000  1.0 -0.6695877755
O  O43  1  0.10860000  0.16260000  0.25250000  1.0 -0.6695877755
O  O44  1  0.10860000  0.33740000  0.74750000  1.0 -0.6695877755
O  O45  1  0.60860000  0.66260000  0.24750000  1.0 -0.6695877755
O  O46  1  0.60860000  0.83740000  0.75250000  1.0 -0.6695877755
O  O47  1  0.89140000  0.83740000  0.74750000  1.0 -0.6695877755
O  O48  1  0.89140000  0.66260000  0.25250000  1.0 -0.6695877755
