# DDEC6 charges by PACMAN v1.1 (https://github.com/mtap-research/PACMAN-charge/)
data_TASYUJ_ion_pacman
_symmetry_space_group_name_H-M   'P 1'
_cell_length_a   28.10430000
_cell_length_b   28.10430000
_cell_length_c   28.10430000
_cell_angle_alpha   109.47100000
_cell_angle_beta   109.47100000
_cell_angle_gamma   109.47100000
_symmetry_Int_Tables_number   1
_chemical_formula_structural   Cu5H96C132N44O39
_chemical_formula_sum   'Cu10 H192 C264 N88 O78'
_cell_volume   17088.34387637
_cell_formula_units_Z   2
loop_
 _symmetry_equiv_pos_site_id
 _symmetry_equiv_pos_as_xyz
  1  'x, y, z'
loop_
 _atom_site_type_symbol
 _atom_site_label
 _atom_site_symmetry_multiplicity
 _atom_site_fract_x
 _atom_site_fract_y
 _atom_site_fract_z
 _atom_site_occupancy
 _atom_site_charge
Cu  Cu1  1  0.50000000  0.50000000  0.50000000  1.0 0.370839179
Cu  Cu2  1  0.50000000  0.00000000  0.00000000  1.0 0.370839179
Cu  Cu3  1  0.00000000  0.00000000  0.50000000  1.0 0.370839179
Cu  Cu4  1  0.00000000  0.50000000  0.00000000  1.0 0.370839179
Cu  Cu5  1  0.00000000  0.76109000  0.76109000  1.0 0.5347724934
Cu  Cu6  1  0.76109000  0.00000000  0.76109000  1.0 0.5347724934
Cu  Cu7  1  0.00000000  0.23891000  0.23891000  1.0 0.5347724934
Cu  Cu8  1  0.23891000  0.00000000  0.23891000  1.0 0.5347724934
Cu  Cu9  1  0.23891000  0.23891000  0.00000000  1.0 0.5347724934
Cu  Cu10  1  0.76109000  0.76109000  0.00000000  1.0 0.5347724934
H  H1  1  0.79520000  0.69870000  0.71270000  1.0 0.1416021968
H  H2  1  0.69870000  0.98600000  0.90350000  1.0 0.1416021968
H  H3  1  0.98600000  0.08250000  0.28730000  1.0 0.1416021968
H  H4  1  0.08250000  0.79520000  0.09650000  1.0 0.1416021968
H  H5  1  0.01400000  0.71270000  0.91750000  1.0 0.1416021968
H  H6  1  0.20480000  0.91750000  0.90350000  1.0 0.1416021968
H  H7  1  0.98600000  0.90350000  0.69870000  1.0 0.1416021968
H  H8  1  0.09650000  0.08250000  0.79520000  1.0 0.1416021968
H  H9  1  0.01400000  0.30130000  0.09650000  1.0 0.1416021968
H  H10  1  0.71270000  0.91750000  0.01400000  1.0 0.1416021968
H  H11  1  0.71270000  0.79520000  0.69870000  1.0 0.1416021968
H  H12  1  0.69870000  0.71270000  0.79520000  1.0 0.1416021968
H  H13  1  0.91750000  0.90350000  0.20480000  1.0 0.1416021968
H  H14  1  0.28730000  0.98600000  0.08250000  1.0 0.1416021968
H  H15  1  0.08250000  0.28730000  0.98600000  1.0 0.1416021968
H  H16  1  0.09650000  0.01400000  0.30130000  1.0 0.1416021968
H  H17  1  0.90350000  0.20480000  0.91750000  1.0 0.1416021968
H  H18  1  0.30130000  0.09650000  0.01400000  1.0 0.1416021968
H  H19  1  0.91750000  0.01400000  0.71270000  1.0 0.1416021968
H  H20  1  0.30130000  0.20480000  0.28730000  1.0 0.1416021968
H  H21  1  0.79520000  0.09650000  0.08250000  1.0 0.1416021968
H  H22  1  0.20480000  0.28730000  0.30130000  1.0 0.1416021968
H  H23  1  0.90350000  0.69870000  0.98600000  1.0 0.1416021968
H  H24  1  0.28730000  0.30130000  0.20480000  1.0 0.1416021968
H  H25  1  0.71950000  0.60400000  0.66190000  1.0 0.2861859728
H  H26  1  0.60400000  0.94210000  0.88450000  1.0 0.2861859728
H  H27  1  0.94210000  0.05760000  0.33810000  1.0 0.2861859728
H  H28  1  0.05760000  0.71950000  0.11550000  1.0 0.2861859728
H  H29  1  0.05790000  0.66190000  0.94240000  1.0 0.2861859728
H  H30  1  0.28050000  0.94240000  0.88450000  1.0 0.2861859728
H  H31  1  0.94210000  0.88450000  0.60400000  1.0 0.2861859728
H  H32  1  0.11550000  0.05760000  0.71950000  1.0 0.2861859728
H  H33  1  0.05790000  0.39600000  0.11550000  1.0 0.2861859728
H  H34  1  0.66190000  0.94240000  0.05790000  1.0 0.2861859728
H  H35  1  0.66190000  0.71950000  0.60400000  1.0 0.2861859728
H  H36  1  0.60400000  0.66190000  0.71950000  1.0 0.2861859728
H  H37  1  0.94240000  0.88450000  0.28050000  1.0 0.2861859728
H  H38  1  0.33810000  0.94210000  0.05760000  1.0 0.2861859728
H  H39  1  0.05760000  0.33810000  0.94210000  1.0 0.2861859728
H  H40  1  0.11550000  0.05790000  0.39600000  1.0 0.2861859728
H  H41  1  0.88450000  0.28050000  0.94240000  1.0 0.2861859728
H  H42  1  0.39600000  0.11550000  0.05790000  1.0 0.2861859728
H  H43  1  0.94240000  0.05790000  0.66190000  1.0 0.2861859728
H  H44  1  0.39600000  0.28050000  0.33810000  1.0 0.2861859728
H  H45  1  0.71950000  0.11550000  0.05760000  1.0 0.2861859728
H  H46  1  0.28050000  0.33810000  0.39600000  1.0 0.2861859728
H  H47  1  0.88450000  0.60400000  0.94210000  1.0 0.2861859728
H  H48  1  0.33810000  0.39600000  0.28050000  1.0 0.2861859728
H  H49  1  0.89150000  0.76240000  0.74850000  1.0 0.1161770378
H  H50  1  0.76240000  0.01390000  0.87090000  1.0 0.1161770378
H  H51  1  0.01390000  0.14300000  0.25150000  1.0 0.1161770378
H  H52  1  0.14300000  0.89150000  0.12910000  1.0 0.1161770378
H  H53  1  0.98610000  0.74850000  0.85700000  1.0 0.1161770378
H  H54  1  0.10850000  0.85700000  0.87090000  1.0 0.1161770378
H  H55  1  0.01390000  0.87090000  0.76240000  1.0 0.1161770378
H  H56  1  0.12910000  0.14300000  0.89150000  1.0 0.1161770378
H  H57  1  0.98610000  0.23760000  0.12910000  1.0 0.1161770378
H  H58  1  0.74850000  0.85700000  0.98610000  1.0 0.1161770378
H  H59  1  0.74850000  0.89150000  0.76240000  1.0 0.1161770378
H  H60  1  0.76240000  0.74850000  0.89150000  1.0 0.1161770378
H  H61  1  0.85700000  0.87090000  0.10850000  1.0 0.1161770378
H  H62  1  0.25150000  0.01390000  0.14300000  1.0 0.1161770378
H  H63  1  0.14300000  0.25150000  0.01390000  1.0 0.1161770378
H  H64  1  0.12910000  0.98610000  0.23760000  1.0 0.1161770378
H  H65  1  0.87090000  0.10850000  0.85700000  1.0 0.1161770378
H  H66  1  0.23760000  0.12910000  0.98610000  1.0 0.1161770378
H  H67  1  0.85700000  0.98610000  0.74850000  1.0 0.1161770378
H  H68  1  0.23760000  0.10850000  0.25150000  1.0 0.1161770378
H  H69  1  0.89150000  0.12910000  0.14300000  1.0 0.1161770378
H  H70  1  0.10850000  0.25150000  0.23760000  1.0 0.1161770378
H  H71  1  0.87090000  0.76240000  0.01390000  1.0 0.1161770378
H  H72  1  0.25150000  0.23760000  0.10850000  1.0 0.1161770378
H  H73  1  0.64360000  0.44430000  0.64830000  1.0 0.1337869991
H  H74  1  0.44430000  0.79600000  0.80070000  1.0 0.1337869991
H  H75  1  0.79600000  0.99530000  0.35170000  1.0 0.1337869991
H  H76  1  0.99530000  0.64360000  0.19930000  1.0 0.1337869991
H  H77  1  0.20400000  0.64830000  0.00470000  1.0 0.1337869991
H  H78  1  0.35640000  0.00470000  0.80070000  1.0 0.1337869991
H  H79  1  0.79600000  0.80070000  0.44430000  1.0 0.1337869991
H  H80  1  0.19930000  0.99530000  0.64360000  1.0 0.1337869991
H  H81  1  0.20400000  0.55570000  0.19930000  1.0 0.1337869991
H  H82  1  0.64830000  0.00470000  0.20400000  1.0 0.1337869991
H  H83  1  0.64830000  0.64360000  0.44430000  1.0 0.1337869991
H  H84  1  0.44430000  0.64830000  0.64360000  1.0 0.1337869991
H  H85  1  0.00470000  0.80070000  0.35640000  1.0 0.1337869991
H  H86  1  0.35170000  0.79600000  0.99530000  1.0 0.1337869991
H  H87  1  0.99530000  0.35170000  0.79600000  1.0 0.1337869991
H  H88  1  0.19930000  0.20400000  0.55570000  1.0 0.1337869991
H  H89  1  0.80070000  0.35640000  0.00470000  1.0 0.1337869991
H  H90  1  0.55570000  0.19930000  0.20400000  1.0 0.1337869991
H  H91  1  0.00470000  0.20400000  0.64830000  1.0 0.1337869991
H  H92  1  0.55570000  0.35640000  0.35170000  1.0 0.1337869991
H  H93  1  0.64360000  0.19930000  0.99530000  1.0 0.1337869991
H  H94  1  0.35640000  0.35170000  0.55570000  1.0 0.1337869991
H  H95  1  0.80070000  0.44430000  0.79600000  1.0 0.1337869991
H  H96  1  0.35170000  0.55570000  0.35640000  1.0 0.1337869991
H  H97  1  0.82710000  0.56430000  0.66580000  1.0 0.1416021968
H  H98  1  0.56430000  0.89850000  0.73720000  1.0 0.1416021968
H  H99  1  0.89850000  0.16130000  0.33420000  1.0 0.1416021968
H  H100  1  0.16130000  0.82710000  0.26280000  1.0 0.1416021968
H  H101  1  0.10150000  0.66580000  0.83870000  1.0 0.1416021968
H  H102  1  0.17290000  0.83870000  0.73720000  1.0 0.1416021968
H  H103  1  0.89850000  0.73720000  0.56430000  1.0 0.1416021968
H  H104  1  0.26280000  0.16130000  0.82710000  1.0 0.1416021968
H  H105  1  0.10150000  0.43570000  0.26280000  1.0 0.1416021968
H  H106  1  0.66580000  0.83870000  0.10150000  1.0 0.1416021968
H  H107  1  0.66580000  0.82710000  0.56430000  1.0 0.1416021968
H  H108  1  0.56430000  0.66580000  0.82710000  1.0 0.1416021968
H  H109  1  0.83870000  0.73720000  0.17290000  1.0 0.1416021968
H  H110  1  0.33420000  0.89850000  0.16130000  1.0 0.1416021968
H  H111  1  0.16130000  0.33420000  0.89850000  1.0 0.1416021968
H  H112  1  0.26280000  0.10150000  0.43570000  1.0 0.1416021968
H  H113  1  0.73720000  0.17290000  0.83870000  1.0 0.1416021968
H  H114  1  0.43570000  0.26280000  0.10150000  1.0 0.1416021968
H  H115  1  0.83870000  0.10150000  0.66580000  1.0 0.1416021968
H  H116  1  0.43570000  0.17290000  0.33420000  1.0 0.1416021968
H  H117  1  0.82710000  0.26280000  0.16130000  1.0 0.1416021968
H  H118  1  0.17290000  0.33420000  0.43570000  1.0 0.1416021968
H  H119  1  0.73720000  0.56430000  0.89850000  1.0 0.1416021968
H  H120  1  0.33420000  0.43570000  0.17290000  1.0 0.1416021968
H  H121  1  0.63360000  0.54600000  0.57760000  1.0 0.0992787807
H  H122  1  0.54600000  0.96840000  0.91240000  1.0 0.0992787807
H  H123  1  0.96840000  0.05600000  0.42240000  1.0 0.0992787807
H  H124  1  0.05600000  0.63360000  0.08760000  1.0 0.0992787807
H  H125  1  0.03160000  0.57760000  0.94400000  1.0 0.0992787807
H  H126  1  0.36640000  0.94400000  0.91240000  1.0 0.0992787807
H  H127  1  0.96840000  0.91240000  0.54600000  1.0 0.0992787807
H  H128  1  0.08760000  0.05600000  0.63360000  1.0 0.0992787807
H  H129  1  0.03160000  0.45400000  0.08760000  1.0 0.0992787807
H  H130  1  0.57760000  0.94400000  0.03160000  1.0 0.0992787807
H  H131  1  0.57760000  0.63360000  0.54600000  1.0 0.0992787807
H  H132  1  0.54600000  0.57760000  0.63360000  1.0 0.0992787807
H  H133  1  0.94400000  0.91240000  0.36640000  1.0 0.0992787807
H  H134  1  0.42240000  0.96840000  0.05600000  1.0 0.0992787807
H  H135  1  0.05600000  0.42240000  0.96840000  1.0 0.0992787807
H  H136  1  0.08760000  0.03160000  0.45400000  1.0 0.0992787807
H  H137  1  0.91240000  0.36640000  0.94400000  1.0 0.0992787807
H  H138  1  0.45400000  0.08760000  0.03160000  1.0 0.0992787807
H  H139  1  0.94400000  0.03160000  0.57760000  1.0 0.0992787807
H  H140  1  0.45400000  0.36640000  0.42240000  1.0 0.0992787807
H  H141  1  0.63360000  0.08760000  0.05600000  1.0 0.0992787807
H  H142  1  0.36640000  0.42240000  0.45400000  1.0 0.0992787807
H  H143  1  0.91240000  0.54600000  0.96840000  1.0 0.0992787807
H  H144  1  0.42240000  0.45400000  0.36640000  1.0 0.0992787807
H  H145  1  0.54483000  0.40533000  0.61690000  1.0 0.1337869991
H  H146  1  0.40533000  0.78843000  0.86050000  1.0 0.1337869991
H  H147  1  0.78843000  0.92793000  0.38310000  1.0 0.1337869991
H  H148  1  0.92793000  0.54483000  0.13950000  1.0 0.1337869991
H  H149  1  0.21157000  0.61690000  0.07207000  1.0 0.1337869991
H  H150  1  0.45517000  0.07207000  0.86050000  1.0 0.1337869991
H  H151  1  0.78843000  0.86050000  0.40533000  1.0 0.1337869991
H  H152  1  0.13950000  0.92793000  0.54483000  1.0 0.1337869991
H  H153  1  0.21157000  0.59467000  0.13950000  1.0 0.1337869991
H  H154  1  0.61690000  0.07207000  0.21157000  1.0 0.1337869991
H  H155  1  0.61690000  0.54483000  0.40533000  1.0 0.1337869991
H  H156  1  0.40533000  0.61690000  0.54483000  1.0 0.1337869991
H  H157  1  0.07207000  0.86050000  0.45517000  1.0 0.1337869991
H  H158  1  0.38310000  0.78843000  0.92793000  1.0 0.1337869991
H  H159  1  0.92793000  0.38310000  0.78843000  1.0 0.1337869991
H  H160  1  0.13950000  0.21157000  0.59467000  1.0 0.1337869991
H  H161  1  0.86050000  0.45517000  0.07207000  1.0 0.1337869991
H  H162  1  0.59467000  0.13950000  0.21157000  1.0 0.1337869991
H  H163  1  0.07207000  0.21157000  0.61690000  1.0 0.1337869991
H  H164  1  0.59467000  0.45517000  0.38310000  1.0 0.1337869991
H  H165  1  0.54483000  0.13950000  0.92793000  1.0 0.1337869991
H  H166  1  0.45517000  0.38310000  0.59467000  1.0 0.1337869991
H  H167  1  0.86050000  0.40533000  0.78843000  1.0 0.1337869991
H  H168  1  0.38310000  0.59467000  0.45517000  1.0 0.1337869991
H  H169  1  0.92250000  0.63150000  0.70420000  1.0 0.1068031916
H  H170  1  0.63150000  0.92730000  0.70900000  1.0 0.1068031916
H  H171  1  0.92730000  0.21830000  0.29580000  1.0 0.1068031916
H  H172  1  0.21830000  0.92250000  0.29100000  1.0 0.1068031916
H  H173  1  0.07270000  0.70420000  0.78170000  1.0 0.1068031916
H  H174  1  0.07750000  0.78170000  0.70900000  1.0 0.1068031916
H  H175  1  0.92730000  0.70900000  0.63150000  1.0 0.1068031916
H  H176  1  0.29100000  0.21830000  0.92250000  1.0 0.1068031916
H  H177  1  0.07270000  0.36850000  0.29100000  1.0 0.1068031916
H  H178  1  0.70420000  0.78170000  0.07270000  1.0 0.1068031916
H  H179  1  0.70420000  0.92250000  0.63150000  1.0 0.1068031916
H  H180  1  0.63150000  0.70420000  0.92250000  1.0 0.1068031916
H  H181  1  0.78170000  0.70900000  0.07750000  1.0 0.1068031916
H  H182  1  0.29580000  0.92730000  0.21830000  1.0 0.1068031916
H  H183  1  0.21830000  0.29580000  0.92730000  1.0 0.1068031916
H  H184  1  0.29100000  0.07270000  0.36850000  1.0 0.1068031916
H  H185  1  0.70900000  0.07750000  0.78170000  1.0 0.1068031916
H  H186  1  0.36850000  0.29100000  0.07270000  1.0 0.1068031916
H  H187  1  0.78170000  0.07270000  0.70420000  1.0 0.1068031916
H  H188  1  0.36850000  0.07750000  0.29580000  1.0 0.1068031916
H  H189  1  0.92250000  0.29100000  0.21830000  1.0 0.1068031916
H  H190  1  0.07750000  0.29580000  0.36850000  1.0 0.1068031916
H  H191  1  0.70900000  0.63150000  0.92730000  1.0 0.1068031916
H  H192  1  0.29580000  0.36850000  0.07750000  1.0 0.1068031916
C  C1  1  0.82067000  0.68395000  0.70996000  1.0 -0.2084371577
C  C2  1  0.68395000  0.97399000  0.86328000  1.0 -0.2084371577
C  C3  1  0.97399000  0.11071000  0.29004000  1.0 -0.2084371577
C  C4  1  0.11071000  0.82067000  0.13672000  1.0 -0.2084371577
C  C5  1  0.02601000  0.70996000  0.88929000  1.0 -0.2084371577
C  C6  1  0.17933000  0.88929000  0.86328000  1.0 -0.2084371577
C  C7  1  0.97399000  0.86328000  0.68395000  1.0 -0.2084371577
C  C8  1  0.13672000  0.11071000  0.82067000  1.0 -0.2084371577
C  C9  1  0.02601000  0.31605000  0.13672000  1.0 -0.2084371577
C  C10  1  0.70996000  0.88929000  0.02601000  1.0 -0.2084371577
C  C11  1  0.70996000  0.82067000  0.68395000  1.0 -0.2084371577
C  C12  1  0.68395000  0.70996000  0.82067000  1.0 -0.2084371577
C  C13  1  0.88929000  0.86328000  0.17933000  1.0 -0.2084371577
C  C14  1  0.29004000  0.97399000  0.11071000  1.0 -0.2084371577
C  C15  1  0.11071000  0.29004000  0.97399000  1.0 -0.2084371577
C  C16  1  0.13672000  0.02601000  0.31605000  1.0 -0.2084371577
C  C17  1  0.86328000  0.17933000  0.88929000  1.0 -0.2084371577
C  C18  1  0.31605000  0.13672000  0.02601000  1.0 -0.2084371577
C  C19  1  0.88929000  0.02601000  0.70996000  1.0 -0.2084371577
C  C20  1  0.31605000  0.17933000  0.29004000  1.0 -0.2084371577
C  C21  1  0.82067000  0.13672000  0.11071000  1.0 -0.2084371577
C  C22  1  0.17933000  0.29004000  0.31605000  1.0 -0.2084371577
C  C23  1  0.86328000  0.68395000  0.97399000  1.0 -0.2084371577
C  C24  1  0.29004000  0.31605000  0.17933000  1.0 -0.2084371577
C  C25  1  0.87822000  0.72186000  0.73154000  1.0 0.0992787807
C  C26  1  0.72186000  0.99032000  0.84364000  1.0 0.0992787807
C  C27  1  0.99032000  0.14668000  0.26846000  1.0 0.0992787807
C  C28  1  0.14668000  0.87822000  0.15636000  1.0 0.0992787807
C  C29  1  0.00968000  0.73154000  0.85332000  1.0 0.0992787807
C  C30  1  0.12178000  0.85332000  0.84364000  1.0 0.0992787807
C  C31  1  0.99032000  0.84364000  0.72186000  1.0 0.0992787807
C  C32  1  0.15636000  0.14668000  0.87822000  1.0 0.0992787807
C  C33  1  0.00968000  0.27814000  0.15636000  1.0 0.0992787807
C  C34  1  0.73154000  0.85332000  0.00968000  1.0 0.0992787807
C  C35  1  0.73154000  0.87822000  0.72186000  1.0 0.0992787807
C  C36  1  0.72186000  0.73154000  0.87822000  1.0 0.0992787807
C  C37  1  0.85332000  0.84364000  0.12178000  1.0 0.0992787807
C  C38  1  0.26846000  0.99032000  0.14668000  1.0 0.0992787807
C  C39  1  0.14668000  0.26846000  0.99032000  1.0 0.0992787807
C  C40  1  0.15636000  0.00968000  0.27814000  1.0 0.0992787807
C  C41  1  0.84364000  0.12178000  0.85332000  1.0 0.0992787807
C  C42  1  0.27814000  0.15636000  0.00968000  1.0 0.0992787807
C  C43  1  0.85332000  0.00968000  0.73154000  1.0 0.0992787807
C  C44  1  0.27814000  0.12178000  0.26846000  1.0 0.0992787807
C  C45  1  0.87822000  0.15636000  0.14668000  1.0 0.0992787807
C  C46  1  0.12178000  0.26846000  0.27814000  1.0 0.0992787807
C  C47  1  0.84364000  0.72186000  0.99032000  1.0 0.0992787807
C  C48  1  0.26846000  0.27814000  0.12178000  1.0 0.0992787807
C  C49  1  0.62178000  0.45752000  0.62800000  1.0 -0.0602449215
C  C50  1  0.45752000  0.82952000  0.83574000  1.0 -0.0602449215
C  C51  1  0.82952000  0.99378000  0.37200000  1.0 -0.0602449215
C  C52  1  0.99378000  0.62178000  0.16426000  1.0 -0.0602449215
C  C53  1  0.17048000  0.62800000  0.00622000  1.0 -0.0602449215
C  C54  1  0.37822000  0.00622000  0.83574000  1.0 -0.0602449215
C  C55  1  0.82952000  0.83574000  0.45752000  1.0 -0.0602449215
C  C56  1  0.16426000  0.99378000  0.62178000  1.0 -0.0602449215
C  C57  1  0.17048000  0.54248000  0.16426000  1.0 -0.0602449215
C  C58  1  0.62800000  0.00622000  0.17048000  1.0 -0.0602449215
C  C59  1  0.62800000  0.62178000  0.45752000  1.0 -0.0602449215
C  C60  1  0.45752000  0.62800000  0.62178000  1.0 -0.0602449215
C  C61  1  0.00622000  0.83574000  0.37822000  1.0 -0.0602449215
C  C62  1  0.37200000  0.82952000  0.99378000  1.0 -0.0602449215
C  C63  1  0.99378000  0.37200000  0.82952000  1.0 -0.0602449215
C  C64  1  0.16426000  0.17048000  0.54248000  1.0 -0.0602449215
C  C65  1  0.83574000  0.37822000  0.00622000  1.0 -0.0602449215
C  C66  1  0.54248000  0.16426000  0.17048000  1.0 -0.0602449215
C  C67  1  0.00622000  0.17048000  0.62800000  1.0 -0.0602449215
C  C68  1  0.54248000  0.37822000  0.37200000  1.0 -0.0602449215
C  C69  1  0.62178000  0.16426000  0.99378000  1.0 -0.0602449215
C  C70  1  0.37822000  0.37200000  0.54248000  1.0 -0.0602449215
C  C71  1  0.83574000  0.45752000  0.82952000  1.0 -0.0602449215
C  C72  1  0.37200000  0.54248000  0.37822000  1.0 -0.0602449215
C  C73  1  0.53163000  0.45010000  0.57475000  1.0 0.1482415626
C  C74  1  0.45010000  0.87535000  0.91847000  1.0 0.1482415626
C  C75  1  0.87535000  0.95688000  0.42525000  1.0 0.1482415626
C  C76  1  0.95688000  0.53163000  0.08153000  1.0 0.1482415626
C  C77  1  0.12465000  0.57475000  0.04312000  1.0 0.1482415626
C  C78  1  0.46837000  0.04312000  0.91847000  1.0 0.1482415626
C  C79  1  0.87535000  0.91847000  0.45010000  1.0 0.1482415626
C  C80  1  0.08153000  0.95688000  0.53163000  1.0 0.1482415626
C  C81  1  0.12465000  0.54990000  0.08153000  1.0 0.1482415626
C  C82  1  0.57475000  0.04312000  0.12465000  1.0 0.1482415626
C  C83  1  0.57475000  0.53163000  0.45010000  1.0 0.1482415626
C  C84  1  0.45010000  0.57475000  0.53163000  1.0 0.1482415626
C  C85  1  0.04312000  0.91847000  0.46837000  1.0 0.1482415626
C  C86  1  0.42525000  0.87535000  0.95688000  1.0 0.1482415626
C  C87  1  0.95688000  0.42525000  0.87535000  1.0 0.1482415626
C  C88  1  0.08153000  0.12465000  0.54990000  1.0 0.1482415626
C  C89  1  0.91847000  0.46837000  0.04312000  1.0 0.1482415626
C  C90  1  0.54990000  0.08153000  0.12465000  1.0 0.1482415626
C  C91  1  0.04312000  0.12465000  0.57475000  1.0 0.1482415626
C  C92  1  0.54990000  0.46837000  0.42525000  1.0 0.1482415626
C  C93  1  0.53163000  0.08153000  0.95688000  1.0 0.1482415626
C  C94  1  0.46837000  0.42525000  0.54990000  1.0 0.1482415626
C  C95  1  0.91847000  0.45010000  0.87535000  1.0 0.1482415626
C  C96  1  0.42525000  0.54990000  0.46837000  1.0 0.1482415626
C  C97  1  0.83932000  0.60466000  0.68248000  1.0 -0.2153149168
C  C98  1  0.60466000  0.92218000  0.76534000  1.0 -0.2153149168
C  C99  1  0.92218000  0.15684000  0.31752000  1.0 -0.2084371577
C  C100  1  0.15684000  0.83932000  0.23466000  1.0 -0.2153149168
C  C101  1  0.07782000  0.68248000  0.84316000  1.0 -0.2153149168
C  C102  1  0.16068000  0.84316000  0.76534000  1.0 -0.2153149168
C  C103  1  0.92218000  0.76534000  0.60466000  1.0 -0.2153149168
C  C104  1  0.23466000  0.15684000  0.83932000  1.0 -0.2153149168
C  C105  1  0.07782000  0.39534000  0.23466000  1.0 -0.2153149168
C  C106  1  0.68248000  0.84316000  0.07782000  1.0 -0.2153149168
C  C107  1  0.68248000  0.83932000  0.60466000  1.0 -0.2153149168
C  C108  1  0.60466000  0.68248000  0.83932000  1.0 -0.2153149168
C  C109  1  0.84316000  0.76534000  0.16068000  1.0 -0.2153149168
C  C110  1  0.31752000  0.92218000  0.15684000  1.0 -0.2153149168
C  C111  1  0.15684000  0.31752000  0.92218000  1.0 -0.2153149168
C  C112  1  0.23466000  0.07782000  0.39534000  1.0 -0.2153149168
C  C113  1  0.76534000  0.16068000  0.84316000  1.0 -0.2084371577
C  C114  1  0.39534000  0.23466000  0.07782000  1.0 -0.2153149168
C  C115  1  0.84316000  0.07782000  0.68248000  1.0 -0.2084371577
C  C116  1  0.39534000  0.16068000  0.31752000  1.0 -0.2153149168
C  C117  1  0.83932000  0.23466000  0.15684000  1.0 -0.2084371577
C  C118  1  0.16068000  0.31752000  0.39534000  1.0 -0.2153149168
C  C119  1  0.76534000  0.60466000  0.92218000  1.0 -0.2153149168
C  C120  1  0.31752000  0.39534000  0.16068000  1.0 -0.2153149168
C  C121  1  0.79920000  0.62398000  0.68402000  1.0 0.2861859728
C  C122  1  0.62398000  0.93996000  0.82478000  1.0 0.2861859728
C  C123  1  0.93996000  0.11518000  0.31598000  1.0 0.2861859728
C  C124  1  0.11518000  0.79920000  0.17522000  1.0 0.2861859728
C  C125  1  0.06004000  0.68402000  0.88482000  1.0 0.2861859728
C  C126  1  0.20080000  0.88482000  0.82478000  1.0 0.2861859728
C  C127  1  0.93996000  0.82478000  0.62398000  1.0 0.2861859728
C  C128  1  0.17522000  0.11518000  0.79920000  1.0 0.2861859728
C  C129  1  0.06004000  0.37602000  0.17522000  1.0 0.2861859728
C  C130  1  0.68402000  0.88482000  0.06004000  1.0 0.2861859728
C  C131  1  0.68402000  0.79920000  0.62398000  1.0 0.2861859728
C  C132  1  0.62398000  0.68402000  0.79920000  1.0 0.2861859728
C  C133  1  0.88482000  0.82478000  0.20080000  1.0 0.2861859728
C  C134  1  0.31598000  0.93996000  0.11518000  1.0 0.2861859728
C  C135  1  0.11518000  0.31598000  0.93996000  1.0 0.2861859728
C  C136  1  0.17522000  0.06004000  0.37602000  1.0 0.2861859728
C  C137  1  0.82478000  0.20080000  0.88482000  1.0 0.2861859728
C  C138  1  0.37602000  0.17522000  0.06004000  1.0 0.2861859728
C  C139  1  0.88482000  0.06004000  0.68402000  1.0 0.2861859728
C  C140  1  0.37602000  0.20080000  0.31598000  1.0 0.2861859728
C  C141  1  0.79920000  0.17522000  0.11518000  1.0 0.2861859728
C  C142  1  0.20080000  0.31598000  0.37602000  1.0 0.2861859728
C  C143  1  0.82478000  0.62398000  0.93996000  1.0 0.2861859728
C  C144  1  0.31598000  0.37602000  0.20080000  1.0 0.2861859728
C  C145  1  0.61509000  0.51668000  0.58523000  1.0 0.0501891752
C  C146  1  0.51668000  0.93145000  0.90159000  1.0 0.0501891752
C  C147  1  0.93145000  0.02986000  0.41477000  1.0 0.0501891752
C  C148  1  0.02986000  0.61509000  0.09841000  1.0 0.0501891752
C  C149  1  0.06855000  0.58523000  0.97014000  1.0 0.0501891752
C  C150  1  0.38491000  0.97014000  0.90159000  1.0 0.0501891752
C  C151  1  0.93145000  0.90159000  0.51668000  1.0 0.0501891752
C  C152  1  0.09841000  0.02986000  0.61509000  1.0 0.0501891752
C  C153  1  0.06855000  0.48332000  0.09841000  1.0 0.0501891752
C  C154  1  0.58523000  0.97014000  0.06855000  1.0 0.0501891752
C  C155  1  0.58523000  0.61509000  0.51668000  1.0 0.0501891752
C  C156  1  0.51668000  0.58523000  0.61509000  1.0 0.0501891752
C  C157  1  0.97014000  0.90159000  0.38491000  1.0 0.0501891752
C  C158  1  0.41477000  0.93145000  0.02986000  1.0 0.0501891752
C  C159  1  0.02986000  0.41477000  0.93145000  1.0 0.0501891752
C  C160  1  0.09841000  0.06855000  0.48332000  1.0 0.0501891752
C  C161  1  0.90159000  0.38491000  0.97014000  1.0 0.0501891752
C  C162  1  0.48332000  0.09841000  0.06855000  1.0 0.0501891752
C  C163  1  0.97014000  0.06855000  0.58523000  1.0 0.0501891752
C  C164  1  0.48332000  0.38491000  0.41477000  1.0 0.0501891752
C  C165  1  0.61509000  0.09841000  0.02986000  1.0 0.0501891752
C  C166  1  0.38491000  0.41477000  0.48332000  1.0 0.0501891752
C  C167  1  0.90159000  0.51668000  0.93145000  1.0 0.0501891752
C  C168  1  0.41477000  0.48332000  0.38491000  1.0 0.0501891752
C  C169  1  0.56346000  0.43335000  0.60803000  1.0 -0.1779423476
C  C170  1  0.43335000  0.82532000  0.86989000  1.0 -0.1779423476
C  C171  1  0.82532000  0.95543000  0.39197000  1.0 -0.1779423476
C  C172  1  0.95543000  0.56346000  0.13011000  1.0 -0.1779423476
C  C173  1  0.17468000  0.60803000  0.04457000  1.0 -0.1779423476
C  C174  1  0.43654000  0.04457000  0.86989000  1.0 -0.1779423476
C  C175  1  0.82532000  0.86989000  0.43335000  1.0 -0.1779423476
C  C176  1  0.13011000  0.95543000  0.56346000  1.0 -0.1779423476
C  C177  1  0.17468000  0.56665000  0.13011000  1.0 -0.1779423476
C  C178  1  0.60803000  0.04457000  0.17468000  1.0 -0.1779423476
C  C179  1  0.60803000  0.56346000  0.43335000  1.0 -0.1779423476
C  C180  1  0.43335000  0.60803000  0.56346000  1.0 -0.1779423476
C  C181  1  0.04457000  0.86989000  0.43654000  1.0 -0.1779423476
C  C182  1  0.39197000  0.82532000  0.95543000  1.0 -0.1779423476
C  C183  1  0.95543000  0.39197000  0.82532000  1.0 -0.1779423476
C  C184  1  0.13011000  0.17468000  0.56665000  1.0 -0.1779423476
C  C185  1  0.86989000  0.43654000  0.04457000  1.0 -0.1779423476
C  C186  1  0.56665000  0.13011000  0.17468000  1.0 -0.1779423476
C  C187  1  0.04457000  0.17468000  0.60803000  1.0 -0.1779423476
C  C188  1  0.56665000  0.43654000  0.39197000  1.0 -0.1779423476
C  C189  1  0.56346000  0.13011000  0.95543000  1.0 -0.1779423476
C  C190  1  0.43654000  0.39197000  0.56665000  1.0 -0.1779423476
C  C191  1  0.86989000  0.43335000  0.82532000  1.0 -0.1779423476
C  C192  1  0.39197000  0.56665000  0.43654000  1.0 -0.1779423476
C  C193  1  0.89580000  0.64492000  0.70524000  1.0 0.0501891752
C  C194  1  0.64492000  0.93968000  0.74912000  1.0 0.0501891752
C  C195  1  0.93968000  0.19056000  0.29476000  1.0 0.0501891752
C  C196  1  0.19056000  0.89580000  0.25088000  1.0 0.0501891752
C  C197  1  0.06032000  0.70524000  0.80944000  1.0 0.0501891752
C  C198  1  0.10420000  0.80944000  0.74912000  1.0 0.0501891752
C  C199  1  0.93968000  0.74912000  0.64492000  1.0 0.0501891752
C  C200  1  0.25088000  0.19056000  0.89580000  1.0 0.0501891752
C  C201  1  0.06032000  0.35508000  0.25088000  1.0 0.0501891752
C  C202  1  0.70524000  0.80944000  0.06032000  1.0 0.0501891752
C  C203  1  0.70524000  0.89580000  0.64492000  1.0 0.0501891752
C  C204  1  0.64492000  0.70524000  0.89580000  1.0 0.0501891752
C  C205  1  0.80944000  0.74912000  0.10420000  1.0 0.0501891752
C  C206  1  0.29476000  0.93968000  0.19056000  1.0 0.0501891752
C  C207  1  0.19056000  0.29476000  0.93968000  1.0 0.0501891752
C  C208  1  0.25088000  0.06032000  0.35508000  1.0 0.0501891752
C  C209  1  0.74912000  0.10420000  0.80944000  1.0 0.0501891752
C  C210  1  0.35508000  0.25088000  0.06032000  1.0 0.0501891752
C  C211  1  0.80944000  0.06032000  0.70524000  1.0 0.0501891752
C  C212  1  0.35508000  0.10420000  0.29476000  1.0 0.0501891752
C  C213  1  0.89580000  0.25088000  0.19056000  1.0 0.0501891752
C  C214  1  0.10420000  0.29476000  0.35508000  1.0 0.0501891752
C  C215  1  0.74912000  0.64492000  0.93968000  1.0 0.0501891752
C  C216  1  0.29476000  0.35508000  0.10420000  1.0 0.0501891752
C  C217  1  0.71444000  0.52949000  0.64149000  1.0 0.4606881854
C  C218  1  0.52949000  0.88800000  0.81505000  1.0 0.4606881854
C  C219  1  0.88800000  0.07295000  0.35851000  1.0 0.4606881854
C  C220  1  0.07295000  0.71444000  0.18495000  1.0 0.4606881854
C  C221  1  0.11200000  0.64149000  0.92705000  1.0 0.4606881854
C  C222  1  0.28556000  0.92705000  0.81505000  1.0 0.4606881854
C  C223  1  0.88800000  0.81505000  0.52949000  1.0 0.4606881854
C  C224  1  0.18495000  0.07295000  0.71444000  1.0 0.4606881854
C  C225  1  0.11200000  0.47051000  0.18495000  1.0 0.4606881854
C  C226  1  0.64149000  0.92705000  0.11200000  1.0 0.4606881854
C  C227  1  0.64149000  0.71444000  0.52949000  1.0 0.4606881854
C  C228  1  0.52949000  0.64149000  0.71444000  1.0 0.4606881854
C  C229  1  0.92705000  0.81505000  0.28556000  1.0 0.4606881854
C  C230  1  0.35851000  0.88800000  0.07295000  1.0 0.4606881854
C  C231  1  0.07295000  0.35851000  0.88800000  1.0 0.4606881854
C  C232  1  0.18495000  0.11200000  0.47051000  1.0 0.4606881854
C  C233  1  0.81505000  0.28556000  0.92705000  1.0 0.4606881854
C  C234  1  0.47051000  0.18495000  0.11200000  1.0 0.4606881854
C  C235  1  0.92705000  0.11200000  0.64149000  1.0 0.4606881854
C  C236  1  0.47051000  0.28556000  0.35851000  1.0 0.4606881854
C  C237  1  0.71444000  0.18495000  0.07295000  1.0 0.4606881854
C  C238  1  0.28556000  0.35851000  0.47051000  1.0 0.4606881854
C  C239  1  0.81505000  0.52949000  0.88800000  1.0 0.4606881854
C  C240  1  0.35851000  0.47051000  0.28556000  1.0 0.4606881854
C  C241  1  0.64876000  0.50104000  0.61866000  1.0 -0.0602449215
C  C242  1  0.50104000  0.88238000  0.85228000  1.0 -0.0602449215
C  C243  1  0.88238000  0.03010000  0.38134000  1.0 -0.0602449215
C  C244  1  0.03010000  0.64876000  0.14772000  1.0 -0.0602449215
C  C245  1  0.11762000  0.61866000  0.96990000  1.0 -0.0602449215
C  C246  1  0.35124000  0.96990000  0.85228000  1.0 -0.0602449215
C  C247  1  0.88238000  0.85228000  0.50104000  1.0 -0.0602449215
C  C248  1  0.14772000  0.03010000  0.64876000  1.0 -0.0602449215
C  C249  1  0.11762000  0.49896000  0.14772000  1.0 -0.0602449215
C  C250  1  0.61866000  0.96990000  0.11762000  1.0 -0.0602449215
C  C251  1  0.61866000  0.64876000  0.50104000  1.0 -0.0602449215
C  C252  1  0.50104000  0.61866000  0.64876000  1.0 -0.0602449215
C  C253  1  0.96990000  0.85228000  0.35124000  1.0 -0.0602449215
C  C254  1  0.38134000  0.88238000  0.03010000  1.0 -0.0602449215
C  C255  1  0.03010000  0.38134000  0.88238000  1.0 -0.0602449215
C  C256  1  0.14772000  0.11762000  0.49896000  1.0 -0.0602449215
C  C257  1  0.85228000  0.35124000  0.96990000  1.0 -0.0602449215
C  C258  1  0.49896000  0.14772000  0.11762000  1.0 -0.0602449215
C  C259  1  0.96990000  0.11762000  0.61866000  1.0 -0.0602449215
C  C260  1  0.49896000  0.35124000  0.38134000  1.0 -0.0602449215
C  C261  1  0.64876000  0.14772000  0.03010000  1.0 -0.0602449215
C  C262  1  0.35124000  0.38134000  0.49896000  1.0 -0.0602449215
C  C263  1  0.85228000  0.50104000  0.88238000  1.0 -0.0602449215
C  C264  1  0.38134000  0.49896000  0.35124000  1.0 -0.0602449215
N  N1  1  0.55795000  0.49197000  0.56372000  1.0 -0.2383398465
N  N2  1  0.49197000  0.92825000  0.93402000  1.0 -0.2383398465
N  N3  1  0.92825000  0.99423000  0.43628000  1.0 -0.2383398465
N  N4  1  0.99423000  0.55795000  0.06598000  1.0 -0.2383398465
N  N5  1  0.07175000  0.56372000  0.00577000  1.0 -0.2383398465
N  N6  1  0.44205000  0.00577000  0.93402000  1.0 -0.2383398465
N  N7  1  0.92825000  0.93402000  0.49197000  1.0 -0.2383398465
N  N8  1  0.06598000  0.99423000  0.55795000  1.0 -0.2383398465
N  N9  1  0.07175000  0.50803000  0.06598000  1.0 -0.2383398465
N  N10  1  0.56372000  0.00577000  0.07175000  1.0 -0.2383398465
N  N11  1  0.56372000  0.55795000  0.49197000  1.0 -0.2383398465
N  N12  1  0.49197000  0.56372000  0.55795000  1.0 -0.2383398465
N  N13  1  0.00577000  0.93402000  0.44205000  1.0 -0.2383398465
N  N14  1  0.43628000  0.92825000  0.99423000  1.0 -0.2383398465
N  N15  1  0.99423000  0.43628000  0.92825000  1.0 -0.2383398465
N  N16  1  0.06598000  0.07175000  0.50803000  1.0 -0.2383398465
N  N17  1  0.93402000  0.44205000  0.00577000  1.0 -0.2383398465
N  N18  1  0.50803000  0.06598000  0.07175000  1.0 -0.2383398465
N  N19  1  0.00577000  0.07175000  0.56372000  1.0 -0.2383398465
N  N20  1  0.50803000  0.44205000  0.43628000  1.0 -0.2383398465
N  N21  1  0.55795000  0.06598000  0.99423000  1.0 -0.2383398465
N  N22  1  0.44205000  0.43628000  0.50803000  1.0 -0.2383398465
N  N23  1  0.93402000  0.49197000  0.92825000  1.0 -0.2383398465
N  N24  1  0.43628000  0.50803000  0.44205000  1.0 -0.2383398465
N  N25  1  0.91637000  0.70356000  0.72947000  1.0 -0.246091628
N  N26  1  0.70356000  0.97409000  0.78719000  1.0 -0.246091628
N  N27  1  0.97409000  0.18690000  0.27053000  1.0 -0.246091628
N  N28  1  0.18690000  0.91637000  0.21281000  1.0 -0.246091628
N  N29  1  0.02591000  0.72947000  0.81310000  1.0 -0.246091628
N  N30  1  0.08363000  0.81310000  0.78719000  1.0 -0.246091628
N  N31  1  0.97409000  0.78719000  0.70356000  1.0 -0.246091628
N  N32  1  0.21281000  0.18690000  0.91637000  1.0 -0.246091628
N  N33  1  0.02591000  0.29644000  0.21281000  1.0 -0.246091628
N  N34  1  0.72947000  0.81310000  0.02591000  1.0 -0.246091628
N  N35  1  0.72947000  0.91637000  0.70356000  1.0 -0.246091628
N  N36  1  0.70356000  0.72947000  0.91637000  1.0 -0.246091628
N  N37  1  0.81310000  0.78719000  0.08363000  1.0 -0.246091628
N  N38  1  0.27053000  0.97409000  0.18690000  1.0 -0.246091628
N  N39  1  0.18690000  0.27053000  0.97409000  1.0 -0.246091628
N  N40  1  0.21281000  0.02591000  0.29644000  1.0 -0.246091628
N  N41  1  0.78719000  0.08363000  0.81310000  1.0 -0.246091628
N  N42  1  0.29644000  0.21281000  0.02591000  1.0 -0.246091628
N  N43  1  0.81310000  0.02591000  0.72947000  1.0 -0.246091628
N  N44  1  0.29644000  0.08363000  0.27053000  1.0 -0.246091628
N  N45  1  0.91637000  0.21281000  0.18690000  1.0 -0.246091628
N  N46  1  0.08363000  0.27053000  0.29644000  1.0 -0.246091628
N  N47  1  0.78719000  0.70356000  0.97409000  1.0 -0.246091628
N  N48  1  0.27053000  0.29644000  0.08363000  1.0 -0.246091628
N  N49  1  0.74145000  0.58781000  0.66236000  1.0 -0.3472735952
N  N50  1  0.58781000  0.92545000  0.84636000  1.0 -0.3472735952
N  N51  1  0.92545000  0.07909000  0.33764000  1.0 -0.3472735952
N  N52  1  0.07909000  0.74145000  0.15364000  1.0 -0.3472735952
N  N53  1  0.07455000  0.66236000  0.92091000  1.0 -0.3472735952
N  N54  1  0.25855000  0.92091000  0.84636000  1.0 -0.3472735952
N  N55  1  0.92545000  0.84636000  0.58781000  1.0 -0.3472735952
N  N56  1  0.15364000  0.07909000  0.74145000  1.0 -0.3472735952
N  N57  1  0.07455000  0.41219000  0.15364000  1.0 -0.3472735952
N  N58  1  0.66236000  0.92091000  0.07455000  1.0 -0.3472735952
N  N59  1  0.66236000  0.74145000  0.58781000  1.0 -0.3472735952
N  N60  1  0.58781000  0.66236000  0.74145000  1.0 -0.3472735952
N  N61  1  0.92091000  0.84636000  0.25855000  1.0 -0.3472735952
N  N62  1  0.33764000  0.92545000  0.07909000  1.0 -0.3472735952
N  N63  1  0.07909000  0.33764000  0.92545000  1.0 -0.3472735952
N  N64  1  0.15364000  0.07455000  0.41219000  1.0 -0.3472735952
N  N65  1  0.84636000  0.25855000  0.92091000  1.0 -0.3472735952
N  N66  1  0.41219000  0.15364000  0.07455000  1.0 -0.3472735952
N  N67  1  0.92091000  0.07455000  0.66236000  1.0 -0.3472735952
N  N68  1  0.41219000  0.25855000  0.33764000  1.0 -0.3472735952
N  N69  1  0.74145000  0.15364000  0.07909000  1.0 -0.3472735952
N  N70  1  0.25855000  0.33764000  0.41219000  1.0 -0.3472735952
N  N71  1  0.84636000  0.58781000  0.92545000  1.0 -0.3472735952
N  N72  1  0.33764000  0.41219000  0.25855000  1.0 -0.3472735952
N  N73  1  0.19440000  0.19440000  0.19440000  1.0 0.6765907982
N  N74  1  0.00000000  0.19440000  0.00000000  1.0 0.6765907982
N  N75  1  0.00000000  0.00000000  0.80560000  1.0 0.6719896454
N  N76  1  0.19440000  0.00000000  0.00000000  1.0 0.6765907982
N  N77  1  0.00000000  0.80560000  0.00000000  1.0 0.6765907982
N  N78  1  0.00000000  0.00000000  0.19440000  1.0 0.6765907982
N  N79  1  0.80560000  0.00000000  0.00000000  1.0 0.6765907982
N  N80  1  0.80560000  0.80560000  0.80560000  1.0 0.6719896454
N  N81  1  0.33388000  0.33388000  0.33388000  1.0 0.6719896454
N  N82  1  0.00000000  0.33388000  0.00000000  1.0 0.6719896454
N  N83  1  0.00000000  0.00000000  0.66612000  1.0 0.6719896454
N  N84  1  0.33388000  0.00000000  0.00000000  1.0 0.6719896454
N  N85  1  0.00000000  0.66612000  0.00000000  1.0 0.6719896454
N  N86  1  0.00000000  0.00000000  0.33388000  1.0 0.6719896454
N  N87  1  0.66612000  0.00000000  0.00000000  1.0 0.6719896454
N  N88  1  0.66612000  0.66612000  0.66612000  1.0 0.6719896454
O  O1  1  0.00000000  0.83226000  0.83226000  1.0 -0.3167441766
O  O2  1  0.83226000  0.00000000  0.83226000  1.0 -0.3167441766
O  O3  1  0.00000000  0.16774000  0.16774000  1.0 -0.3167441766
O  O4  1  0.16774000  0.00000000  0.16774000  1.0 -0.3167441766
O  O5  1  0.16774000  0.16774000  0.00000000  1.0 -0.3167441766
O  O6  1  0.83226000  0.83226000  0.00000000  1.0 -0.3140205066
O  O7  1  0.73761000  0.50074000  0.64215000  1.0 -0.4101745904
O  O8  1  0.50074000  0.85859000  0.76313000  1.0 -0.4101745904
O  O9  1  0.85859000  0.09546000  0.35785000  1.0 -0.4101745904
O  O10  1  0.09546000  0.73761000  0.23687000  1.0 -0.4101745904
O  O11  1  0.14141000  0.64215000  0.90454000  1.0 -0.4101745904
O  O12  1  0.26239000  0.90454000  0.76313000  1.0 -0.4101745904
O  O13  1  0.85859000  0.76313000  0.50074000  1.0 -0.4101745904
O  O14  1  0.23687000  0.09546000  0.73761000  1.0 -0.4101745904
O  O15  1  0.14141000  0.49926000  0.23687000  1.0 -0.4101745904
O  O16  1  0.64215000  0.90454000  0.14141000  1.0 -0.4101745904
O  O17  1  0.64215000  0.73761000  0.50074000  1.0 -0.4101745904
O  O18  1  0.50074000  0.64215000  0.73761000  1.0 -0.4101745904
O  O19  1  0.90454000  0.76313000  0.26239000  1.0 -0.4101745904
O  O20  1  0.35785000  0.85859000  0.09546000  1.0 -0.4101745904
O  O21  1  0.09546000  0.35785000  0.85859000  1.0 -0.4101745904
O  O22  1  0.23687000  0.14141000  0.49926000  1.0 -0.4101745904
O  O23  1  0.76313000  0.26239000  0.90454000  1.0 -0.4101745904
O  O24  1  0.49926000  0.23687000  0.14141000  1.0 -0.4101745904
O  O25  1  0.90454000  0.14141000  0.64215000  1.0 -0.4101745904
O  O26  1  0.49926000  0.26239000  0.35785000  1.0 -0.4101745904
O  O27  1  0.73761000  0.23687000  0.09546000  1.0 -0.4101745904
O  O28  1  0.26239000  0.35785000  0.49926000  1.0 -0.4101745904
O  O29  1  0.76313000  0.50074000  0.85859000  1.0 -0.4101745904
O  O30  1  0.35785000  0.49926000  0.26239000  1.0 -0.4101745904
O  O31  1  0.22218000  0.18144000  0.17126000  1.0 -0.4101745904
O  O32  1  0.18144000  0.17126000  0.22218000  1.0 -0.4101745904
O  O33  1  0.17126000  0.22218000  0.18144000  1.0 -0.4101745904
O  O34  1  0.05092000  0.22218000  0.04074000  1.0 -0.4101745904
O  O35  1  0.98982000  0.17126000  0.94908000  1.0 -0.4101745904
O  O36  1  0.95926000  0.18144000  0.01018000  1.0 -0.4101745904
O  O37  1  0.94908000  0.95926000  0.77782000  1.0 -0.4101745904
O  O38  1  0.04074000  0.98982000  0.81856000  1.0 -0.4101745904
O  O39  1  0.01018000  0.05092000  0.82874000  1.0 -0.4101745904
O  O40  1  0.18144000  0.01018000  0.95926000  1.0 -0.4101745904
O  O41  1  0.17126000  0.94908000  0.98982000  1.0 -0.4101745904
O  O42  1  0.22218000  0.04074000  0.05092000  1.0 -0.4101745904
O  O43  1  0.98982000  0.81856000  0.04074000  1.0 -0.4101745904
O  O44  1  0.05092000  0.82874000  0.01018000  1.0 -0.4101745904
O  O45  1  0.95926000  0.77782000  0.94908000  1.0 -0.4101745904
O  O46  1  0.94908000  0.98982000  0.17126000  1.0 -0.4101745904
O  O47  1  0.01018000  0.95926000  0.18144000  1.0 -0.4101745904
O  O48  1  0.04074000  0.05092000  0.22218000  1.0 -0.4101745904
O  O49  1  0.77782000  0.94908000  0.95926000  1.0 -0.4101745904
O  O50  1  0.82874000  0.01018000  0.05092000  1.0 -0.4101745904
O  O51  1  0.81856000  0.04074000  0.98982000  1.0 -0.4101745904
O  O52  1  0.81856000  0.77782000  0.82874000  1.0 -0.4101745904
O  O53  1  0.82874000  0.81856000  0.77782000  1.0 -0.4101745904
O  O54  1  0.77782000  0.82874000  0.81856000  1.0 -0.4101745904
O  O55  1  0.36315000  0.32950000  0.30945000  1.0 -0.4464744847
O  O56  1  0.32950000  0.30945000  0.36315000  1.0 -0.4464744847
O  O57  1  0.30945000  0.36315000  0.32950000  1.0 -0.4464744847
O  O58  1  0.05370000  0.36315000  0.03365000  1.0 -0.4464744847
O  O59  1  0.97995000  0.30945000  0.94630000  1.0 -0.4464744847
O  O60  1  0.96635000  0.32950000  0.02005000  1.0 -0.4464744847
O  O61  1  0.94630000  0.96635000  0.63685000  1.0 -0.4464744847
O  O62  1  0.03365000  0.97995000  0.67050000  1.0 -0.4464744847
O  O63  1  0.02005000  0.05370000  0.69055000  1.0 -0.4464744847
O  O64  1  0.32950000  0.02005000  0.96635000  1.0 -0.4464744847
O  O65  1  0.30945000  0.94630000  0.97995000  1.0 -0.4464744847
O  O66  1  0.36315000  0.03365000  0.05370000  1.0 -0.4464744847
O  O67  1  0.97995000  0.67050000  0.03365000  1.0 -0.4464744847
O  O68  1  0.05370000  0.69055000  0.02005000  1.0 -0.4464744847
O  O69  1  0.96635000  0.63685000  0.94630000  1.0 -0.4464744847
O  O70  1  0.94630000  0.97995000  0.30945000  1.0 -0.4464744847
O  O71  1  0.02005000  0.96635000  0.32950000  1.0 -0.4464744847
O  O72  1  0.03365000  0.05370000  0.36315000  1.0 -0.4464744847
O  O73  1  0.63685000  0.94630000  0.96635000  1.0 -0.4464744847
O  O74  1  0.69055000  0.02005000  0.05370000  1.0 -0.4464744847
O  O75  1  0.67050000  0.03365000  0.97995000  1.0 -0.4464744847
O  O76  1  0.67050000  0.63685000  0.69055000  1.0 -0.4464744847
O  O77  1  0.69055000  0.67050000  0.63685000  1.0 -0.4464744847
O  O78  1  0.63685000  0.69055000  0.67050000  1.0 -0.4464744847
