# DDEC6 charges by PACMAN v1.1 (https://github.com/mtap-research/PACMAN-charge/)
data_TASZAQ_ion_pacman
_symmetry_space_group_name_H-M   'P 1'
_cell_length_a   28.65500000
_cell_length_b   28.65500000
_cell_length_c   28.65500000
_cell_angle_alpha   109.47100000
_cell_angle_beta   109.47100000
_cell_angle_gamma   109.47100000
_symmetry_Int_Tables_number   1
_chemical_formula_structural   Zn5H96C132(N23O24)2
_chemical_formula_sum   'Zn10 H192 C264 N92 O96'
_cell_volume   18112.68754069
_cell_formula_units_Z   2
loop_
 _symmetry_equiv_pos_site_id
 _symmetry_equiv_pos_as_xyz
  1  'x, y, z'
loop_
 _atom_site_type_symbol
 _atom_site_label
 _atom_site_symmetry_multiplicity
 _atom_site_fract_x
 _atom_site_fract_y
 _atom_site_fract_z
 _atom_site_occupancy
 _atom_site_charge
Zn  Zn1  1  0.50000000  0.00000000  0.00000000  1.0 0.5565179074
Zn  Zn2  1  0.00000000  0.00000000  0.50000000  1.0 0.5565179074
Zn  Zn3  1  0.00000000  0.50000000  0.00000000  1.0 0.5565179074
Zn  Zn4  1  0.50000000  0.50000000  0.50000000  1.0 0.5565179074
Zn  Zn5  1  0.00000000  0.24530000  0.24530000  1.0 0.6557073915
Zn  Zn6  1  0.24530000  0.00000000  0.24530000  1.0 0.6557073915
Zn  Zn7  1  0.00000000  0.75470000  0.75470000  1.0 0.6557073915
Zn  Zn8  1  0.75470000  0.00000000  0.75470000  1.0 0.6557073915
Zn  Zn9  1  0.75470000  0.75470000  0.00000000  1.0 0.6557073915
Zn  Zn10  1  0.24530000  0.24530000  0.00000000  1.0 0.653925904
H  H1  1  0.71810000  0.11440000  0.05690000  1.0 0.2899340176
H  H2  1  0.11440000  0.05750000  0.39630000  1.0 0.2899340176
H  H3  1  0.05750000  0.66120000  0.94310000  1.0 0.2899340176
H  H4  1  0.66120000  0.71810000  0.60370000  1.0 0.2899340176
H  H5  1  0.94250000  0.05690000  0.33880000  1.0 0.2899340176
H  H6  1  0.28190000  0.33880000  0.39630000  1.0 0.2899340176
H  H7  1  0.05750000  0.39630000  0.11440000  1.0 0.2899340176
H  H8  1  0.60370000  0.66120000  0.71810000  1.0 0.2899340176
H  H9  1  0.94250000  0.88560000  0.60370000  1.0 0.2899340176
H  H10  1  0.05690000  0.33880000  0.94250000  1.0 0.2899340176
H  H11  1  0.05690000  0.71810000  0.11440000  1.0 0.2899340176
H  H12  1  0.11440000  0.05690000  0.71810000  1.0 0.2899340176
H  H13  1  0.33880000  0.39630000  0.28190000  1.0 0.2899340176
H  H14  1  0.94310000  0.05750000  0.66120000  1.0 0.2899340176
H  H15  1  0.66120000  0.94310000  0.05750000  1.0 0.2899340176
H  H16  1  0.60370000  0.94250000  0.88560000  1.0 0.2899340176
H  H17  1  0.39630000  0.28190000  0.33880000  1.0 0.2899340176
H  H18  1  0.88560000  0.60370000  0.94250000  1.0 0.2899340176
H  H19  1  0.33880000  0.94250000  0.05690000  1.0 0.2899340176
H  H20  1  0.88560000  0.28190000  0.94310000  1.0 0.2899340176
H  H21  1  0.71810000  0.60370000  0.66120000  1.0 0.2899340176
H  H22  1  0.28190000  0.94310000  0.88560000  1.0 0.2899340176
H  H23  1  0.39630000  0.11440000  0.05750000  1.0 0.2899340176
H  H24  1  0.94310000  0.88560000  0.28190000  1.0 0.2899340176
H  H25  1  0.79110000  0.09790000  0.08940000  1.0 0.1558965081
H  H26  1  0.09790000  0.00850000  0.30680000  1.0 0.1558965081
H  H27  1  0.00850000  0.70170000  0.91060000  1.0 0.1558965081
H  H28  1  0.70170000  0.79110000  0.69320000  1.0 0.1558965081
H  H29  1  0.99150000  0.08940000  0.29830000  1.0 0.1558965081
H  H30  1  0.20890000  0.29830000  0.30680000  1.0 0.1558965081
H  H31  1  0.00850000  0.30680000  0.09790000  1.0 0.1558965081
H  H32  1  0.69320000  0.70170000  0.79110000  1.0 0.1558965081
H  H33  1  0.99150000  0.90210000  0.69320000  1.0 0.1558965081
H  H34  1  0.08940000  0.29830000  0.99150000  1.0 0.1558965081
H  H35  1  0.08940000  0.79110000  0.09790000  1.0 0.1558965081
H  H36  1  0.09790000  0.08940000  0.79110000  1.0 0.1558965081
H  H37  1  0.29830000  0.30680000  0.20890000  1.0 0.1558965081
H  H38  1  0.91060000  0.00850000  0.70170000  1.0 0.1558965081
H  H39  1  0.70170000  0.91060000  0.00850000  1.0 0.1558965081
H  H40  1  0.69320000  0.99150000  0.90210000  1.0 0.1558965081
H  H41  1  0.30680000  0.20890000  0.29830000  1.0 0.1558965081
H  H42  1  0.90210000  0.69320000  0.99150000  1.0 0.1558965081
H  H43  1  0.29830000  0.99150000  0.08940000  1.0 0.1558965081
H  H44  1  0.90210000  0.20890000  0.91060000  1.0 0.1558965081
H  H45  1  0.79110000  0.69320000  0.70170000  1.0 0.1558965081
H  H46  1  0.20890000  0.91060000  0.90210000  1.0 0.1558965081
H  H47  1  0.30680000  0.09790000  0.00850000  1.0 0.1558965081
H  H48  1  0.91060000  0.90210000  0.20890000  1.0 0.1558965081
H  H49  1  0.82250000  0.26090000  0.15580000  1.0 0.1521104807
H  H50  1  0.26090000  0.10510000  0.43840000  1.0 0.1521104807
H  H51  1  0.10510000  0.66666667  0.84420000  1.0 0.1521104807
H  H52  1  0.66666667  0.82250000  0.56160000  1.0 0.1521104807
H  H53  1  0.89490000  0.15580000  0.33333333  1.0 0.1521104807
H  H54  1  0.17750000  0.33333333  0.43840000  1.0 0.1521104807
H  H55  1  0.10510000  0.43840000  0.26090000  1.0 0.1521104807
H  H56  1  0.56160000  0.66666667  0.82250000  1.0 0.1521104807
H  H57  1  0.89490000  0.73910000  0.56160000  1.0 0.1521104807
H  H58  1  0.15580000  0.33333333  0.89490000  1.0 0.1521104807
H  H59  1  0.15580000  0.82250000  0.26090000  1.0 0.1521104807
H  H60  1  0.26090000  0.15580000  0.82250000  1.0 0.1521104807
H  H61  1  0.33333333  0.43840000  0.17750000  1.0 0.1521104807
H  H62  1  0.84420000  0.10510000  0.66666667  1.0 0.1521104807
H  H63  1  0.66666667  0.84420000  0.10510000  1.0 0.1521104807
H  H64  1  0.56160000  0.89490000  0.73910000  1.0 0.1521104807
H  H65  1  0.43840000  0.17750000  0.33333333  1.0 0.1521104807
H  H66  1  0.73910000  0.56160000  0.89490000  1.0 0.1521104807
H  H67  1  0.33333333  0.89490000  0.15580000  1.0 0.1521104807
H  H68  1  0.73910000  0.17750000  0.84420000  1.0 0.1521104807
H  H69  1  0.82250000  0.56160000  0.66666667  1.0 0.1521104807
H  H70  1  0.17750000  0.84420000  0.73910000  1.0 0.1521104807
H  H71  1  0.43840000  0.26090000  0.10510000  1.0 0.1521104807
H  H72  1  0.84420000  0.73910000  0.17750000  1.0 0.1521104807
H  H73  1  0.63210000  0.08530000  0.05300000  1.0 0.1066957423
H  H74  1  0.08530000  0.03230000  0.45320000  1.0 0.1066957423
H  H75  1  0.03230000  0.57910000  0.94700000  1.0 0.1066957423
H  H76  1  0.57910000  0.63210000  0.54680000  1.0 0.1066957423
H  H77  1  0.96770000  0.05300000  0.42090000  1.0 0.1066957423
H  H78  1  0.36790000  0.42090000  0.45320000  1.0 0.1066957423
H  H79  1  0.03230000  0.45320000  0.08530000  1.0 0.1066957423
H  H80  1  0.54680000  0.57910000  0.63210000  1.0 0.1066957423
H  H81  1  0.96770000  0.91470000  0.54680000  1.0 0.1066957423
H  H82  1  0.05300000  0.42090000  0.96770000  1.0 0.1066957423
H  H83  1  0.05300000  0.63210000  0.08530000  1.0 0.1066957423
H  H84  1  0.08530000  0.05300000  0.63210000  1.0 0.1066957423
H  H85  1  0.42090000  0.45320000  0.36790000  1.0 0.1066957423
H  H86  1  0.94700000  0.03230000  0.57910000  1.0 0.1066957423
H  H87  1  0.57910000  0.94700000  0.03230000  1.0 0.1066957423
H  H88  1  0.54680000  0.96770000  0.91470000  1.0 0.1066957423
H  H89  1  0.45320000  0.36790000  0.42090000  1.0 0.1066957423
H  H90  1  0.91470000  0.54680000  0.96770000  1.0 0.1066957423
H  H91  1  0.42090000  0.96770000  0.05300000  1.0 0.1066957423
H  H92  1  0.91470000  0.36790000  0.94700000  1.0 0.1066957423
H  H93  1  0.63210000  0.54680000  0.57910000  1.0 0.1066957423
H  H94  1  0.36790000  0.94700000  0.91470000  1.0 0.1066957423
H  H95  1  0.45320000  0.08530000  0.03230000  1.0 0.1066957423
H  H96  1  0.94700000  0.91470000  0.36790000  1.0 0.1066957423
H  H97  1  0.54440000  0.13630000  0.92650000  1.0 0.1386090358
H  H98  1  0.13630000  0.20980000  0.59190000  1.0 0.1386090358
H  H99  1  0.20980000  0.61790000  0.07350000  1.0 0.1386090358
H  H100  1  0.61790000  0.54440000  0.40810000  1.0 0.1386090358
H  H101  1  0.79020000  0.92650000  0.38210000  1.0 0.1386090358
H  H102  1  0.45560000  0.38210000  0.59190000  1.0 0.1386090358
H  H103  1  0.20980000  0.59190000  0.13630000  1.0 0.1386090358
H  H104  1  0.40810000  0.61790000  0.54440000  1.0 0.1386090358
H  H105  1  0.79020000  0.86370000  0.40810000  1.0 0.1386090358
H  H106  1  0.92650000  0.38210000  0.79020000  1.0 0.1386090358
H  H107  1  0.92650000  0.54440000  0.13630000  1.0 0.1386090358
H  H108  1  0.13630000  0.92650000  0.54440000  1.0 0.1386090358
H  H109  1  0.38210000  0.59190000  0.45560000  1.0 0.1386090358
H  H110  1  0.07350000  0.20980000  0.61790000  1.0 0.1386090358
H  H111  1  0.61790000  0.07350000  0.20980000  1.0 0.1386090358
H  H112  1  0.40810000  0.79020000  0.86370000  1.0 0.1386090358
H  H113  1  0.59190000  0.45560000  0.38210000  1.0 0.1386090358
H  H114  1  0.86370000  0.40810000  0.79020000  1.0 0.1386090358
H  H115  1  0.38210000  0.79020000  0.92650000  1.0 0.1386090358
H  H116  1  0.86370000  0.45560000  0.07350000  1.0 0.1386090358
H  H117  1  0.54440000  0.40810000  0.61790000  1.0 0.1386090358
H  H118  1  0.45560000  0.07350000  0.86370000  1.0 0.1386090358
H  H119  1  0.59190000  0.13630000  0.20980000  1.0 0.1386090358
H  H120  1  0.07350000  0.86370000  0.45560000  1.0 0.1386090358
H  H121  1  0.64300000  0.19590000  0.99450000  1.0 0.1521104807
H  H122  1  0.19590000  0.20140000  0.55290000  1.0 0.1521104807
H  H123  1  0.20140000  0.64850000  0.00550000  1.0 0.1521104807
H  H124  1  0.64850000  0.64300000  0.44710000  1.0 0.1521104807
H  H125  1  0.79860000  0.99450000  0.35150000  1.0 0.1521104807
H  H126  1  0.35700000  0.35150000  0.55290000  1.0 0.1521104807
H  H127  1  0.20140000  0.55290000  0.19590000  1.0 0.1521104807
H  H128  1  0.44710000  0.64850000  0.64300000  1.0 0.1521104807
H  H129  1  0.79860000  0.80410000  0.44710000  1.0 0.1521104807
H  H130  1  0.99450000  0.35150000  0.79860000  1.0 0.1521104807
H  H131  1  0.99450000  0.64300000  0.19590000  1.0 0.1521104807
H  H132  1  0.19590000  0.99450000  0.64300000  1.0 0.1521104807
H  H133  1  0.35150000  0.55290000  0.35700000  1.0 0.1521104807
H  H134  1  0.00550000  0.20140000  0.64850000  1.0 0.1521104807
H  H135  1  0.64850000  0.00550000  0.20140000  1.0 0.1521104807
H  H136  1  0.44710000  0.79860000  0.80410000  1.0 0.1521104807
H  H137  1  0.55290000  0.35700000  0.35150000  1.0 0.1521104807
H  H138  1  0.80410000  0.44710000  0.79860000  1.0 0.1521104807
H  H139  1  0.35150000  0.79860000  0.99450000  1.0 0.1521104807
H  H140  1  0.80410000  0.35700000  0.00550000  1.0 0.1521104807
H  H141  1  0.64300000  0.44710000  0.64850000  1.0 0.1521104807
H  H142  1  0.35700000  0.00550000  0.80410000  1.0 0.1521104807
H  H143  1  0.55290000  0.19590000  0.20140000  1.0 0.1521104807
H  H144  1  0.00550000  0.80410000  0.35700000  1.0 0.1521104807
H  H145  1  0.88930000  0.13300000  0.14690000  1.0 0.1279264325
H  H146  1  0.13300000  0.98610000  0.24370000  1.0 0.1279264325
H  H147  1  0.98610000  0.74240000  0.85310000  1.0 0.1279264325
H  H148  1  0.74240000  0.88930000  0.75630000  1.0 0.1279264325
H  H149  1  0.01390000  0.14690000  0.25760000  1.0 0.1279264325
H  H150  1  0.11070000  0.25760000  0.24370000  1.0 0.1279264325
H  H151  1  0.98610000  0.24370000  0.13300000  1.0 0.1279264325
H  H152  1  0.75630000  0.74240000  0.88930000  1.0 0.1279264325
H  H153  1  0.01390000  0.86700000  0.75630000  1.0 0.1279264325
H  H154  1  0.14690000  0.25760000  0.01390000  1.0 0.1279264325
H  H155  1  0.14690000  0.88930000  0.13300000  1.0 0.1279264325
H  H156  1  0.13300000  0.14690000  0.88930000  1.0 0.1279264325
H  H157  1  0.25760000  0.24370000  0.11070000  1.0 0.1279264325
H  H158  1  0.85310000  0.98610000  0.74240000  1.0 0.1279264325
H  H159  1  0.74240000  0.85310000  0.98610000  1.0 0.1279264325
H  H160  1  0.75630000  0.01390000  0.86700000  1.0 0.1279264325
H  H161  1  0.24370000  0.11070000  0.25760000  1.0 0.1279264325
H  H162  1  0.86700000  0.75630000  0.01390000  1.0 0.1279264325
H  H163  1  0.25760000  0.01390000  0.14690000  1.0 0.1279264325
H  H164  1  0.86700000  0.11070000  0.85310000  1.0 0.1279264325
H  H165  1  0.88930000  0.75630000  0.74240000  1.0 0.1279264325
H  H166  1  0.11070000  0.85310000  0.86700000  1.0 0.1279264325
H  H167  1  0.24370000  0.13300000  0.98610000  1.0 0.1279264325
H  H168  1  0.85310000  0.86700000  0.11070000  1.0 0.1279264325
H  H169  1  0.91740000  0.29010000  0.21370000  1.0 0.1202440789
H  H170  1  0.29010000  0.07640000  0.37270000  1.0 0.1202440789
H  H171  1  0.07640000  0.70370000  0.78630000  1.0 0.1202440789
H  H172  1  0.70370000  0.91740000  0.62730000  1.0 0.1202440789
H  H173  1  0.92360000  0.21370000  0.29630000  1.0 0.1202440789
H  H174  1  0.08260000  0.29630000  0.37270000  1.0 0.1202440789
H  H175  1  0.07640000  0.37270000  0.29010000  1.0 0.1202440789
H  H176  1  0.62730000  0.70370000  0.91740000  1.0 0.1202440789
H  H177  1  0.92360000  0.70990000  0.62730000  1.0 0.1202440789
H  H178  1  0.21370000  0.29630000  0.92360000  1.0 0.1202440789
H  H179  1  0.21370000  0.91740000  0.29010000  1.0 0.1202440789
H  H180  1  0.29010000  0.21370000  0.91740000  1.0 0.1202440789
H  H181  1  0.29630000  0.37270000  0.08260000  1.0 0.1202440789
H  H182  1  0.78630000  0.07640000  0.70370000  1.0 0.1202440789
H  H183  1  0.70370000  0.78630000  0.07640000  1.0 0.1202440789
H  H184  1  0.62730000  0.92360000  0.70990000  1.0 0.1202440789
H  H185  1  0.37270000  0.08260000  0.29630000  1.0 0.1202440789
H  H186  1  0.70990000  0.62730000  0.92360000  1.0 0.1202440789
H  H187  1  0.29630000  0.92360000  0.21370000  1.0 0.1202440789
H  H188  1  0.70990000  0.08260000  0.78630000  1.0 0.1202440789
H  H189  1  0.91740000  0.62730000  0.70370000  1.0 0.1202440789
H  H190  1  0.08260000  0.78630000  0.70990000  1.0 0.1202440789
H  H191  1  0.37270000  0.29010000  0.07640000  1.0 0.1202440789
H  H192  1  0.78630000  0.70990000  0.08260000  1.0 0.1202440789
C  C1  1  0.79719000  0.17468000  0.11559000  1.0 0.2607192182
C  C2  1  0.17468000  0.05909000  0.37749000  1.0 0.2607192182
C  C3  1  0.05909000  0.68160000  0.88441000  1.0 0.2607192182
C  C4  1  0.68160000  0.79719000  0.62251000  1.0 0.2607192182
C  C5  1  0.94091000  0.11559000  0.31840000  1.0 0.2607192182
C  C6  1  0.20281000  0.31840000  0.37749000  1.0 0.2607192182
C  C7  1  0.05909000  0.37749000  0.17468000  1.0 0.2607192182
C  C8  1  0.62251000  0.68160000  0.79719000  1.0 0.2607192182
C  C9  1  0.94091000  0.82532000  0.62251000  1.0 0.2607192182
C  C10  1  0.11559000  0.31840000  0.94091000  1.0 0.2607192182
C  C11  1  0.11559000  0.79719000  0.17468000  1.0 0.2607192182
C  C12  1  0.17468000  0.11559000  0.79719000  1.0 0.2607192182
C  C13  1  0.31840000  0.37749000  0.20281000  1.0 0.2607192182
C  C14  1  0.88441000  0.05909000  0.68160000  1.0 0.2607192182
C  C15  1  0.68160000  0.88441000  0.05909000  1.0 0.2607192182
C  C16  1  0.62251000  0.94091000  0.82532000  1.0 0.2607192182
C  C17  1  0.37749000  0.20281000  0.31840000  1.0 0.2607192182
C  C18  1  0.82532000  0.62251000  0.94091000  1.0 0.2607192182
C  C19  1  0.31840000  0.94091000  0.11559000  1.0 0.2607192182
C  C20  1  0.82532000  0.20281000  0.88441000  1.0 0.2607192182
C  C21  1  0.79719000  0.62251000  0.68160000  1.0 0.2607192182
C  C22  1  0.20281000  0.88441000  0.82532000  1.0 0.2607192182
C  C23  1  0.37749000  0.17468000  0.05909000  1.0 0.2607192182
C  C24  1  0.88441000  0.82532000  0.20281000  1.0 0.2607192182
C  C25  1  0.81662000  0.13782000  0.11424000  1.0 -0.1878483864
C  C26  1  0.13782000  0.02358000  0.32120000  1.0 -0.1878483864
C  C27  1  0.02358000  0.70238000  0.88576000  1.0 -0.1878483864
C  C28  1  0.70238000  0.81662000  0.67880000  1.0 -0.1878483864
C  C29  1  0.97642000  0.11424000  0.29762000  1.0 -0.1878483864
C  C30  1  0.18338000  0.29762000  0.32120000  1.0 -0.1878483864
C  C31  1  0.02358000  0.32120000  0.13782000  1.0 -0.1878483864
C  C32  1  0.67880000  0.70238000  0.81662000  1.0 -0.1878483864
C  C33  1  0.97642000  0.86218000  0.67880000  1.0 -0.1878483864
C  C34  1  0.11424000  0.29762000  0.97642000  1.0 -0.1878483864
C  C35  1  0.11424000  0.81662000  0.13782000  1.0 -0.1878483864
C  C36  1  0.13782000  0.11424000  0.81662000  1.0 -0.1878483864
C  C37  1  0.29762000  0.32120000  0.18338000  1.0 -0.1878483864
C  C38  1  0.88576000  0.02358000  0.70238000  1.0 -0.1878483864
C  C39  1  0.70238000  0.88576000  0.02358000  1.0 -0.1878483864
C  C40  1  0.67880000  0.97642000  0.86218000  1.0 -0.1878483864
C  C41  1  0.32120000  0.18338000  0.29762000  1.0 -0.1878483864
C  C42  1  0.86218000  0.67880000  0.97642000  1.0 -0.1878483864
C  C43  1  0.29762000  0.97642000  0.11424000  1.0 -0.1878483864
C  C44  1  0.86218000  0.18338000  0.88576000  1.0 -0.1878483864
C  C45  1  0.81662000  0.67880000  0.70238000  1.0 -0.1878483864
C  C46  1  0.18338000  0.88576000  0.86218000  1.0 -0.1878483864
C  C47  1  0.32120000  0.13782000  0.02358000  1.0 -0.1878483864
C  C48  1  0.88576000  0.86218000  0.18338000  1.0 -0.1878483864
C  C49  1  0.53152000  0.07974000  0.95670000  1.0 0.1689140582
C  C50  1  0.07974000  0.12304000  0.54822000  1.0 0.1689140582
C  C51  1  0.12304000  0.57482000  0.04330000  1.0 0.1689140582
C  C52  1  0.57482000  0.53152000  0.45178000  1.0 0.1689140582
C  C53  1  0.87696000  0.95670000  0.42518000  1.0 0.1689140582
C  C54  1  0.46848000  0.42518000  0.54822000  1.0 0.1689140582
C  C55  1  0.12304000  0.54822000  0.07974000  1.0 0.1689140582
C  C56  1  0.45178000  0.57482000  0.53152000  1.0 0.1689140582
C  C57  1  0.87696000  0.92026000  0.45178000  1.0 0.1689140582
C  C58  1  0.95670000  0.42518000  0.87696000  1.0 0.1689140582
C  C59  1  0.95670000  0.53152000  0.07974000  1.0 0.1689140582
C  C60  1  0.07974000  0.95670000  0.53152000  1.0 0.1689140582
C  C61  1  0.42518000  0.54822000  0.46848000  1.0 0.1689140582
C  C62  1  0.04330000  0.12304000  0.57482000  1.0 0.1689140582
C  C63  1  0.57482000  0.04330000  0.12304000  1.0 0.1689140582
C  C64  1  0.45178000  0.87696000  0.92026000  1.0 0.1689140582
C  C65  1  0.54822000  0.46848000  0.42518000  1.0 0.1689140582
C  C66  1  0.92026000  0.45178000  0.87696000  1.0 0.1689140582
C  C67  1  0.42518000  0.87696000  0.95670000  1.0 0.1689140582
C  C68  1  0.92026000  0.46848000  0.04330000  1.0 0.1689140582
C  C69  1  0.53152000  0.45178000  0.57482000  1.0 0.1689140582
C  C70  1  0.46848000  0.04330000  0.92026000  1.0 0.1689140582
C  C71  1  0.54822000  0.07974000  0.12304000  1.0 0.1689140582
C  C72  1  0.04330000  0.92026000  0.46848000  1.0 0.1689140582
C  C73  1  0.83501000  0.23380000  0.15383000  1.0 -0.1878483864
C  C74  1  0.23380000  0.07997000  0.39879000  1.0 -0.1878483864
C  C75  1  0.07997000  0.68118000  0.84617000  1.0 -0.1878483864
C  C76  1  0.68118000  0.83501000  0.60121000  1.0 -0.1878483864
C  C77  1  0.92003000  0.15383000  0.31882000  1.0 -0.1878483864
C  C78  1  0.16499000  0.31882000  0.39879000  1.0 -0.1878483864
C  C79  1  0.07997000  0.39879000  0.23380000  1.0 -0.1878483864
C  C80  1  0.60121000  0.68118000  0.83501000  1.0 -0.1878483864
C  C81  1  0.92003000  0.76620000  0.60121000  1.0 -0.1878483864
C  C82  1  0.15383000  0.31882000  0.92003000  1.0 -0.1878483864
C  C83  1  0.15383000  0.83501000  0.23380000  1.0 -0.1878483864
C  C84  1  0.23380000  0.15383000  0.83501000  1.0 -0.1878483864
C  C85  1  0.31882000  0.39879000  0.16499000  1.0 -0.1878483864
C  C86  1  0.84617000  0.07997000  0.68118000  1.0 -0.1878483864
C  C87  1  0.68118000  0.84617000  0.07997000  1.0 -0.1878483864
C  C88  1  0.60121000  0.92003000  0.76620000  1.0 -0.1878483864
C  C89  1  0.39879000  0.16499000  0.31882000  1.0 -0.1878483864
C  C90  1  0.76620000  0.60121000  0.92003000  1.0 -0.1878483864
C  C91  1  0.31882000  0.92003000  0.15383000  1.0 -0.1878483864
C  C92  1  0.76620000  0.16499000  0.84617000  1.0 -0.1878483864
C  C93  1  0.83501000  0.60121000  0.68118000  1.0 -0.1878483864
C  C94  1  0.16499000  0.84617000  0.76620000  1.0 -0.1878483864
C  C95  1  0.39879000  0.23380000  0.07997000  1.0 -0.1878483864
C  C96  1  0.84617000  0.76620000  0.16499000  1.0 -0.1878483864
C  C97  1  0.61410000  0.09638000  0.02770000  1.0 0.0381289552
C  C98  1  0.09638000  0.06868000  0.48228000  1.0 0.0381289552
C  C99  1  0.06868000  0.58640000  0.97230000  1.0 0.0381289552
C  C100  1  0.58640000  0.61410000  0.51772000  1.0 0.0381289552
C  C101  1  0.93132000  0.02770000  0.41360000  1.0 0.0381289552
C  C102  1  0.38590000  0.41360000  0.48228000  1.0 0.0381289552
C  C103  1  0.06868000  0.48228000  0.09638000  1.0 0.0381289552
C  C104  1  0.51772000  0.58640000  0.61410000  1.0 0.0381289552
C  C105  1  0.93132000  0.90362000  0.51772000  1.0 0.0381289552
C  C106  1  0.02770000  0.41360000  0.93132000  1.0 0.0381289552
C  C107  1  0.02770000  0.61410000  0.09638000  1.0 0.0381289552
C  C108  1  0.09638000  0.02770000  0.61410000  1.0 0.0381289552
C  C109  1  0.41360000  0.48228000  0.38590000  1.0 0.0381289552
C  C110  1  0.97230000  0.06868000  0.58640000  1.0 0.0381289552
C  C111  1  0.58640000  0.97230000  0.06868000  1.0 0.0381289552
C  C112  1  0.51772000  0.93132000  0.90362000  1.0 0.0381289552
C  C113  1  0.48228000  0.38590000  0.41360000  1.0 0.0381289552
C  C114  1  0.90362000  0.51772000  0.93132000  1.0 0.0381289552
C  C115  1  0.41360000  0.93132000  0.02770000  1.0 0.0381289552
C  C116  1  0.90362000  0.38590000  0.97230000  1.0 0.0381289552
C  C117  1  0.61410000  0.51772000  0.58640000  1.0 0.0381289552
C  C118  1  0.38590000  0.97230000  0.90362000  1.0 0.0381289552
C  C119  1  0.48228000  0.09638000  0.06868000  1.0 0.0381289552
C  C120  1  0.97230000  0.90362000  0.38590000  1.0 0.0381289552
C  C121  1  0.56272000  0.12744000  0.95386000  1.0 -0.1823078534
C  C122  1  0.12744000  0.17358000  0.56472000  1.0 -0.1823078534
C  C123  1  0.17358000  0.60886000  0.04614000  1.0 -0.1823078534
C  C124  1  0.60886000  0.56272000  0.43528000  1.0 -0.1823078534
C  C125  1  0.82642000  0.95386000  0.39114000  1.0 -0.1823078534
C  C126  1  0.43728000  0.39114000  0.56472000  1.0 -0.1823078534
C  C127  1  0.17358000  0.56472000  0.12744000  1.0 -0.1823078534
C  C128  1  0.43528000  0.60886000  0.56272000  1.0 -0.1823078534
C  C129  1  0.82642000  0.87256000  0.43528000  1.0 -0.1823078534
C  C130  1  0.95386000  0.39114000  0.82642000  1.0 -0.1823078534
C  C131  1  0.95386000  0.56272000  0.12744000  1.0 -0.1823078534
C  C132  1  0.12744000  0.95386000  0.56272000  1.0 -0.1823078534
C  C133  1  0.39114000  0.56472000  0.43728000  1.0 -0.1823078534
C  C134  1  0.04614000  0.17358000  0.60886000  1.0 -0.1823078534
C  C135  1  0.60886000  0.04614000  0.17358000  1.0 -0.1823078534
C  C136  1  0.43528000  0.82642000  0.87256000  1.0 -0.1823078534
C  C137  1  0.56472000  0.43728000  0.39114000  1.0 -0.1823078534
C  C138  1  0.87256000  0.43528000  0.82642000  1.0 -0.1823078534
C  C139  1  0.39114000  0.82642000  0.95386000  1.0 -0.1823078534
C  C140  1  0.87256000  0.43728000  0.04614000  1.0 -0.1823078534
C  C141  1  0.56272000  0.43528000  0.60886000  1.0 -0.1823078534
C  C142  1  0.43728000  0.04614000  0.87256000  1.0 -0.1823078534
C  C143  1  0.56472000  0.12744000  0.17358000  1.0 -0.1823078534
C  C144  1  0.04614000  0.87256000  0.43728000  1.0 -0.1823078534
C  C145  1  0.71184000  0.18091000  0.06905000  1.0 0.4919785643
C  C146  1  0.18091000  0.11186000  0.46907000  1.0 0.4919785643
C  C147  1  0.11186000  0.64279000  0.93095000  1.0 0.4919785643
C  C148  1  0.64279000  0.71184000  0.53093000  1.0 0.4919785643
C  C149  1  0.88814000  0.06905000  0.35721000  1.0 0.4919785643
C  C150  1  0.28816000  0.35721000  0.46907000  1.0 0.4919785643
C  C151  1  0.11186000  0.46907000  0.18091000  1.0 0.4919785643
C  C152  1  0.53093000  0.64279000  0.71184000  1.0 0.4919785643
C  C153  1  0.88814000  0.81909000  0.53093000  1.0 0.4919785643
C  C154  1  0.06905000  0.35721000  0.88814000  1.0 0.4919785643
C  C155  1  0.06905000  0.71184000  0.18091000  1.0 0.4919785643
C  C156  1  0.18091000  0.06905000  0.71184000  1.0 0.4919785643
C  C157  1  0.35721000  0.46907000  0.28816000  1.0 0.4919785643
C  C158  1  0.93095000  0.11186000  0.64279000  1.0 0.4919785643
C  C159  1  0.64279000  0.93095000  0.11186000  1.0 0.4919785643
C  C160  1  0.53093000  0.88814000  0.81909000  1.0 0.4919785643
C  C161  1  0.46907000  0.28816000  0.35721000  1.0 0.4919785643
C  C162  1  0.81909000  0.53093000  0.88814000  1.0 0.4919785643
C  C163  1  0.35721000  0.88814000  0.06905000  1.0 0.4919785643
C  C164  1  0.81909000  0.28816000  0.93095000  1.0 0.4919785643
C  C165  1  0.71184000  0.53093000  0.64279000  1.0 0.4919785643
C  C166  1  0.28816000  0.93095000  0.81909000  1.0 0.4919785643
C  C167  1  0.46907000  0.18091000  0.11186000  1.0 0.4919785643
C  C168  1  0.93095000  0.81909000  0.28816000  1.0 0.4919785643
C  C169  1  0.64716000  0.14400000  0.02748000  1.0 -0.0535834589
C  C170  1  0.14400000  0.11652000  0.49684000  1.0 -0.0535834589
C  C171  1  0.11652000  0.61968000  0.97252000  1.0 -0.0535834589
C  C172  1  0.61968000  0.64716000  0.50316000  1.0 -0.0535834589
C  C173  1  0.88348000  0.02748000  0.38032000  1.0 -0.0535834589
C  C174  1  0.35284000  0.38032000  0.49684000  1.0 -0.0535834589
C  C175  1  0.11652000  0.49684000  0.14400000  1.0 -0.0535834589
C  C176  1  0.50316000  0.61968000  0.64716000  1.0 -0.0535834589
C  C177  1  0.88348000  0.85600000  0.50316000  1.0 -0.0535834589
C  C178  1  0.02748000  0.38032000  0.88348000  1.0 -0.0535834589
C  C179  1  0.02748000  0.64716000  0.14400000  1.0 -0.0535834589
C  C180  1  0.14400000  0.02748000  0.64716000  1.0 -0.0535834589
C  C181  1  0.38032000  0.49684000  0.35284000  1.0 -0.0535834589
C  C182  1  0.97252000  0.11652000  0.61968000  1.0 -0.0535834589
C  C183  1  0.61968000  0.97252000  0.11652000  1.0 -0.0535834589
C  C184  1  0.50316000  0.88348000  0.85600000  1.0 -0.0535834589
C  C185  1  0.49684000  0.35284000  0.38032000  1.0 -0.0535834589
C  C186  1  0.85600000  0.50316000  0.88348000  1.0 -0.0535834589
C  C187  1  0.38032000  0.88348000  0.02748000  1.0 -0.0535834589
C  C188  1  0.85600000  0.35284000  0.97252000  1.0 -0.0535834589
C  C189  1  0.64716000  0.50316000  0.61968000  1.0 -0.0535834589
C  C190  1  0.35284000  0.97252000  0.85600000  1.0 -0.0535834589
C  C191  1  0.49684000  0.14400000  0.11652000  1.0 -0.0535834589
C  C192  1  0.97252000  0.85600000  0.35284000  1.0 -0.0535834589
C  C193  1  0.62127000  0.16127000  0.99250000  1.0 -0.0273574107
C  C194  1  0.16127000  0.16877000  0.54000000  1.0 -0.0273574107
C  C195  1  0.16877000  0.62877000  0.00750000  1.0 -0.0273574107
C  C196  1  0.62877000  0.62127000  0.46000000  1.0 -0.0273574107
C  C197  1  0.83123000  0.99250000  0.37123000  1.0 -0.0273574107
C  C198  1  0.37873000  0.37123000  0.54000000  1.0 -0.0273574107
C  C199  1  0.16877000  0.54000000  0.16127000  1.0 -0.0273574107
C  C200  1  0.46000000  0.62877000  0.62127000  1.0 -0.0273574107
C  C201  1  0.83123000  0.83873000  0.46000000  1.0 -0.0273574107
C  C202  1  0.99250000  0.37123000  0.83123000  1.0 -0.0273574107
C  C203  1  0.99250000  0.62127000  0.16127000  1.0 -0.0273574107
C  C204  1  0.16127000  0.99250000  0.62127000  1.0 -0.0273574107
C  C205  1  0.37123000  0.54000000  0.37873000  1.0 -0.0273574107
C  C206  1  0.00750000  0.16877000  0.62877000  1.0 -0.0273574107
C  C207  1  0.62877000  0.00750000  0.16877000  1.0 -0.0273574107
C  C208  1  0.46000000  0.83123000  0.83873000  1.0 -0.0273574107
C  C209  1  0.54000000  0.37873000  0.37123000  1.0 -0.0273574107
C  C210  1  0.83873000  0.46000000  0.83123000  1.0 -0.0273574107
C  C211  1  0.37123000  0.83123000  0.99250000  1.0 -0.0273574107
C  C212  1  0.83873000  0.37873000  0.00750000  1.0 -0.0273574107
C  C213  1  0.62127000  0.46000000  0.62877000  1.0 -0.0273574107
C  C214  1  0.37873000  0.00750000  0.83873000  1.0 -0.0273574107
C  C215  1  0.54000000  0.16127000  0.16877000  1.0 -0.0273574107
C  C216  1  0.00750000  0.83873000  0.37873000  1.0 -0.0273574107
C  C217  1  0.87485000  0.15862000  0.14975000  1.0 0.1066957423
C  C218  1  0.15862000  0.00887000  0.28377000  1.0 0.1066957423
C  C219  1  0.00887000  0.72510000  0.85025000  1.0 0.1066957423
C  C220  1  0.72510000  0.87485000  0.71623000  1.0 0.1066957423
C  C221  1  0.99113000  0.14975000  0.27490000  1.0 0.1066957423
C  C222  1  0.12515000  0.27490000  0.28377000  1.0 0.1066957423
C  C223  1  0.00887000  0.28377000  0.15862000  1.0 0.1066957423
C  C224  1  0.71623000  0.72510000  0.87485000  1.0 0.1066957423
C  C225  1  0.99113000  0.84138000  0.71623000  1.0 0.1066957423
C  C226  1  0.14975000  0.27490000  0.99113000  1.0 0.1066957423
C  C227  1  0.14975000  0.87485000  0.15862000  1.0 0.1066957423
C  C228  1  0.15862000  0.14975000  0.87485000  1.0 0.1066957423
C  C229  1  0.27490000  0.28377000  0.12515000  1.0 0.1066957423
C  C230  1  0.85025000  0.00887000  0.72510000  1.0 0.1066957423
C  C231  1  0.72510000  0.85025000  0.00887000  1.0 0.1066957423
C  C232  1  0.71623000  0.99113000  0.84138000  1.0 0.1066957423
C  C233  1  0.28377000  0.12515000  0.27490000  1.0 0.1066957423
C  C234  1  0.84138000  0.71623000  0.99113000  1.0 0.1066957423
C  C235  1  0.27490000  0.99113000  0.14975000  1.0 0.1066957423
C  C236  1  0.84138000  0.12515000  0.85025000  1.0 0.1066957423
C  C237  1  0.87485000  0.71623000  0.72510000  1.0 0.1066957423
C  C238  1  0.12515000  0.85025000  0.84138000  1.0 0.1066957423
C  C239  1  0.28377000  0.15862000  0.00887000  1.0 0.1066957423
C  C240  1  0.85025000  0.84138000  0.12515000  1.0 0.1066957423
C  C241  1  0.89122000  0.25043000  0.18831000  1.0 0.1202440789
C  C242  1  0.25043000  0.06212000  0.35921000  1.0 0.1202440789
C  C243  1  0.06212000  0.70291000  0.81169000  1.0 0.1202440789
C  C244  1  0.70291000  0.89122000  0.64079000  1.0 0.1202440789
C  C245  1  0.93788000  0.18831000  0.29709000  1.0 0.1202440789
C  C246  1  0.10878000  0.29709000  0.35921000  1.0 0.1202440789
C  C247  1  0.06212000  0.35921000  0.25043000  1.0 0.1202440789
C  C248  1  0.64079000  0.70291000  0.89122000  1.0 0.1202440789
C  C249  1  0.93788000  0.74957000  0.64079000  1.0 0.1202440789
C  C250  1  0.18831000  0.29709000  0.93788000  1.0 0.1202440789
C  C251  1  0.18831000  0.89122000  0.25043000  1.0 0.1202440789
C  C252  1  0.25043000  0.18831000  0.89122000  1.0 0.1202440789
C  C253  1  0.29709000  0.35921000  0.10878000  1.0 0.1202440789
C  C254  1  0.81169000  0.06212000  0.70291000  1.0 0.1202440789
C  C255  1  0.70291000  0.81169000  0.06212000  1.0 0.1202440789
C  C256  1  0.64079000  0.93788000  0.74957000  1.0 0.1202440789
C  C257  1  0.35921000  0.10878000  0.29709000  1.0 0.1202440789
C  C258  1  0.74957000  0.64079000  0.93788000  1.0 0.1202440789
C  C259  1  0.29709000  0.93788000  0.18831000  1.0 0.1202440789
C  C260  1  0.74957000  0.10878000  0.81169000  1.0 0.1202440789
C  C261  1  0.89122000  0.64079000  0.70291000  1.0 0.1202440789
C  C262  1  0.10878000  0.81169000  0.74957000  1.0 0.1202440789
C  C263  1  0.35921000  0.25043000  0.06212000  1.0 0.1202440789
C  C264  1  0.81169000  0.74957000  0.10878000  1.0 0.1202440789
N  N1  1  0.55724000  0.06537000  0.99309000  1.0 -0.2310332604
N  N2  1  0.06537000  0.07228000  0.50813000  1.0 -0.2310332604
N  N3  1  0.07228000  0.56415000  0.00691000  1.0 -0.2310332604
N  N4  1  0.56415000  0.55724000  0.49187000  1.0 -0.2310332604
N  N5  1  0.92772000  0.99309000  0.43585000  1.0 -0.2310332604
N  N6  1  0.44276000  0.43585000  0.50813000  1.0 -0.2310332604
N  N7  1  0.07228000  0.50813000  0.06537000  1.0 -0.2310332604
N  N8  1  0.49187000  0.56415000  0.55724000  1.0 -0.2310332604
N  N9  1  0.92772000  0.93463000  0.49187000  1.0 -0.2310332604
N  N10  1  0.99309000  0.43585000  0.92772000  1.0 -0.2310332604
N  N11  1  0.99309000  0.55724000  0.06537000  1.0 -0.2310332604
N  N12  1  0.06537000  0.99309000  0.55724000  1.0 -0.2310332604
N  N13  1  0.43585000  0.50813000  0.44276000  1.0 -0.2310332604
N  N14  1  0.00691000  0.07228000  0.56415000  1.0 -0.2310332604
N  N15  1  0.56415000  0.00691000  0.07228000  1.0 -0.2310332604
N  N16  1  0.49187000  0.92772000  0.93463000  1.0 -0.2310332604
N  N17  1  0.50813000  0.44276000  0.43585000  1.0 -0.2310332604
N  N18  1  0.93463000  0.49187000  0.92772000  1.0 -0.2310332604
N  N19  1  0.43585000  0.92772000  0.99309000  1.0 -0.2310332604
N  N20  1  0.93463000  0.44276000  0.00691000  1.0 -0.2310332604
N  N21  1  0.55724000  0.49187000  0.56415000  1.0 -0.2310332604
N  N22  1  0.44276000  0.00691000  0.93463000  1.0 -0.2310332604
N  N23  1  0.50813000  0.06537000  0.07228000  1.0 -0.2310332604
N  N24  1  0.00691000  0.93463000  0.44276000  1.0 -0.2310332604
N  N25  1  0.73890000  0.15184000  0.07742000  1.0 -0.3405253829
N  N26  1  0.15184000  0.07442000  0.41294000  1.0 -0.3405253829
N  N27  1  0.07442000  0.66148000  0.92258000  1.0 -0.3405253829
N  N28  1  0.66148000  0.73890000  0.58706000  1.0 -0.3405253829
N  N29  1  0.92558000  0.07742000  0.33852000  1.0 -0.3405253829
N  N30  1  0.26110000  0.33852000  0.41294000  1.0 -0.3405253829
N  N31  1  0.07442000  0.41294000  0.15184000  1.0 -0.3405253829
N  N32  1  0.58706000  0.66148000  0.73890000  1.0 -0.3405253829
N  N33  1  0.92558000  0.84816000  0.58706000  1.0 -0.3405253829
N  N34  1  0.07742000  0.33852000  0.92558000  1.0 -0.3405253829
N  N35  1  0.07742000  0.73890000  0.15184000  1.0 -0.3405253829
N  N36  1  0.15184000  0.07742000  0.73890000  1.0 -0.3405253829
N  N37  1  0.33852000  0.41294000  0.26110000  1.0 -0.3405253829
N  N38  1  0.92258000  0.07442000  0.66148000  1.0 -0.3405253829
N  N39  1  0.66148000  0.92258000  0.07442000  1.0 -0.3405253829
N  N40  1  0.58706000  0.92558000  0.84816000  1.0 -0.3405253829
N  N41  1  0.41294000  0.26110000  0.33852000  1.0 -0.3405253829
N  N42  1  0.84816000  0.58706000  0.92558000  1.0 -0.3405253829
N  N43  1  0.33852000  0.92558000  0.07742000  1.0 -0.3405253829
N  N44  1  0.84816000  0.26110000  0.92258000  1.0 -0.3405253829
N  N45  1  0.73890000  0.58706000  0.66148000  1.0 -0.3405253829
N  N46  1  0.26110000  0.92258000  0.84816000  1.0 -0.3405253829
N  N47  1  0.41294000  0.15184000  0.07442000  1.0 -0.3405253829
N  N48  1  0.92258000  0.84816000  0.26110000  1.0 -0.3405253829
N  N49  1  0.91076000  0.21555000  0.18843000  1.0 -0.2063587721
N  N50  1  0.21555000  0.02712000  0.30479000  1.0 -0.2063587721
N  N51  1  0.02712000  0.72233000  0.81157000  1.0 -0.2063587721
N  N52  1  0.72233000  0.91076000  0.69521000  1.0 -0.2063587721
N  N53  1  0.97288000  0.18843000  0.27767000  1.0 -0.2063587721
N  N54  1  0.08924000  0.27767000  0.30479000  1.0 -0.2063587721
N  N55  1  0.02712000  0.30479000  0.21555000  1.0 -0.2063587721
N  N56  1  0.69521000  0.72233000  0.91076000  1.0 -0.2063587721
N  N57  1  0.97288000  0.78445000  0.69521000  1.0 -0.2063587721
N  N58  1  0.18843000  0.27767000  0.97288000  1.0 -0.2063587721
N  N59  1  0.18843000  0.91076000  0.21555000  1.0 -0.2063587721
N  N60  1  0.21555000  0.18843000  0.91076000  1.0 -0.2063587721
N  N61  1  0.27767000  0.30479000  0.08924000  1.0 -0.2063587721
N  N62  1  0.81157000  0.02712000  0.72233000  1.0 -0.2063587721
N  N63  1  0.72233000  0.81157000  0.02712000  1.0 -0.2063587721
N  N64  1  0.69521000  0.97288000  0.78445000  1.0 -0.2063587721
N  N65  1  0.30479000  0.08924000  0.27767000  1.0 -0.2063587721
N  N66  1  0.78445000  0.69521000  0.97288000  1.0 -0.2063587721
N  N67  1  0.27767000  0.97288000  0.18843000  1.0 -0.2063587721
N  N68  1  0.78445000  0.08924000  0.81157000  1.0 -0.2063587721
N  N69  1  0.91076000  0.69521000  0.72233000  1.0 -0.2063587721
N  N70  1  0.08924000  0.81157000  0.78445000  1.0 -0.2063587721
N  N71  1  0.30479000  0.21555000  0.02712000  1.0 -0.2063587721
N  N72  1  0.81157000  0.78445000  0.08924000  1.0 -0.2063587721
N  N73  1  0.61740000  0.80870000  0.80870000  1.0 0.6998566472
N  N74  1  0.19130000  0.80870000  0.00000000  1.0 0.6998566472
N  N75  1  0.80870000  0.80870000  0.61740000  1.0 0.6998566472
N  N76  1  0.00000000  0.80870000  0.19130000  1.0 0.6998566472
N  N77  1  0.80870000  0.61740000  0.80870000  1.0 0.6998566472
N  N78  1  0.19130000  0.19130000  0.38260000  1.0 0.6998566472
N  N79  1  0.80870000  0.00000000  0.19130000  1.0 0.6998566472
N  N80  1  0.80870000  0.19130000  0.00000000  1.0 0.6998566472
N  N81  1  0.00000000  0.19130000  0.80870000  1.0 0.6998566472
N  N82  1  0.19130000  0.00000000  0.80870000  1.0 0.6998566472
N  N83  1  0.38260000  0.19130000  0.19130000  1.0 0.6998566472
N  N84  1  0.19130000  0.38260000  0.19130000  1.0 0.6998566472
N  N85  1  0.66390000  0.66390000  0.66390000  1.0 0.6898476565
N  N86  1  0.00000000  0.66390000  0.00000000  1.0 0.6898476565
N  N87  1  0.00000000  0.00000000  0.33610000  1.0 0.6898476565
N  N88  1  0.66390000  0.00000000  0.00000000  1.0 0.6898476565
N  N89  1  0.00000000  0.33610000  0.00000000  1.0 0.6898476565
N  N90  1  0.00000000  0.00000000  0.66390000  1.0 0.6898476565
N  N91  1  0.33610000  0.00000000  0.00000000  1.0 0.6898476565
N  N92  1  0.33610000  0.33610000  0.33610000  1.0 0.6898476565
O  O1  1  0.00000000  0.31280000  0.31280000  1.0 -0.5584986723
O  O2  1  0.31280000  0.00000000  0.31280000  1.0 -0.5584986723
O  O3  1  0.00000000  0.68720000  0.68720000  1.0 -0.5584986723
O  O4  1  0.68720000  0.00000000  0.68720000  1.0 -0.5584986723
O  O5  1  0.68720000  0.68720000  0.00000000  1.0 -0.5584986723
O  O6  1  0.31280000  0.31280000  0.00000000  1.0 -0.5584986723
O  O7  1  0.00000000  0.17860000  0.17860000  1.0 -0.5395336365
O  O8  1  0.17860000  0.00000000  0.17860000  1.0 -0.5395336365
O  O9  1  0.00000000  0.82140000  0.82140000  1.0 -0.5395336365
O  O10  1  0.82140000  0.00000000  0.82140000  1.0 -0.5395336365
O  O11  1  0.82140000  0.82140000  0.00000000  1.0 -0.5395336365
O  O12  1  0.17860000  0.17860000  0.00000000  1.0 -0.5395336365
O  O13  1  0.73405000  0.23306000  0.08965000  1.0 -0.4225209147
O  O14  1  0.23306000  0.14341000  0.49901000  1.0 -0.4225209147
O  O15  1  0.14341000  0.64440000  0.91035000  1.0 -0.4225209147
O  O16  1  0.64440000  0.73405000  0.50099000  1.0 -0.4225209147
O  O17  1  0.85659000  0.08965000  0.35560000  1.0 -0.4225209147
O  O18  1  0.26595000  0.35560000  0.49901000  1.0 -0.4225209147
O  O19  1  0.14341000  0.49901000  0.23306000  1.0 -0.4225209147
O  O20  1  0.50099000  0.64440000  0.73405000  1.0 -0.4225209147
O  O21  1  0.85659000  0.76694000  0.50099000  1.0 -0.4225209147
O  O22  1  0.08965000  0.35560000  0.85659000  1.0 -0.4225209147
O  O23  1  0.08965000  0.73405000  0.23306000  1.0 -0.4225209147
O  O24  1  0.23306000  0.08965000  0.73405000  1.0 -0.4225209147
O  O25  1  0.35560000  0.49901000  0.26595000  1.0 -0.4225209147
O  O26  1  0.91035000  0.14341000  0.64440000  1.0 -0.4225209147
O  O27  1  0.64440000  0.91035000  0.14341000  1.0 -0.4225209147
O  O28  1  0.50099000  0.85659000  0.76694000  1.0 -0.4225209147
O  O29  1  0.49901000  0.26595000  0.35560000  1.0 -0.4225209147
O  O30  1  0.76694000  0.50099000  0.85659000  1.0 -0.4225209147
O  O31  1  0.35560000  0.85659000  0.08965000  1.0 -0.4225209147
O  O32  1  0.76694000  0.26595000  0.91035000  1.0 -0.4225209147
O  O33  1  0.73405000  0.50099000  0.64440000  1.0 -0.4225209147
O  O34  1  0.26595000  0.91035000  0.76694000  1.0 -0.4225209147
O  O35  1  0.49901000  0.23306000  0.14341000  1.0 -0.4225209147
O  O36  1  0.91035000  0.76694000  0.26595000  1.0 -0.4225209147
O  O37  1  0.56240000  0.78120000  0.78120000  1.0 -0.4577288395
O  O38  1  0.64210000  0.81200000  0.77790000  1.0 -0.4849309664
O  O39  1  0.64210000  0.83010000  0.86420000  1.0 -0.4849309664
O  O40  1  0.21880000  0.78120000  0.00000000  1.0 -0.4577288395
O  O41  1  0.18800000  0.83010000  0.96590000  1.0 -0.4849309664
O  O42  1  0.16990000  0.81200000  0.03410000  1.0 -0.4849309664
O  O43  1  0.78120000  0.78120000  0.56240000  1.0 -0.4577288395
O  O44  1  0.81200000  0.77790000  0.64210000  1.0 -0.4849309664
O  O45  1  0.83010000  0.86420000  0.64210000  1.0 -0.4849309664
O  O46  1  0.00000000  0.78120000  0.21880000  1.0 -0.4577288395
O  O47  1  0.03410000  0.86420000  0.22210000  1.0 -0.4849309664
O  O48  1  0.96590000  0.77790000  0.13580000  1.0 -0.4849309664
O  O49  1  0.78120000  0.56240000  0.78120000  1.0 -0.4577288395
O  O50  1  0.77790000  0.64210000  0.81200000  1.0 -0.4849309664
O  O51  1  0.86420000  0.64210000  0.83010000  1.0 -0.4849309664
O  O52  1  0.21880000  0.21880000  0.43760000  1.0 -0.4577288395
O  O53  1  0.22210000  0.18800000  0.35790000  1.0 -0.4849309664
O  O54  1  0.13580000  0.16990000  0.35790000  1.0 -0.4849309664
O  O55  1  0.78120000  0.00000000  0.21880000  1.0 -0.4577288395
O  O56  1  0.83010000  0.96590000  0.18800000  1.0 -0.4849309664
O  O57  1  0.81200000  0.03410000  0.16990000  1.0 -0.4849309664
O  O58  1  0.78120000  0.21880000  0.00000000  1.0 -0.4577288395
O  O59  1  0.77790000  0.13580000  0.96590000  1.0 -0.4849309664
O  O60  1  0.86420000  0.22210000  0.03410000  1.0 -0.4849309664
O  O61  1  0.00000000  0.21880000  0.78120000  1.0 -0.4577288395
O  O62  1  0.03410000  0.16990000  0.81200000  1.0 -0.4849309664
O  O63  1  0.96590000  0.18800000  0.83010000  1.0 -0.4849309664
O  O64  1  0.21880000  0.00000000  0.78120000  1.0 -0.4577288395
O  O65  1  0.22210000  0.03410000  0.86420000  1.0 -0.4849309664
O  O66  1  0.13580000  0.96590000  0.77790000  1.0 -0.4849309664
O  O67  1  0.43760000  0.21880000  0.21880000  1.0 -0.4577288395
O  O68  1  0.35790000  0.22210000  0.18800000  1.0 -0.4849309664
O  O69  1  0.35790000  0.13580000  0.16990000  1.0 -0.4849309664
O  O70  1  0.21880000  0.43760000  0.21880000  1.0 -0.4577288395
O  O71  1  0.16990000  0.35790000  0.13580000  1.0 -0.4849309664
O  O72  1  0.18800000  0.35790000  0.22210000  1.0 -0.4849309664
O  O73  1  0.63559000  0.68884000  0.66547000  1.0 -0.4390032506
O  O74  1  0.68884000  0.66547000  0.63559000  1.0 -0.4390032506
O  O75  1  0.66547000  0.63559000  0.68884000  1.0 -0.4390032506
O  O76  1  0.97012000  0.63559000  0.94675000  1.0 -0.4390032506
O  O77  1  0.97663000  0.66547000  0.02988000  1.0 -0.4390032506
O  O78  1  0.05325000  0.68884000  0.02337000  1.0 -0.4390032506
O  O79  1  0.02988000  0.05325000  0.36441000  1.0 -0.4390032506
O  O80  1  0.94675000  0.97663000  0.31116000  1.0 -0.4390032506
O  O81  1  0.02337000  0.97012000  0.33453000  1.0 -0.4390032506
O  O82  1  0.68884000  0.02337000  0.05325000  1.0 -0.4390032506
O  O83  1  0.66547000  0.02988000  0.97663000  1.0 -0.4390032506
O  O84  1  0.63559000  0.94675000  0.97012000  1.0 -0.4390032506
O  O85  1  0.97663000  0.31116000  0.94675000  1.0 -0.4390032506
O  O86  1  0.97012000  0.33453000  0.02337000  1.0 -0.4390032506
O  O87  1  0.05325000  0.36441000  0.02988000  1.0 -0.4390032506
O  O88  1  0.02988000  0.97663000  0.66547000  1.0 -0.4390032506
O  O89  1  0.02337000  0.05325000  0.68884000  1.0 -0.4390032506
O  O90  1  0.94675000  0.97012000  0.63559000  1.0 -0.4390032506
O  O91  1  0.36441000  0.02988000  0.05325000  1.0 -0.4390032506
O  O92  1  0.33453000  0.02337000  0.97012000  1.0 -0.4390032506
O  O93  1  0.31116000  0.94675000  0.97663000  1.0 -0.4390032506
O  O94  1  0.31116000  0.36441000  0.33453000  1.0 -0.4390032506
O  O95  1  0.33453000  0.31116000  0.36441000  1.0 -0.4390032506
O  O96  1  0.36441000  0.33453000  0.31116000  1.0 -0.4390032506
