# DDEC6 charges by PACMAN v1.1 (https://github.com/mtap-research/PACMAN-charge/)
data_TASZEU_ion_pacman
_symmetry_space_group_name_H-M   'P 1'
_cell_length_a   28.26450000
_cell_length_b   28.26450000
_cell_length_c   28.26450000
_cell_angle_alpha   109.47100000
_cell_angle_beta   109.47100000
_cell_angle_gamma   109.47100000
_symmetry_Int_Tables_number   1
_chemical_formula_structural   Fe2Cu3H96C132N40O27
_chemical_formula_sum   'Fe4 Cu6 H192 C264 N80 O54'
_cell_volume   17382.23345097
_cell_formula_units_Z   2
loop_
 _symmetry_equiv_pos_site_id
 _symmetry_equiv_pos_as_xyz
  1  'x, y, z'
loop_
 _atom_site_type_symbol
 _atom_site_label
 _atom_site_symmetry_multiplicity
 _atom_site_fract_x
 _atom_site_fract_y
 _atom_site_fract_z
 _atom_site_occupancy
 _atom_site_charge
Fe  Fe1  1  0.50000000  0.50000000  0.50000000  1.0 0.5091729785
Fe  Fe2  1  0.50000000  0.00000000  0.00000000  1.0 0.5091729785
Fe  Fe3  1  0.00000000  0.00000000  0.50000000  1.0 0.5091729785
Fe  Fe4  1  0.00000000  0.50000000  0.00000000  1.0 0.5091729785
Cu  Cu1  1  0.00000000  0.24272000  0.24272000  1.0 0.4981786236
Cu  Cu2  1  0.24272000  0.00000000  0.24272000  1.0 0.4981786236
Cu  Cu3  1  0.00000000  0.75728000  0.75728000  1.0 0.4981786236
Cu  Cu4  1  0.75728000  0.00000000  0.75728000  1.0 0.4981786236
Cu  Cu5  1  0.75728000  0.75728000  0.00000000  1.0 0.5091729785
Cu  Cu6  1  0.24272000  0.24272000  0.00000000  1.0 0.5091729785
H  H1  1  0.20220000  0.30200000  0.28940000  1.0 0.1428056316
H  H2  1  0.30200000  0.01260000  0.09980000  1.0 0.1428056316
H  H3  1  0.01260000  0.91280000  0.71060000  1.0 0.1428056316
H  H4  1  0.91280000  0.20220000  0.90020000  1.0 0.1428056316
H  H5  1  0.98740000  0.28940000  0.08720000  1.0 0.1428056316
H  H6  1  0.79780000  0.08720000  0.09980000  1.0 0.1428056316
H  H7  1  0.01260000  0.09980000  0.30200000  1.0 0.1428056316
H  H8  1  0.90020000  0.91280000  0.20220000  1.0 0.1428056316
H  H9  1  0.98740000  0.69800000  0.90020000  1.0 0.1428056316
H  H10  1  0.28940000  0.08720000  0.98740000  1.0 0.1428056316
H  H11  1  0.28940000  0.20220000  0.30200000  1.0 0.1428056316
H  H12  1  0.30200000  0.28940000  0.20220000  1.0 0.1428056316
H  H13  1  0.08720000  0.09980000  0.79780000  1.0 0.1428056316
H  H14  1  0.71060000  0.01260000  0.91280000  1.0 0.1428056316
H  H15  1  0.91280000  0.71060000  0.01260000  1.0 0.1428056316
H  H16  1  0.90020000  0.98740000  0.69800000  1.0 0.1428056316
H  H17  1  0.09980000  0.79780000  0.08720000  1.0 0.1428056316
H  H18  1  0.69800000  0.90020000  0.98740000  1.0 0.1428056316
H  H19  1  0.08720000  0.98740000  0.28940000  1.0 0.1428056316
H  H20  1  0.69800000  0.79780000  0.71060000  1.0 0.1428056316
H  H21  1  0.20220000  0.90020000  0.91280000  1.0 0.1428056316
H  H22  1  0.79780000  0.71060000  0.69800000  1.0 0.1428056316
H  H23  1  0.09980000  0.30200000  0.01260000  1.0 0.1428056316
H  H24  1  0.71060000  0.69800000  0.79780000  1.0 0.1428056316
H  H25  1  0.17460000  0.43550000  0.33990000  1.0 0.1465440473
H  H26  1  0.43550000  0.09560000  0.26090000  1.0 0.1465440473
H  H27  1  0.09560000  0.83470000  0.66010000  1.0 0.1465440473
H  H28  1  0.83470000  0.17460000  0.73910000  1.0 0.1465440473
H  H29  1  0.90440000  0.33990000  0.16530000  1.0 0.1465440473
H  H30  1  0.82540000  0.16530000  0.26090000  1.0 0.1465440473
H  H31  1  0.09560000  0.26090000  0.43550000  1.0 0.1465440473
H  H32  1  0.73910000  0.83470000  0.17460000  1.0 0.1465440473
H  H33  1  0.90440000  0.56450000  0.73910000  1.0 0.1465440473
H  H34  1  0.33990000  0.16530000  0.90440000  1.0 0.1465440473
H  H35  1  0.33990000  0.17460000  0.43550000  1.0 0.1465440473
H  H36  1  0.43550000  0.33990000  0.17460000  1.0 0.1465440473
H  H37  1  0.16530000  0.26090000  0.82540000  1.0 0.1465440473
H  H38  1  0.66010000  0.09560000  0.83470000  1.0 0.1465440473
H  H39  1  0.83470000  0.66010000  0.09560000  1.0 0.1465440473
H  H40  1  0.73910000  0.90440000  0.56450000  1.0 0.1465440473
H  H41  1  0.26090000  0.82540000  0.16530000  1.0 0.1465440473
H  H42  1  0.56450000  0.73910000  0.90440000  1.0 0.1465440473
H  H43  1  0.16530000  0.90440000  0.33990000  1.0 0.1465440473
H  H44  1  0.56450000  0.82540000  0.66010000  1.0 0.1465440473
H  H45  1  0.17460000  0.73910000  0.83470000  1.0 0.1465440473
H  H46  1  0.82540000  0.66010000  0.56450000  1.0 0.1465440473
H  H47  1  0.26090000  0.43550000  0.09560000  1.0 0.1465440473
H  H48  1  0.66010000  0.56450000  0.82540000  1.0 0.1465440473
H  H49  1  0.27900000  0.39550000  0.33930000  1.0 0.2792374715
H  H50  1  0.39550000  0.05620000  0.11650000  1.0 0.2792374715
H  H51  1  0.05620000  0.93970000  0.66070000  1.0 0.2792374715
H  H52  1  0.93970000  0.27900000  0.88350000  1.0 0.2792374715
H  H53  1  0.94380000  0.33930000  0.06030000  1.0 0.2792374715
H  H54  1  0.72100000  0.06030000  0.11650000  1.0 0.2792374715
H  H55  1  0.05620000  0.11650000  0.39550000  1.0 0.2792374715
H  H56  1  0.88350000  0.93970000  0.27900000  1.0 0.2792374715
H  H57  1  0.94380000  0.60450000  0.88350000  1.0 0.2792374715
H  H58  1  0.33930000  0.06030000  0.94380000  1.0 0.2792374715
H  H59  1  0.33930000  0.27900000  0.39550000  1.0 0.2792374715
H  H60  1  0.39550000  0.33930000  0.27900000  1.0 0.2792374715
H  H61  1  0.06030000  0.11650000  0.72100000  1.0 0.2792374715
H  H62  1  0.66070000  0.05620000  0.93970000  1.0 0.2792374715
H  H63  1  0.93970000  0.66070000  0.05620000  1.0 0.2792374715
H  H64  1  0.88350000  0.94380000  0.60450000  1.0 0.2792374715
H  H65  1  0.11650000  0.72100000  0.06030000  1.0 0.2792374715
H  H66  1  0.60450000  0.88350000  0.94380000  1.0 0.2792374715
H  H67  1  0.06030000  0.94380000  0.33930000  1.0 0.2792374715
H  H68  1  0.60450000  0.72100000  0.66070000  1.0 0.2792374715
H  H69  1  0.27900000  0.88350000  0.93970000  1.0 0.2792374715
H  H70  1  0.72100000  0.66070000  0.60450000  1.0 0.2792374715
H  H71  1  0.11650000  0.39550000  0.05620000  1.0 0.2792374715
H  H72  1  0.66070000  0.60450000  0.72100000  1.0 0.2792374715
H  H73  1  0.10830000  0.24230000  0.25520000  1.0 0.1063294522
H  H74  1  0.24230000  0.98710000  0.13400000  1.0 0.1063294522
H  H75  1  0.98710000  0.85310000  0.74480000  1.0 0.1063294522
H  H76  1  0.85310000  0.10830000  0.86600000  1.0 0.1063294522
H  H77  1  0.01290000  0.25520000  0.14690000  1.0 0.1063294522
H  H78  1  0.89170000  0.14690000  0.13400000  1.0 0.1063294522
H  H79  1  0.98710000  0.13400000  0.24230000  1.0 0.1063294522
H  H80  1  0.86600000  0.85310000  0.10830000  1.0 0.1063294522
H  H81  1  0.01290000  0.75770000  0.86600000  1.0 0.1063294522
H  H82  1  0.25520000  0.14690000  0.01290000  1.0 0.1063294522
H  H83  1  0.25520000  0.10830000  0.24230000  1.0 0.1063294522
H  H84  1  0.24230000  0.25520000  0.10830000  1.0 0.1063294522
H  H85  1  0.14690000  0.13400000  0.89170000  1.0 0.1063294522
H  H86  1  0.74480000  0.98710000  0.85310000  1.0 0.1063294522
H  H87  1  0.85310000  0.74480000  0.98710000  1.0 0.1063294522
H  H88  1  0.86600000  0.01290000  0.75770000  1.0 0.1063294522
H  H89  1  0.13400000  0.89170000  0.14690000  1.0 0.1063294522
H  H90  1  0.75770000  0.86600000  0.01290000  1.0 0.1063294522
H  H91  1  0.14690000  0.01290000  0.25520000  1.0 0.1063294522
H  H92  1  0.75770000  0.89170000  0.74480000  1.0 0.1063294522
H  H93  1  0.10830000  0.86600000  0.85310000  1.0 0.1063294522
H  H94  1  0.89170000  0.74480000  0.75770000  1.0 0.1063294522
H  H95  1  0.13400000  0.24230000  0.98710000  1.0 0.1063294522
H  H96  1  0.74480000  0.75770000  0.89170000  1.0 0.1063294522
H  H97  1  0.35420000  0.55310000  0.35070000  1.0 0.128556341
H  H98  1  0.55310000  0.20240000  0.19890000  1.0 0.128556341
H  H99  1  0.20240000  0.00350000  0.64930000  1.0 0.128556341
H  H100  1  0.00350000  0.35420000  0.80110000  1.0 0.128556341
H  H101  1  0.79760000  0.35070000  0.99650000  1.0 0.128556341
H  H102  1  0.64580000  0.99650000  0.19890000  1.0 0.128556341
H  H103  1  0.20240000  0.19890000  0.55310000  1.0 0.128556341
H  H104  1  0.80110000  0.00350000  0.35420000  1.0 0.128556341
H  H105  1  0.79760000  0.44690000  0.80110000  1.0 0.128556341
H  H106  1  0.35070000  0.99650000  0.79760000  1.0 0.128556341
H  H107  1  0.35070000  0.35420000  0.55310000  1.0 0.128556341
H  H108  1  0.55310000  0.35070000  0.35420000  1.0 0.128556341
H  H109  1  0.99650000  0.19890000  0.64580000  1.0 0.128556341
H  H110  1  0.64930000  0.20240000  0.00350000  1.0 0.128556341
H  H111  1  0.00350000  0.64930000  0.20240000  1.0 0.128556341
H  H112  1  0.80110000  0.79760000  0.44690000  1.0 0.128556341
H  H113  1  0.19890000  0.64580000  0.99650000  1.0 0.128556341
H  H114  1  0.44690000  0.80110000  0.79760000  1.0 0.128556341
H  H115  1  0.99650000  0.79760000  0.35070000  1.0 0.128556341
H  H116  1  0.44690000  0.64580000  0.64930000  1.0 0.128556341
H  H117  1  0.35420000  0.80110000  0.00350000  1.0 0.128556341
H  H118  1  0.64580000  0.64930000  0.44690000  1.0 0.128556341
H  H119  1  0.19890000  0.55310000  0.20240000  1.0 0.128556341
H  H120  1  0.64930000  0.44690000  0.64580000  1.0 0.128556341
H  H121  1  0.36870000  0.45400000  0.42230000  1.0 0.0974218846
H  H122  1  0.45400000  0.03170000  0.08530000  1.0 0.0974218846
H  H123  1  0.03170000  0.94640000  0.57770000  1.0 0.0974218846
H  H124  1  0.94640000  0.36870000  0.91470000  1.0 0.0974218846
H  H125  1  0.96830000  0.42230000  0.05360000  1.0 0.0974218846
H  H126  1  0.63130000  0.05360000  0.08530000  1.0 0.0974218846
H  H127  1  0.03170000  0.08530000  0.45400000  1.0 0.0974218846
H  H128  1  0.91470000  0.94640000  0.36870000  1.0 0.0974218846
H  H129  1  0.96830000  0.54600000  0.91470000  1.0 0.0974218846
H  H130  1  0.42230000  0.05360000  0.96830000  1.0 0.0974218846
H  H131  1  0.42230000  0.36870000  0.45400000  1.0 0.0974218846
H  H132  1  0.45400000  0.42230000  0.36870000  1.0 0.0974218846
H  H133  1  0.05360000  0.08530000  0.63130000  1.0 0.0974218846
H  H134  1  0.57770000  0.03170000  0.94640000  1.0 0.0974218846
H  H135  1  0.94640000  0.57770000  0.03170000  1.0 0.0974218846
H  H136  1  0.91470000  0.96830000  0.54600000  1.0 0.0974218846
H  H137  1  0.08530000  0.63130000  0.05360000  1.0 0.0974218846
H  H138  1  0.54600000  0.91470000  0.96830000  1.0 0.0974218846
H  H139  1  0.05360000  0.96830000  0.42230000  1.0 0.0974218846
H  H140  1  0.54600000  0.63130000  0.57770000  1.0 0.0974218846
H  H141  1  0.36870000  0.91470000  0.94640000  1.0 0.0974218846
H  H142  1  0.63130000  0.57770000  0.54600000  1.0 0.0974218846
H  H143  1  0.08530000  0.45400000  0.03170000  1.0 0.0974218846
H  H144  1  0.57770000  0.54600000  0.63130000  1.0 0.0974218846
H  H145  1  0.45640000  0.59400000  0.38400000  1.0 0.128556341
H  H146  1  0.59400000  0.21000000  0.13760000  1.0 0.128556341
H  H147  1  0.21000000  0.07240000  0.61600000  1.0 0.128556341
H  H148  1  0.07240000  0.45640000  0.86240000  1.0 0.128556341
H  H149  1  0.79000000  0.38400000  0.92760000  1.0 0.128556341
H  H150  1  0.54360000  0.92760000  0.13760000  1.0 0.128556341
H  H151  1  0.21000000  0.13760000  0.59400000  1.0 0.128556341
H  H152  1  0.86240000  0.07240000  0.45640000  1.0 0.128556341
H  H153  1  0.79000000  0.40600000  0.86240000  1.0 0.128556341
H  H154  1  0.38400000  0.92760000  0.79000000  1.0 0.128556341
H  H155  1  0.38400000  0.45640000  0.59400000  1.0 0.128556341
H  H156  1  0.59400000  0.38400000  0.45640000  1.0 0.128556341
H  H157  1  0.92760000  0.13760000  0.54360000  1.0 0.128556341
H  H158  1  0.61600000  0.21000000  0.07240000  1.0 0.128556341
H  H159  1  0.07240000  0.61600000  0.21000000  1.0 0.128556341
H  H160  1  0.86240000  0.79000000  0.40600000  1.0 0.128556341
H  H161  1  0.13760000  0.54360000  0.92760000  1.0 0.128556341
H  H162  1  0.40600000  0.86240000  0.79000000  1.0 0.128556341
H  H163  1  0.92760000  0.79000000  0.38400000  1.0 0.128556341
H  H164  1  0.40600000  0.54360000  0.61600000  1.0 0.128556341
H  H165  1  0.45640000  0.86240000  0.07240000  1.0 0.128556341
H  H166  1  0.54360000  0.61600000  0.40600000  1.0 0.128556341
H  H167  1  0.13760000  0.59400000  0.21000000  1.0 0.128556341
H  H168  1  0.61600000  0.40600000  0.54360000  1.0 0.128556341
H  H169  1  0.07990000  0.37060000  0.29770000  1.0 0.1063294522
H  H170  1  0.37060000  0.07290000  0.29070000  1.0 0.1063294522
H  H171  1  0.07290000  0.78220000  0.70230000  1.0 0.1063294522
H  H172  1  0.78220000  0.07990000  0.70930000  1.0 0.1063294522
H  H173  1  0.92710000  0.29770000  0.21780000  1.0 0.1063294522
H  H174  1  0.92010000  0.21780000  0.29070000  1.0 0.1063294522
H  H175  1  0.07290000  0.29070000  0.37060000  1.0 0.1063294522
H  H176  1  0.70930000  0.78220000  0.07990000  1.0 0.1063294522
H  H177  1  0.92710000  0.62940000  0.70930000  1.0 0.1063294522
H  H178  1  0.29770000  0.21780000  0.92710000  1.0 0.1063294522
H  H179  1  0.29770000  0.07990000  0.37060000  1.0 0.1063294522
H  H180  1  0.37060000  0.29770000  0.07990000  1.0 0.1063294522
H  H181  1  0.21780000  0.29070000  0.92010000  1.0 0.1063294522
H  H182  1  0.70230000  0.07290000  0.78220000  1.0 0.1063294522
H  H183  1  0.78220000  0.70230000  0.07290000  1.0 0.1063294522
H  H184  1  0.70930000  0.92710000  0.62940000  1.0 0.1063294522
H  H185  1  0.29070000  0.92010000  0.21780000  1.0 0.1063294522
H  H186  1  0.62940000  0.70930000  0.92710000  1.0 0.1063294522
H  H187  1  0.21780000  0.92710000  0.29770000  1.0 0.1063294522
H  H188  1  0.62940000  0.92010000  0.70230000  1.0 0.1063294522
H  H189  1  0.07990000  0.70930000  0.78220000  1.0 0.1063294522
H  H190  1  0.92010000  0.70230000  0.62940000  1.0 0.1063294522
H  H191  1  0.29070000  0.37060000  0.07290000  1.0 0.1063294522
H  H192  1  0.70230000  0.62940000  0.92010000  1.0 0.1063294522
C  C1  1  0.17830000  0.31746000  0.29264000  1.0 -0.2440072149
C  C2  1  0.31746000  0.02482000  0.13916000  1.0 -0.2440072149
C  C3  1  0.02482000  0.88566000  0.70736000  1.0 -0.2440072149
C  C4  1  0.88566000  0.17830000  0.86084000  1.0 -0.2440072149
C  C5  1  0.97518000  0.29264000  0.11434000  1.0 -0.2440072149
C  C6  1  0.82170000  0.11434000  0.13916000  1.0 -0.2440072149
C  C7  1  0.02482000  0.13916000  0.31746000  1.0 -0.2440072149
C  C8  1  0.86084000  0.88566000  0.17830000  1.0 -0.2440072149
C  C9  1  0.97518000  0.68254000  0.86084000  1.0 -0.2440072149
C  C10  1  0.29264000  0.11434000  0.97518000  1.0 -0.2440072149
C  C11  1  0.29264000  0.17830000  0.31746000  1.0 -0.2440072149
C  C12  1  0.31746000  0.29264000  0.17830000  1.0 -0.2440072149
C  C13  1  0.11434000  0.13916000  0.82170000  1.0 -0.2440072149
C  C14  1  0.70736000  0.02482000  0.88566000  1.0 -0.2440072149
C  C15  1  0.88566000  0.70736000  0.02482000  1.0 -0.2440072149
C  C16  1  0.86084000  0.97518000  0.68254000  1.0 -0.2440072149
C  C17  1  0.13916000  0.82170000  0.11434000  1.0 -0.2440072149
C  C18  1  0.68254000  0.86084000  0.97518000  1.0 -0.2440072149
C  C19  1  0.11434000  0.97518000  0.29264000  1.0 -0.2440072149
C  C20  1  0.68254000  0.82170000  0.70736000  1.0 -0.2440072149
C  C21  1  0.17830000  0.86084000  0.88566000  1.0 -0.2440072149
C  C22  1  0.82170000  0.70736000  0.68254000  1.0 -0.2440072149
C  C23  1  0.13916000  0.31746000  0.02482000  1.0 -0.2440072149
C  C24  1  0.70736000  0.68254000  0.82170000  1.0 -0.2440072149
C  C25  1  0.16188000  0.39603000  0.32153000  1.0 -0.21189462
C  C26  1  0.39603000  0.07450000  0.23415000  1.0 -0.21189462
C  C27  1  0.07450000  0.84035000  0.67847000  1.0 -0.21189462
C  C28  1  0.84035000  0.16188000  0.76585000  1.0 -0.21189462
C  C29  1  0.92550000  0.32153000  0.15965000  1.0 -0.21189462
C  C30  1  0.83812000  0.15965000  0.23415000  1.0 -0.21189462
C  C31  1  0.07450000  0.23415000  0.39603000  1.0 -0.21189462
C  C32  1  0.76585000  0.84035000  0.16188000  1.0 -0.21189462
C  C33  1  0.92550000  0.60397000  0.76585000  1.0 -0.21189462
C  C34  1  0.32153000  0.15965000  0.92550000  1.0 -0.21189462
C  C35  1  0.32153000  0.16188000  0.39603000  1.0 -0.21189462
C  C36  1  0.39603000  0.32153000  0.16188000  1.0 -0.21189462
C  C37  1  0.15965000  0.23415000  0.83812000  1.0 -0.21189462
C  C38  1  0.67847000  0.07450000  0.84035000  1.0 -0.21189462
C  C39  1  0.84035000  0.67847000  0.07450000  1.0 -0.21189462
C  C40  1  0.76585000  0.92550000  0.60397000  1.0 -0.21189462
C  C41  1  0.23415000  0.83812000  0.15965000  1.0 -0.21189462
C  C42  1  0.60397000  0.76585000  0.92550000  1.0 -0.21189462
C  C43  1  0.15965000  0.92550000  0.32153000  1.0 -0.21189462
C  C44  1  0.60397000  0.83812000  0.67847000  1.0 -0.21189462
C  C45  1  0.16188000  0.76585000  0.84035000  1.0 -0.21189462
C  C46  1  0.83812000  0.67847000  0.60397000  1.0 -0.21189462
C  C47  1  0.23415000  0.39603000  0.07450000  1.0 -0.21189462
C  C48  1  0.67847000  0.60397000  0.83812000  1.0 -0.21189462
C  C49  1  0.46781000  0.54807000  0.42444000  1.0 0.1465440473
C  C50  1  0.54807000  0.12363000  0.08026000  1.0 0.1465440473
C  C51  1  0.12363000  0.04337000  0.57556000  1.0 0.1465440473
C  C52  1  0.04337000  0.46781000  0.91974000  1.0 0.1465440473
C  C53  1  0.87637000  0.42444000  0.95663000  1.0 0.1465440473
C  C54  1  0.53219000  0.95663000  0.08026000  1.0 0.1465440473
C  C55  1  0.12363000  0.08026000  0.54807000  1.0 0.1465440473
C  C56  1  0.91974000  0.04337000  0.46781000  1.0 0.1465440473
C  C57  1  0.87637000  0.45193000  0.91974000  1.0 0.1465440473
C  C58  1  0.42444000  0.95663000  0.87637000  1.0 0.1465440473
C  C59  1  0.42444000  0.46781000  0.54807000  1.0 0.1465440473
C  C60  1  0.54807000  0.42444000  0.46781000  1.0 0.1465440473
C  C61  1  0.95663000  0.08026000  0.53219000  1.0 0.1465440473
C  C62  1  0.57556000  0.12363000  0.04337000  1.0 0.1465440473
C  C63  1  0.04337000  0.57556000  0.12363000  1.0 0.1465440473
C  C64  1  0.91974000  0.87637000  0.45193000  1.0 0.1465440473
C  C65  1  0.08026000  0.53219000  0.95663000  1.0 0.1465440473
C  C66  1  0.45193000  0.91974000  0.87637000  1.0 0.1465440473
C  C67  1  0.95663000  0.87637000  0.42444000  1.0 0.1465440473
C  C68  1  0.45193000  0.53219000  0.57556000  1.0 0.1465440473
C  C69  1  0.46781000  0.91974000  0.04337000  1.0 0.1465440473
C  C70  1  0.53219000  0.57556000  0.45193000  1.0 0.1465440473
C  C71  1  0.08026000  0.54807000  0.12363000  1.0 0.1465440473
C  C72  1  0.57556000  0.45193000  0.53219000  1.0 0.1465440473
C  C73  1  0.20074000  0.37680000  0.31832000  1.0 0.2609834969
C  C74  1  0.37680000  0.05848000  0.17606000  1.0 0.2609834969
C  C75  1  0.05848000  0.88242000  0.68168000  1.0 0.2609834969
C  C76  1  0.88242000  0.20074000  0.82394000  1.0 0.2609834969
C  C77  1  0.94152000  0.31832000  0.11758000  1.0 0.2609834969
C  C78  1  0.79926000  0.11758000  0.17606000  1.0 0.2609834969
C  C79  1  0.05848000  0.17606000  0.37680000  1.0 0.2609834969
C  C80  1  0.82394000  0.88242000  0.20074000  1.0 0.2609834969
C  C81  1  0.94152000  0.62320000  0.82394000  1.0 0.2609834969
C  C82  1  0.31832000  0.11758000  0.94152000  1.0 0.2609834969
C  C83  1  0.31832000  0.20074000  0.37680000  1.0 0.2609834969
C  C84  1  0.37680000  0.31832000  0.20074000  1.0 0.2609834969
C  C85  1  0.11758000  0.17606000  0.79926000  1.0 0.2609834969
C  C86  1  0.68168000  0.05848000  0.88242000  1.0 0.2609834969
C  C87  1  0.88242000  0.68168000  0.05848000  1.0 0.2609834969
C  C88  1  0.82394000  0.94152000  0.62320000  1.0 0.2609834969
C  C89  1  0.17606000  0.79926000  0.11758000  1.0 0.2609834969
C  C90  1  0.62320000  0.82394000  0.94152000  1.0 0.2609834969
C  C91  1  0.11758000  0.94152000  0.31832000  1.0 0.2609834969
C  C92  1  0.62320000  0.79926000  0.68168000  1.0 0.2609834969
C  C93  1  0.20074000  0.82394000  0.88242000  1.0 0.2609834969
C  C94  1  0.79926000  0.68168000  0.62320000  1.0 0.2609834969
C  C95  1  0.17606000  0.37680000  0.05848000  1.0 0.2609834969
C  C96  1  0.68168000  0.62320000  0.79926000  1.0 0.2609834969
C  C97  1  0.12187000  0.28197000  0.27222000  1.0 0.0846761912
C  C98  1  0.28197000  0.00975000  0.16010000  1.0 0.0846761912
C  C99  1  0.00975000  0.84965000  0.72778000  1.0 0.0846761912
C  C100  1  0.84965000  0.12187000  0.83990000  1.0 0.0846761912
C  C101  1  0.99025000  0.27222000  0.15035000  1.0 0.0846761912
C  C102  1  0.87813000  0.15035000  0.16010000  1.0 0.0846761912
C  C103  1  0.00975000  0.16010000  0.28197000  1.0 0.0846761912
C  C104  1  0.83990000  0.84965000  0.12187000  1.0 0.0846761912
C  C105  1  0.99025000  0.71803000  0.83990000  1.0 0.0846761912
C  C106  1  0.27222000  0.15035000  0.99025000  1.0 0.0846761912
C  C107  1  0.27222000  0.12187000  0.28197000  1.0 0.0846761912
C  C108  1  0.28197000  0.27222000  0.12187000  1.0 0.0846761912
C  C109  1  0.15035000  0.16010000  0.87813000  1.0 0.0846761912
C  C110  1  0.72778000  0.00975000  0.84965000  1.0 0.0846761912
C  C111  1  0.84965000  0.72778000  0.00975000  1.0 0.0846761912
C  C112  1  0.83990000  0.99025000  0.71803000  1.0 0.0846761912
C  C113  1  0.16010000  0.87813000  0.15035000  1.0 0.0846761912
C  C114  1  0.71803000  0.83990000  0.99025000  1.0 0.0846761912
C  C115  1  0.15035000  0.99025000  0.27222000  1.0 0.0846761912
C  C116  1  0.71803000  0.87813000  0.72778000  1.0 0.0846761912
C  C117  1  0.12187000  0.83990000  0.84965000  1.0 0.0846761912
C  C118  1  0.87813000  0.72778000  0.71803000  1.0 0.0846761912
C  C119  1  0.16010000  0.28197000  0.00975000  1.0 0.0846761912
C  C120  1  0.72778000  0.71803000  0.87813000  1.0 0.0846761912
C  C121  1  0.37599000  0.54079000  0.37082000  1.0 -0.0478084604
C  C122  1  0.54079000  0.16997000  0.16480000  1.0 -0.0478084604
C  C123  1  0.16997000  0.00517000  0.62918000  1.0 -0.0478084604
C  C124  1  0.00517000  0.37599000  0.83520000  1.0 -0.0478084604
C  C125  1  0.83003000  0.37082000  0.99483000  1.0 -0.0478084604
C  C126  1  0.62401000  0.99483000  0.16480000  1.0 -0.0478084604
C  C127  1  0.16997000  0.16480000  0.54079000  1.0 -0.0478084604
C  C128  1  0.83520000  0.00517000  0.37599000  1.0 -0.0478084604
C  C129  1  0.83003000  0.45921000  0.83520000  1.0 -0.0478084604
C  C130  1  0.37082000  0.99483000  0.83003000  1.0 -0.0478084604
C  C131  1  0.37082000  0.37599000  0.54079000  1.0 -0.0478084604
C  C132  1  0.54079000  0.37082000  0.37599000  1.0 -0.0478084604
C  C133  1  0.99483000  0.16480000  0.62401000  1.0 -0.0478084604
C  C134  1  0.62918000  0.16997000  0.00517000  1.0 -0.0478084604
C  C135  1  0.00517000  0.62918000  0.16997000  1.0 -0.0478084604
C  C136  1  0.83520000  0.83003000  0.45921000  1.0 -0.0478084604
C  C137  1  0.16480000  0.62401000  0.99483000  1.0 -0.0478084604
C  C138  1  0.45921000  0.83520000  0.83003000  1.0 -0.0478084604
C  C139  1  0.99483000  0.83003000  0.37082000  1.0 -0.0478084604
C  C140  1  0.45921000  0.62401000  0.62918000  1.0 -0.0478084604
C  C141  1  0.37599000  0.83520000  0.00517000  1.0 -0.0478084604
C  C142  1  0.62401000  0.62918000  0.45921000  1.0 -0.0478084604
C  C143  1  0.16480000  0.54079000  0.16997000  1.0 -0.0478084604
C  C144  1  0.62918000  0.45921000  0.62401000  1.0 -0.0478084604
C  C145  1  0.35042000  0.49707000  0.38161000  1.0 -0.0806261077
C  C146  1  0.49707000  0.11546000  0.14665000  1.0 -0.0806261077
C  C147  1  0.11546000  0.96881000  0.61839000  1.0 -0.0806261077
C  C148  1  0.96881000  0.35042000  0.85335000  1.0 -0.0806261077
C  C149  1  0.88454000  0.38161000  0.03119000  1.0 -0.0806261077
C  C150  1  0.64958000  0.03119000  0.14665000  1.0 -0.0806261077
C  C151  1  0.11546000  0.14665000  0.49707000  1.0 -0.0806261077
C  C152  1  0.85335000  0.96881000  0.35042000  1.0 -0.0806261077
C  C153  1  0.88454000  0.50293000  0.85335000  1.0 -0.0806261077
C  C154  1  0.38161000  0.03119000  0.88454000  1.0 -0.0806261077
C  C155  1  0.38161000  0.35042000  0.49707000  1.0 -0.0806261077
C  C156  1  0.49707000  0.38161000  0.35042000  1.0 -0.0806261077
C  C157  1  0.03119000  0.14665000  0.64958000  1.0 -0.0806261077
C  C158  1  0.61839000  0.11546000  0.96881000  1.0 -0.0806261077
C  C159  1  0.96881000  0.61839000  0.11546000  1.0 -0.0806261077
C  C160  1  0.85335000  0.88454000  0.50293000  1.0 -0.0806261077
C  C161  1  0.14665000  0.64958000  0.03119000  1.0 -0.0806261077
C  C162  1  0.50293000  0.85335000  0.88454000  1.0 -0.0806261077
C  C163  1  0.03119000  0.88454000  0.38161000  1.0 -0.0806261077
C  C164  1  0.50293000  0.64958000  0.61839000  1.0 -0.0806261077
C  C165  1  0.35042000  0.85335000  0.96881000  1.0 -0.0806261077
C  C166  1  0.64958000  0.61839000  0.50293000  1.0 -0.0806261077
C  C167  1  0.14665000  0.49707000  0.11546000  1.0 -0.0806261077
C  C168  1  0.61839000  0.50293000  0.64958000  1.0 -0.0806261077
C  C169  1  0.38603000  0.48308000  0.41509000  1.0 0.0496449485
C  C170  1  0.48308000  0.06799000  0.09705000  1.0 0.0496449485
C  C171  1  0.06799000  0.97094000  0.58491000  1.0 0.0496449485
C  C172  1  0.97094000  0.38603000  0.90295000  1.0 0.0496449485
C  C173  1  0.93201000  0.41509000  0.02906000  1.0 0.0496449485
C  C174  1  0.61397000  0.02906000  0.09705000  1.0 0.0496449485
C  C175  1  0.06799000  0.09705000  0.48308000  1.0 0.0496449485
C  C176  1  0.90295000  0.97094000  0.38603000  1.0 0.0496449485
C  C177  1  0.93201000  0.51692000  0.90295000  1.0 0.0496449485
C  C178  1  0.41509000  0.02906000  0.93201000  1.0 0.0496449485
C  C179  1  0.41509000  0.38603000  0.48308000  1.0 0.0496449485
C  C180  1  0.48308000  0.41509000  0.38603000  1.0 0.0496449485
C  C181  1  0.02906000  0.09705000  0.61397000  1.0 0.0496449485
C  C182  1  0.58491000  0.06799000  0.97094000  1.0 0.0496449485
C  C183  1  0.97094000  0.58491000  0.06799000  1.0 0.0496449485
C  C184  1  0.90295000  0.93201000  0.51692000  1.0 0.0496449485
C  C185  1  0.09705000  0.61397000  0.02906000  1.0 0.0496449485
C  C186  1  0.51692000  0.90295000  0.93201000  1.0 0.0496449485
C  C187  1  0.02906000  0.93201000  0.41509000  1.0 0.0496449485
C  C188  1  0.51692000  0.61397000  0.58491000  1.0 0.0496449485
C  C189  1  0.38603000  0.90295000  0.97094000  1.0 0.0496449485
C  C190  1  0.61397000  0.58491000  0.51692000  1.0 0.0496449485
C  C191  1  0.09705000  0.48308000  0.06799000  1.0 0.0496449485
C  C192  1  0.58491000  0.51692000  0.61397000  1.0 0.0496449485
C  C193  1  0.28671000  0.46875000  0.35884000  1.0 0.4526686706
C  C194  1  0.46875000  0.10991000  0.18204000  1.0 0.4526686706
C  C195  1  0.10991000  0.92787000  0.64116000  1.0 0.4526686706
C  C196  1  0.92787000  0.28671000  0.81796000  1.0 0.4526686706
C  C197  1  0.89009000  0.35884000  0.07213000  1.0 0.4526686706
C  C198  1  0.71329000  0.07213000  0.18204000  1.0 0.4526686706
C  C199  1  0.10991000  0.18204000  0.46875000  1.0 0.4526686706
C  C200  1  0.81796000  0.92787000  0.28671000  1.0 0.4526686706
C  C201  1  0.89009000  0.53125000  0.81796000  1.0 0.4526686706
C  C202  1  0.35884000  0.07213000  0.89009000  1.0 0.4526686706
C  C203  1  0.35884000  0.28671000  0.46875000  1.0 0.4526686706
C  C204  1  0.46875000  0.35884000  0.28671000  1.0 0.4526686706
C  C205  1  0.07213000  0.18204000  0.71329000  1.0 0.4526686706
C  C206  1  0.64116000  0.10991000  0.92787000  1.0 0.4526686706
C  C207  1  0.92787000  0.64116000  0.10991000  1.0 0.4526686706
C  C208  1  0.81796000  0.89009000  0.53125000  1.0 0.4526686706
C  C209  1  0.18204000  0.71329000  0.07213000  1.0 0.4526686706
C  C210  1  0.53125000  0.81796000  0.89009000  1.0 0.4526686706
C  C211  1  0.07213000  0.89009000  0.35884000  1.0 0.4526686706
C  C212  1  0.53125000  0.71329000  0.64116000  1.0 0.4526686706
C  C213  1  0.28671000  0.81796000  0.92787000  1.0 0.4526686706
C  C214  1  0.71329000  0.64116000  0.53125000  1.0 0.4526686706
C  C215  1  0.18204000  0.46875000  0.10991000  1.0 0.4526686706
C  C216  1  0.64116000  0.53125000  0.71329000  1.0 0.4526686706
C  C217  1  0.43763000  0.56624000  0.39195000  1.0 -0.201190042
C  C218  1  0.56624000  0.17429000  0.12861000  1.0 -0.201190042
C  C219  1  0.17429000  0.04568000  0.60805000  1.0 -0.201190042
C  C220  1  0.04568000  0.43763000  0.87139000  1.0 -0.201190042
C  C221  1  0.82571000  0.39195000  0.95432000  1.0 -0.201190042
C  C222  1  0.56237000  0.95432000  0.12861000  1.0 -0.201190042
C  C223  1  0.17429000  0.12861000  0.56624000  1.0 -0.201190042
C  C224  1  0.87139000  0.04568000  0.43763000  1.0 -0.201190042
C  C225  1  0.82571000  0.43376000  0.87139000  1.0 -0.201190042
C  C226  1  0.39195000  0.95432000  0.82571000  1.0 -0.201190042
C  C227  1  0.39195000  0.43763000  0.56624000  1.0 -0.201190042
C  C228  1  0.56624000  0.39195000  0.43763000  1.0 -0.201190042
C  C229  1  0.95432000  0.12861000  0.56237000  1.0 -0.201190042
C  C230  1  0.60805000  0.17429000  0.04568000  1.0 -0.201190042
C  C231  1  0.04568000  0.60805000  0.17429000  1.0 -0.201190042
C  C232  1  0.87139000  0.82571000  0.43376000  1.0 -0.201190042
C  C233  1  0.12861000  0.56237000  0.95432000  1.0 -0.201190042
C  C234  1  0.43376000  0.87139000  0.82571000  1.0 -0.201190042
C  C235  1  0.95432000  0.82571000  0.39195000  1.0 -0.201190042
C  C236  1  0.43376000  0.56237000  0.60805000  1.0 -0.201190042
C  C237  1  0.43763000  0.87139000  0.04568000  1.0 -0.201190042
C  C238  1  0.56237000  0.60805000  0.43376000  1.0 -0.201190042
C  C239  1  0.12861000  0.56624000  0.17429000  1.0 -0.201190042
C  C240  1  0.60805000  0.43376000  0.56237000  1.0 -0.201190042
C  C241  1  0.10571000  0.35700000  0.29791000  1.0 0.0387685355
C  C242  1  0.35700000  0.05909000  0.25129000  1.0 0.0387685355
C  C243  1  0.05909000  0.80780000  0.70209000  1.0 0.0387685355
C  C244  1  0.80780000  0.10571000  0.74871000  1.0 0.0387685355
C  C245  1  0.94091000  0.29791000  0.19220000  1.0 0.0387685355
C  C246  1  0.89429000  0.19220000  0.25129000  1.0 0.0387685355
C  C247  1  0.05909000  0.25129000  0.35700000  1.0 0.0387685355
C  C248  1  0.74871000  0.80780000  0.10571000  1.0 0.0387685355
C  C249  1  0.94091000  0.64300000  0.74871000  1.0 0.0387685355
C  C250  1  0.29791000  0.19220000  0.94091000  1.0 0.0387685355
C  C251  1  0.29791000  0.10571000  0.35700000  1.0 0.0387685355
C  C252  1  0.35700000  0.29791000  0.10571000  1.0 0.0387685355
C  C253  1  0.19220000  0.25129000  0.89429000  1.0 0.0387685355
C  C254  1  0.70209000  0.05909000  0.80780000  1.0 0.0387685355
C  C255  1  0.80780000  0.70209000  0.05909000  1.0 0.0387685355
C  C256  1  0.74871000  0.94091000  0.64300000  1.0 0.0387685355
C  C257  1  0.25129000  0.89429000  0.19220000  1.0 0.0387685355
C  C258  1  0.64300000  0.74871000  0.94091000  1.0 0.0387685355
C  C259  1  0.19220000  0.94091000  0.29791000  1.0 0.0387685355
C  C260  1  0.64300000  0.89429000  0.70209000  1.0 0.0387685355
C  C261  1  0.10571000  0.74871000  0.80780000  1.0 0.0387685355
C  C262  1  0.89429000  0.70209000  0.64300000  1.0 0.0387685355
C  C263  1  0.25129000  0.35700000  0.05909000  1.0 0.0387685355
C  C264  1  0.70209000  0.64300000  0.89429000  1.0 0.0387685355
N  N1  1  0.44229000  0.50816000  0.43703000  1.0 -0.21189462
N  N2  1  0.50816000  0.07113000  0.06587000  1.0 -0.21189462
N  N3  1  0.07113000  0.00526000  0.56297000  1.0 -0.21189462
N  N4  1  0.00526000  0.44229000  0.93413000  1.0 -0.2157820686
N  N5  1  0.92887000  0.43703000  0.99474000  1.0 -0.2157820686
N  N6  1  0.55771000  0.99474000  0.06587000  1.0 -0.21189462
N  N7  1  0.07113000  0.06587000  0.50816000  1.0 -0.21189462
N  N8  1  0.93413000  0.00526000  0.44229000  1.0 -0.21189462
N  N9  1  0.92887000  0.49184000  0.93413000  1.0 -0.2157820686
N  N10  1  0.43703000  0.99474000  0.92887000  1.0 -0.21189462
N  N11  1  0.43703000  0.44229000  0.50816000  1.0 -0.21189462
N  N12  1  0.50816000  0.43703000  0.44229000  1.0 -0.21189462
N  N13  1  0.99474000  0.06587000  0.55771000  1.0 -0.21189462
N  N14  1  0.56297000  0.07113000  0.00526000  1.0 -0.21189462
N  N15  1  0.00526000  0.56297000  0.07113000  1.0 -0.2157820686
N  N16  1  0.93413000  0.92887000  0.49184000  1.0 -0.21189462
N  N17  1  0.06587000  0.55771000  0.99474000  1.0 -0.2157820686
N  N18  1  0.49184000  0.93413000  0.92887000  1.0 -0.21189462
N  N19  1  0.99474000  0.92887000  0.43703000  1.0 -0.21189462
N  N20  1  0.49184000  0.55771000  0.56297000  1.0 -0.21189462
N  N21  1  0.44229000  0.93413000  0.00526000  1.0 -0.21189462
N  N22  1  0.55771000  0.56297000  0.49184000  1.0 -0.21189462
N  N23  1  0.06587000  0.50816000  0.07113000  1.0 -0.2157820686
N  N24  1  0.56297000  0.49184000  0.55771000  1.0 -0.21189462
N  N25  1  0.25850000  0.41216000  0.33910000  1.0 -0.3365456611
N  N26  1  0.41216000  0.07306000  0.15366000  1.0 -0.3365456611
N  N27  1  0.07306000  0.91940000  0.66090000  1.0 -0.3365456611
N  N28  1  0.91940000  0.25850000  0.84634000  1.0 -0.3365456611
N  N29  1  0.92694000  0.33910000  0.08060000  1.0 -0.3365456611
N  N30  1  0.74150000  0.08060000  0.15366000  1.0 -0.3365456611
N  N31  1  0.07306000  0.15366000  0.41216000  1.0 -0.3365456611
N  N32  1  0.84634000  0.91940000  0.25850000  1.0 -0.3365456611
N  N33  1  0.92694000  0.58784000  0.84634000  1.0 -0.3365456611
N  N34  1  0.33910000  0.08060000  0.92694000  1.0 -0.3365456611
N  N35  1  0.33910000  0.25850000  0.41216000  1.0 -0.3365456611
N  N36  1  0.41216000  0.33910000  0.25850000  1.0 -0.3365456611
N  N37  1  0.08060000  0.15366000  0.74150000  1.0 -0.3365456611
N  N38  1  0.66090000  0.07306000  0.91940000  1.0 -0.3365456611
N  N39  1  0.91940000  0.66090000  0.07306000  1.0 -0.3365456611
N  N40  1  0.84634000  0.92694000  0.58784000  1.0 -0.3365456611
N  N41  1  0.15366000  0.74150000  0.08060000  1.0 -0.3365456611
N  N42  1  0.58784000  0.84634000  0.92694000  1.0 -0.3365456611
N  N43  1  0.08060000  0.92694000  0.33910000  1.0 -0.3365456611
N  N44  1  0.58784000  0.74150000  0.66090000  1.0 -0.3365456611
N  N45  1  0.25850000  0.84634000  0.91940000  1.0 -0.3365456611
N  N46  1  0.74150000  0.66090000  0.58784000  1.0 -0.3365456611
N  N47  1  0.15366000  0.41216000  0.07306000  1.0 -0.3365456611
N  N48  1  0.66090000  0.58784000  0.74150000  1.0 -0.3365456611
N  N49  1  0.08482000  0.29925000  0.27455000  1.0 -0.2331250216
N  N50  1  0.29925000  0.02470000  0.21443000  1.0 -0.2331250216
N  N51  1  0.02470000  0.81027000  0.72545000  1.0 -0.2331250216
N  N52  1  0.81027000  0.08482000  0.78557000  1.0 -0.2331250216
N  N53  1  0.97530000  0.27455000  0.18973000  1.0 -0.2331250216
N  N54  1  0.91518000  0.18973000  0.21443000  1.0 -0.2331250216
N  N55  1  0.02470000  0.21443000  0.29925000  1.0 -0.2331250216
N  N56  1  0.78557000  0.81027000  0.08482000  1.0 -0.2331250216
N  N57  1  0.97530000  0.70075000  0.78557000  1.0 -0.2331250216
N  N58  1  0.27455000  0.18973000  0.97530000  1.0 -0.2331250216
N  N59  1  0.27455000  0.08482000  0.29925000  1.0 -0.2331250216
N  N60  1  0.29925000  0.27455000  0.08482000  1.0 -0.2331250216
N  N61  1  0.18973000  0.21443000  0.91518000  1.0 -0.2331250216
N  N62  1  0.72545000  0.02470000  0.81027000  1.0 -0.2331250216
N  N63  1  0.81027000  0.72545000  0.02470000  1.0 -0.2331250216
N  N64  1  0.78557000  0.97530000  0.70075000  1.0 -0.2331250216
N  N65  1  0.21443000  0.91518000  0.18973000  1.0 -0.2331250216
N  N66  1  0.70075000  0.78557000  0.97530000  1.0 -0.2331250216
N  N67  1  0.18973000  0.97530000  0.27455000  1.0 -0.2331250216
N  N68  1  0.70075000  0.91518000  0.72545000  1.0 -0.2331250216
N  N69  1  0.08482000  0.78557000  0.81027000  1.0 -0.2331250216
N  N70  1  0.91518000  0.72545000  0.70075000  1.0 -0.2331250216
N  N71  1  0.21443000  0.29925000  0.02470000  1.0 -0.2331250216
N  N72  1  0.72545000  0.70075000  0.91518000  1.0 -0.2331250216
N  N73  1  0.66666667  0.66666667  0.66666667  1.0 0.6847904697
N  N74  1  0.00000000  0.66666667  0.00000000  1.0 0.6847904697
N  N75  1  0.00000000  0.00000000  0.33333333  1.0 0.6847904697
N  N76  1  0.66666667  0.00000000  0.00000000  1.0 0.6847904697
N  N77  1  0.00000000  0.33333333  0.00000000  1.0 0.6847904697
N  N78  1  0.00000000  0.00000000  0.66666667  1.0 0.6847904697
N  N79  1  0.33333333  0.00000000  0.00000000  1.0 0.6847904697
N  N80  1  0.33333333  0.33333333  0.33333333  1.0 0.6847904697
O  O1  1  0.00000000  0.16721000  0.16721000  1.0 -0.4469722485
O  O2  1  0.16721000  0.00000000  0.16721000  1.0 -0.4469722485
O  O3  1  0.00000000  0.83279000  0.83279000  1.0 -0.4469722485
O  O4  1  0.83279000  0.00000000  0.83279000  1.0 -0.4469722485
O  O5  1  0.83279000  0.83279000  0.00000000  1.0 -0.4469722485
O  O6  1  0.16721000  0.16721000  0.00000000  1.0 -0.4469722485
O  O7  1  0.26267000  0.49729000  0.35642000  1.0 -0.4333948717
O  O8  1  0.49729000  0.14087000  0.23462000  1.0 -0.4333948717
O  O9  1  0.14087000  0.90625000  0.64358000  1.0 -0.4333948717
O  O10  1  0.90625000  0.26267000  0.76538000  1.0 -0.4333948717
O  O11  1  0.85913000  0.35642000  0.09375000  1.0 -0.4333948717
O  O12  1  0.73733000  0.09375000  0.23462000  1.0 -0.4333948717
O  O13  1  0.14087000  0.23462000  0.49729000  1.0 -0.4333948717
O  O14  1  0.76538000  0.90625000  0.26267000  1.0 -0.4333948717
O  O15  1  0.85913000  0.50271000  0.76538000  1.0 -0.4333948717
O  O16  1  0.35642000  0.09375000  0.85913000  1.0 -0.4333948717
O  O17  1  0.35642000  0.26267000  0.49729000  1.0 -0.4333948717
O  O18  1  0.49729000  0.35642000  0.26267000  1.0 -0.4333948717
O  O19  1  0.09375000  0.23462000  0.73733000  1.0 -0.4333948717
O  O20  1  0.64358000  0.14087000  0.90625000  1.0 -0.4333948717
O  O21  1  0.90625000  0.64358000  0.14087000  1.0 -0.4333948717
O  O22  1  0.76538000  0.85913000  0.50271000  1.0 -0.4333948717
O  O23  1  0.23462000  0.73733000  0.09375000  1.0 -0.4333948717
O  O24  1  0.50271000  0.76538000  0.85913000  1.0 -0.4333948717
O  O25  1  0.09375000  0.85913000  0.35642000  1.0 -0.4333948717
O  O26  1  0.50271000  0.73733000  0.64358000  1.0 -0.4333948717
O  O27  1  0.26267000  0.76538000  0.90625000  1.0 -0.4333948717
O  O28  1  0.73733000  0.64358000  0.50271000  1.0 -0.4333948717
O  O29  1  0.23462000  0.49729000  0.14087000  1.0 -0.4333948717
O  O30  1  0.64358000  0.50271000  0.73733000  1.0 -0.4333948717
O  O31  1  0.63596000  0.66768000  0.69046000  1.0 -0.494416576
O  O32  1  0.66768000  0.69046000  0.63596000  1.0 -0.494416576
O  O33  1  0.69046000  0.63596000  0.66768000  1.0 -0.494416576
O  O34  1  0.94550000  0.63596000  0.96828000  1.0 -0.494416576
O  O35  1  0.02278000  0.69046000  0.05450000  1.0 -0.494416576
O  O36  1  0.03172000  0.66768000  0.97722000  1.0 -0.494416576
O  O37  1  0.05450000  0.03172000  0.36404000  1.0 -0.494416576
O  O38  1  0.96828000  0.02278000  0.33232000  1.0 -0.494416576
O  O39  1  0.97722000  0.94550000  0.30954000  1.0 -0.494416576
O  O40  1  0.66768000  0.97722000  0.03172000  1.0 -0.494416576
O  O41  1  0.69046000  0.05450000  0.02278000  1.0 -0.494416576
O  O42  1  0.63596000  0.96828000  0.94550000  1.0 -0.494416576
O  O43  1  0.02278000  0.33232000  0.96828000  1.0 -0.494416576
O  O44  1  0.94550000  0.30954000  0.97722000  1.0 -0.494416576
O  O45  1  0.03172000  0.36404000  0.05450000  1.0 -0.494416576
O  O46  1  0.05450000  0.02278000  0.69046000  1.0 -0.494416576
O  O47  1  0.97722000  0.03172000  0.66768000  1.0 -0.494416576
O  O48  1  0.96828000  0.94550000  0.63596000  1.0 -0.4952541068
O  O49  1  0.36404000  0.05450000  0.03172000  1.0 -0.494416576
O  O50  1  0.30954000  0.97722000  0.94550000  1.0 -0.494416576
O  O51  1  0.33232000  0.96828000  0.02278000  1.0 -0.494416576
O  O52  1  0.33232000  0.36404000  0.30954000  1.0 -0.494416576
O  O53  1  0.30954000  0.33232000  0.36404000  1.0 -0.494416576
O  O54  1  0.36404000  0.30954000  0.33232000  1.0 -0.494416576
