# DDEC6 charges by PACMAN v1.1 (https://github.com/mtap-research/PACMAN-charge/)
data_TAWHOO_ion_pacman
_symmetry_space_group_name_H-M   'P 1'
_cell_length_a   10.05830000
_cell_length_b   15.61920000
_cell_length_c   18.08500000
_cell_angle_alpha   90.00000000
_cell_angle_beta   90.00000000
_cell_angle_gamma   90.00000000
_symmetry_Int_Tables_number   1
_chemical_formula_structural   Al3P3H17C4N3O14
_chemical_formula_sum   'Al24 P24 H136 C32 N24 O112'
_cell_volume   2841.20050943
_cell_formula_units_Z   8
loop_
 _symmetry_equiv_pos_site_id
 _symmetry_equiv_pos_as_xyz
  1  'x, y, z'
loop_
 _atom_site_type_symbol
 _atom_site_label
 _atom_site_symmetry_multiplicity
 _atom_site_fract_x
 _atom_site_fract_y
 _atom_site_fract_z
 _atom_site_occupancy
 _atom_site_charge
Al  Al1  1  0.18160000  0.46414000  0.21658000  1.0 1.7587302143
Al  Al2  1  0.31840000  0.96414000  0.78342000  1.0 1.7587302143
Al  Al3  1  0.68160000  0.53586000  0.28342000  1.0 1.7587302143
Al  Al4  1  0.81840000  0.03586000  0.71658000  1.0 1.7587302143
Al  Al5  1  0.81840000  0.53586000  0.78342000  1.0 1.7587302143
Al  Al6  1  0.68160000  0.03586000  0.21658000  1.0 1.7587302143
Al  Al7  1  0.31840000  0.46414000  0.71658000  1.0 1.7587302143
Al  Al8  1  0.18160000  0.96414000  0.28342000  1.0 1.7587302143
Al  Al9  1  0.33440000  0.14991000  0.32547000  1.0 1.7443866446
Al  Al10  1  0.16560000  0.64991000  0.67453000  1.0 1.7452720517
Al  Al11  1  0.83440000  0.85009000  0.17453000  1.0 1.7443866446
Al  Al12  1  0.66560000  0.35009000  0.82547000  1.0 1.7443866446
Al  Al13  1  0.66560000  0.85009000  0.67453000  1.0 1.7443866446
Al  Al14  1  0.83440000  0.35009000  0.32547000  1.0 1.7443866446
Al  Al15  1  0.16560000  0.14991000  0.82547000  1.0 1.7443866446
Al  Al16  1  0.33440000  0.64991000  0.17453000  1.0 1.7452720517
Al  Al17  1  0.15000000  0.49510000  0.40296000  1.0 1.710419547
Al  Al18  1  0.35000000  0.99510000  0.59704000  1.0 1.710419547
Al  Al19  1  0.65000000  0.50490000  0.09704000  1.0 1.710419547
Al  Al20  1  0.85000000  0.00490000  0.90296000  1.0 1.710419547
Al  Al21  1  0.85000000  0.50490000  0.59704000  1.0 1.710419547
Al  Al22  1  0.65000000  0.00490000  0.40296000  1.0 1.710419547
Al  Al23  1  0.35000000  0.49510000  0.90296000  1.0 1.710419547
Al  Al24  1  0.15000000  0.99510000  0.09704000  1.0 1.710419547
P  P1  1  0.14720000  0.31692000  0.32870000  1.0 1.38906784
P  P2  1  0.35280000  0.81692000  0.67130000  1.0 1.38906784
P  P3  1  0.64720000  0.68308000  0.17130000  1.0 1.38906784
P  P4  1  0.85280000  0.18308000  0.82870000  1.0 1.38906784
P  P5  1  0.85280000  0.68308000  0.67130000  1.0 1.38906784
P  P6  1  0.64720000  0.18308000  0.32870000  1.0 1.38906784
P  P7  1  0.35280000  0.31692000  0.82870000  1.0 1.38906784
P  P8  1  0.14720000  0.81692000  0.17130000  1.0 1.38906784
P  P9  1  0.38130000  0.55893000  0.31518000  1.0 1.2705192232
P  P10  1  0.11870000  0.05893000  0.68482000  1.0 1.2705192232
P  P11  1  0.88130000  0.44107000  0.18482000  1.0 1.2705192232
P  P12  1  0.61870000  0.94107000  0.81518000  1.0 1.2705192232
P  P13  1  0.61870000  0.44107000  0.68482000  1.0 1.2705192232
P  P14  1  0.88130000  0.94107000  0.31518000  1.0 1.2705192232
P  P15  1  0.11870000  0.55893000  0.81518000  1.0 1.2705192232
P  P16  1  0.38130000  0.05893000  0.18482000  1.0 1.2705192232
P  P17  1  0.14030000  0.48647000  0.57538000  1.0 1.2414418572
P  P18  1  0.35970000  0.98647000  0.42462000  1.0 1.2414418572
P  P19  1  0.64030000  0.51353000  0.92462000  1.0 1.2414418572
P  P20  1  0.85970000  0.01353000  0.07538000  1.0 1.2466561908
P  P21  1  0.85970000  0.51353000  0.42462000  1.0 1.2414418572
P  P22  1  0.64030000  0.01353000  0.57538000  1.0 1.2466561908
P  P23  1  0.35970000  0.48647000  0.07538000  1.0 1.2414418572
P  P24  1  0.14030000  0.98647000  0.92462000  1.0 1.2414418572
H  H1  1  0.04690000  0.54840000  0.29710000  1.0 0.4313868882
H  H2  1  0.45310000  0.04840000  0.70290000  1.0 0.4313868882
H  H3  1  0.54690000  0.45160000  0.20290000  1.0 0.4313868882
H  H4  1  0.95310000  0.95160000  0.79710000  1.0 0.4313868882
H  H5  1  0.95310000  0.45160000  0.70290000  1.0 0.4313868882
H  H6  1  0.54690000  0.95160000  0.29710000  1.0 0.4313868882
H  H7  1  0.45310000  0.54840000  0.79710000  1.0 0.4313868882
H  H8  1  0.04690000  0.04840000  0.20290000  1.0 0.4313868882
H  H9  1  0.98480000  0.68140000  0.11660000  1.0 0.1796283612
H  H10  1  0.86890000  0.62290000  0.08540000  1.0 0.2333185283
H  H11  1  0.00540000  0.57770000  0.11770000  1.0 0.2023540047
H  H12  1  0.91410000  0.78050000  0.85690000  1.0 0.2023540047
H  H13  1  0.74510000  0.76680000  0.87500000  1.0 0.2906769963
H  H14  1  0.95300000  0.58510000  0.97610000  1.0 0.1108900529
H  H15  1  0.11360000  0.61440000  0.01350000  1.0 0.0723774062
H  H16  1  0.03970000  0.71650000  0.93010000  1.0 0.1194997049
H  H17  1  0.02280000  0.76590000  0.02010000  1.0 0.1282217681
H  H18  1  0.78290000  0.72120000  0.99560000  1.0 0.1108900529
H  H19  1  0.85580000  0.83090000  0.96770000  1.0 0.0898669448
H  H20  1  0.08700000  0.65200000  0.06900000  1.0 0.1000732744
H  H21  1  0.92500000  0.65400000  0.07200000  1.0 0.1108900529
H  H22  1  0.99940000  0.52170000  0.06420000  1.0 0.1641911233
H  H23  1  0.07500000  0.54700000  0.98800000  1.0 0.1436069107
H  H24  1  0.91300000  0.54800000  0.99200000  1.0 0.1739277786
H  H25  1  0.51520000  0.18140000  0.88340000  1.0 0.1796283612
H  H26  1  0.63110000  0.12290000  0.91460000  1.0 0.2333185283
H  H27  1  0.49460000  0.07770000  0.88230000  1.0 0.2023540047
H  H28  1  0.58590000  0.28050000  0.14310000  1.0 0.2023540047
H  H29  1  0.75490000  0.26680000  0.12500000  1.0 0.2906769963
H  H30  1  0.54700000  0.08510000  0.02390000  1.0 0.1108900529
H  H31  1  0.38640000  0.11440000  0.98650000  1.0 0.0723774062
H  H32  1  0.46030000  0.21650000  0.06990000  1.0 0.1194997049
H  H33  1  0.47720000  0.26590000  0.97990000  1.0 0.1282217681
H  H34  1  0.71710000  0.22120000  0.00440000  1.0 0.1108900529
H  H35  1  0.64420000  0.33090000  0.03230000  1.0 0.0898669448
H  H36  1  0.41300000  0.15200000  0.93100000  1.0 0.1000732744
H  H37  1  0.57500000  0.15400000  0.92800000  1.0 0.1108900529
H  H38  1  0.50060000  0.02170000  0.93580000  1.0 0.1641911233
H  H39  1  0.42500000  0.04700000  0.01200000  1.0 0.1436069107
H  H40  1  0.58700000  0.04800000  0.00800000  1.0 0.1739277786
H  H41  1  0.48480000  0.31860000  0.38340000  1.0 0.1796283612
H  H42  1  0.36890000  0.37710000  0.41460000  1.0 0.2333185283
H  H43  1  0.50540000  0.42230000  0.38230000  1.0 0.2023540047
H  H44  1  0.41410000  0.21950000  0.64310000  1.0 0.2023540047
H  H45  1  0.24510000  0.23320000  0.62500000  1.0 0.2906769963
H  H46  1  0.45300000  0.41490000  0.52390000  1.0 0.1108900529
H  H47  1  0.61360000  0.38560000  0.48650000  1.0 0.0723774062
H  H48  1  0.53970000  0.28350000  0.56990000  1.0 0.1194997049
H  H49  1  0.52280000  0.23410000  0.47990000  1.0 0.1282217681
H  H50  1  0.28290000  0.27880000  0.50440000  1.0 0.1108900529
H  H51  1  0.35580000  0.16910000  0.53230000  1.0 0.0898669448
H  H52  1  0.58700000  0.34800000  0.43100000  1.0 0.1000732744
H  H53  1  0.42500000  0.34600000  0.42800000  1.0 0.1108900529
H  H54  1  0.49940000  0.47830000  0.43580000  1.0 0.1641911233
H  H55  1  0.57500000  0.45300000  0.51200000  1.0 0.1436069107
H  H56  1  0.41300000  0.45200000  0.50800000  1.0 0.1739277786
H  H57  1  0.01520000  0.81860000  0.61660000  1.0 0.1796283612
H  H58  1  0.13110000  0.87710000  0.58540000  1.0 0.2333185283
H  H59  1  0.99460000  0.92230000  0.61770000  1.0 0.2023540047
H  H60  1  0.08590000  0.71950000  0.35690000  1.0 0.2023540047
H  H61  1  0.25490000  0.73320000  0.37500000  1.0 0.2906769963
H  H62  1  0.04700000  0.91490000  0.47610000  1.0 0.1108900529
H  H63  1  0.88640000  0.88560000  0.51350000  1.0 0.0723774062
H  H64  1  0.96030000  0.78350000  0.43010000  1.0 0.1194997049
H  H65  1  0.97720000  0.73410000  0.52010000  1.0 0.1282217681
H  H66  1  0.21710000  0.77880000  0.49560000  1.0 0.1108900529
H  H67  1  0.14420000  0.66910000  0.46770000  1.0 0.0898669448
H  H68  1  0.91300000  0.84800000  0.56900000  1.0 0.1000732744
H  H69  1  0.07500000  0.84600000  0.57200000  1.0 0.1108900529
H  H70  1  0.00060000  0.97830000  0.56420000  1.0 0.1641911233
H  H71  1  0.92500000  0.95300000  0.48800000  1.0 0.1436069107
H  H72  1  0.08700000  0.95200000  0.49200000  1.0 0.1739277786
H  H73  1  0.01520000  0.31860000  0.88340000  1.0 0.1796283612
H  H74  1  0.13110000  0.37710000  0.91460000  1.0 0.2333185283
H  H75  1  0.99460000  0.42230000  0.88230000  1.0 0.2023540047
H  H76  1  0.08590000  0.21950000  0.14310000  1.0 0.2023540047
H  H77  1  0.25490000  0.23320000  0.12500000  1.0 0.2906769963
H  H78  1  0.04700000  0.41490000  0.02390000  1.0 0.1108900529
H  H79  1  0.88640000  0.38560000  0.98650000  1.0 0.0723774062
H  H80  1  0.96030000  0.28350000  0.06990000  1.0 0.1194997049
H  H81  1  0.97720000  0.23410000  0.97990000  1.0 0.1282217681
H  H82  1  0.21710000  0.27880000  0.00440000  1.0 0.1108900529
H  H83  1  0.14420000  0.16910000  0.03230000  1.0 0.0898669448
H  H84  1  0.91300000  0.34800000  0.93100000  1.0 0.1000732744
H  H85  1  0.07500000  0.34600000  0.92800000  1.0 0.1108900529
H  H86  1  0.00060000  0.47830000  0.93580000  1.0 0.1641911233
H  H87  1  0.92500000  0.45300000  0.01200000  1.0 0.1436069107
H  H88  1  0.08700000  0.45200000  0.00800000  1.0 0.1739277786
H  H89  1  0.48480000  0.81860000  0.11660000  1.0 0.1796283612
H  H90  1  0.36890000  0.87710000  0.08540000  1.0 0.2333185283
H  H91  1  0.50540000  0.92230000  0.11770000  1.0 0.2023540047
H  H92  1  0.41410000  0.71950000  0.85690000  1.0 0.2023540047
H  H93  1  0.24510000  0.73320000  0.87500000  1.0 0.2906769963
H  H94  1  0.45300000  0.91490000  0.97610000  1.0 0.1108900529
H  H95  1  0.61360000  0.88560000  0.01350000  1.0 0.0723774062
H  H96  1  0.53970000  0.78350000  0.93010000  1.0 0.1194997049
H  H97  1  0.52280000  0.73410000  0.02010000  1.0 0.1282217681
H  H98  1  0.28290000  0.77880000  0.99560000  1.0 0.1108900529
H  H99  1  0.35580000  0.66910000  0.96770000  1.0 0.0898669448
H  H100  1  0.58700000  0.84800000  0.06900000  1.0 0.1000732744
H  H101  1  0.42500000  0.84600000  0.07200000  1.0 0.1108900529
H  H102  1  0.49940000  0.97830000  0.06420000  1.0 0.1641911233
H  H103  1  0.57500000  0.95300000  0.98800000  1.0 0.1436069107
H  H104  1  0.41300000  0.95200000  0.99200000  1.0 0.1739277786
H  H105  1  0.51520000  0.68140000  0.61660000  1.0 0.1796283612
H  H106  1  0.63110000  0.62290000  0.58540000  1.0 0.2333185283
H  H107  1  0.49460000  0.57770000  0.61770000  1.0 0.2023540047
H  H108  1  0.58590000  0.78050000  0.35690000  1.0 0.2023540047
H  H109  1  0.75490000  0.76680000  0.37500000  1.0 0.2906769963
H  H110  1  0.54700000  0.58510000  0.47610000  1.0 0.1108900529
H  H111  1  0.38640000  0.61440000  0.51350000  1.0 0.0723774062
H  H112  1  0.46030000  0.71650000  0.43010000  1.0 0.1194997049
H  H113  1  0.47720000  0.76590000  0.52010000  1.0 0.1282217681
H  H114  1  0.71710000  0.72120000  0.49560000  1.0 0.1108900529
H  H115  1  0.64420000  0.83090000  0.46770000  1.0 0.0898669448
H  H116  1  0.41300000  0.65200000  0.56900000  1.0 0.1000732744
H  H117  1  0.57500000  0.65400000  0.57200000  1.0 0.1108900529
H  H118  1  0.50060000  0.52170000  0.56420000  1.0 0.1641911233
H  H119  1  0.42500000  0.54700000  0.48800000  1.0 0.1436069107
H  H120  1  0.58700000  0.54800000  0.49200000  1.0 0.1739277786
H  H121  1  0.98480000  0.18140000  0.38340000  1.0 0.1796283612
H  H122  1  0.86890000  0.12290000  0.41460000  1.0 0.2333185283
H  H123  1  0.00540000  0.07770000  0.38230000  1.0 0.2023540047
H  H124  1  0.91410000  0.28050000  0.64310000  1.0 0.2023540047
H  H125  1  0.74510000  0.26680000  0.62500000  1.0 0.2906769963
H  H126  1  0.95300000  0.08510000  0.52390000  1.0 0.1108900529
H  H127  1  0.11360000  0.11440000  0.48650000  1.0 0.0723774062
H  H128  1  0.03970000  0.21650000  0.56990000  1.0 0.1194997049
H  H129  1  0.02280000  0.26590000  0.47990000  1.0 0.1282217681
H  H130  1  0.78290000  0.22120000  0.50440000  1.0 0.1108900529
H  H131  1  0.85580000  0.33090000  0.53230000  1.0 0.0898669448
H  H132  1  0.08700000  0.15200000  0.43100000  1.0 0.1000732744
H  H133  1  0.92500000  0.15400000  0.42800000  1.0 0.1108900529
H  H134  1  0.99940000  0.02170000  0.43580000  1.0 0.1641911233
H  H135  1  0.07500000  0.04700000  0.51200000  1.0 0.1436069107
H  H136  1  0.91300000  0.04800000  0.50800000  1.0 0.1739277786
C  C1  1  0.01310000  0.63270000  0.01090000  1.0 0.1108900529
C  C2  1  0.99790000  0.72220000  0.98020000  1.0 -0.1846598124
C  C3  1  0.85560000  0.75150000  0.96590000  1.0 -0.0544522049
C  C4  1  0.00400000  0.64400000  0.03900000  1.0 0.1194997049
C  C5  1  0.48690000  0.13270000  0.98910000  1.0 0.1108900529
C  C6  1  0.50210000  0.22220000  0.01980000  1.0 -0.1846598124
C  C7  1  0.64440000  0.25150000  0.03410000  1.0 -0.0544522049
C  C8  1  0.49600000  0.14400000  0.96100000  1.0 0.1194997049
C  C9  1  0.51310000  0.36730000  0.48910000  1.0 0.1108900529
C  C10  1  0.49790000  0.27780000  0.51980000  1.0 -0.1853184885
C  C11  1  0.35560000  0.24850000  0.53410000  1.0 -0.0544522049
C  C12  1  0.50400000  0.35600000  0.46100000  1.0 0.1194997049
C  C13  1  0.98690000  0.86730000  0.51090000  1.0 0.1108900529
C  C14  1  0.00210000  0.77780000  0.48020000  1.0 -0.1846598124
C  C15  1  0.14440000  0.74850000  0.46590000  1.0 -0.0544522049
C  C16  1  0.99600000  0.85600000  0.53900000  1.0 0.1194997049
C  C17  1  0.98690000  0.36730000  0.98910000  1.0 0.1108900529
C  C18  1  0.00210000  0.27780000  0.01980000  1.0 -0.1853184885
C  C19  1  0.14440000  0.24850000  0.03410000  1.0 -0.0544522049
C  C20  1  0.99600000  0.35600000  0.96100000  1.0 0.1194997049
C  C21  1  0.51310000  0.86730000  0.01090000  1.0 0.1108900529
C  C22  1  0.49790000  0.77780000  0.98020000  1.0 -0.1846598124
C  C23  1  0.35560000  0.74850000  0.96590000  1.0 -0.0544522049
C  C24  1  0.50400000  0.85600000  0.03900000  1.0 0.1194997049
C  C25  1  0.48690000  0.63270000  0.51090000  1.0 0.1108900529
C  C26  1  0.50210000  0.72220000  0.48020000  1.0 -0.1846598124
C  C27  1  0.64440000  0.75150000  0.46590000  1.0 -0.0544522049
C  C28  1  0.49600000  0.64400000  0.53900000  1.0 0.1194997049
C  C29  1  0.01310000  0.13270000  0.48910000  1.0 0.1108900529
C  C30  1  0.99790000  0.22220000  0.51980000  1.0 -0.1846598124
C  C31  1  0.85560000  0.25150000  0.53410000  1.0 -0.0544522049
C  C32  1  0.00400000  0.14400000  0.46100000  1.0 0.1194997049
N  N1  1  0.96610000  0.62850000  0.08970000  1.0 -0.1616527884
N  N2  1  0.82390000  0.74570000  0.88660000  1.0 -0.4639759546
N  N3  1  0.99700000  0.55900000  0.02000000  1.0 -0.1492093092
N  N4  1  0.53390000  0.12850000  0.91030000  1.0 -0.1616527884
N  N5  1  0.67610000  0.24570000  0.11340000  1.0 -0.4639759546
N  N6  1  0.50300000  0.05900000  0.98000000  1.0 -0.1492093092
N  N7  1  0.46610000  0.37150000  0.41030000  1.0 -0.1616527884
N  N8  1  0.32390000  0.25430000  0.61340000  1.0 -0.4639759546
N  N9  1  0.49700000  0.44100000  0.48000000  1.0 -0.1492093092
N  N10  1  0.03390000  0.87150000  0.58970000  1.0 -0.1616527884
N  N11  1  0.17610000  0.75430000  0.38660000  1.0 -0.4639759546
N  N12  1  0.00300000  0.94100000  0.52000000  1.0 -0.1492093092
N  N13  1  0.03390000  0.37150000  0.91030000  1.0 -0.1616527884
N  N14  1  0.17610000  0.25430000  0.11340000  1.0 -0.4639759546
N  N15  1  0.00300000  0.44100000  0.98000000  1.0 -0.1492093092
N  N16  1  0.46610000  0.87150000  0.08970000  1.0 -0.1616527884
N  N17  1  0.32390000  0.75430000  0.88660000  1.0 -0.4639759546
N  N18  1  0.49700000  0.94100000  0.02000000  1.0 -0.1492093092
N  N19  1  0.53390000  0.62850000  0.58970000  1.0 -0.1616527884
N  N20  1  0.67610000  0.74570000  0.38660000  1.0 -0.4639759546
N  N21  1  0.50300000  0.55900000  0.52000000  1.0 -0.1492093092
N  N22  1  0.96610000  0.12850000  0.41030000  1.0 -0.1616527884
N  N23  1  0.82390000  0.24570000  0.61340000  1.0 -0.4639759546
N  N24  1  0.99700000  0.05900000  0.48000000  1.0 -0.1492093092
O  O1  1  0.00020000  0.29110000  0.33620000  1.0 -0.7615866697
O  O2  1  0.49980000  0.79110000  0.66380000  1.0 -0.7615866697
O  O3  1  0.50020000  0.70890000  0.16380000  1.0 -0.7615866697
O  O4  1  0.99980000  0.20890000  0.83620000  1.0 -0.7615866697
O  O5  1  0.99980000  0.70890000  0.66380000  1.0 -0.7615866697
O  O6  1  0.50020000  0.20890000  0.33620000  1.0 -0.7615866697
O  O7  1  0.49980000  0.29110000  0.83620000  1.0 -0.7615866697
O  O8  1  0.00020000  0.79110000  0.16380000  1.0 -0.7615866697
O  O9  1  0.17810000  0.34970000  0.25120000  1.0 -0.7615866697
O  O10  1  0.32190000  0.84970000  0.74880000  1.0 -0.7615866697
O  O11  1  0.67810000  0.65030000  0.24880000  1.0 -0.7615866697
O  O12  1  0.82190000  0.15030000  0.75120000  1.0 -0.7615866697
O  O13  1  0.82190000  0.65030000  0.74880000  1.0 -0.7615866697
O  O14  1  0.67810000  0.15030000  0.25120000  1.0 -0.7615866697
O  O15  1  0.32190000  0.34970000  0.75120000  1.0 -0.7615866697
O  O16  1  0.17810000  0.84970000  0.24880000  1.0 -0.7615866697
O  O17  1  0.18270000  0.38280000  0.38870000  1.0 -0.7896173408
O  O18  1  0.31730000  0.88280000  0.61130000  1.0 -0.7896173408
O  O19  1  0.68270000  0.61720000  0.11130000  1.0 -0.7896173408
O  O20  1  0.81730000  0.11720000  0.88870000  1.0 -0.7896173408
O  O21  1  0.81730000  0.61720000  0.61130000  1.0 -0.7896173408
O  O22  1  0.68270000  0.11720000  0.38870000  1.0 -0.7896173408
O  O23  1  0.31730000  0.38280000  0.88870000  1.0 -0.7896173408
O  O24  1  0.18270000  0.88280000  0.11130000  1.0 -0.7896173408
O  O25  1  0.23380000  0.23890000  0.34660000  1.0 -0.7793301678
O  O26  1  0.26620000  0.73890000  0.65340000  1.0 -0.7793301678
O  O27  1  0.73380000  0.76110000  0.15340000  1.0 -0.7793301678
O  O28  1  0.76620000  0.26110000  0.84660000  1.0 -0.7793301678
O  O29  1  0.76620000  0.76110000  0.65340000  1.0 -0.7793301678
O  O30  1  0.73380000  0.26110000  0.34660000  1.0 -0.7793301678
O  O31  1  0.26620000  0.23890000  0.84660000  1.0 -0.7793301678
O  O32  1  0.23380000  0.73890000  0.15340000  1.0 -0.7793301678
O  O33  1  0.36200000  0.64290000  0.27240000  1.0 -0.7793301678
O  O34  1  0.13800000  0.14290000  0.72760000  1.0 -0.7793301678
O  O35  1  0.86200000  0.35710000  0.22760000  1.0 -0.7793301678
O  O36  1  0.63800000  0.85710000  0.77240000  1.0 -0.7793301678
O  O37  1  0.63800000  0.35710000  0.72760000  1.0 -0.7793301678
O  O38  1  0.86200000  0.85710000  0.27240000  1.0 -0.7793301678
O  O39  1  0.13800000  0.64290000  0.77240000  1.0 -0.7793301678
O  O40  1  0.36200000  0.14290000  0.22760000  1.0 -0.7793301678
O  O41  1  0.34300000  0.48290000  0.26660000  1.0 -0.7728511801
O  O42  1  0.15700000  0.98290000  0.73340000  1.0 -0.7728511801
O  O43  1  0.84300000  0.51710000  0.23340000  1.0 -0.7728511801
O  O44  1  0.65700000  0.01710000  0.76660000  1.0 -0.7728511801
O  O45  1  0.65700000  0.51710000  0.73340000  1.0 -0.7728511801
O  O46  1  0.84300000  0.01710000  0.26660000  1.0 -0.7728511801
O  O47  1  0.15700000  0.48290000  0.76660000  1.0 -0.7728511801
O  O48  1  0.34300000  0.98290000  0.23340000  1.0 -0.7728511801
O  O49  1  0.29240000  0.56230000  0.38440000  1.0 -0.7896173408
O  O50  1  0.20760000  0.06230000  0.61560000  1.0 -0.7896173408
O  O51  1  0.79240000  0.43770000  0.11560000  1.0 -0.7896173408
O  O52  1  0.70760000  0.93770000  0.88440000  1.0 -0.7896173408
O  O53  1  0.70760000  0.43770000  0.61560000  1.0 -0.7896173408
O  O54  1  0.79240000  0.93770000  0.38440000  1.0 -0.7896173408
O  O55  1  0.20760000  0.56230000  0.88440000  1.0 -0.7896173408
O  O56  1  0.29240000  0.06230000  0.11560000  1.0 -0.7896173408
O  O57  1  0.52490000  0.54950000  0.33980000  1.0 -0.7516868597
O  O58  1  0.97510000  0.04950000  0.66020000  1.0 -0.7516868597
O  O59  1  0.02490000  0.45050000  0.16020000  1.0 -0.7516868597
O  O60  1  0.47510000  0.95050000  0.83980000  1.0 -0.7516868597
O  O61  1  0.47510000  0.45050000  0.66020000  1.0 -0.7516868597
O  O62  1  0.02490000  0.95050000  0.33980000  1.0 -0.7516868597
O  O63  1  0.97510000  0.54950000  0.83980000  1.0 -0.7516868597
O  O64  1  0.52490000  0.04950000  0.16020000  1.0 -0.7516868597
O  O65  1  0.37410000  0.58050000  0.09980000  1.0 -0.8008636719
O  O66  1  0.12590000  0.08050000  0.90020000  1.0 -0.8008636719
O  O67  1  0.87410000  0.41950000  0.40020000  1.0 -0.8008636719
O  O68  1  0.62590000  0.91950000  0.59980000  1.0 -0.8008636719
O  O69  1  0.62590000  0.41950000  0.90020000  1.0 -0.8008636719
O  O70  1  0.87410000  0.91950000  0.09980000  1.0 -0.8008636719
O  O71  1  0.12590000  0.58050000  0.59980000  1.0 -0.8008636719
O  O72  1  0.37410000  0.08050000  0.40020000  1.0 -0.8008636719
O  O73  1  0.27930000  0.43410000  0.13160000  1.0 -0.7334159574
O  O74  1  0.22070000  0.93410000  0.86840000  1.0 -0.7334159574
O  O75  1  0.77930000  0.56590000  0.36840000  1.0 -0.7334159574
O  O76  1  0.72070000  0.06590000  0.63160000  1.0 -0.7334159574
O  O77  1  0.72070000  0.56590000  0.86840000  1.0 -0.7334159574
O  O78  1  0.77930000  0.06590000  0.13160000  1.0 -0.7334159574
O  O79  1  0.22070000  0.43410000  0.63160000  1.0 -0.7334159574
O  O80  1  0.27930000  0.93410000  0.36840000  1.0 -0.7334159574
O  O81  1  0.20690000  0.48210000  0.50030000  1.0 -0.7896173408
O  O82  1  0.29310000  0.98210000  0.49970000  1.0 -0.7896173408
O  O83  1  0.70690000  0.51790000  0.99970000  1.0 -0.7896173408
O  O84  1  0.79310000  0.01790000  0.00030000  1.0 -0.7896173408
O  O85  1  0.79310000  0.51790000  0.49970000  1.0 -0.7896173408
O  O86  1  0.70690000  0.01790000  0.50030000  1.0 -0.7896173408
O  O87  1  0.29310000  0.48210000  0.00030000  1.0 -0.7896173408
O  O88  1  0.20690000  0.98210000  0.99970000  1.0 -0.7896173408
O  O89  1  0.00070000  0.55090000  0.42910000  1.0 -0.8008636719
O  O90  1  0.49930000  0.05090000  0.57090000  1.0 -0.8008636719
O  O91  1  0.50070000  0.44910000  0.07090000  1.0 -0.8008636719
O  O92  1  0.99930000  0.94910000  0.92910000  1.0 -0.8008636719
O  O93  1  0.99930000  0.44910000  0.57090000  1.0 -0.8008636719
O  O94  1  0.50070000  0.94910000  0.42910000  1.0 -0.8008636719
O  O95  1  0.49930000  0.55090000  0.92910000  1.0 -0.8008636719
O  O96  1  0.00070000  0.05090000  0.07090000  1.0 -0.8008636719
O  O97  1  0.09330000  0.49900000  0.30270000  1.0 -0.9703005215
O  O98  1  0.40670000  0.99900000  0.69730000  1.0 -0.9703005215
O  O99  1  0.59330000  0.50100000  0.19730000  1.0 -0.9703005215
O  O100  1  0.90670000  0.00100000  0.80270000  1.0 -0.9703005215
O  O101  1  0.90670000  0.50100000  0.69730000  1.0 -0.9703005215
O  O102  1  0.59330000  0.00100000  0.30270000  1.0 -0.9703005215
O  O103  1  0.40670000  0.49900000  0.80270000  1.0 -0.9703005215
O  O104  1  0.09330000  0.99900000  0.19730000  1.0 -0.9703005215
O  O105  1  0.18140000  0.58050000  0.18720000  1.0 -0.9158515743
O  O106  1  0.31860000  0.08050000  0.81280000  1.0 -0.9158515743
O  O107  1  0.68140000  0.41950000  0.31280000  1.0 -0.9158515743
O  O108  1  0.81860000  0.91950000  0.68720000  1.0 -0.9158515743
O  O109  1  0.81860000  0.41950000  0.81280000  1.0 -0.9158515743
O  O110  1  0.68140000  0.91950000  0.18720000  1.0 -0.9158515743
O  O111  1  0.31860000  0.58050000  0.68720000  1.0 -0.9158515743
O  O112  1  0.18140000  0.08050000  0.31280000  1.0 -0.9158515743
