# DDEC6 charges by PACMAN v1.1 (https://github.com/mtap-research/PACMAN-charge/)
data_TAWSUI_ASR_pacman
_symmetry_space_group_name_H-M   'P 1'
_cell_length_a   9.28460000
_cell_length_b   14.23000000
_cell_length_c   16.64800000
_cell_angle_alpha   90.00000000
_cell_angle_beta   90.00000000
_cell_angle_gamma   90.00000000
_symmetry_Int_Tables_number   1
_chemical_formula_structural   Zn3P4H5O12
_chemical_formula_sum   'Zn12 P16 H20 O48'
_cell_volume   2199.53139598
_cell_formula_units_Z   4
loop_
 _symmetry_equiv_pos_site_id
 _symmetry_equiv_pos_as_xyz
  1  'x, y, z'
loop_
 _atom_site_type_symbol
 _atom_site_label
 _atom_site_symmetry_multiplicity
 _atom_site_fract_x
 _atom_site_fract_y
 _atom_site_fract_z
 _atom_site_occupancy
 _atom_site_charge
Zn  Zn1  1  0.07395000  0.10700000  0.57661000  1.0 1.1208092722
Zn  Zn2  1  0.57395000  0.89300000  0.92339000  1.0 1.1208092722
Zn  Zn3  1  0.42605000  0.39300000  0.07661000  1.0 1.1208092722
Zn  Zn4  1  0.92605000  0.60700000  0.42339000  1.0 1.1208092722
Zn  Zn5  1  0.92605000  0.89300000  0.42339000  1.0 1.1208092722
Zn  Zn6  1  0.42605000  0.10700000  0.07661000  1.0 1.1208092722
Zn  Zn7  1  0.57395000  0.60700000  0.92339000  1.0 1.1208092722
Zn  Zn8  1  0.07395000  0.39300000  0.57661000  1.0 1.1208092722
Zn  Zn9  1  0.58651000  0.25000000  0.40326000  1.0 1.1208092722
Zn  Zn10  1  0.08651000  0.75000000  0.09674000  1.0 1.1208092722
Zn  Zn11  1  0.91349000  0.25000000  0.90326000  1.0 1.1208092722
Zn  Zn12  1  0.41349000  0.75000000  0.59674000  1.0 1.1208092722
P  P1  1  0.84140000  0.10469000  0.43943000  1.0 1.2238727762
P  P2  1  0.34140000  0.89531000  0.06057000  1.0 1.2238727762
P  P3  1  0.65860000  0.39531000  0.93943000  1.0 1.2238727762
P  P4  1  0.15860000  0.60469000  0.56057000  1.0 1.2238727762
P  P5  1  0.15860000  0.89531000  0.56057000  1.0 1.2238727762
P  P6  1  0.65860000  0.10469000  0.93943000  1.0 1.2238727762
P  P7  1  0.34140000  0.60469000  0.06057000  1.0 1.2238727762
P  P8  1  0.84140000  0.39531000  0.43943000  1.0 1.2238727762
P  P9  1  0.26180000  0.25000000  0.47102000  1.0 0.9341098024
P  P10  1  0.76180000  0.75000000  0.02898000  1.0 0.9361102832
P  P11  1  0.23820000  0.25000000  0.97102000  1.0 0.9341098024
P  P12  1  0.73820000  0.75000000  0.52898000  1.0 0.9361102832
P  P13  1  0.45000000  0.25000000  0.22406000  1.0 1.1576024843
P  P14  1  0.95000000  0.75000000  0.27594000  1.0 1.1576024843
P  P15  1  0.05000000  0.25000000  0.72406000  1.0 1.1576024843
P  P16  1  0.55000000  0.75000000  0.77594000  1.0 1.1576024843
H  H1  1  0.92370000  0.17960000  0.41570000  1.0 -0.1637743113
H  H2  1  0.42370000  0.82040000  0.08430000  1.0 -0.1637743113
H  H3  1  0.57630000  0.32040000  0.91570000  1.0 -0.1637743113
H  H4  1  0.07630000  0.67960000  0.58430000  1.0 -0.1637743113
H  H5  1  0.07630000  0.82040000  0.58430000  1.0 -0.1637743113
H  H6  1  0.57630000  0.17960000  0.91570000  1.0 -0.1637743113
H  H7  1  0.42370000  0.67960000  0.08430000  1.0 -0.1637743113
H  H8  1  0.92370000  0.32040000  0.41570000  1.0 -0.1637743113
H  H9  1  0.32090000  0.25000000  0.25110000  1.0 -0.1637743113
H  H10  1  0.82090000  0.75000000  0.24890000  1.0 -0.1637743113
H  H11  1  0.17910000  0.25000000  0.75110000  1.0 -0.1637743113
H  H12  1  0.67910000  0.75000000  0.74890000  1.0 -0.1637743113
H  H13  1  0.23300000  0.23380000  0.39680000  1.0 -0.0504818717
H  H14  1  0.73300000  0.76620000  0.10320000  1.0 -0.0504818717
H  H15  1  0.26700000  0.26620000  0.89680000  1.0 -0.0504818717
H  H16  1  0.76700000  0.73380000  0.60320000  1.0 -0.0504818717
H  H17  1  0.76700000  0.76620000  0.60320000  1.0 -0.0504818717
H  H18  1  0.26700000  0.23380000  0.89680000  1.0 -0.0504818717
H  H19  1  0.73300000  0.73380000  0.10320000  1.0 -0.0504818717
H  H20  1  0.23300000  0.26620000  0.39680000  1.0 -0.0504818717
O  O1  1  0.88400000  0.09800000  0.52670000  1.0 -0.6628932403
O  O2  1  0.38400000  0.90200000  0.97330000  1.0 -0.6628932403
O  O3  1  0.61600000  0.40200000  0.02670000  1.0 -0.6628932403
O  O4  1  0.11600000  0.59800000  0.47330000  1.0 -0.6628932403
O  O5  1  0.11600000  0.90200000  0.47330000  1.0 -0.6628932403
O  O6  1  0.61600000  0.09800000  0.02670000  1.0 -0.6628932403
O  O7  1  0.38400000  0.59800000  0.97330000  1.0 -0.6628932403
O  O8  1  0.88400000  0.40200000  0.52670000  1.0 -0.6628932403
O  O9  1  0.86480000  0.01600000  0.39390000  1.0 -0.632421785
O  O10  1  0.36480000  0.98400000  0.10610000  1.0 -0.632421785
O  O11  1  0.63520000  0.48400000  0.89390000  1.0 -0.632421785
O  O12  1  0.13520000  0.51600000  0.60610000  1.0 -0.632421785
O  O13  1  0.13520000  0.98400000  0.60610000  1.0 -0.632421785
O  O14  1  0.63520000  0.01600000  0.89390000  1.0 -0.632421785
O  O15  1  0.36480000  0.51600000  0.10610000  1.0 -0.632421785
O  O16  1  0.86480000  0.48400000  0.39390000  1.0 -0.632421785
O  O17  1  0.69020000  0.13890000  0.43310000  1.0 -0.632421785
O  O18  1  0.19020000  0.86110000  0.06690000  1.0 -0.632421785
O  O19  1  0.80980000  0.36110000  0.93310000  1.0 -0.632421785
O  O20  1  0.30980000  0.63890000  0.56690000  1.0 -0.632421785
O  O21  1  0.30980000  0.86110000  0.56690000  1.0 -0.632421785
O  O22  1  0.80980000  0.13890000  0.93310000  1.0 -0.632421785
O  O23  1  0.19020000  0.63890000  0.06690000  1.0 -0.632421785
O  O24  1  0.69020000  0.36110000  0.43310000  1.0 -0.632421785
O  O25  1  0.41780000  0.25000000  0.46750000  1.0 -0.4934272217
O  O26  1  0.91780000  0.75000000  0.03250000  1.0 -0.4934272217
O  O27  1  0.08220000  0.25000000  0.96750000  1.0 -0.4934272217
O  O28  1  0.58220000  0.75000000  0.53250000  1.0 -0.4934272217
O  O29  1  0.20810000  0.16370000  0.50670000  1.0 -0.5808734605
O  O30  1  0.70810000  0.83630000  0.99330000  1.0 -0.5808734605
O  O31  1  0.29190000  0.33630000  0.00670000  1.0 -0.5808734605
O  O32  1  0.79190000  0.66370000  0.49330000  1.0 -0.5808734605
O  O33  1  0.79190000  0.83630000  0.49330000  1.0 -0.5808734605
O  O34  1  0.29190000  0.16370000  0.00670000  1.0 -0.5808734605
O  O35  1  0.70810000  0.66370000  0.99330000  1.0 -0.5808734605
O  O36  1  0.20810000  0.33630000  0.50670000  1.0 -0.5808734605
O  O37  1  0.55390000  0.25000000  0.29230000  1.0 -0.6382045345
O  O38  1  0.05390000  0.75000000  0.20770000  1.0 -0.6382045345
O  O39  1  0.94610000  0.25000000  0.79230000  1.0 -0.6382045345
O  O40  1  0.44610000  0.75000000  0.70770000  1.0 -0.6382045345
O  O41  1  0.46670000  0.33540000  0.17780000  1.0 -0.5808734605
O  O42  1  0.96670000  0.66460000  0.32220000  1.0 -0.5808734605
O  O43  1  0.03330000  0.16460000  0.67780000  1.0 -0.5808734605
O  O44  1  0.53330000  0.83540000  0.82220000  1.0 -0.5808734605
O  O45  1  0.53330000  0.66460000  0.82220000  1.0 -0.5808734605
O  O46  1  0.03330000  0.33540000  0.67780000  1.0 -0.5808734605
O  O47  1  0.96670000  0.83540000  0.32220000  1.0 -0.5808734605
O  O48  1  0.46670000  0.16460000  0.17780000  1.0 -0.5808734605
