# DDEC6 charges by PACMAN v1.1 (https://github.com/mtap-research/PACMAN-charge/)
data_TAYWUO_ASR_pacman
_symmetry_space_group_name_H-M   'P 1'
_cell_length_a   10.99870000
_cell_length_b   23.01530000
_cell_length_c   15.19720000
_cell_angle_alpha   90.00000000
_cell_angle_beta   100.01500000
_cell_angle_gamma   90.00000000
_symmetry_Int_Tables_number   1
_chemical_formula_structural   CoH32C46(NO2)2
_chemical_formula_sum   'Co4 H128 C184 N8 O16'
_cell_volume   3788.37508023
_cell_formula_units_Z   4
loop_
 _symmetry_equiv_pos_site_id
 _symmetry_equiv_pos_as_xyz
  1  'x, y, z'
loop_
 _atom_site_type_symbol
 _atom_site_label
 _atom_site_symmetry_multiplicity
 _atom_site_fract_x
 _atom_site_fract_y
 _atom_site_fract_z
 _atom_site_occupancy
 _atom_site_charge
Co  Co1  1  0.14559000  0.94511000  0.53601000  1.0 0.824263835
Co  Co2  1  0.85441000  0.44511000  0.96399000  1.0 0.824263835
Co  Co3  1  0.85441000  0.05489000  0.46399000  1.0 0.824263835
Co  Co4  1  0.14559000  0.55489000  0.03601000  1.0 0.824263835
H  H1  1  0.36970000  0.00330000  0.47810000  1.0 0.1017956384
H  H2  1  0.47900000  0.00680000  0.36110000  1.0 0.120817766
H  H3  1  0.24100000  0.88930000  0.23050000  1.0 0.120817766
H  H4  1  0.14020000  0.88790000  0.35150000  1.0 0.1017956384
H  H5  1  0.39890000  0.92610000  0.15330000  1.0 0.1111393011
H  H6  1  0.57120000  0.00070000  0.24840000  1.0 0.1111393011
H  H7  1  0.51200000  0.91020000  0.05080000  1.0 0.1111393011
H  H8  1  0.62580000  0.91180000  0.93390000  1.0 0.1017956384
H  H9  1  0.82940000  0.04490000  0.05260000  1.0 0.1111393011
H  H10  1  0.71910000  0.04250000  0.16970000  1.0 0.1111393011
H  H11  1  0.87960000  0.01060000  0.91650000  1.0 0.1111393011
H  H12  1  0.75370000  0.91470000  0.84050000  1.0 0.1017956384
H  H13  1  0.11530000  0.01640000  0.70620000  1.0 0.1017956384
H  H14  1  0.99450000  0.01950000  0.81580000  1.0 0.120817766
H  H15  1  0.82370000  0.87340000  0.71150000  1.0 0.120817766
H  H16  1  0.94940000  0.87460000  0.60520000  1.0 0.1017956384
H  H17  1  0.27850000  0.76390000  0.64580000  1.0 0.0879216756
H  H18  1  0.41350000  0.69730000  0.72230000  1.0 0.0696185541
H  H19  1  0.65280000  0.82490000  0.80790000  1.0 0.120817766
H  H20  1  0.51980000  0.89280000  0.73080000  1.0 0.1261123807
H  H21  1  0.50650000  0.65810000  0.85890000  1.0 0.0795569895
H  H22  1  0.63920000  0.58730000  0.92510000  1.0 0.0879216756
H  H23  1  0.92840000  0.67650000  0.86430000  1.0 0.1111393011
H  H24  1  0.79540000  0.74770000  0.79690000  1.0 0.0879216756
H  H25  1  0.33190000  0.76980000  0.59280000  1.0 0.0795569895
H  H26  1  0.47330000  0.70090000  0.66250000  1.0 0.0696185541
H  H27  1  0.65230000  0.82700000  0.82070000  1.0 0.1111393011
H  H28  1  0.51090000  0.89580000  0.75100000  1.0 0.120817766
H  H29  1  0.53390000  0.64710000  0.77620000  1.0 0.0696185541
H  H30  1  0.66030000  0.57490000  0.85240000  1.0 0.0795569895
H  H31  1  0.93850000  0.69150000  0.91180000  1.0 0.1017956384
H  H32  1  0.81210000  0.76370000  0.83550000  1.0 0.0795569895
H  H33  1  0.63030000  0.50330000  0.02190000  1.0 0.1017956384
H  H34  1  0.52100000  0.50680000  0.13890000  1.0 0.120817766
H  H35  1  0.75900000  0.38930000  0.26950000  1.0 0.120817766
H  H36  1  0.85980000  0.38790000  0.14850000  1.0 0.1017956384
H  H37  1  0.60110000  0.42610000  0.34670000  1.0 0.1111393011
H  H38  1  0.42880000  0.50070000  0.25160000  1.0 0.1111393011
H  H39  1  0.48800000  0.41020000  0.44920000  1.0 0.1111393011
H  H40  1  0.37420000  0.41180000  0.56610000  1.0 0.1017956384
H  H41  1  0.17060000  0.54490000  0.44740000  1.0 0.1111393011
H  H42  1  0.28090000  0.54250000  0.33030000  1.0 0.1111393011
H  H43  1  0.12040000  0.51060000  0.58350000  1.0 0.1111393011
H  H44  1  0.24630000  0.41470000  0.65950000  1.0 0.1017956384
H  H45  1  0.88470000  0.51640000  0.79380000  1.0 0.1017956384
H  H46  1  0.00550000  0.51950000  0.68420000  1.0 0.120817766
H  H47  1  0.17630000  0.37340000  0.78850000  1.0 0.120817766
H  H48  1  0.05060000  0.37460000  0.89480000  1.0 0.1017956384
H  H49  1  0.72150000  0.26390000  0.85420000  1.0 0.0879216756
H  H50  1  0.58650000  0.19730000  0.77770000  1.0 0.0696185541
H  H51  1  0.34720000  0.32490000  0.69210000  1.0 0.120817766
H  H52  1  0.48020000  0.39280000  0.76920000  1.0 0.1261123807
H  H53  1  0.49350000  0.15810000  0.64110000  1.0 0.0795569895
H  H54  1  0.36080000  0.08730000  0.57490000  1.0 0.0879216756
H  H55  1  0.07160000  0.17650000  0.63570000  1.0 0.1111393011
H  H56  1  0.20460000  0.24770000  0.70310000  1.0 0.0879216756
H  H57  1  0.66810000  0.26980000  0.90720000  1.0 0.0795569895
H  H58  1  0.52670000  0.20090000  0.83750000  1.0 0.0696185541
H  H59  1  0.34770000  0.32700000  0.67930000  1.0 0.1111393011
H  H60  1  0.48910000  0.39580000  0.74900000  1.0 0.120817766
H  H61  1  0.46610000  0.14710000  0.72380000  1.0 0.0696185541
H  H62  1  0.33970000  0.07490000  0.64760000  1.0 0.0795569895
H  H63  1  0.06150000  0.19150000  0.58820000  1.0 0.1017956384
H  H64  1  0.18790000  0.26370000  0.66450000  1.0 0.0795569895
H  H65  1  0.63030000  0.99670000  0.52190000  1.0 0.1017956384
H  H66  1  0.52100000  0.99320000  0.63890000  1.0 0.120817766
H  H67  1  0.75900000  0.11070000  0.76950000  1.0 0.120817766
H  H68  1  0.85980000  0.11210000  0.64850000  1.0 0.1017956384
H  H69  1  0.60110000  0.07390000  0.84670000  1.0 0.1111393011
H  H70  1  0.42880000  0.99930000  0.75160000  1.0 0.1111393011
H  H71  1  0.48800000  0.08980000  0.94920000  1.0 0.1111393011
H  H72  1  0.37420000  0.08820000  0.06610000  1.0 0.1017956384
H  H73  1  0.17060000  0.95510000  0.94740000  1.0 0.1111393011
H  H74  1  0.28090000  0.95750000  0.83030000  1.0 0.1111393011
H  H75  1  0.12040000  0.98940000  0.08350000  1.0 0.1111393011
H  H76  1  0.24630000  0.08530000  0.15950000  1.0 0.1017956384
H  H77  1  0.88470000  0.98360000  0.29380000  1.0 0.1017956384
H  H78  1  0.00550000  0.98050000  0.18420000  1.0 0.120817766
H  H79  1  0.17630000  0.12660000  0.28850000  1.0 0.120817766
H  H80  1  0.05060000  0.12540000  0.39480000  1.0 0.1017956384
H  H81  1  0.72150000  0.23610000  0.35420000  1.0 0.0879216756
H  H82  1  0.58650000  0.30270000  0.27770000  1.0 0.0696185541
H  H83  1  0.34720000  0.17510000  0.19210000  1.0 0.120817766
H  H84  1  0.48020000  0.10720000  0.26920000  1.0 0.1261123807
H  H85  1  0.49350000  0.34190000  0.14110000  1.0 0.0795569895
H  H86  1  0.36080000  0.41270000  0.07490000  1.0 0.0879216756
H  H87  1  0.07160000  0.32350000  0.13570000  1.0 0.1111393011
H  H88  1  0.20460000  0.25230000  0.20310000  1.0 0.0879216756
H  H89  1  0.66810000  0.23020000  0.40720000  1.0 0.0795569895
H  H90  1  0.52670000  0.29910000  0.33750000  1.0 0.0696185541
H  H91  1  0.34770000  0.17300000  0.17930000  1.0 0.1111393011
H  H92  1  0.48910000  0.10420000  0.24900000  1.0 0.120817766
H  H93  1  0.46610000  0.35290000  0.22380000  1.0 0.0696185541
H  H94  1  0.33970000  0.42510000  0.14760000  1.0 0.0795569895
H  H95  1  0.06150000  0.30850000  0.08820000  1.0 0.1017956384
H  H96  1  0.18790000  0.23630000  0.16450000  1.0 0.0795569895
H  H97  1  0.36970000  0.49670000  0.97810000  1.0 0.1017956384
H  H98  1  0.47900000  0.49320000  0.86110000  1.0 0.120817766
H  H99  1  0.24100000  0.61070000  0.73050000  1.0 0.120817766
H  H100  1  0.14020000  0.61210000  0.85150000  1.0 0.1017956384
H  H101  1  0.39890000  0.57390000  0.65330000  1.0 0.1111393011
H  H102  1  0.57120000  0.49930000  0.74840000  1.0 0.1111393011
H  H103  1  0.51200000  0.58980000  0.55080000  1.0 0.1111393011
H  H104  1  0.62580000  0.58820000  0.43390000  1.0 0.1017956384
H  H105  1  0.82940000  0.45510000  0.55260000  1.0 0.1111393011
H  H106  1  0.71910000  0.45750000  0.66970000  1.0 0.1111393011
H  H107  1  0.87960000  0.48940000  0.41650000  1.0 0.1111393011
H  H108  1  0.75370000  0.58530000  0.34050000  1.0 0.1017956384
H  H109  1  0.11530000  0.48360000  0.20620000  1.0 0.1017956384
H  H110  1  0.99450000  0.48050000  0.31580000  1.0 0.120817766
H  H111  1  0.82370000  0.62660000  0.21150000  1.0 0.120817766
H  H112  1  0.94940000  0.62540000  0.10520000  1.0 0.1017956384
H  H113  1  0.27850000  0.73610000  0.14580000  1.0 0.0879216756
H  H114  1  0.41350000  0.80270000  0.22230000  1.0 0.0696185541
H  H115  1  0.65280000  0.67510000  0.30790000  1.0 0.120817766
H  H116  1  0.51980000  0.60720000  0.23080000  1.0 0.1261123807
H  H117  1  0.50650000  0.84190000  0.35890000  1.0 0.0795569895
H  H118  1  0.63920000  0.91270000  0.42510000  1.0 0.0879216756
H  H119  1  0.92840000  0.82350000  0.36430000  1.0 0.1111393011
H  H120  1  0.79540000  0.75230000  0.29690000  1.0 0.0879216756
H  H121  1  0.33190000  0.73020000  0.09280000  1.0 0.0795569895
H  H122  1  0.47330000  0.79910000  0.16250000  1.0 0.0696185541
H  H123  1  0.65230000  0.67300000  0.32070000  1.0 0.1111393011
H  H124  1  0.51090000  0.60420000  0.25100000  1.0 0.120817766
H  H125  1  0.53390000  0.85290000  0.27620000  1.0 0.0696185541
H  H126  1  0.66030000  0.92510000  0.35240000  1.0 0.0795569895
H  H127  1  0.93850000  0.80850000  0.41180000  1.0 0.1017956384
H  H128  1  0.81210000  0.73630000  0.33550000  1.0 0.0795569895
C  C1  1  0.34330000  0.97965000  0.42710000  1.0 0.047383404
C  C2  1  0.40880000  0.98234000  0.35700000  1.0 -0.2271179467
C  C3  1  0.37120000  0.94904000  0.28090000  1.0 0.1397123128
C  C4  1  0.26940000  0.91330000  0.28070000  1.0 -0.2016242727
C  C5  1  0.20960000  0.91274000  0.35340000  1.0 0.0696185541
C  C6  1  0.43440000  0.94860000  0.20360000  1.0 -0.2202596699
C  C7  1  0.53750000  0.97740000  0.19860000  1.0 -0.2202596699
C  C8  1  0.60470000  0.97640000  0.12260000  1.0 0.120817766
C  C9  1  0.57720000  0.93750000  0.05180000  1.0 -0.14995271
C  C10  1  0.64540000  0.93840000  0.98210000  1.0 -0.14995271
C  C11  1  0.74190000  0.97800000  0.98240000  1.0 0.1111393011
C  C12  1  0.76600000  0.01680000  0.05210000  1.0 -0.14995271
C  C13  1  0.69930000  0.01580000  0.12180000  1.0 -0.1431715548
C  C14  1  0.82010000  0.98040000  0.91220000  1.0 -0.1431715548
C  C15  1  0.81410000  0.94450000  0.84540000  1.0 -0.1635461769
C  C16  1  0.05480000  0.98697000  0.70700000  1.0 0.0795569895
C  C17  1  0.98310000  0.98910000  0.77290000  1.0 -0.1889742225
C  C18  1  0.89390000  0.94650000  0.77640000  1.0 0.1591043413
C  C19  1  0.88290000  0.90350000  0.71200000  1.0 -0.2202596699
C  C20  1  0.95830000  0.90470000  0.64860000  1.0 0.0795569895
C  C21  1  0.30190000  0.87876000  0.62450000  1.0 0.4083817095
C  C22  1  0.38540000  0.83600000  0.67820000  1.0 0.0408779803
C  C23  1  0.35560000  0.77680000  0.67810000  1.0 -0.0019318048
C  C24  1  0.43610000  0.73720000  0.72380000  1.0 -0.0674553382
C  C25  1  0.54940000  0.75380000  0.77220000  1.0 0.0696185541
C  C26  1  0.57680000  0.81210000  0.77400000  1.0 -0.1789220184
C  C27  1  0.49730000  0.85290000  0.72810000  1.0 -0.1324861444
C  C28  1  0.63730000  0.70980000  0.81640000  1.0 0.0053588745
C  C29  1  0.59240000  0.66150000  0.85830000  1.0 -0.0674553382
C  C30  1  0.67100000  0.61970000  0.89790000  1.0 -0.0133162791
C  C31  1  0.79800000  0.62400000  0.89890000  1.0 -0.0201197802
C  C32  1  0.84200000  0.67210000  0.86210000  1.0 -0.0619706133
C  C33  1  0.76250000  0.71450000  0.82160000  1.0 -0.0987088367
C  C34  1  0.88430000  0.57708000  0.94010000  1.0 0.4423918218
C  C35  1  0.40800000  0.83930000  0.66530000  1.0 0.0408779803
C  C36  1  0.39690000  0.78140000  0.63910000  1.0 -0.0201197802
C  C37  1  0.48090000  0.74050000  0.68050000  1.0 -0.0674553382
C  C38  1  0.57610000  0.75750000  0.74820000  1.0 0.0795569895
C  C39  1  0.58700000  0.81540000  0.77440000  1.0 -0.1889742225
C  C40  1  0.50300000  0.85630000  0.73300000  1.0 -0.1324861444
C  C41  1  0.66120000  0.71220000  0.79870000  1.0 0.0188202463
C  C42  1  0.61610000  0.65610000  0.80370000  1.0 -0.0674553382
C  C43  1  0.69110000  0.61320000  0.84900000  1.0 -0.0201197802
C  C44  1  0.81130000  0.62640000  0.88920000  1.0 -0.0201197802
C  C45  1  0.85640000  0.68250000  0.88420000  1.0 -0.038473057
C  C46  1  0.78130000  0.72540000  0.83890000  1.0 -0.11098717
C  C47  1  0.65670000  0.47965000  0.07290000  1.0 0.047383404
C  C48  1  0.59120000  0.48234000  0.14300000  1.0 -0.2271179467
C  C49  1  0.62880000  0.44904000  0.21910000  1.0 0.1397123128
C  C50  1  0.73060000  0.41330000  0.21930000  1.0 -0.2016242727
C  C51  1  0.79040000  0.41274000  0.14660000  1.0 0.0696185541
C  C52  1  0.56560000  0.44860000  0.29640000  1.0 -0.2202596699
C  C53  1  0.46250000  0.47740000  0.30140000  1.0 -0.2202596699
C  C54  1  0.39530000  0.47640000  0.37740000  1.0 0.120817766
C  C55  1  0.42280000  0.43750000  0.44820000  1.0 -0.14995271
C  C56  1  0.35460000  0.43840000  0.51790000  1.0 -0.1431715548
C  C57  1  0.25810000  0.47800000  0.51760000  1.0 0.1111393011
C  C58  1  0.23400000  0.51680000  0.44790000  1.0 -0.14995271
C  C59  1  0.30070000  0.51580000  0.37820000  1.0 -0.1431715548
C  C60  1  0.17990000  0.48040000  0.58780000  1.0 -0.1431715548
C  C61  1  0.18590000  0.44450000  0.65460000  1.0 -0.1635461769
C  C62  1  0.94520000  0.48697000  0.79300000  1.0 0.0795569895
C  C63  1  0.01690000  0.48910000  0.72710000  1.0 -0.1889742225
C  C64  1  0.10610000  0.44650000  0.72360000  1.0 0.1591043413
C  C65  1  0.11710000  0.40350000  0.78800000  1.0 -0.2202596699
C  C66  1  0.04170000  0.40470000  0.85140000  1.0 0.0795569895
C  C67  1  0.69810000  0.37876000  0.87550000  1.0 0.4083817095
C  C68  1  0.61460000  0.33600000  0.82180000  1.0 0.0408779803
C  C69  1  0.64440000  0.27680000  0.82190000  1.0 -0.0019318048
C  C70  1  0.56390000  0.23720000  0.77620000  1.0 -0.0674553382
C  C71  1  0.45060000  0.25380000  0.72780000  1.0 0.0696185541
C  C72  1  0.42320000  0.31210000  0.72600000  1.0 -0.1789220184
C  C73  1  0.50270000  0.35290000  0.77190000  1.0 -0.1324861444
C  C74  1  0.36270000  0.20980000  0.68360000  1.0 0.0049438548
C  C75  1  0.40760000  0.16150000  0.64170000  1.0 -0.0674553382
C  C76  1  0.32900000  0.11970000  0.60210000  1.0 -0.0133162791
C  C77  1  0.20200000  0.12400000  0.60110000  1.0 -0.0201197802
C  C78  1  0.15800000  0.17210000  0.63790000  1.0 -0.0619706133
C  C79  1  0.23750000  0.21450000  0.67840000  1.0 -0.0987088367
C  C80  1  0.11570000  0.07708000  0.55990000  1.0 0.4423918218
C  C81  1  0.59200000  0.33930000  0.83470000  1.0 0.0408779803
C  C82  1  0.60310000  0.28140000  0.86090000  1.0 -0.0201197802
C  C83  1  0.51910000  0.24050000  0.81950000  1.0 -0.0674553382
C  C84  1  0.42390000  0.25750000  0.75180000  1.0 0.0795569895
C  C85  1  0.41300000  0.31540000  0.72560000  1.0 -0.1889742225
C  C86  1  0.49700000  0.35630000  0.76700000  1.0 -0.1324861444
C  C87  1  0.33880000  0.21220000  0.70130000  1.0 0.0188202463
C  C88  1  0.38390000  0.15610000  0.69630000  1.0 -0.0674553382
C  C89  1  0.30890000  0.11320000  0.65100000  1.0 -0.0201197802
C  C90  1  0.18870000  0.12640000  0.61080000  1.0 -0.0201197802
C  C91  1  0.14360000  0.18250000  0.61580000  1.0 -0.038473057
C  C92  1  0.21870000  0.22540000  0.66110000  1.0 -0.11098717
C  C93  1  0.65670000  0.02035000  0.57290000  1.0 0.047383404
C  C94  1  0.59120000  0.01766000  0.64300000  1.0 -0.2271179467
C  C95  1  0.62880000  0.05096000  0.71910000  1.0 0.1397123128
C  C96  1  0.73060000  0.08670000  0.71930000  1.0 -0.2016242727
C  C97  1  0.79040000  0.08726000  0.64660000  1.0 0.0696185541
C  C98  1  0.56560000  0.05140000  0.79640000  1.0 -0.2202596699
C  C99  1  0.46250000  0.02260000  0.80140000  1.0 -0.2202596699
C  C100  1  0.39530000  0.02360000  0.87740000  1.0 0.120817766
C  C101  1  0.42280000  0.06250000  0.94820000  1.0 -0.1431715548
C  C102  1  0.35460000  0.06160000  0.01790000  1.0 -0.1431715548
C  C103  1  0.25810000  0.02200000  0.01760000  1.0 0.1111393011
C  C104  1  0.23400000  0.98320000  0.94790000  1.0 -0.14995271
C  C105  1  0.30070000  0.98420000  0.87820000  1.0 -0.1431715548
C  C106  1  0.17990000  0.01960000  0.08780000  1.0 -0.1431715548
C  C107  1  0.18590000  0.05550000  0.15460000  1.0 -0.1635461769
C  C108  1  0.94520000  0.01303000  0.29300000  1.0 0.0795569895
C  C109  1  0.01690000  0.01090000  0.22710000  1.0 -0.1889742225
C  C110  1  0.10610000  0.05350000  0.22360000  1.0 0.1591043413
C  C111  1  0.11710000  0.09650000  0.28800000  1.0 -0.2202596699
C  C112  1  0.04170000  0.09530000  0.35140000  1.0 0.0795569895
C  C113  1  0.69810000  0.12124000  0.37550000  1.0 0.4083817095
C  C114  1  0.61460000  0.16400000  0.32180000  1.0 0.0408779803
C  C115  1  0.64440000  0.22320000  0.32190000  1.0 -0.0019318048
C  C116  1  0.56390000  0.26280000  0.27620000  1.0 -0.0674553382
C  C117  1  0.45060000  0.24620000  0.22780000  1.0 0.0696185541
C  C118  1  0.42320000  0.18790000  0.22600000  1.0 -0.1789220184
C  C119  1  0.50270000  0.14710000  0.27190000  1.0 -0.1324861444
C  C120  1  0.36270000  0.29020000  0.18360000  1.0 0.0049438548
C  C121  1  0.40760000  0.33850000  0.14170000  1.0 -0.0674553382
C  C122  1  0.32900000  0.38030000  0.10210000  1.0 -0.0133162791
C  C123  1  0.20200000  0.37600000  0.10110000  1.0 -0.0201197802
C  C124  1  0.15800000  0.32790000  0.13790000  1.0 -0.0619706133
C  C125  1  0.23750000  0.28550000  0.17840000  1.0 -0.0987088367
C  C126  1  0.11570000  0.42292000  0.05990000  1.0 0.4423918218
C  C127  1  0.59200000  0.16070000  0.33470000  1.0 0.0408779803
C  C128  1  0.60310000  0.21860000  0.36090000  1.0 -0.0201197802
C  C129  1  0.51910000  0.25950000  0.31950000  1.0 -0.0674553382
C  C130  1  0.42390000  0.24250000  0.25180000  1.0 0.0795569895
C  C131  1  0.41300000  0.18460000  0.22560000  1.0 -0.1889742225
C  C132  1  0.49700000  0.14370000  0.26700000  1.0 -0.1324861444
C  C133  1  0.33880000  0.28780000  0.20130000  1.0 0.0188202463
C  C134  1  0.38390000  0.34390000  0.19630000  1.0 -0.0674553382
C  C135  1  0.30890000  0.38680000  0.15100000  1.0 -0.0201197802
C  C136  1  0.18870000  0.37360000  0.11080000  1.0 -0.0201197802
C  C137  1  0.14360000  0.31750000  0.11580000  1.0 -0.038473057
C  C138  1  0.21870000  0.27460000  0.16110000  1.0 -0.11098717
C  C139  1  0.34330000  0.52035000  0.92710000  1.0 0.047383404
C  C140  1  0.40880000  0.51766000  0.85700000  1.0 -0.2271179467
C  C141  1  0.37120000  0.55096000  0.78090000  1.0 0.1397123128
C  C142  1  0.26940000  0.58670000  0.78070000  1.0 -0.2016242727
C  C143  1  0.20960000  0.58726000  0.85340000  1.0 0.0696185541
C  C144  1  0.43440000  0.55140000  0.70360000  1.0 -0.2202596699
C  C145  1  0.53750000  0.52260000  0.69860000  1.0 -0.2202596699
C  C146  1  0.60470000  0.52360000  0.62260000  1.0 0.120817766
C  C147  1  0.57720000  0.56250000  0.55180000  1.0 -0.14995271
C  C148  1  0.64540000  0.56160000  0.48210000  1.0 -0.1431715548
C  C149  1  0.74190000  0.52200000  0.48240000  1.0 0.1111393011
C  C150  1  0.76600000  0.48320000  0.55210000  1.0 -0.14995271
C  C151  1  0.69930000  0.48420000  0.62180000  1.0 -0.1431715548
C  C152  1  0.82010000  0.51960000  0.41220000  1.0 -0.1431715548
C  C153  1  0.81410000  0.55550000  0.34540000  1.0 -0.1635461769
C  C154  1  0.05480000  0.51303000  0.20700000  1.0 0.0795569895
C  C155  1  0.98310000  0.51090000  0.27290000  1.0 -0.1889742225
C  C156  1  0.89390000  0.55350000  0.27640000  1.0 0.1591043413
C  C157  1  0.88290000  0.59650000  0.21200000  1.0 -0.2202596699
C  C158  1  0.95830000  0.59530000  0.14860000  1.0 0.0795569895
C  C159  1  0.30190000  0.62124000  0.12450000  1.0 0.4083817095
C  C160  1  0.38540000  0.66400000  0.17820000  1.0 0.0408779803
C  C161  1  0.35560000  0.72320000  0.17810000  1.0 -0.0019318048
C  C162  1  0.43610000  0.76280000  0.22380000  1.0 -0.0674553382
C  C163  1  0.54940000  0.74620000  0.27220000  1.0 0.0696185541
C  C164  1  0.57680000  0.68790000  0.27400000  1.0 -0.1789220184
C  C165  1  0.49730000  0.64710000  0.22810000  1.0 -0.1324861444
C  C166  1  0.63730000  0.79020000  0.31640000  1.0 0.0049438548
C  C167  1  0.59240000  0.83850000  0.35830000  1.0 -0.0674553382
C  C168  1  0.67100000  0.88030000  0.39790000  1.0 -0.0133162791
C  C169  1  0.79800000  0.87600000  0.39890000  1.0 -0.0201197802
C  C170  1  0.84200000  0.82790000  0.36210000  1.0 -0.0619706133
C  C171  1  0.76250000  0.78550000  0.32160000  1.0 -0.0987088367
C  C172  1  0.88430000  0.92292000  0.44010000  1.0 0.4423918218
C  C173  1  0.40800000  0.66070000  0.16530000  1.0 0.0408779803
C  C174  1  0.39690000  0.71860000  0.13910000  1.0 -0.0201197802
C  C175  1  0.48090000  0.75950000  0.18050000  1.0 -0.0674553382
C  C176  1  0.57610000  0.74250000  0.24820000  1.0 0.0795569895
C  C177  1  0.58700000  0.68460000  0.27440000  1.0 -0.1889742225
C  C178  1  0.50300000  0.64370000  0.23300000  1.0 -0.1324861444
C  C179  1  0.66120000  0.78780000  0.29870000  1.0 0.0188202463
C  C180  1  0.61610000  0.84390000  0.30370000  1.0 -0.0674553382
C  C181  1  0.69110000  0.88680000  0.34900000  1.0 -0.0201197802
C  C182  1  0.81130000  0.87360000  0.38920000  1.0 -0.0201197802
C  C183  1  0.85640000  0.81750000  0.38420000  1.0 -0.038473057
C  C184  1  0.78130000  0.77460000  0.33890000  1.0 -0.11098717
N  N1  1  0.24430000  0.94535000  0.42660000  1.0 -0.2271179467
N  N2  1  0.04390000  0.94593000  0.64420000  1.0 -0.2450247764
N  N3  1  0.75570000  0.44535000  0.07340000  1.0 -0.2271179467
N  N4  1  0.95610000  0.44593000  0.85580000  1.0 -0.2440828294
N  N5  1  0.75570000  0.05465000  0.57340000  1.0 -0.2271179467
N  N6  1  0.95610000  0.05407000  0.35580000  1.0 -0.2440828294
N  N7  1  0.24430000  0.55465000  0.92660000  1.0 -0.2271179467
N  N8  1  0.04390000  0.55407000  0.14420000  1.0 -0.2440828294
O  O1  1  0.20740000  0.85924000  0.57420000  1.0 -0.476917541
O  O2  1  0.32190000  0.93258000  0.63270000  1.0 -0.5173018684
O  O3  1  0.83310000  0.53196000  0.96160000  1.0 -0.5173018684
O  O4  1  0.99850000  0.58705000  0.95202000  1.0 -0.5173018684
O  O5  1  0.79260000  0.35924000  0.92580000  1.0 -0.476917541
O  O6  1  0.67810000  0.43258000  0.86730000  1.0 -0.5173018684
O  O7  1  0.16690000  0.03196000  0.53840000  1.0 -0.5173018684
O  O8  1  0.00150000  0.08705000  0.54798000  1.0 -0.5173018684
O  O9  1  0.79260000  0.14076000  0.42580000  1.0 -0.476917541
O  O10  1  0.67810000  0.06742000  0.36730000  1.0 -0.5173018684
O  O11  1  0.16690000  0.46804000  0.03840000  1.0 -0.5173018684
O  O12  1  0.00150000  0.41295000  0.04798000  1.0 -0.5173018684
O  O13  1  0.20740000  0.64076000  0.07420000  1.0 -0.476917541
O  O14  1  0.32190000  0.56742000  0.13270000  1.0 -0.5173018684
O  O15  1  0.83310000  0.96804000  0.46160000  1.0 -0.5173018684
O  O16  1  0.99850000  0.91295000  0.45202000  1.0 -0.5173018684
