# DDEC6 charges by PACMAN v1.1 (https://github.com/mtap-research/PACMAN-charge/)
data_TAZLIR_FSR_pacman
_symmetry_space_group_name_H-M   'P 1'
_cell_length_a   19.48760000
_cell_length_b   19.48760000
_cell_length_c   26.37700000
_cell_angle_alpha   90.00000000
_cell_angle_beta   90.00000000
_cell_angle_gamma   90.00000000
_symmetry_Int_Tables_number   1
_chemical_formula_structural   Sm2Cd3H36C48(N2O17)2
_chemical_formula_sum   'Sm8 Cd12 H144 C192 N16 O136'
_cell_volume   10017.10238853
_cell_formula_units_Z   4
loop_
 _symmetry_equiv_pos_site_id
 _symmetry_equiv_pos_as_xyz
  1  'x, y, z'
loop_
 _atom_site_type_symbol
 _atom_site_label
 _atom_site_symmetry_multiplicity
 _atom_site_fract_x
 _atom_site_fract_y
 _atom_site_fract_z
 _atom_site_occupancy
 _atom_site_charge
Sm  Sm1  1  0.80899000  0.69101000  0.94713000  1.0 2.1809221183
Sm  Sm2  1  0.19101000  0.30899000  0.94713000  1.0 2.1809221183
Sm  Sm3  1  0.80899000  0.30899000  0.44713000  1.0 2.1809221183
Sm  Sm4  1  0.19101000  0.69101000  0.44713000  1.0 2.1809221183
Sm  Sm5  1  0.69101000  0.19101000  0.05287000  1.0 2.1809221183
Sm  Sm6  1  0.30899000  0.80899000  0.05287000  1.0 2.1809221183
Sm  Sm7  1  0.69101000  0.80899000  0.55287000  1.0 2.1809221183
Sm  Sm8  1  0.30899000  0.19101000  0.55287000  1.0 2.1809221183
Cd  Cd1  1  0.72010000  0.77990000  0.05393000  1.0 1.0269894277
Cd  Cd2  1  0.27990000  0.22010000  0.05393000  1.0 1.0269894277
Cd  Cd3  1  0.72010000  0.22010000  0.55393000  1.0 1.0269894277
Cd  Cd4  1  0.27990000  0.77990000  0.55393000  1.0 1.0269894277
Cd  Cd5  1  0.77990000  0.27990000  0.94607000  1.0 1.0269894277
Cd  Cd6  1  0.22010000  0.72010000  0.94607000  1.0 1.0269894277
Cd  Cd7  1  0.77990000  0.72010000  0.44607000  1.0 1.0269894277
Cd  Cd8  1  0.22010000  0.27990000  0.44607000  1.0 1.0269894277
Cd  Cd9  1  0.50000000  0.50000000  0.25000000  1.0 0.977278081
Cd  Cd10  1  0.00000000  0.00000000  0.75000000  1.0 0.977278081
Cd  Cd11  1  0.00000000  0.00000000  0.25000000  1.0 0.977278081
Cd  Cd12  1  0.50000000  0.50000000  0.75000000  1.0 0.977278081
H  H1  1  0.76270000  0.49880000  0.01920000  1.0 0.1488910954
H  H2  1  0.23730000  0.50120000  0.01920000  1.0 0.1488910954
H  H3  1  0.00120000  0.26270000  0.51920000  1.0 0.1488910954
H  H4  1  0.99880000  0.73730000  0.51920000  1.0 0.1488910954
H  H5  1  0.73730000  0.99880000  0.98080000  1.0 0.1488910954
H  H6  1  0.26270000  0.00120000  0.98080000  1.0 0.1488910954
H  H7  1  0.49880000  0.76270000  0.48080000  1.0 0.1488910954
H  H8  1  0.50120000  0.23730000  0.48080000  1.0 0.1488910954
H  H9  1  0.73730000  0.00120000  0.48080000  1.0 0.1488910954
H  H10  1  0.26270000  0.99880000  0.48080000  1.0 0.1488910954
H  H11  1  0.49880000  0.23730000  0.98080000  1.0 0.1488910954
H  H12  1  0.50120000  0.76270000  0.98080000  1.0 0.1488910954
H  H13  1  0.76270000  0.50120000  0.51920000  1.0 0.1488910954
H  H14  1  0.23730000  0.49880000  0.51920000  1.0 0.1488910954
H  H15  1  0.00120000  0.73730000  0.01920000  1.0 0.1488910954
H  H16  1  0.99880000  0.26270000  0.01920000  1.0 0.1488910954
H  H17  1  0.66000000  0.58290000  0.13490000  1.0 0.1488910954
H  H18  1  0.34000000  0.41710000  0.13490000  1.0 0.1488910954
H  H19  1  0.91710000  0.16000000  0.63490000  1.0 0.1488910954
H  H20  1  0.08290000  0.84000000  0.63490000  1.0 0.1488910954
H  H21  1  0.84000000  0.08290000  0.86510000  1.0 0.1488910954
H  H22  1  0.16000000  0.91710000  0.86510000  1.0 0.1488910954
H  H23  1  0.58290000  0.66000000  0.36510000  1.0 0.1488910954
H  H24  1  0.41710000  0.34000000  0.36510000  1.0 0.1488910954
H  H25  1  0.84000000  0.91710000  0.36510000  1.0 0.1488910954
H  H26  1  0.16000000  0.08290000  0.36510000  1.0 0.1488910954
H  H27  1  0.58290000  0.34000000  0.86510000  1.0 0.1488910954
H  H28  1  0.41710000  0.66000000  0.86510000  1.0 0.1488910954
H  H29  1  0.66000000  0.41710000  0.63490000  1.0 0.1488910954
H  H30  1  0.34000000  0.58290000  0.63490000  1.0 0.1488910954
H  H31  1  0.91710000  0.84000000  0.13490000  1.0 0.1488910954
H  H32  1  0.08290000  0.16000000  0.13490000  1.0 0.1488910954
H  H33  1  0.65450000  0.37960000  0.11430000  1.0 0.1403960378
H  H34  1  0.34550000  0.62040000  0.11430000  1.0 0.1403960378
H  H35  1  0.12040000  0.15450000  0.61430000  1.0 0.1403960378
H  H36  1  0.87960000  0.84550000  0.61430000  1.0 0.1403960378
H  H37  1  0.84550000  0.87960000  0.88570000  1.0 0.1403960378
H  H38  1  0.15450000  0.12040000  0.88570000  1.0 0.1403960378
H  H39  1  0.37960000  0.65450000  0.38570000  1.0 0.1403960378
H  H40  1  0.62040000  0.34550000  0.38570000  1.0 0.1403960378
H  H41  1  0.84550000  0.12040000  0.38570000  1.0 0.1403960378
H  H42  1  0.15450000  0.87960000  0.38570000  1.0 0.1403960378
H  H43  1  0.37960000  0.34550000  0.88570000  1.0 0.1403960378
H  H44  1  0.62040000  0.65450000  0.88570000  1.0 0.1403960378
H  H45  1  0.65450000  0.62040000  0.61430000  1.0 0.1403960378
H  H46  1  0.34550000  0.37960000  0.61430000  1.0 0.1403960378
H  H47  1  0.12040000  0.84550000  0.11430000  1.0 0.1403960378
H  H48  1  0.87960000  0.15450000  0.11430000  1.0 0.1403960378
H  H49  1  0.74780000  0.50480000  0.86280000  1.0 0.1758537426
H  H50  1  0.25220000  0.49520000  0.86280000  1.0 0.1758537426
H  H51  1  0.99520000  0.24780000  0.36280000  1.0 0.1758537426
H  H52  1  0.00480000  0.75220000  0.36280000  1.0 0.1758537426
H  H53  1  0.75220000  0.00480000  0.13720000  1.0 0.1758537426
H  H54  1  0.24780000  0.99520000  0.13720000  1.0 0.1758537426
H  H55  1  0.50480000  0.74780000  0.63720000  1.0 0.1758537426
H  H56  1  0.49520000  0.25220000  0.63720000  1.0 0.1758537426
H  H57  1  0.75220000  0.99520000  0.63720000  1.0 0.1758537426
H  H58  1  0.24780000  0.00480000  0.63720000  1.0 0.1758537426
H  H59  1  0.50480000  0.25220000  0.13720000  1.0 0.1758537426
H  H60  1  0.49520000  0.74780000  0.13720000  1.0 0.1758537426
H  H61  1  0.74780000  0.49520000  0.36280000  1.0 0.1758537426
H  H62  1  0.25220000  0.50480000  0.36280000  1.0 0.1758537426
H  H63  1  0.99520000  0.75220000  0.86280000  1.0 0.1758537426
H  H64  1  0.00480000  0.24780000  0.86280000  1.0 0.1758537426
H  H65  1  0.67720000  0.48340000  0.83910000  1.0 0.165413556
H  H66  1  0.32280000  0.51660000  0.83910000  1.0 0.165413556
H  H67  1  0.01660000  0.17720000  0.33910000  1.0 0.165413556
H  H68  1  0.98340000  0.82280000  0.33910000  1.0 0.1588756126
H  H69  1  0.82280000  0.98340000  0.16090000  1.0 0.165413556
H  H70  1  0.17720000  0.01660000  0.16090000  1.0 0.165413556
H  H71  1  0.48340000  0.67720000  0.66090000  1.0 0.165413556
H  H72  1  0.51660000  0.32280000  0.66090000  1.0 0.165413556
H  H73  1  0.82280000  0.01660000  0.66090000  1.0 0.1588756126
H  H74  1  0.17720000  0.98340000  0.66090000  1.0 0.165413556
H  H75  1  0.48340000  0.32280000  0.16090000  1.0 0.165413556
H  H76  1  0.51660000  0.67720000  0.16090000  1.0 0.1588756126
H  H77  1  0.67720000  0.51660000  0.33910000  1.0 0.165413556
H  H78  1  0.32280000  0.48340000  0.33910000  1.0 0.165413556
H  H79  1  0.01660000  0.82280000  0.83910000  1.0 0.1588756126
H  H80  1  0.98340000  0.17720000  0.83910000  1.0 0.165413556
H  H81  1  0.71830000  0.43100000  0.87240000  1.0 0.1588756126
H  H82  1  0.28170000  0.56900000  0.87240000  1.0 0.1588756126
H  H83  1  0.06900000  0.21830000  0.37240000  1.0 0.1588756126
H  H84  1  0.93100000  0.78170000  0.37240000  1.0 0.1588756126
H  H85  1  0.78170000  0.93100000  0.12760000  1.0 0.1588756126
H  H86  1  0.21830000  0.06900000  0.12760000  1.0 0.1588756126
H  H87  1  0.43100000  0.71830000  0.62760000  1.0 0.1588756126
H  H88  1  0.56900000  0.28170000  0.62760000  1.0 0.1588756126
H  H89  1  0.78170000  0.06900000  0.62760000  1.0 0.1588756126
H  H90  1  0.21830000  0.93100000  0.62760000  1.0 0.1588756126
H  H91  1  0.43100000  0.28170000  0.12760000  1.0 0.1588756126
H  H92  1  0.56900000  0.71830000  0.12760000  1.0 0.1588756126
H  H93  1  0.71830000  0.56900000  0.37240000  1.0 0.1588756126
H  H94  1  0.28170000  0.43100000  0.37240000  1.0 0.1588756126
H  H95  1  0.06900000  0.78170000  0.87240000  1.0 0.1588756126
H  H96  1  0.93100000  0.21830000  0.87240000  1.0 0.1588756126
H  H97  1  0.59800000  0.51470000  0.97090000  1.0 0.1403960378
H  H98  1  0.40200000  0.48530000  0.97090000  1.0 0.1403960378
H  H99  1  0.98530000  0.09800000  0.47090000  1.0 0.1403960378
H  H100  1  0.01470000  0.90200000  0.47090000  1.0 0.1403960378
H  H101  1  0.90200000  0.01470000  0.02910000  1.0 0.1403960378
H  H102  1  0.09800000  0.98530000  0.02910000  1.0 0.1403960378
H  H103  1  0.51470000  0.59800000  0.52910000  1.0 0.1403960378
H  H104  1  0.48530000  0.40200000  0.52910000  1.0 0.1403960378
H  H105  1  0.90200000  0.98530000  0.52910000  1.0 0.1403960378
H  H106  1  0.09800000  0.01470000  0.52910000  1.0 0.1403960378
H  H107  1  0.51470000  0.40200000  0.02910000  1.0 0.1403960378
H  H108  1  0.48530000  0.59800000  0.02910000  1.0 0.1403960378
H  H109  1  0.59800000  0.48530000  0.47090000  1.0 0.1403960378
H  H110  1  0.40200000  0.51470000  0.47090000  1.0 0.1403960378
H  H111  1  0.98530000  0.90200000  0.97090000  1.0 0.1403960378
H  H112  1  0.01470000  0.09800000  0.97090000  1.0 0.1403960378
H  H113  1  0.60460000  0.43770000  0.95420000  1.0 0.1488910954
H  H114  1  0.39540000  0.56230000  0.95420000  1.0 0.1488910954
H  H115  1  0.06230000  0.10460000  0.45420000  1.0 0.1488910954
H  H116  1  0.93770000  0.89540000  0.45420000  1.0 0.1488910954
H  H117  1  0.89540000  0.93770000  0.04580000  1.0 0.1488910954
H  H118  1  0.10460000  0.06230000  0.04580000  1.0 0.1488910954
H  H119  1  0.43770000  0.60460000  0.54580000  1.0 0.1488910954
H  H120  1  0.56230000  0.39540000  0.54580000  1.0 0.1488910954
H  H121  1  0.89540000  0.06230000  0.54580000  1.0 0.1488910954
H  H122  1  0.10460000  0.93770000  0.54580000  1.0 0.1488910954
H  H123  1  0.43770000  0.39540000  0.04580000  1.0 0.1488910954
H  H124  1  0.56230000  0.60460000  0.04580000  1.0 0.1488910954
H  H125  1  0.60460000  0.56230000  0.45420000  1.0 0.1488910954
H  H126  1  0.39540000  0.43770000  0.45420000  1.0 0.1488910954
H  H127  1  0.06230000  0.89540000  0.95420000  1.0 0.1488910954
H  H128  1  0.93770000  0.10460000  0.95420000  1.0 0.1488910954
H  H129  1  0.56370000  0.48970000  0.92030000  1.0 0.1488910954
H  H130  1  0.43630000  0.51030000  0.92030000  1.0 0.1488910954
H  H131  1  0.01030000  0.06370000  0.42030000  1.0 0.1488910954
H  H132  1  0.98970000  0.93630000  0.42030000  1.0 0.1488910954
H  H133  1  0.93630000  0.98970000  0.07970000  1.0 0.1488910954
H  H134  1  0.06370000  0.01030000  0.07970000  1.0 0.1488910954
H  H135  1  0.48970000  0.56370000  0.57970000  1.0 0.1488910954
H  H136  1  0.51030000  0.43630000  0.57970000  1.0 0.1488910954
H  H137  1  0.93630000  0.01030000  0.57970000  1.0 0.1488910954
H  H138  1  0.06370000  0.98970000  0.57970000  1.0 0.1488910954
H  H139  1  0.48970000  0.43630000  0.07970000  1.0 0.1488910954
H  H140  1  0.51030000  0.56370000  0.07970000  1.0 0.1488910954
H  H141  1  0.56370000  0.51030000  0.42030000  1.0 0.1488910954
H  H142  1  0.43630000  0.48970000  0.42030000  1.0 0.1488910954
H  H143  1  0.01030000  0.93630000  0.92030000  1.0 0.1488910954
H  H144  1  0.98970000  0.06370000  0.92030000  1.0 0.1488910954
C  C1  1  0.73360000  0.62140000  0.05640000  1.0 0.6259630707
C  C2  1  0.26640000  0.37860000  0.05640000  1.0 0.6259630707
C  C3  1  0.87860000  0.23360000  0.55640000  1.0 0.6259630707
C  C4  1  0.12140000  0.76640000  0.55640000  1.0 0.6259630707
C  C5  1  0.76640000  0.12140000  0.94360000  1.0 0.6259630707
C  C6  1  0.23360000  0.87860000  0.94360000  1.0 0.6259630707
C  C7  1  0.62140000  0.73360000  0.44360000  1.0 0.6259630707
C  C8  1  0.37860000  0.26640000  0.44360000  1.0 0.6259630707
C  C9  1  0.76640000  0.87860000  0.44360000  1.0 0.6259630707
C  C10  1  0.23360000  0.12140000  0.44360000  1.0 0.6259630707
C  C11  1  0.62140000  0.26640000  0.94360000  1.0 0.6259630707
C  C12  1  0.37860000  0.73360000  0.94360000  1.0 0.6259630707
C  C13  1  0.73360000  0.37860000  0.55640000  1.0 0.6259630707
C  C14  1  0.26640000  0.62140000  0.55640000  1.0 0.6259630707
C  C15  1  0.87860000  0.76640000  0.05640000  1.0 0.6259630707
C  C16  1  0.12140000  0.23360000  0.05640000  1.0 0.6259630707
C  C17  1  0.71200000  0.42970000  0.06190000  1.0 -0.0091335851
C  C18  1  0.28800000  0.57030000  0.06190000  1.0 -0.0091335851
C  C19  1  0.07030000  0.21200000  0.56190000  1.0 -0.0091335851
C  C20  1  0.92970000  0.78800000  0.56190000  1.0 -0.0091335851
C  C21  1  0.78800000  0.92970000  0.93810000  1.0 -0.0091335851
C  C22  1  0.21200000  0.07030000  0.93810000  1.0 -0.0091335851
C  C23  1  0.42970000  0.71200000  0.43810000  1.0 -0.0091335851
C  C24  1  0.57030000  0.28800000  0.43810000  1.0 -0.0091335851
C  C25  1  0.78800000  0.07030000  0.43810000  1.0 -0.0091335851
C  C26  1  0.21200000  0.92970000  0.43810000  1.0 -0.0091335851
C  C27  1  0.42970000  0.28800000  0.93810000  1.0 -0.0091335851
C  C28  1  0.57030000  0.71200000  0.93810000  1.0 -0.0091335851
C  C29  1  0.71200000  0.57030000  0.56190000  1.0 -0.0091335851
C  C30  1  0.28800000  0.42970000  0.56190000  1.0 -0.0091335851
C  C31  1  0.07030000  0.78800000  0.06190000  1.0 -0.0091335851
C  C32  1  0.92970000  0.21200000  0.06190000  1.0 -0.0091335851
C  C33  1  0.60240000  0.47500000  0.17550000  1.0 0.5569657248
C  C34  1  0.39760000  0.52500000  0.17550000  1.0 0.5569657248
C  C35  1  0.02500000  0.10240000  0.67550000  1.0 0.5569657248
C  C36  1  0.97500000  0.89760000  0.67550000  1.0 0.5569657248
C  C37  1  0.89760000  0.97500000  0.82450000  1.0 0.5569657248
C  C38  1  0.10240000  0.02500000  0.82450000  1.0 0.5569657248
C  C39  1  0.47500000  0.60240000  0.32450000  1.0 0.5569657248
C  C40  1  0.52500000  0.39760000  0.32450000  1.0 0.5569657248
C  C41  1  0.89760000  0.02500000  0.32450000  1.0 0.5569657248
C  C42  1  0.10240000  0.97500000  0.32450000  1.0 0.5569657248
C  C43  1  0.47500000  0.39760000  0.82450000  1.0 0.5569657248
C  C44  1  0.52500000  0.60240000  0.82450000  1.0 0.5569657248
C  C45  1  0.60240000  0.52500000  0.67550000  1.0 0.5569657248
C  C46  1  0.39760000  0.47500000  0.67550000  1.0 0.5569657248
C  C47  1  0.02500000  0.89760000  0.17550000  1.0 0.5569657248
C  C48  1  0.97500000  0.10240000  0.17550000  1.0 0.5569657248
C  C49  1  0.71530000  0.55090000  0.07460000  1.0 -0.0237601106
C  C50  1  0.28470000  0.44910000  0.07460000  1.0 -0.0237601106
C  C51  1  0.94910000  0.21530000  0.57460000  1.0 -0.0237601106
C  C52  1  0.05090000  0.78470000  0.57460000  1.0 -0.0237601106
C  C53  1  0.78470000  0.05090000  0.92540000  1.0 -0.0237601106
C  C54  1  0.21530000  0.94910000  0.92540000  1.0 -0.0237601106
C  C55  1  0.55090000  0.71530000  0.42540000  1.0 -0.0237601106
C  C56  1  0.44910000  0.28470000  0.42540000  1.0 -0.0237601106
C  C57  1  0.78470000  0.94910000  0.42540000  1.0 -0.0237601106
C  C58  1  0.21530000  0.05090000  0.42540000  1.0 -0.0237601106
C  C59  1  0.55090000  0.28470000  0.92540000  1.0 -0.0237601106
C  C60  1  0.44910000  0.71530000  0.92540000  1.0 -0.0237601106
C  C61  1  0.71530000  0.44910000  0.57460000  1.0 -0.0237601106
C  C62  1  0.28470000  0.55090000  0.57460000  1.0 -0.0237601106
C  C63  1  0.94910000  0.78470000  0.07460000  1.0 -0.0237601106
C  C64  1  0.05090000  0.21530000  0.07460000  1.0 -0.0237601106
C  C65  1  0.65120000  0.48040000  0.13160000  1.0 -0.004367575
C  C66  1  0.34880000  0.51960000  0.13160000  1.0 -0.004367575
C  C67  1  0.01960000  0.15120000  0.63160000  1.0 -0.004367575
C  C68  1  0.98040000  0.84880000  0.63160000  1.0 -0.004367575
C  C69  1  0.84880000  0.98040000  0.86840000  1.0 -0.004367575
C  C70  1  0.15120000  0.01960000  0.86840000  1.0 -0.004367575
C  C71  1  0.48040000  0.65120000  0.36840000  1.0 -0.004367575
C  C72  1  0.51960000  0.34880000  0.36840000  1.0 -0.004367575
C  C73  1  0.84880000  0.01960000  0.36840000  1.0 -0.004367575
C  C74  1  0.15120000  0.98040000  0.36840000  1.0 -0.004367575
C  C75  1  0.48040000  0.34880000  0.86840000  1.0 -0.004367575
C  C76  1  0.51960000  0.65120000  0.86840000  1.0 -0.004367575
C  C77  1  0.65120000  0.51960000  0.63160000  1.0 -0.004367575
C  C78  1  0.34880000  0.48040000  0.63160000  1.0 -0.004367575
C  C79  1  0.01960000  0.84880000  0.13160000  1.0 -0.004367575
C  C80  1  0.98040000  0.15120000  0.13160000  1.0 -0.004367575
C  C81  1  0.73450000  0.49410000  0.04740000  1.0 -0.0976787933
C  C82  1  0.26550000  0.50590000  0.04740000  1.0 -0.0976787933
C  C83  1  0.00590000  0.23450000  0.54740000  1.0 -0.0976787933
C  C84  1  0.99410000  0.76550000  0.54740000  1.0 -0.0976787933
C  C85  1  0.76550000  0.99410000  0.95260000  1.0 -0.0976787933
C  C86  1  0.23450000  0.00590000  0.95260000  1.0 -0.0976787933
C  C87  1  0.49410000  0.73450000  0.45260000  1.0 -0.0976787933
C  C88  1  0.50590000  0.26550000  0.45260000  1.0 -0.0976787933
C  C89  1  0.76550000  0.00590000  0.45260000  1.0 -0.0976787933
C  C90  1  0.23450000  0.99410000  0.45260000  1.0 -0.0976787933
C  C91  1  0.49410000  0.26550000  0.95260000  1.0 -0.0976787933
C  C92  1  0.50590000  0.73450000  0.95260000  1.0 -0.0976787933
C  C93  1  0.73450000  0.50590000  0.54740000  1.0 -0.0976787933
C  C94  1  0.26550000  0.49410000  0.54740000  1.0 -0.0976787933
C  C95  1  0.00590000  0.76550000  0.04740000  1.0 -0.0976787933
C  C96  1  0.99410000  0.23450000  0.04740000  1.0 -0.0976787933
C  C97  1  0.67320000  0.54420000  0.11680000  1.0 -0.0876874862
C  C98  1  0.32680000  0.45580000  0.11680000  1.0 -0.0876874862
C  C99  1  0.95580000  0.17320000  0.61680000  1.0 -0.0876874862
C  C100  1  0.04420000  0.82680000  0.61680000  1.0 -0.0876874862
C  C101  1  0.82680000  0.04420000  0.88320000  1.0 -0.0876874862
C  C102  1  0.17320000  0.95580000  0.88320000  1.0 -0.0876874862
C  C103  1  0.54420000  0.67320000  0.38320000  1.0 -0.0876874862
C  C104  1  0.45580000  0.32680000  0.38320000  1.0 -0.0876874862
C  C105  1  0.82680000  0.95580000  0.38320000  1.0 -0.0876874862
C  C106  1  0.17320000  0.04420000  0.38320000  1.0 -0.0876874862
C  C107  1  0.54420000  0.32680000  0.88320000  1.0 -0.0876874862
C  C108  1  0.45580000  0.67320000  0.88320000  1.0 -0.0876874862
C  C109  1  0.67320000  0.45580000  0.61680000  1.0 -0.0876874862
C  C110  1  0.32680000  0.54420000  0.61680000  1.0 -0.0876874862
C  C111  1  0.95580000  0.82680000  0.11680000  1.0 -0.0876874862
C  C112  1  0.04420000  0.17320000  0.11680000  1.0 -0.0876874862
C  C113  1  0.66990000  0.42270000  0.10440000  1.0 -0.084886777
C  C114  1  0.33010000  0.57730000  0.10440000  1.0 -0.0876874862
C  C115  1  0.07730000  0.16990000  0.60440000  1.0 -0.0876874862
C  C116  1  0.92270000  0.83010000  0.60440000  1.0 -0.084886777
C  C117  1  0.83010000  0.92270000  0.89560000  1.0 -0.084886777
C  C118  1  0.16990000  0.07730000  0.89560000  1.0 -0.0876874862
C  C119  1  0.42270000  0.66990000  0.39560000  1.0 -0.084886777
C  C120  1  0.57730000  0.33010000  0.39560000  1.0 -0.0876874862
C  C121  1  0.83010000  0.07730000  0.39560000  1.0 -0.0876874862
C  C122  1  0.16990000  0.92270000  0.39560000  1.0 -0.084886777
C  C123  1  0.42270000  0.33010000  0.89560000  1.0 -0.084886777
C  C124  1  0.57730000  0.66990000  0.89560000  1.0 -0.0876874862
C  C125  1  0.66990000  0.57730000  0.60440000  1.0 -0.0876874862
C  C126  1  0.33010000  0.42270000  0.60440000  1.0 -0.084886777
C  C127  1  0.07730000  0.83010000  0.10440000  1.0 -0.0876874862
C  C128  1  0.92270000  0.16990000  0.10440000  1.0 -0.084886777
C  C129  1  0.70590000  0.55860000  0.92560000  1.0 0.3426588301
C  C130  1  0.29410000  0.44140000  0.92560000  1.0 0.3462045118
C  C131  1  0.94140000  0.20590000  0.42560000  1.0 0.3426588301
C  C132  1  0.05860000  0.79410000  0.42560000  1.0 0.3462045118
C  C133  1  0.79410000  0.05860000  0.07440000  1.0 0.3462045118
C  C134  1  0.20590000  0.94140000  0.07440000  1.0 0.3426588301
C  C135  1  0.55860000  0.70590000  0.57440000  1.0 0.3426588301
C  C136  1  0.44140000  0.29410000  0.57440000  1.0 0.3462045118
C  C137  1  0.79410000  0.94140000  0.57440000  1.0 0.3426588301
C  C138  1  0.20590000  0.05860000  0.57440000  1.0 0.3426588301
C  C139  1  0.55860000  0.29410000  0.07440000  1.0 0.3462045118
C  C140  1  0.44140000  0.70590000  0.07440000  1.0 0.3426588301
C  C141  1  0.70590000  0.44140000  0.42560000  1.0 0.3426588301
C  C142  1  0.29410000  0.55860000  0.42560000  1.0 0.3462045118
C  C143  1  0.94140000  0.79410000  0.92560000  1.0 0.3426588301
C  C144  1  0.05860000  0.20590000  0.92560000  1.0 0.3426588301
C  C145  1  0.70670000  0.47850000  0.86800000  1.0 -0.2842340059
C  C146  1  0.29330000  0.52150000  0.86800000  1.0 -0.2856270696
C  C147  1  0.02150000  0.20670000  0.36800000  1.0 -0.2842340059
C  C148  1  0.97850000  0.79330000  0.36800000  1.0 -0.2842340059
C  C149  1  0.79330000  0.97850000  0.13200000  1.0 -0.2842340059
C  C150  1  0.20670000  0.02150000  0.13200000  1.0 -0.2842340059
C  C151  1  0.47850000  0.70670000  0.63200000  1.0 -0.2842340059
C  C152  1  0.52150000  0.29330000  0.63200000  1.0 -0.2856270696
C  C153  1  0.79330000  0.02150000  0.63200000  1.0 -0.2842340059
C  C154  1  0.20670000  0.97850000  0.63200000  1.0 -0.2856270696
C  C155  1  0.47850000  0.29330000  0.13200000  1.0 -0.2842340059
C  C156  1  0.52150000  0.70670000  0.13200000  1.0 -0.2842340059
C  C157  1  0.70670000  0.52150000  0.36800000  1.0 -0.2842340059
C  C158  1  0.29330000  0.47850000  0.36800000  1.0 -0.2842340059
C  C159  1  0.02150000  0.79330000  0.86800000  1.0 -0.2842340059
C  C160  1  0.97850000  0.20670000  0.86800000  1.0 -0.2842340059
C  C161  1  0.60300000  0.48430000  0.94240000  1.0 -0.3427320726
C  C162  1  0.39700000  0.51570000  0.94240000  1.0 -0.3427320726
C  C163  1  0.01570000  0.10300000  0.44240000  1.0 -0.3427320726
C  C164  1  0.98430000  0.89700000  0.44240000  1.0 -0.3427320726
C  C165  1  0.89700000  0.98430000  0.05760000  1.0 -0.3427320726
C  C166  1  0.10300000  0.01570000  0.05760000  1.0 -0.3427320726
C  C167  1  0.48430000  0.60300000  0.55760000  1.0 -0.3427320726
C  C168  1  0.51570000  0.39700000  0.55760000  1.0 -0.3427320726
C  C169  1  0.89700000  0.01570000  0.55760000  1.0 -0.3427320726
C  C170  1  0.10300000  0.98430000  0.55760000  1.0 -0.3427320726
C  C171  1  0.48430000  0.39700000  0.05760000  1.0 -0.3427320726
C  C172  1  0.51570000  0.60300000  0.05760000  1.0 -0.3427320726
C  C173  1  0.60300000  0.51570000  0.44240000  1.0 -0.3427320726
C  C174  1  0.39700000  0.48430000  0.44240000  1.0 -0.3427320726
C  C175  1  0.01570000  0.89700000  0.94240000  1.0 -0.3427320726
C  C176  1  0.98430000  0.10300000  0.94240000  1.0 -0.3427320726
C  C177  1  0.73050000  0.36820000  0.03030000  1.0 0.6021751625
C  C178  1  0.26950000  0.63180000  0.03030000  1.0 0.6021751625
C  C179  1  0.13180000  0.23050000  0.53030000  1.0 0.6021751625
C  C180  1  0.86820000  0.76950000  0.53030000  1.0 0.6021751625
C  C181  1  0.76950000  0.86820000  0.96970000  1.0 0.6021751625
C  C182  1  0.23050000  0.13180000  0.96970000  1.0 0.6021751625
C  C183  1  0.36820000  0.73050000  0.46970000  1.0 0.6021751625
C  C184  1  0.63180000  0.26950000  0.46970000  1.0 0.6021751625
C  C185  1  0.76950000  0.13180000  0.46970000  1.0 0.6021751625
C  C186  1  0.23050000  0.86820000  0.46970000  1.0 0.6021751625
C  C187  1  0.36820000  0.26950000  0.96970000  1.0 0.6021751625
C  C188  1  0.63180000  0.73050000  0.96970000  1.0 0.6021751625
C  C189  1  0.73050000  0.63180000  0.53030000  1.0 0.6021751625
C  C190  1  0.26950000  0.36820000  0.53030000  1.0 0.6021751625
C  C191  1  0.13180000  0.76950000  0.03030000  1.0 0.6021751625
C  C192  1  0.86820000  0.23050000  0.03030000  1.0 0.6021751625
N  N1  1  0.67250000  0.50250000  0.91160000  1.0 0.0394618234
N  N2  1  0.32750000  0.49750000  0.91160000  1.0 0.0394618234
N  N3  1  0.99750000  0.17250000  0.41160000  1.0 0.0394618234
N  N4  1  0.00250000  0.82750000  0.41160000  1.0 0.0394618234
N  N5  1  0.82750000  0.00250000  0.08840000  1.0 0.0394618234
N  N6  1  0.17250000  0.99750000  0.08840000  1.0 0.0394618234
N  N7  1  0.50250000  0.67250000  0.58840000  1.0 0.0394618234
N  N8  1  0.49750000  0.32750000  0.58840000  1.0 0.0394618234
N  N9  1  0.82750000  0.99750000  0.58840000  1.0 0.0394618234
N  N10  1  0.17250000  0.00250000  0.58840000  1.0 0.0394618234
N  N11  1  0.50250000  0.32750000  0.08840000  1.0 0.0394618234
N  N12  1  0.49750000  0.67250000  0.08840000  1.0 0.0394618234
N  N13  1  0.67250000  0.49750000  0.41160000  1.0 0.0394618234
N  N14  1  0.32750000  0.50250000  0.41160000  1.0 0.0394618234
N  N15  1  0.99750000  0.82750000  0.91160000  1.0 0.0394618234
N  N16  1  0.00250000  0.17250000  0.91160000  1.0 0.0394618234
O  O1  1  0.77090000  0.62670000  0.01750000  1.0 -0.6415703806
O  O2  1  0.22910000  0.37330000  0.01750000  1.0 -0.6415703806
O  O3  1  0.87330000  0.27090000  0.51750000  1.0 -0.6415703806
O  O4  1  0.12670000  0.72910000  0.51750000  1.0 -0.6415703806
O  O5  1  0.72910000  0.12670000  0.98250000  1.0 -0.6415703806
O  O6  1  0.27090000  0.87330000  0.98250000  1.0 -0.6415703806
O  O7  1  0.62670000  0.77090000  0.48250000  1.0 -0.6415703806
O  O8  1  0.37330000  0.22910000  0.48250000  1.0 -0.6415703806
O  O9  1  0.72910000  0.87330000  0.48250000  1.0 -0.6415703806
O  O10  1  0.27090000  0.12670000  0.48250000  1.0 -0.6415703806
O  O11  1  0.62670000  0.22910000  0.98250000  1.0 -0.6415703806
O  O12  1  0.37330000  0.77090000  0.98250000  1.0 -0.6415703806
O  O13  1  0.77090000  0.37330000  0.51750000  1.0 -0.6415703806
O  O14  1  0.22910000  0.62670000  0.51750000  1.0 -0.6415703806
O  O15  1  0.87330000  0.72910000  0.01750000  1.0 -0.6415703806
O  O16  1  0.12670000  0.27090000  0.01750000  1.0 -0.6415703806
O  O17  1  0.71030000  0.31230000  0.04400000  1.0 -0.6044073229
O  O18  1  0.28970000  0.68770000  0.04400000  1.0 -0.6044073229
O  O19  1  0.18770000  0.21030000  0.54400000  1.0 -0.6044073229
O  O20  1  0.81230000  0.78970000  0.54400000  1.0 -0.6044073229
O  O21  1  0.78970000  0.81230000  0.95600000  1.0 -0.6044073229
O  O22  1  0.21030000  0.18770000  0.95600000  1.0 -0.6044073229
O  O23  1  0.31230000  0.71030000  0.45600000  1.0 -0.6044073229
O  O24  1  0.68770000  0.28970000  0.45600000  1.0 -0.6044073229
O  O25  1  0.78970000  0.18770000  0.45600000  1.0 -0.6044073229
O  O26  1  0.21030000  0.81230000  0.45600000  1.0 -0.6044073229
O  O27  1  0.31230000  0.28970000  0.95600000  1.0 -0.6044073229
O  O28  1  0.68770000  0.71030000  0.95600000  1.0 -0.6044073229
O  O29  1  0.71030000  0.68770000  0.54400000  1.0 -0.6044073229
O  O30  1  0.28970000  0.31230000  0.54400000  1.0 -0.6044073229
O  O31  1  0.18770000  0.78970000  0.04400000  1.0 -0.6052644576
O  O32  1  0.81230000  0.21030000  0.04400000  1.0 -0.6044073229
O  O33  1  0.58650000  0.52860000  0.19890000  1.0 -0.4791633858
O  O34  1  0.41350000  0.47140000  0.19890000  1.0 -0.4791633858
O  O35  1  0.97140000  0.08650000  0.69890000  1.0 -0.4791633858
O  O36  1  0.02860000  0.91350000  0.69890000  1.0 -0.4791633858
O  O37  1  0.91350000  0.02860000  0.80110000  1.0 -0.4791633858
O  O38  1  0.08650000  0.97140000  0.80110000  1.0 -0.4791633858
O  O39  1  0.52860000  0.58650000  0.30110000  1.0 -0.4791633858
O  O40  1  0.47140000  0.41350000  0.30110000  1.0 -0.4791633858
O  O41  1  0.91350000  0.97140000  0.30110000  1.0 -0.4791633858
O  O42  1  0.08650000  0.02860000  0.30110000  1.0 -0.4791633858
O  O43  1  0.52860000  0.41350000  0.80110000  1.0 -0.4791633858
O  O44  1  0.47140000  0.58650000  0.80110000  1.0 -0.4791633858
O  O45  1  0.58650000  0.47140000  0.69890000  1.0 -0.4791633858
O  O46  1  0.41350000  0.52860000  0.69890000  1.0 -0.4791633858
O  O47  1  0.97140000  0.91350000  0.19890000  1.0 -0.4749378289
O  O48  1  0.02860000  0.08650000  0.19890000  1.0 -0.4791633858
O  O49  1  0.57720000  0.41770000  0.18610000  1.0 -0.4985201625
O  O50  1  0.42280000  0.58230000  0.18610000  1.0 -0.4985201625
O  O51  1  0.08230000  0.07720000  0.68610000  1.0 -0.4985201625
O  O52  1  0.91770000  0.92280000  0.68610000  1.0 -0.4949711885
O  O53  1  0.92280000  0.91770000  0.81390000  1.0 -0.4985201625
O  O54  1  0.07720000  0.08230000  0.81390000  1.0 -0.4985201625
O  O55  1  0.41770000  0.57720000  0.31390000  1.0 -0.4985201625
O  O56  1  0.58230000  0.42280000  0.31390000  1.0 -0.4985201625
O  O57  1  0.92280000  0.08230000  0.31390000  1.0 -0.4985201625
O  O58  1  0.07720000  0.91770000  0.31390000  1.0 -0.4985201625
O  O59  1  0.41770000  0.42280000  0.81390000  1.0 -0.4985201625
O  O60  1  0.58230000  0.57720000  0.81390000  1.0 -0.4985201625
O  O61  1  0.57720000  0.58230000  0.68610000  1.0 -0.4985201625
O  O62  1  0.42280000  0.41770000  0.68610000  1.0 -0.4985201625
O  O63  1  0.08230000  0.92280000  0.18610000  1.0 -0.4985201625
O  O64  1  0.91770000  0.07720000  0.18610000  1.0 -0.4985201625
O  O65  1  0.71230000  0.67130000  0.08020000  1.0 -0.4985201625
O  O66  1  0.28770000  0.32870000  0.08020000  1.0 -0.4985201625
O  O67  1  0.82870000  0.21230000  0.58020000  1.0 -0.4985201625
O  O68  1  0.17130000  0.78770000  0.58020000  1.0 -0.4985201625
O  O69  1  0.78770000  0.17130000  0.91980000  1.0 -0.4985201625
O  O70  1  0.21230000  0.82870000  0.91980000  1.0 -0.4985201625
O  O71  1  0.67130000  0.71230000  0.41980000  1.0 -0.4985201625
O  O72  1  0.32870000  0.28770000  0.41980000  1.0 -0.4985201625
O  O73  1  0.78770000  0.82870000  0.41980000  1.0 -0.4985201625
O  O74  1  0.21230000  0.17130000  0.41980000  1.0 -0.4985201625
O  O75  1  0.67130000  0.28770000  0.91980000  1.0 -0.4985201625
O  O76  1  0.32870000  0.71230000  0.91980000  1.0 -0.4985201625
O  O77  1  0.71230000  0.32870000  0.58020000  1.0 -0.4985201625
O  O78  1  0.28770000  0.67130000  0.58020000  1.0 -0.4985201625
O  O79  1  0.82870000  0.78770000  0.08020000  1.0 -0.4985201625
O  O80  1  0.17130000  0.21230000  0.08020000  1.0 -0.4985201625
O  O81  1  0.75690000  0.58670000  0.91140000  1.0 -0.5802681982
O  O82  1  0.24310000  0.41330000  0.91140000  1.0 -0.5802681982
O  O83  1  0.91330000  0.25690000  0.41140000  1.0 -0.5802681982
O  O84  1  0.08670000  0.74310000  0.41140000  1.0 -0.5802681982
O  O85  1  0.74310000  0.08670000  0.08860000  1.0 -0.5802681982
O  O86  1  0.25690000  0.91330000  0.08860000  1.0 -0.5802681982
O  O87  1  0.58670000  0.75690000  0.58860000  1.0 -0.5802681982
O  O88  1  0.41330000  0.24310000  0.58860000  1.0 -0.5802681982
O  O89  1  0.74310000  0.91330000  0.58860000  1.0 -0.5802681982
O  O90  1  0.25690000  0.08670000  0.58860000  1.0 -0.5861405159
O  O91  1  0.58670000  0.24310000  0.08860000  1.0 -0.5802681982
O  O92  1  0.41330000  0.75690000  0.08860000  1.0 -0.5802681982
O  O93  1  0.75690000  0.41330000  0.41140000  1.0 -0.5802681982
O  O94  1  0.24310000  0.58670000  0.41140000  1.0 -0.5802681982
O  O95  1  0.91330000  0.74310000  0.91140000  1.0 -0.5802681982
O  O96  1  0.08670000  0.25690000  0.91140000  1.0 -0.5861405159
O  O97  1  0.76320000  0.37640000  0.99020000  1.0 -0.4791633858
O  O98  1  0.23680000  0.62360000  0.99020000  1.0 -0.4791633858
O  O99  1  0.12360000  0.26320000  0.49020000  1.0 -0.4791633858
O  O100  1  0.87640000  0.73680000  0.49020000  1.0 -0.4791633858
O  O101  1  0.73680000  0.87640000  0.00980000  1.0 -0.4791633858
O  O102  1  0.26320000  0.12360000  0.00980000  1.0 -0.4791633858
O  O103  1  0.37640000  0.76320000  0.50980000  1.0 -0.4791633858
O  O104  1  0.62360000  0.23680000  0.50980000  1.0 -0.4791633858
O  O105  1  0.73680000  0.12360000  0.50980000  1.0 -0.4791633858
O  O106  1  0.26320000  0.87640000  0.50980000  1.0 -0.4791633858
O  O107  1  0.37640000  0.23680000  0.00980000  1.0 -0.4791633858
O  O108  1  0.62360000  0.76320000  0.00980000  1.0 -0.4791633858
O  O109  1  0.76320000  0.62360000  0.49020000  1.0 -0.4791633858
O  O110  1  0.23680000  0.37640000  0.49020000  1.0 -0.4791633858
O  O111  1  0.12360000  0.73680000  0.99020000  1.0 -0.4791633858
O  O112  1  0.87640000  0.26320000  0.99020000  1.0 -0.4791633858
O  O113  1  0.89650000  0.60350000  0.95100000  1.0 -0.4289050202
O  O114  1  0.10350000  0.39650000  0.95100000  1.0 -0.4235510702
O  O115  1  0.89650000  0.39650000  0.45100000  1.0 -0.4289050202
O  O116  1  0.10350000  0.60350000  0.45100000  1.0 -0.4235510702
O  O117  1  0.60350000  0.10350000  0.04900000  1.0 -0.4235510702
O  O118  1  0.39650000  0.89650000  0.04900000  1.0 -0.4289050202
O  O119  1  0.60350000  0.89650000  0.54900000  1.0 -0.4289050202
O  O120  1  0.39650000  0.10350000  0.54900000  1.0 -0.4235510702
O  O121  1  0.67080000  0.82920000  0.12280000  1.0 -0.391981038
O  O122  1  0.32920000  0.17080000  0.12280000  1.0 -0.391981038
O  O123  1  0.67080000  0.17080000  0.62280000  1.0 -0.391981038
O  O124  1  0.32920000  0.82920000  0.62280000  1.0 -0.391981038
O  O125  1  0.82920000  0.32920000  0.87720000  1.0 -0.391981038
O  O126  1  0.17080000  0.67080000  0.87720000  1.0 -0.391981038
O  O127  1  0.82920000  0.67080000  0.37720000  1.0 -0.391981038
O  O128  1  0.17080000  0.32920000  0.37720000  1.0 -0.391981038
O  O129  1  0.78890000  0.71110000  0.85840000  1.0 -0.5225657399
O  O130  1  0.21110000  0.28890000  0.85840000  1.0 -0.5362060195
O  O131  1  0.78890000  0.28890000  0.35840000  1.0 -0.5225657399
O  O132  1  0.21110000  0.71110000  0.35840000  1.0 -0.5336504306
O  O133  1  0.71110000  0.21110000  0.14160000  1.0 -0.5362060195
O  O134  1  0.28890000  0.78890000  0.14160000  1.0 -0.5225657399
O  O135  1  0.71110000  0.78890000  0.64160000  1.0 -0.5225657399
O  O136  1  0.28890000  0.21110000  0.64160000  1.0 -0.5362060195
