# DDEC6 charges by PACMAN v1.1 (https://github.com/mtap-research/PACMAN-charge/)
data_TAZLOX_ASR_pacman
_symmetry_space_group_name_H-M   'P 1'
_cell_length_a   19.49110000
_cell_length_b   19.49110000
_cell_length_c   26.29950000
_cell_angle_alpha   90.00000000
_cell_angle_beta   90.00000000
_cell_angle_gamma   90.00000000
_symmetry_Int_Tables_number   1
_chemical_formula_structural   Eu2Cd3H12(C3O2)12
_chemical_formula_sum   'Eu8 Cd12 H48 C144 O96'
_cell_volume   9991.25840173
_cell_formula_units_Z   4
loop_
 _symmetry_equiv_pos_site_id
 _symmetry_equiv_pos_as_xyz
  1  'x, y, z'
loop_
 _atom_site_type_symbol
 _atom_site_label
 _atom_site_symmetry_multiplicity
 _atom_site_fract_x
 _atom_site_fract_y
 _atom_site_fract_z
 _atom_site_occupancy
 _atom_site_charge
Eu  Eu1  1  0.19347000  0.30653000  0.55259000  1.0 2.1183247754
Eu  Eu2  1  0.80653000  0.69347000  0.55259000  1.0 2.1183247754
Eu  Eu3  1  0.19347000  0.69347000  0.05259000  1.0 2.1183247754
Eu  Eu4  1  0.80653000  0.30653000  0.05259000  1.0 2.1183247754
Eu  Eu5  1  0.30653000  0.80653000  0.44741000  1.0 2.1183247754
Eu  Eu6  1  0.69347000  0.19347000  0.44741000  1.0 2.1183247754
Eu  Eu7  1  0.30653000  0.19347000  0.94741000  1.0 2.1183247754
Eu  Eu8  1  0.69347000  0.80653000  0.94741000  1.0 2.1183247754
Cd  Cd1  1  0.28243000  0.21757000  0.44633000  1.0 0.9844186957
Cd  Cd2  1  0.71757000  0.78243000  0.44633000  1.0 0.9844186957
Cd  Cd3  1  0.28243000  0.78243000  0.94633000  1.0 0.9844186957
Cd  Cd4  1  0.71757000  0.21757000  0.94633000  1.0 0.9844186957
Cd  Cd5  1  0.21757000  0.71757000  0.55367000  1.0 0.9844186957
Cd  Cd6  1  0.78243000  0.28243000  0.55367000  1.0 0.9844186957
Cd  Cd7  1  0.21757000  0.28243000  0.05367000  1.0 0.9844186957
Cd  Cd8  1  0.78243000  0.71757000  0.05367000  1.0 0.9844186957
Cd  Cd9  1  0.50000000  0.50000000  0.75000000  1.0 0.9844186957
Cd  Cd10  1  0.00000000  0.00000000  0.25000000  1.0 0.9857275078
Cd  Cd11  1  0.00000000  0.00000000  0.75000000  1.0 0.9857275078
Cd  Cd12  1  0.50000000  0.50000000  0.25000000  1.0 0.9857275078
H  H1  1  0.58520000  0.33980000  0.63460000  1.0 0.1283450873
H  H2  1  0.41480000  0.66020000  0.63460000  1.0 0.1283450873
H  H3  1  0.16020000  0.08520000  0.13460000  1.0 0.1283450873
H  H4  1  0.83980000  0.91480000  0.13460000  1.0 0.1283450873
H  H5  1  0.91480000  0.83980000  0.36540000  1.0 0.1283450873
H  H6  1  0.08520000  0.16020000  0.36540000  1.0 0.1283450873
H  H7  1  0.33980000  0.58520000  0.86540000  1.0 0.1283450873
H  H8  1  0.66020000  0.41480000  0.86540000  1.0 0.1283450873
H  H9  1  0.91480000  0.16020000  0.86540000  1.0 0.1283450873
H  H10  1  0.08520000  0.83980000  0.86540000  1.0 0.1283450873
H  H11  1  0.33980000  0.41480000  0.36540000  1.0 0.1283450873
H  H12  1  0.66020000  0.58520000  0.36540000  1.0 0.1283450873
H  H13  1  0.58520000  0.66020000  0.13460000  1.0 0.1283450873
H  H14  1  0.41480000  0.33980000  0.13460000  1.0 0.1283450873
H  H15  1  0.16020000  0.91480000  0.63460000  1.0 0.1283450873
H  H16  1  0.83980000  0.08520000  0.63460000  1.0 0.1283450873
H  H17  1  0.50190000  0.23890000  0.51820000  1.0 0.1107470432
H  H18  1  0.49810000  0.76110000  0.51820000  1.0 0.1107470432
H  H19  1  0.26110000  0.00190000  0.01820000  1.0 0.1107470432
H  H20  1  0.73890000  0.99810000  0.01820000  1.0 0.1107470432
H  H21  1  0.99810000  0.73890000  0.48180000  1.0 0.1107470432
H  H22  1  0.00190000  0.26110000  0.48180000  1.0 0.1107470432
H  H23  1  0.23890000  0.50190000  0.98180000  1.0 0.1107470432
H  H24  1  0.76110000  0.49810000  0.98180000  1.0 0.1107470432
H  H25  1  0.99810000  0.26110000  0.98180000  1.0 0.1107470432
H  H26  1  0.00190000  0.73890000  0.98180000  1.0 0.1107470432
H  H27  1  0.23890000  0.49810000  0.48180000  1.0 0.1107470432
H  H28  1  0.76110000  0.50190000  0.48180000  1.0 0.1107470432
H  H29  1  0.50190000  0.76110000  0.01820000  1.0 0.1107470432
H  H30  1  0.49810000  0.23890000  0.01820000  1.0 0.1107470432
H  H31  1  0.26110000  0.99810000  0.51820000  1.0 0.1107470432
H  H32  1  0.73890000  0.00190000  0.51820000  1.0 0.1107470432
H  H33  1  0.38130000  0.34240000  0.61410000  1.0 0.1107470432
H  H34  1  0.61870000  0.65760000  0.61410000  1.0 0.1107470432
H  H35  1  0.15760000  0.88130000  0.11410000  1.0 0.1107470432
H  H36  1  0.84240000  0.11870000  0.11410000  1.0 0.1107470432
H  H37  1  0.11870000  0.84240000  0.38590000  1.0 0.1107470432
H  H38  1  0.88130000  0.15760000  0.38590000  1.0 0.1107470432
H  H39  1  0.34240000  0.38130000  0.88590000  1.0 0.1107470432
H  H40  1  0.65760000  0.61870000  0.88590000  1.0 0.1107470432
H  H41  1  0.11870000  0.15760000  0.88590000  1.0 0.1107470432
H  H42  1  0.88130000  0.84240000  0.88590000  1.0 0.1107470432
H  H43  1  0.34240000  0.61870000  0.38590000  1.0 0.1107470432
H  H44  1  0.65760000  0.38130000  0.38590000  1.0 0.1107470432
H  H45  1  0.38130000  0.65760000  0.11410000  1.0 0.1107470432
H  H46  1  0.61870000  0.34240000  0.11410000  1.0 0.1107470432
H  H47  1  0.15760000  0.11870000  0.61410000  1.0 0.1107470432
H  H48  1  0.84240000  0.88130000  0.61410000  1.0 0.1107470432
C  C1  1  0.62410000  0.26790000  0.55570000  1.0 0.6176828334
C  C2  1  0.37590000  0.73210000  0.55570000  1.0 0.6176828334
C  C3  1  0.23210000  0.12410000  0.05570000  1.0 0.6176828334
C  C4  1  0.76790000  0.87590000  0.05570000  1.0 0.6176828334
C  C5  1  0.87590000  0.76790000  0.44430000  1.0 0.6176828334
C  C6  1  0.12410000  0.23210000  0.44430000  1.0 0.6176828334
C  C7  1  0.26790000  0.62410000  0.94430000  1.0 0.6176828334
C  C8  1  0.73210000  0.37590000  0.94430000  1.0 0.6176828334
C  C9  1  0.87590000  0.23210000  0.94430000  1.0 0.6176828334
C  C10  1  0.12410000  0.76790000  0.94430000  1.0 0.6176828334
C  C11  1  0.26790000  0.37590000  0.44430000  1.0 0.6176828334
C  C12  1  0.73210000  0.62410000  0.44430000  1.0 0.6176828334
C  C13  1  0.62410000  0.73210000  0.05570000  1.0 0.6176828334
C  C14  1  0.37590000  0.26790000  0.05570000  1.0 0.6176828334
C  C15  1  0.23210000  0.87590000  0.55570000  1.0 0.6176828334
C  C16  1  0.76790000  0.12410000  0.55570000  1.0 0.6176828334
C  C17  1  0.43210000  0.28780000  0.56180000  1.0 -0.051892988
C  C18  1  0.56790000  0.71220000  0.56180000  1.0 -0.051892988
C  C19  1  0.21220000  0.93210000  0.06180000  1.0 -0.051892988
C  C20  1  0.78780000  0.06790000  0.06180000  1.0 -0.051892988
C  C21  1  0.06790000  0.78780000  0.43820000  1.0 -0.051892988
C  C22  1  0.93210000  0.21220000  0.43820000  1.0 -0.051892988
C  C23  1  0.28780000  0.43210000  0.93820000  1.0 -0.051892988
C  C24  1  0.71220000  0.56790000  0.93820000  1.0 -0.051892988
C  C25  1  0.06790000  0.21220000  0.93820000  1.0 -0.051892988
C  C26  1  0.93210000  0.78780000  0.93820000  1.0 -0.051892988
C  C27  1  0.28780000  0.56790000  0.43820000  1.0 -0.051892988
C  C28  1  0.71220000  0.43210000  0.43820000  1.0 -0.051892988
C  C29  1  0.43210000  0.71220000  0.06180000  1.0 -0.051892988
C  C30  1  0.56790000  0.28780000  0.06180000  1.0 -0.051892988
C  C31  1  0.21220000  0.06790000  0.56180000  1.0 -0.051892988
C  C32  1  0.78780000  0.93210000  0.56180000  1.0 -0.051892988
C  C33  1  0.55310000  0.28620000  0.57400000  1.0 -0.0561443086
C  C34  1  0.44690000  0.71380000  0.57400000  1.0 -0.0561443086
C  C35  1  0.21380000  0.05310000  0.07400000  1.0 -0.0561443086
C  C36  1  0.78620000  0.94690000  0.07400000  1.0 -0.0561443086
C  C37  1  0.94690000  0.78620000  0.42600000  1.0 -0.0561443086
C  C38  1  0.05310000  0.21380000  0.42600000  1.0 -0.0561443086
C  C39  1  0.28620000  0.55310000  0.92600000  1.0 -0.0561443086
C  C40  1  0.71380000  0.44690000  0.92600000  1.0 -0.0561443086
C  C41  1  0.94690000  0.21380000  0.92600000  1.0 -0.0561443086
C  C42  1  0.05310000  0.78620000  0.92600000  1.0 -0.0561443086
C  C43  1  0.28620000  0.44690000  0.42600000  1.0 -0.0561443086
C  C44  1  0.71380000  0.55310000  0.42600000  1.0 -0.0561443086
C  C45  1  0.55310000  0.71380000  0.07400000  1.0 -0.0561443086
C  C46  1  0.44690000  0.28620000  0.07400000  1.0 -0.0561443086
C  C47  1  0.21380000  0.94690000  0.57400000  1.0 -0.0561443086
C  C48  1  0.78620000  0.05310000  0.57400000  1.0 -0.0561443086
C  C49  1  0.54650000  0.32700000  0.61610000  1.0 -0.0925457122
C  C50  1  0.45350000  0.67300000  0.61610000  1.0 -0.0925457122
C  C51  1  0.17300000  0.04650000  0.11610000  1.0 -0.0925457122
C  C52  1  0.82700000  0.95350000  0.11610000  1.0 -0.0925457122
C  C53  1  0.95350000  0.82700000  0.38390000  1.0 -0.0925457122
C  C54  1  0.04650000  0.17300000  0.38390000  1.0 -0.0925457122
C  C55  1  0.32700000  0.54650000  0.88390000  1.0 -0.0925457122
C  C56  1  0.67300000  0.45350000  0.88390000  1.0 -0.0925457122
C  C57  1  0.95350000  0.17300000  0.88390000  1.0 -0.0925457122
C  C58  1  0.04650000  0.82700000  0.88390000  1.0 -0.0925457122
C  C59  1  0.32700000  0.45350000  0.38390000  1.0 -0.0925457122
C  C60  1  0.67300000  0.54650000  0.38390000  1.0 -0.0925457122
C  C61  1  0.54650000  0.67300000  0.11610000  1.0 -0.0925457122
C  C62  1  0.45350000  0.32700000  0.11610000  1.0 -0.0925457122
C  C63  1  0.17300000  0.95350000  0.61610000  1.0 -0.0925457122
C  C64  1  0.82700000  0.04650000  0.61610000  1.0 -0.0925457122
C  C65  1  0.36980000  0.26720000  0.53100000  1.0 0.6093132683
C  C66  1  0.63020000  0.73280000  0.53100000  1.0 0.6093132683
C  C67  1  0.23280000  0.86980000  0.03100000  1.0 0.6093132683
C  C68  1  0.76720000  0.13020000  0.03100000  1.0 0.6093132683
C  C69  1  0.13020000  0.76720000  0.46900000  1.0 0.6093132683
C  C70  1  0.86980000  0.23280000  0.46900000  1.0 0.6093132683
C  C71  1  0.26720000  0.36980000  0.96900000  1.0 0.6093132683
C  C72  1  0.73280000  0.63020000  0.96900000  1.0 0.6093132683
C  C73  1  0.13020000  0.23280000  0.96900000  1.0 0.6093132683
C  C74  1  0.86980000  0.76720000  0.96900000  1.0 0.6093132683
C  C75  1  0.26720000  0.63020000  0.46900000  1.0 0.6093132683
C  C76  1  0.73280000  0.36980000  0.46900000  1.0 0.6093132683
C  C77  1  0.36980000  0.73280000  0.03100000  1.0 0.6093132683
C  C78  1  0.63020000  0.26720000  0.03100000  1.0 0.6093132683
C  C79  1  0.23280000  0.13020000  0.53100000  1.0 0.6093132683
C  C80  1  0.76720000  0.86980000  0.53100000  1.0 0.6093132683
C  C81  1  0.49680000  0.26650000  0.54680000  1.0 -0.1067899744
C  C82  1  0.50320000  0.73350000  0.54680000  1.0 -0.1067899744
C  C83  1  0.23350000  0.99680000  0.04680000  1.0 -0.1067899744
C  C84  1  0.76650000  0.00320000  0.04680000  1.0 -0.1067899744
C  C85  1  0.00320000  0.76650000  0.45320000  1.0 -0.1067899744
C  C86  1  0.99680000  0.23350000  0.45320000  1.0 -0.1067899744
C  C87  1  0.26650000  0.49680000  0.95320000  1.0 -0.1067899744
C  C88  1  0.73350000  0.50320000  0.95320000  1.0 -0.1067899744
C  C89  1  0.00320000  0.23350000  0.95320000  1.0 -0.1067899744
C  C90  1  0.99680000  0.76650000  0.95320000  1.0 -0.1067899744
C  C91  1  0.26650000  0.50320000  0.45320000  1.0 -0.1067899744
C  C92  1  0.73350000  0.49680000  0.45320000  1.0 -0.1067899744
C  C93  1  0.49680000  0.73350000  0.04680000  1.0 -0.1067899744
C  C94  1  0.50320000  0.26650000  0.04680000  1.0 -0.1067899744
C  C95  1  0.23350000  0.00320000  0.54680000  1.0 -0.1067899744
C  C96  1  0.76650000  0.99680000  0.54680000  1.0 -0.1067899744
C  C97  1  0.47510000  0.39740000  0.67530000  1.0 0.527561296
C  C98  1  0.52490000  0.60260000  0.67530000  1.0 0.527561296
C  C99  1  0.10260000  0.97510000  0.17530000  1.0 0.527561296
C  C100  1  0.89740000  0.02490000  0.17530000  1.0 0.527561296
C  C101  1  0.02490000  0.89740000  0.32470000  1.0 0.527561296
C  C102  1  0.97510000  0.10260000  0.32470000  1.0 0.527561296
C  C103  1  0.39740000  0.47510000  0.82470000  1.0 0.527561296
C  C104  1  0.60260000  0.52490000  0.82470000  1.0 0.527561296
C  C105  1  0.02490000  0.10260000  0.82470000  1.0 0.527561296
C  C106  1  0.97510000  0.89740000  0.82470000  1.0 0.527561296
C  C107  1  0.39740000  0.52490000  0.32470000  1.0 0.527561296
C  C108  1  0.60260000  0.47510000  0.32470000  1.0 0.527561296
C  C109  1  0.47510000  0.60260000  0.17530000  1.0 0.527561296
C  C110  1  0.52490000  0.39740000  0.17530000  1.0 0.527561296
C  C111  1  0.10260000  0.02490000  0.67530000  1.0 0.527561296
C  C112  1  0.89740000  0.97510000  0.67530000  1.0 0.527561296
C  C113  1  0.42480000  0.32850000  0.60390000  1.0 -0.1014001713
C  C114  1  0.57520000  0.67150000  0.60390000  1.0 -0.1014001713
C  C115  1  0.17150000  0.92480000  0.10390000  1.0 -0.1014001713
C  C116  1  0.82850000  0.07520000  0.10390000  1.0 -0.1014001713
C  C117  1  0.07520000  0.82850000  0.39610000  1.0 -0.1014001713
C  C118  1  0.92480000  0.17150000  0.39610000  1.0 -0.1014001713
C  C119  1  0.32850000  0.42480000  0.89610000  1.0 -0.1014001713
C  C120  1  0.67150000  0.57520000  0.89610000  1.0 -0.1014001713
C  C121  1  0.07520000  0.17150000  0.89610000  1.0 -0.1014001713
C  C122  1  0.92480000  0.82850000  0.89610000  1.0 -0.1014001713
C  C123  1  0.32850000  0.57520000  0.39610000  1.0 -0.1014001713
C  C124  1  0.67150000  0.42480000  0.39610000  1.0 -0.1014001713
C  C125  1  0.42480000  0.67150000  0.10390000  1.0 -0.1014001713
C  C126  1  0.57520000  0.32850000  0.10390000  1.0 -0.1014001713
C  C127  1  0.17150000  0.07520000  0.60390000  1.0 -0.1014001713
C  C128  1  0.82850000  0.92480000  0.60390000  1.0 -0.1014001713
C  C129  1  0.48190000  0.34910000  0.63120000  1.0 -0.0344450889
C  C130  1  0.51810000  0.65090000  0.63120000  1.0 -0.0344450889
C  C131  1  0.15090000  0.98190000  0.13120000  1.0 -0.0344450889
C  C132  1  0.84910000  0.01810000  0.13120000  1.0 -0.0344450889
C  C133  1  0.01810000  0.84910000  0.36880000  1.0 -0.0344450889
C  C134  1  0.98190000  0.15090000  0.36880000  1.0 -0.0344450889
C  C135  1  0.34910000  0.48190000  0.86880000  1.0 -0.0344450889
C  C136  1  0.65090000  0.51810000  0.86880000  1.0 -0.0344450889
C  C137  1  0.01810000  0.15090000  0.86880000  1.0 -0.0344450889
C  C138  1  0.98190000  0.84910000  0.86880000  1.0 -0.0344450889
C  C139  1  0.34910000  0.51810000  0.36880000  1.0 -0.0344450889
C  C140  1  0.65090000  0.48190000  0.36880000  1.0 -0.0344450889
C  C141  1  0.48190000  0.65090000  0.13120000  1.0 -0.0344450889
C  C142  1  0.51810000  0.34910000  0.13120000  1.0 -0.0344450889
C  C143  1  0.15090000  0.01810000  0.63120000  1.0 -0.0344450889
C  C144  1  0.84910000  0.98190000  0.63120000  1.0 -0.0344450889
O  O1  1  0.41800000  0.42200000  0.68600000  1.0 -0.471368281
O  O2  1  0.58200000  0.57800000  0.68600000  1.0 -0.471368281
O  O3  1  0.07800000  0.91800000  0.18600000  1.0 -0.471368281
O  O4  1  0.92200000  0.08200000  0.18600000  1.0 -0.471368281
O  O5  1  0.08200000  0.92200000  0.31400000  1.0 -0.471368281
O  O6  1  0.91800000  0.07800000  0.31400000  1.0 -0.471368281
O  O7  1  0.42200000  0.41800000  0.81400000  1.0 -0.471368281
O  O8  1  0.57800000  0.58200000  0.81400000  1.0 -0.471368281
O  O9  1  0.08200000  0.07800000  0.81400000  1.0 -0.471368281
O  O10  1  0.91800000  0.92200000  0.81400000  1.0 -0.471368281
O  O11  1  0.42200000  0.58200000  0.31400000  1.0 -0.471368281
O  O12  1  0.57800000  0.41800000  0.31400000  1.0 -0.471368281
O  O13  1  0.41800000  0.57800000  0.18600000  1.0 -0.471368281
O  O14  1  0.58200000  0.42200000  0.18600000  1.0 -0.471368281
O  O15  1  0.07800000  0.08200000  0.68600000  1.0 -0.471368281
O  O16  1  0.92200000  0.91800000  0.68600000  1.0 -0.471368281
O  O17  1  0.52940000  0.41490000  0.69840000  1.0 -0.5077780595
O  O18  1  0.47060000  0.58510000  0.69840000  1.0 -0.5077780595
O  O19  1  0.08510000  0.02940000  0.19840000  1.0 -0.5077780595
O  O20  1  0.91490000  0.97060000  0.19840000  1.0 -0.5077780595
O  O21  1  0.97060000  0.91490000  0.30160000  1.0 -0.5077780595
O  O22  1  0.02940000  0.08510000  0.30160000  1.0 -0.5077780595
O  O23  1  0.41490000  0.52940000  0.80160000  1.0 -0.5077780595
O  O24  1  0.58510000  0.47060000  0.80160000  1.0 -0.5077780595
O  O25  1  0.97060000  0.08510000  0.80160000  1.0 -0.5077780595
O  O26  1  0.02940000  0.91490000  0.80160000  1.0 -0.5077780595
O  O27  1  0.41490000  0.47060000  0.30160000  1.0 -0.5077780595
O  O28  1  0.58510000  0.52940000  0.30160000  1.0 -0.5077780595
O  O29  1  0.52940000  0.58510000  0.19840000  1.0 -0.5077780595
O  O30  1  0.47060000  0.41490000  0.19840000  1.0 -0.5077780595
O  O31  1  0.08510000  0.97060000  0.69840000  1.0 -0.5077780595
O  O32  1  0.91490000  0.02940000  0.69840000  1.0 -0.5077780595
O  O33  1  0.31360000  0.28810000  0.54470000  1.0 -0.6920744291
O  O34  1  0.68640000  0.71190000  0.54470000  1.0 -0.6920744291
O  O35  1  0.21190000  0.81360000  0.04470000  1.0 -0.6920744291
O  O36  1  0.78810000  0.18640000  0.04470000  1.0 -0.6920744291
O  O37  1  0.18640000  0.78810000  0.45530000  1.0 -0.6920744291
O  O38  1  0.81360000  0.21190000  0.45530000  1.0 -0.6920744291
O  O39  1  0.28810000  0.31360000  0.95530000  1.0 -0.6920744291
O  O40  1  0.71190000  0.68640000  0.95530000  1.0 -0.6920744291
O  O41  1  0.18640000  0.21190000  0.95530000  1.0 -0.6920744291
O  O42  1  0.81360000  0.78810000  0.95530000  1.0 -0.6920744291
O  O43  1  0.28810000  0.68640000  0.45530000  1.0 -0.6920744291
O  O44  1  0.71190000  0.31360000  0.45530000  1.0 -0.6920744291
O  O45  1  0.31360000  0.71190000  0.04470000  1.0 -0.6920744291
O  O46  1  0.68640000  0.28810000  0.04470000  1.0 -0.6920744291
O  O47  1  0.21190000  0.18640000  0.54470000  1.0 -0.6920744291
O  O48  1  0.78810000  0.81360000  0.54470000  1.0 -0.6920744291
O  O49  1  0.37960000  0.23390000  0.49070000  1.0 -0.5466068497
O  O50  1  0.62040000  0.76610000  0.49070000  1.0 -0.5466068497
O  O51  1  0.26610000  0.87960000  0.99070000  1.0 -0.5466068497
O  O52  1  0.73390000  0.12040000  0.99070000  1.0 -0.5466068497
O  O53  1  0.12040000  0.73390000  0.50930000  1.0 -0.5466068497
O  O54  1  0.87960000  0.26610000  0.50930000  1.0 -0.5466068497
O  O55  1  0.23390000  0.37960000  0.00930000  1.0 -0.5466068497
O  O56  1  0.76610000  0.62040000  0.00930000  1.0 -0.5466068497
O  O57  1  0.12040000  0.26610000  0.00930000  1.0 -0.5466068497
O  O58  1  0.87960000  0.73390000  0.00930000  1.0 -0.5466068497
O  O59  1  0.23390000  0.62040000  0.50930000  1.0 -0.5466068497
O  O60  1  0.76610000  0.37960000  0.50930000  1.0 -0.5466068497
O  O61  1  0.37960000  0.76610000  0.99070000  1.0 -0.5466068497
O  O62  1  0.62040000  0.23390000  0.99070000  1.0 -0.5466068497
O  O63  1  0.26610000  0.12040000  0.49070000  1.0 -0.5466068497
O  O64  1  0.73390000  0.87960000  0.49070000  1.0 -0.5466068497
O  O65  1  0.67390000  0.29050000  0.58050000  1.0 -0.5416715851
O  O66  1  0.32610000  0.70950000  0.58050000  1.0 -0.5416715851
O  O67  1  0.20950000  0.17390000  0.08050000  1.0 -0.5416715851
O  O68  1  0.79050000  0.82610000  0.08050000  1.0 -0.5416715851
O  O69  1  0.82610000  0.79050000  0.41950000  1.0 -0.5416715851
O  O70  1  0.17390000  0.20950000  0.41950000  1.0 -0.5416715851
O  O71  1  0.29050000  0.67390000  0.91950000  1.0 -0.5416715851
O  O72  1  0.70950000  0.32610000  0.91950000  1.0 -0.5416715851
O  O73  1  0.82610000  0.20950000  0.91950000  1.0 -0.5416715851
O  O74  1  0.17390000  0.79050000  0.91950000  1.0 -0.5416715851
O  O75  1  0.29050000  0.32610000  0.41950000  1.0 -0.5416715851
O  O76  1  0.70950000  0.67390000  0.41950000  1.0 -0.5416715851
O  O77  1  0.67390000  0.70950000  0.08050000  1.0 -0.5416715851
O  O78  1  0.32610000  0.29050000  0.08050000  1.0 -0.5416715851
O  O79  1  0.20950000  0.82610000  0.58050000  1.0 -0.5416715851
O  O80  1  0.79050000  0.17390000  0.58050000  1.0 -0.5416715851
O  O81  1  0.63010000  0.23170000  0.51780000  1.0 -0.6994009352
O  O82  1  0.36990000  0.76830000  0.51780000  1.0 -0.6994009352
O  O83  1  0.26830000  0.13010000  0.01780000  1.0 -0.6994009352
O  O84  1  0.73170000  0.86990000  0.01780000  1.0 -0.6994009352
O  O85  1  0.86990000  0.73170000  0.48220000  1.0 -0.6994009352
O  O86  1  0.13010000  0.26830000  0.48220000  1.0 -0.6994009352
O  O87  1  0.23170000  0.63010000  0.98220000  1.0 -0.6994009352
O  O88  1  0.76830000  0.36990000  0.98220000  1.0 -0.6994009352
O  O89  1  0.86990000  0.26830000  0.98220000  1.0 -0.6994009352
O  O90  1  0.13010000  0.73170000  0.98220000  1.0 -0.6994009352
O  O91  1  0.23170000  0.36990000  0.48220000  1.0 -0.6994009352
O  O92  1  0.76830000  0.63010000  0.48220000  1.0 -0.6994009352
O  O93  1  0.63010000  0.76830000  0.01780000  1.0 -0.6994009352
O  O94  1  0.36990000  0.23170000  0.01780000  1.0 -0.6994009352
O  O95  1  0.26830000  0.86990000  0.51780000  1.0 -0.6994009352
O  O96  1  0.73170000  0.13010000  0.51780000  1.0 -0.6994009352
