# DDEC6 charges by PACMAN v1.1 (https://github.com/mtap-research/PACMAN-charge/)
data_TAZLUD_ASR_pacman
_symmetry_space_group_name_H-M   'P 1'
_cell_length_a   19.46870000
_cell_length_b   19.46870000
_cell_length_c   26.37460000
_cell_angle_alpha   90.00000000
_cell_angle_beta   90.00000000
_cell_angle_gamma   90.00000000
_symmetry_Int_Tables_number   1
_chemical_formula_structural   Gd2Cd3H12(C3O2)12
_chemical_formula_sum   'Gd8 Cd12 H48 C144 O96'
_cell_volume   9996.77201471
_cell_formula_units_Z   4
loop_
 _symmetry_equiv_pos_site_id
 _symmetry_equiv_pos_as_xyz
  1  'x, y, z'
loop_
 _atom_site_type_symbol
 _atom_site_label
 _atom_site_symmetry_multiplicity
 _atom_site_fract_x
 _atom_site_fract_y
 _atom_site_fract_z
 _atom_site_occupancy
 _atom_site_charge
Gd  Gd1  1  0.69386000  0.19386000  0.44764000  1.0 2.052172704
Gd  Gd2  1  0.30614000  0.80614000  0.44764000  1.0 2.052172704
Gd  Gd3  1  0.30614000  0.19386000  0.94764000  1.0 2.052172704
Gd  Gd4  1  0.69386000  0.80614000  0.94764000  1.0 2.052172704
Gd  Gd5  1  0.80614000  0.69386000  0.55236000  1.0 2.052172704
Gd  Gd6  1  0.19386000  0.30614000  0.55236000  1.0 2.052172704
Gd  Gd7  1  0.19386000  0.69386000  0.05236000  1.0 2.052172704
Gd  Gd8  1  0.80614000  0.30614000  0.05236000  1.0 2.052172704
Cd  Cd1  1  0.78260000  0.28260000  0.55427000  1.0 0.9883955255
Cd  Cd2  1  0.21740000  0.71740000  0.55427000  1.0 0.9883955255
Cd  Cd3  1  0.21740000  0.28260000  0.05427000  1.0 0.9883955255
Cd  Cd4  1  0.78260000  0.71740000  0.05427000  1.0 0.9883955255
Cd  Cd5  1  0.71740000  0.78260000  0.44573000  1.0 0.9883955255
Cd  Cd6  1  0.28260000  0.21740000  0.44573000  1.0 0.9883955255
Cd  Cd7  1  0.28260000  0.78260000  0.94573000  1.0 0.9883955255
Cd  Cd8  1  0.71740000  0.21740000  0.94573000  1.0 0.9883955255
Cd  Cd9  1  0.00000000  0.00000000  0.75000000  1.0 0.9843412772
Cd  Cd10  1  0.50000000  0.50000000  0.25000000  1.0 0.9843412772
Cd  Cd11  1  0.50000000  0.50000000  0.75000000  1.0 0.9843412772
Cd  Cd12  1  0.00000000  0.00000000  0.25000000  1.0 0.9843412772
H  H1  1  0.84190000  0.88120000  0.61440000  1.0 0.1120274504
H  H2  1  0.15810000  0.11880000  0.61440000  1.0 0.1120274504
H  H3  1  0.61880000  0.34190000  0.11440000  1.0 0.1120274504
H  H4  1  0.38120000  0.65810000  0.11440000  1.0 0.1120274504
H  H5  1  0.65810000  0.38120000  0.38560000  1.0 0.1120274504
H  H6  1  0.34190000  0.61880000  0.38560000  1.0 0.1120274504
H  H7  1  0.88120000  0.84190000  0.88560000  1.0 0.1120274504
H  H8  1  0.11880000  0.15810000  0.88560000  1.0 0.1120274504
H  H9  1  0.65810000  0.61880000  0.88560000  1.0 0.1120274504
H  H10  1  0.34190000  0.38120000  0.88560000  1.0 0.1120274504
H  H11  1  0.88120000  0.15810000  0.38560000  1.0 0.1120274504
H  H12  1  0.11880000  0.84190000  0.38560000  1.0 0.1120274504
H  H13  1  0.84190000  0.11880000  0.11440000  1.0 0.1120274504
H  H14  1  0.15810000  0.88120000  0.11440000  1.0 0.1120274504
H  H15  1  0.61880000  0.65810000  0.61440000  1.0 0.1120274504
H  H16  1  0.38120000  0.34190000  0.61440000  1.0 0.1120274504
H  H17  1  0.84010000  0.08450000  0.63390000  1.0 0.1285844878
H  H18  1  0.15990000  0.91550000  0.63390000  1.0 0.1285844878
H  H19  1  0.41550000  0.34010000  0.13390000  1.0 0.1285844878
H  H20  1  0.58450000  0.65990000  0.13390000  1.0 0.1285844878
H  H21  1  0.65990000  0.58450000  0.36610000  1.0 0.1285844878
H  H22  1  0.34010000  0.41550000  0.36610000  1.0 0.1285844878
H  H23  1  0.08450000  0.84010000  0.86610000  1.0 0.1285844878
H  H24  1  0.91550000  0.15990000  0.86610000  1.0 0.1285844878
H  H25  1  0.65990000  0.41550000  0.86610000  1.0 0.1285844878
H  H26  1  0.34010000  0.58450000  0.86610000  1.0 0.1285844878
H  H27  1  0.08450000  0.15990000  0.36610000  1.0 0.1285844878
H  H28  1  0.91550000  0.84010000  0.36610000  1.0 0.1285844878
H  H29  1  0.84010000  0.91550000  0.13390000  1.0 0.1285844878
H  H30  1  0.15990000  0.08450000  0.13390000  1.0 0.1285844878
H  H31  1  0.41550000  0.65990000  0.63390000  1.0 0.1285844878
H  H32  1  0.58450000  0.34010000  0.63390000  1.0 0.1285844878
H  H33  1  0.73820000  0.00180000  0.51830000  1.0 0.1120274504
H  H34  1  0.26180000  0.99820000  0.51830000  1.0 0.1120274504
H  H35  1  0.49820000  0.23820000  0.01830000  1.0 0.1120274504
H  H36  1  0.50180000  0.76180000  0.01830000  1.0 0.1120274504
H  H37  1  0.76180000  0.50180000  0.48170000  1.0 0.1120274504
H  H38  1  0.23820000  0.49820000  0.48170000  1.0 0.1120274504
H  H39  1  0.00180000  0.73820000  0.98170000  1.0 0.1120274504
H  H40  1  0.99820000  0.26180000  0.98170000  1.0 0.1120274504
H  H41  1  0.76180000  0.49820000  0.98170000  1.0 0.1120274504
H  H42  1  0.23820000  0.50180000  0.98170000  1.0 0.1120274504
H  H43  1  0.00180000  0.26180000  0.48170000  1.0 0.1120274504
H  H44  1  0.99820000  0.73820000  0.48170000  1.0 0.1120274504
H  H45  1  0.73820000  0.99820000  0.01830000  1.0 0.1120274504
H  H46  1  0.26180000  0.00180000  0.01830000  1.0 0.1120274504
H  H47  1  0.49820000  0.76180000  0.51830000  1.0 0.1120274504
H  H48  1  0.50180000  0.23820000  0.51830000  1.0 0.1120274504
C  C1  1  0.76660000  0.12470000  0.55590000  1.0 0.6184979886
C  C2  1  0.23340000  0.87530000  0.55590000  1.0 0.6184979886
C  C3  1  0.37530000  0.26660000  0.05590000  1.0 0.6184979886
C  C4  1  0.62470000  0.73340000  0.05590000  1.0 0.6184979886
C  C5  1  0.73340000  0.62470000  0.44410000  1.0 0.6184979886
C  C6  1  0.26660000  0.37530000  0.44410000  1.0 0.6184979886
C  C7  1  0.12470000  0.76660000  0.94410000  1.0 0.6184979886
C  C8  1  0.87530000  0.23340000  0.94410000  1.0 0.6184979886
C  C9  1  0.73340000  0.37530000  0.94410000  1.0 0.6184979886
C  C10  1  0.26660000  0.62470000  0.94410000  1.0 0.6184979886
C  C11  1  0.12470000  0.23340000  0.44410000  1.0 0.6184979886
C  C12  1  0.87530000  0.76660000  0.44410000  1.0 0.6184979886
C  C13  1  0.76660000  0.87530000  0.05590000  1.0 0.6184979886
C  C14  1  0.23340000  0.12470000  0.05590000  1.0 0.6184979886
C  C15  1  0.37530000  0.73340000  0.55590000  1.0 0.6184979886
C  C16  1  0.62470000  0.26660000  0.55590000  1.0 0.6184979886
C  C17  1  0.82840000  0.92480000  0.60400000  1.0 -0.1015390675
C  C18  1  0.17160000  0.07520000  0.60400000  1.0 -0.1015390675
C  C19  1  0.57520000  0.32840000  0.10400000  1.0 -0.1015390675
C  C20  1  0.42480000  0.67160000  0.10400000  1.0 -0.1015390675
C  C21  1  0.67160000  0.42480000  0.39600000  1.0 -0.1015390675
C  C22  1  0.32840000  0.57520000  0.39600000  1.0 -0.1015390675
C  C23  1  0.92480000  0.82840000  0.89600000  1.0 -0.1015390675
C  C24  1  0.07520000  0.17160000  0.89600000  1.0 -0.1015390675
C  C25  1  0.67160000  0.57520000  0.89600000  1.0 -0.1015390675
C  C26  1  0.32840000  0.42480000  0.89600000  1.0 -0.1015390675
C  C27  1  0.92480000  0.17160000  0.39600000  1.0 -0.1015390675
C  C28  1  0.07520000  0.82840000  0.39600000  1.0 -0.1015390675
C  C29  1  0.82840000  0.07520000  0.10400000  1.0 -0.1015390675
C  C30  1  0.17160000  0.92480000  0.10400000  1.0 -0.1015390675
C  C31  1  0.57520000  0.67160000  0.60400000  1.0 -0.1015390675
C  C32  1  0.42480000  0.32840000  0.60400000  1.0 -0.1015390675
C  C33  1  0.82690000  0.04580000  0.61560000  1.0 -0.0930088065
C  C34  1  0.17310000  0.95420000  0.61560000  1.0 -0.0930088065
C  C35  1  0.45420000  0.32690000  0.11560000  1.0 -0.0930088065
C  C36  1  0.54580000  0.67310000  0.11560000  1.0 -0.0930088065
C  C37  1  0.67310000  0.54580000  0.38440000  1.0 -0.0930088065
C  C38  1  0.32690000  0.45420000  0.38440000  1.0 -0.0930088065
C  C39  1  0.04580000  0.82690000  0.88440000  1.0 -0.0930088065
C  C40  1  0.95420000  0.17310000  0.88440000  1.0 -0.0930088065
C  C41  1  0.67310000  0.45420000  0.88440000  1.0 -0.0930088065
C  C42  1  0.32690000  0.54580000  0.88440000  1.0 -0.0930088065
C  C43  1  0.04580000  0.17310000  0.38440000  1.0 -0.0930088065
C  C44  1  0.95420000  0.82690000  0.38440000  1.0 -0.0930088065
C  C45  1  0.82690000  0.95420000  0.11560000  1.0 -0.0930088065
C  C46  1  0.17310000  0.04580000  0.11560000  1.0 -0.0930088065
C  C47  1  0.45420000  0.67310000  0.61560000  1.0 -0.0930088065
C  C48  1  0.54580000  0.32690000  0.61560000  1.0 -0.0930088065
C  C49  1  0.84920000  0.98200000  0.63110000  1.0 -0.0330657972
C  C50  1  0.15080000  0.01800000  0.63110000  1.0 -0.0330657972
C  C51  1  0.51800000  0.34920000  0.13110000  1.0 -0.0330657972
C  C52  1  0.48200000  0.65080000  0.13110000  1.0 -0.0330657972
C  C53  1  0.65080000  0.48200000  0.36890000  1.0 -0.0330657972
C  C54  1  0.34920000  0.51800000  0.36890000  1.0 -0.0330657972
C  C55  1  0.98200000  0.84920000  0.86890000  1.0 -0.0330657972
C  C56  1  0.01800000  0.15080000  0.86890000  1.0 -0.0330657972
C  C57  1  0.65080000  0.51800000  0.86890000  1.0 -0.0330657972
C  C58  1  0.34920000  0.48200000  0.86890000  1.0 -0.0330657972
C  C59  1  0.98200000  0.15080000  0.36890000  1.0 -0.0330657972
C  C60  1  0.01800000  0.84920000  0.36890000  1.0 -0.0330657972
C  C61  1  0.84920000  0.01800000  0.13110000  1.0 -0.0330657972
C  C62  1  0.15080000  0.98200000  0.13110000  1.0 -0.0330657972
C  C63  1  0.51800000  0.65080000  0.63110000  1.0 -0.0330657972
C  C64  1  0.48200000  0.34920000  0.63110000  1.0 -0.0330657972
C  C65  1  0.76710000  0.86970000  0.53090000  1.0 0.6135114417
C  C66  1  0.23290000  0.13030000  0.53090000  1.0 0.6135114417
C  C67  1  0.63030000  0.26710000  0.03090000  1.0 0.6135114417
C  C68  1  0.36970000  0.73290000  0.03090000  1.0 0.6135114417
C  C69  1  0.73290000  0.36970000  0.46910000  1.0 0.6135114417
C  C70  1  0.26710000  0.63030000  0.46910000  1.0 0.6135114417
C  C71  1  0.86970000  0.76710000  0.96910000  1.0 0.6135114417
C  C72  1  0.13030000  0.23290000  0.96910000  1.0 0.6135114417
C  C73  1  0.73290000  0.63030000  0.96910000  1.0 0.6135114417
C  C74  1  0.26710000  0.36970000  0.96910000  1.0 0.6135114417
C  C75  1  0.86970000  0.23290000  0.46910000  1.0 0.6135114417
C  C76  1  0.13030000  0.76710000  0.46910000  1.0 0.6135114417
C  C77  1  0.76710000  0.13030000  0.03090000  1.0 0.6135114417
C  C78  1  0.23290000  0.86970000  0.03090000  1.0 0.6135114417
C  C79  1  0.63030000  0.73290000  0.53090000  1.0 0.6135114417
C  C80  1  0.36970000  0.26710000  0.53090000  1.0 0.6135114417
C  C81  1  0.89820000  0.97460000  0.67430000  1.0 0.5247097516
C  C82  1  0.10180000  0.02540000  0.67430000  1.0 0.5247097516
C  C83  1  0.52540000  0.39820000  0.17430000  1.0 0.5247097516
C  C84  1  0.47460000  0.60180000  0.17430000  1.0 0.5247097516
C  C85  1  0.60180000  0.47460000  0.32570000  1.0 0.5247097516
C  C86  1  0.39820000  0.52540000  0.32570000  1.0 0.5247097516
C  C87  1  0.97460000  0.89820000  0.82570000  1.0 0.5247097516
C  C88  1  0.02540000  0.10180000  0.82570000  1.0 0.5254497662
C  C89  1  0.60180000  0.52540000  0.82570000  1.0 0.5247097516
C  C90  1  0.39820000  0.47460000  0.82570000  1.0 0.5247097516
C  C91  1  0.97460000  0.10180000  0.32570000  1.0 0.5247097516
C  C92  1  0.02540000  0.89820000  0.32570000  1.0 0.5254497662
C  C93  1  0.89820000  0.02540000  0.17430000  1.0 0.5247097516
C  C94  1  0.10180000  0.97460000  0.17430000  1.0 0.5254497662
C  C95  1  0.52540000  0.60180000  0.67430000  1.0 0.5247097516
C  C96  1  0.47460000  0.39820000  0.67430000  1.0 0.5247097516
C  C97  1  0.78750000  0.93240000  0.56140000  1.0 -0.0514809703
C  C98  1  0.21250000  0.06760000  0.56140000  1.0 -0.0514809703
C  C99  1  0.56760000  0.28750000  0.06140000  1.0 -0.0514809703
C  C100  1  0.43240000  0.71250000  0.06140000  1.0 -0.0514809703
C  C101  1  0.71250000  0.43240000  0.43860000  1.0 -0.0514809703
C  C102  1  0.28750000  0.56760000  0.43860000  1.0 -0.0514809703
C  C103  1  0.93240000  0.78750000  0.93860000  1.0 -0.0514809703
C  C104  1  0.06760000  0.21250000  0.93860000  1.0 -0.0514809703
C  C105  1  0.71250000  0.56760000  0.93860000  1.0 -0.0514809703
C  C106  1  0.28750000  0.43240000  0.93860000  1.0 -0.0514809703
C  C107  1  0.93240000  0.21250000  0.43860000  1.0 -0.0514809703
C  C108  1  0.06760000  0.78750000  0.43860000  1.0 -0.0514809703
C  C109  1  0.78750000  0.06760000  0.06140000  1.0 -0.0514809703
C  C110  1  0.21250000  0.93240000  0.06140000  1.0 -0.0514809703
C  C111  1  0.56760000  0.71250000  0.56140000  1.0 -0.0514809703
C  C112  1  0.43240000  0.28750000  0.56140000  1.0 -0.0514809703
C  C113  1  0.78580000  0.05350000  0.57410000  1.0 -0.0514809703
C  C114  1  0.21420000  0.94650000  0.57410000  1.0 -0.0514809703
C  C115  1  0.44650000  0.28580000  0.07410000  1.0 -0.0514809703
C  C116  1  0.55350000  0.71420000  0.07410000  1.0 -0.0514809703
C  C117  1  0.71420000  0.55350000  0.42590000  1.0 -0.0514809703
C  C118  1  0.28580000  0.44650000  0.42590000  1.0 -0.0514809703
C  C119  1  0.05350000  0.78580000  0.92590000  1.0 -0.0514809703
C  C120  1  0.94650000  0.21420000  0.92590000  1.0 -0.0514809703
C  C121  1  0.71420000  0.44650000  0.92590000  1.0 -0.0514809703
C  C122  1  0.28580000  0.55350000  0.92590000  1.0 -0.0514809703
C  C123  1  0.05350000  0.21420000  0.42590000  1.0 -0.0514809703
C  C124  1  0.94650000  0.78580000  0.42590000  1.0 -0.0514809703
C  C125  1  0.78580000  0.94650000  0.07410000  1.0 -0.0514809703
C  C126  1  0.21420000  0.05350000  0.07410000  1.0 -0.0514809703
C  C127  1  0.44650000  0.71420000  0.57410000  1.0 -0.0514809703
C  C128  1  0.55350000  0.28580000  0.57410000  1.0 -0.0514809703
C  C129  1  0.76600000  0.99670000  0.54670000  1.0 -0.1015390675
C  C130  1  0.23400000  0.00330000  0.54670000  1.0 -0.1015390675
C  C131  1  0.50330000  0.26600000  0.04670000  1.0 -0.1015390675
C  C132  1  0.49670000  0.73400000  0.04670000  1.0 -0.1015390675
C  C133  1  0.73400000  0.49670000  0.45330000  1.0 -0.1015390675
C  C134  1  0.26600000  0.50330000  0.45330000  1.0 -0.1015390675
C  C135  1  0.99670000  0.76600000  0.95330000  1.0 -0.1015390675
C  C136  1  0.00330000  0.23400000  0.95330000  1.0 -0.1015390675
C  C137  1  0.73400000  0.50330000  0.95330000  1.0 -0.1015390675
C  C138  1  0.26600000  0.49670000  0.95330000  1.0 -0.1015390675
C  C139  1  0.99670000  0.23400000  0.45330000  1.0 -0.1015390675
C  C140  1  0.00330000  0.76600000  0.45330000  1.0 -0.1015390675
C  C141  1  0.76600000  0.00330000  0.04670000  1.0 -0.1015390675
C  C142  1  0.23400000  0.99670000  0.04670000  1.0 -0.1015390675
C  C143  1  0.50330000  0.73400000  0.54670000  1.0 -0.1015390675
C  C144  1  0.49670000  0.26600000  0.54670000  1.0 -0.1015390675
O  O1  1  0.78920000  0.17440000  0.58070000  1.0 -0.5401048526
O  O2  1  0.21080000  0.82560000  0.58070000  1.0 -0.5401048526
O  O3  1  0.32560000  0.28920000  0.08070000  1.0 -0.5401048526
O  O4  1  0.67440000  0.71080000  0.08070000  1.0 -0.5401048526
O  O5  1  0.71080000  0.67440000  0.41930000  1.0 -0.5401048526
O  O6  1  0.28920000  0.32560000  0.41930000  1.0 -0.5401048526
O  O7  1  0.17440000  0.78920000  0.91930000  1.0 -0.5401048526
O  O8  1  0.82560000  0.21080000  0.91930000  1.0 -0.5401048526
O  O9  1  0.71080000  0.32560000  0.91930000  1.0 -0.5401048526
O  O10  1  0.28920000  0.67440000  0.91930000  1.0 -0.5401048526
O  O11  1  0.17440000  0.21080000  0.41930000  1.0 -0.5401048526
O  O12  1  0.82560000  0.78920000  0.41930000  1.0 -0.5401048526
O  O13  1  0.78920000  0.82560000  0.08070000  1.0 -0.5401048526
O  O14  1  0.21080000  0.17440000  0.08070000  1.0 -0.5401048526
O  O15  1  0.32560000  0.71080000  0.58070000  1.0 -0.5401048526
O  O16  1  0.67440000  0.28920000  0.58070000  1.0 -0.5401048526
O  O17  1  0.73190000  0.13000000  0.51740000  1.0 -0.6843296081
O  O18  1  0.26810000  0.87000000  0.51740000  1.0 -0.6843296081
O  O19  1  0.37000000  0.23190000  0.01740000  1.0 -0.6843296081
O  O20  1  0.63000000  0.76810000  0.01740000  1.0 -0.6843296081
O  O21  1  0.76810000  0.63000000  0.48260000  1.0 -0.6843296081
O  O22  1  0.23190000  0.37000000  0.48260000  1.0 -0.6843296081
O  O23  1  0.13000000  0.73190000  0.98260000  1.0 -0.6843296081
O  O24  1  0.87000000  0.26810000  0.98260000  1.0 -0.6843296081
O  O25  1  0.76810000  0.37000000  0.98260000  1.0 -0.6843296081
O  O26  1  0.23190000  0.63000000  0.98260000  1.0 -0.6843296081
O  O27  1  0.13000000  0.26810000  0.48260000  1.0 -0.6843296081
O  O28  1  0.87000000  0.73190000  0.48260000  1.0 -0.6843296081
O  O29  1  0.73190000  0.87000000  0.01740000  1.0 -0.6843296081
O  O30  1  0.26810000  0.13000000  0.01740000  1.0 -0.6843296081
O  O31  1  0.37000000  0.76810000  0.51740000  1.0 -0.6843296081
O  O32  1  0.63000000  0.23190000  0.51740000  1.0 -0.6843296081
O  O33  1  0.91490000  0.02940000  0.69840000  1.0 -0.5089293211
O  O34  1  0.08510000  0.97060000  0.69840000  1.0 -0.5089293211
O  O35  1  0.47060000  0.41490000  0.19840000  1.0 -0.5089293211
O  O36  1  0.52940000  0.58510000  0.19840000  1.0 -0.5089293211
O  O37  1  0.58510000  0.52940000  0.30160000  1.0 -0.5089293211
O  O38  1  0.41490000  0.47060000  0.30160000  1.0 -0.5089293211
O  O39  1  0.02940000  0.91490000  0.80160000  1.0 -0.5089293211
O  O40  1  0.97060000  0.08510000  0.80160000  1.0 -0.5089293211
O  O41  1  0.58510000  0.47060000  0.80160000  1.0 -0.5089293211
O  O42  1  0.41490000  0.52940000  0.80160000  1.0 -0.5089293211
O  O43  1  0.02940000  0.08510000  0.30160000  1.0 -0.5089293211
O  O44  1  0.97060000  0.91490000  0.30160000  1.0 -0.5089293211
O  O45  1  0.91490000  0.97060000  0.19840000  1.0 -0.5089293211
O  O46  1  0.08510000  0.02940000  0.19840000  1.0 -0.5089293211
O  O47  1  0.47060000  0.58510000  0.69840000  1.0 -0.5089293211
O  O48  1  0.52940000  0.41490000  0.69840000  1.0 -0.5089293211
O  O49  1  0.78850000  0.81270000  0.54440000  1.0 -0.7064755164
O  O50  1  0.21150000  0.18730000  0.54440000  1.0 -0.7064755164
O  O51  1  0.68730000  0.28850000  0.04440000  1.0 -0.7064755164
O  O52  1  0.31270000  0.71150000  0.04440000  1.0 -0.7064755164
O  O53  1  0.71150000  0.31270000  0.45560000  1.0 -0.7064755164
O  O54  1  0.28850000  0.68730000  0.45560000  1.0 -0.7064755164
O  O55  1  0.81270000  0.78850000  0.95560000  1.0 -0.7064755164
O  O56  1  0.18730000  0.21150000  0.95560000  1.0 -0.7064755164
O  O57  1  0.71150000  0.68730000  0.95560000  1.0 -0.7064755164
O  O58  1  0.28850000  0.31270000  0.95560000  1.0 -0.7064755164
O  O59  1  0.81270000  0.21150000  0.45560000  1.0 -0.7064755164
O  O60  1  0.18730000  0.78850000  0.45560000  1.0 -0.7064755164
O  O61  1  0.78850000  0.18730000  0.04440000  1.0 -0.7064755164
O  O62  1  0.21150000  0.81270000  0.04440000  1.0 -0.7064755164
O  O63  1  0.68730000  0.71150000  0.54440000  1.0 -0.7064755164
O  O64  1  0.31270000  0.28850000  0.54440000  1.0 -0.7064755164
O  O65  1  0.73300000  0.88030000  0.49070000  1.0 -0.5496021971
O  O66  1  0.26700000  0.11970000  0.49070000  1.0 -0.5496021971
O  O67  1  0.61970000  0.23300000  0.99070000  1.0 -0.5496021971
O  O68  1  0.38030000  0.76700000  0.99070000  1.0 -0.5496021971
O  O69  1  0.76700000  0.38030000  0.50930000  1.0 -0.5496021971
O  O70  1  0.23300000  0.61970000  0.50930000  1.0 -0.5496021971
O  O71  1  0.88030000  0.73300000  0.00930000  1.0 -0.5496021971
O  O72  1  0.11970000  0.26700000  0.00930000  1.0 -0.5496021971
O  O73  1  0.76700000  0.61970000  0.00930000  1.0 -0.5496021971
O  O74  1  0.23300000  0.38030000  0.00930000  1.0 -0.5496021971
O  O75  1  0.88030000  0.26700000  0.50930000  1.0 -0.5496021971
O  O76  1  0.11970000  0.73300000  0.50930000  1.0 -0.5496021971
O  O77  1  0.73300000  0.11970000  0.99070000  1.0 -0.5496021971
O  O78  1  0.26700000  0.88030000  0.99070000  1.0 -0.5496021971
O  O79  1  0.61970000  0.76700000  0.49070000  1.0 -0.5496021971
O  O80  1  0.38030000  0.23300000  0.49070000  1.0 -0.5496021971
O  O81  1  0.92150000  0.91820000  0.68590000  1.0 -0.4543105826
O  O82  1  0.07850000  0.08180000  0.68590000  1.0 -0.4543105826
O  O83  1  0.58180000  0.42150000  0.18590000  1.0 -0.4543105826
O  O84  1  0.41820000  0.57850000  0.18590000  1.0 -0.4543105826
O  O85  1  0.57850000  0.41820000  0.31410000  1.0 -0.4543105826
O  O86  1  0.42150000  0.58180000  0.31410000  1.0 -0.4543105826
O  O87  1  0.91820000  0.92150000  0.81410000  1.0 -0.4543105826
O  O88  1  0.08180000  0.07850000  0.81410000  1.0 -0.4543105826
O  O89  1  0.57850000  0.58180000  0.81410000  1.0 -0.4543105826
O  O90  1  0.42150000  0.41820000  0.81410000  1.0 -0.4543105826
O  O91  1  0.91820000  0.07850000  0.31410000  1.0 -0.4543105826
O  O92  1  0.08180000  0.92150000  0.31410000  1.0 -0.4543105826
O  O93  1  0.92150000  0.08180000  0.18590000  1.0 -0.4543105826
O  O94  1  0.07850000  0.91820000  0.18590000  1.0 -0.4543105826
O  O95  1  0.58180000  0.57850000  0.68590000  1.0 -0.4543105826
O  O96  1  0.41820000  0.42150000  0.68590000  1.0 -0.4543105826
