# DDEC6 charges by PACMAN v1.1 (https://github.com/mtap-research/PACMAN-charge/)
data_TAZLUD_FSR_pacman
_symmetry_space_group_name_H-M   'P 1'
_cell_length_a   19.46870000
_cell_length_b   19.46870000
_cell_length_c   26.37460000
_cell_angle_alpha   90.00000000
_cell_angle_beta   90.00000000
_cell_angle_gamma   90.00000000
_symmetry_Int_Tables_number   1
_chemical_formula_structural   Gd2Cd3H36C48(N2O17)2
_chemical_formula_sum   'Gd8 Cd12 H144 C192 N16 O136'
_cell_volume   9996.77201471
_cell_formula_units_Z   4
loop_
 _symmetry_equiv_pos_site_id
 _symmetry_equiv_pos_as_xyz
  1  'x, y, z'
loop_
 _atom_site_type_symbol
 _atom_site_label
 _atom_site_symmetry_multiplicity
 _atom_site_fract_x
 _atom_site_fract_y
 _atom_site_fract_z
 _atom_site_occupancy
 _atom_site_charge
Gd  Gd1  1  0.69386000  0.19386000  0.44764000  1.0 2.0730356716
Gd  Gd2  1  0.30614000  0.80614000  0.44764000  1.0 2.0730356716
Gd  Gd3  1  0.30614000  0.19386000  0.94764000  1.0 2.0730356716
Gd  Gd4  1  0.69386000  0.80614000  0.94764000  1.0 2.0730356716
Gd  Gd5  1  0.80614000  0.69386000  0.55236000  1.0 2.0730356716
Gd  Gd6  1  0.19386000  0.30614000  0.55236000  1.0 2.0730356716
Gd  Gd7  1  0.19386000  0.69386000  0.05236000  1.0 2.0730356716
Gd  Gd8  1  0.80614000  0.30614000  0.05236000  1.0 2.0730356716
Cd  Cd1  1  0.78260000  0.28260000  0.55427000  1.0 1.0255166732
Cd  Cd2  1  0.21740000  0.71740000  0.55427000  1.0 1.0255166732
Cd  Cd3  1  0.21740000  0.28260000  0.05427000  1.0 1.0255166732
Cd  Cd4  1  0.78260000  0.71740000  0.05427000  1.0 1.0255166732
Cd  Cd5  1  0.71740000  0.78260000  0.44573000  1.0 1.0255166732
Cd  Cd6  1  0.28260000  0.21740000  0.44573000  1.0 1.0255166732
Cd  Cd7  1  0.28260000  0.78260000  0.94573000  1.0 1.0255166732
Cd  Cd8  1  0.71740000  0.21740000  0.94573000  1.0 1.0255166732
Cd  Cd9  1  0.00000000  0.00000000  0.75000000  1.0 0.9796875261
Cd  Cd10  1  0.50000000  0.50000000  0.25000000  1.0 0.9796875261
Cd  Cd11  1  0.50000000  0.50000000  0.75000000  1.0 0.9796875261
Cd  Cd12  1  0.00000000  0.00000000  0.25000000  1.0 0.9796875261
H  H1  1  0.84190000  0.88120000  0.61440000  1.0 0.1440776729
H  H2  1  0.15810000  0.11880000  0.61440000  1.0 0.1440776729
H  H3  1  0.61880000  0.34190000  0.11440000  1.0 0.1440776729
H  H4  1  0.38120000  0.65810000  0.11440000  1.0 0.1440776729
H  H5  1  0.65810000  0.38120000  0.38560000  1.0 0.1440776729
H  H6  1  0.34190000  0.61880000  0.38560000  1.0 0.1440776729
H  H7  1  0.88120000  0.84190000  0.88560000  1.0 0.1440776729
H  H8  1  0.11880000  0.15810000  0.88560000  1.0 0.1440776729
H  H9  1  0.65810000  0.61880000  0.88560000  1.0 0.1440776729
H  H10  1  0.34190000  0.38120000  0.88560000  1.0 0.1440776729
H  H11  1  0.88120000  0.15810000  0.38560000  1.0 0.1440776729
H  H12  1  0.11880000  0.84190000  0.38560000  1.0 0.1440776729
H  H13  1  0.84190000  0.11880000  0.11440000  1.0 0.1440776729
H  H14  1  0.15810000  0.88120000  0.11440000  1.0 0.1440776729
H  H15  1  0.61880000  0.65810000  0.61440000  1.0 0.1440776729
H  H16  1  0.38120000  0.34190000  0.61440000  1.0 0.1440776729
H  H17  1  0.84010000  0.08450000  0.63390000  1.0 0.1440776729
H  H18  1  0.15990000  0.91550000  0.63390000  1.0 0.1440776729
H  H19  1  0.41550000  0.34010000  0.13390000  1.0 0.1440776729
H  H20  1  0.58450000  0.65990000  0.13390000  1.0 0.1440776729
H  H21  1  0.65990000  0.58450000  0.36610000  1.0 0.1440776729
H  H22  1  0.34010000  0.41550000  0.36610000  1.0 0.1440776729
H  H23  1  0.08450000  0.84010000  0.86610000  1.0 0.1440776729
H  H24  1  0.91550000  0.15990000  0.86610000  1.0 0.1440776729
H  H25  1  0.65990000  0.41550000  0.86610000  1.0 0.1440776729
H  H26  1  0.34010000  0.58450000  0.86610000  1.0 0.1440776729
H  H27  1  0.08450000  0.15990000  0.36610000  1.0 0.1440776729
H  H28  1  0.91550000  0.84010000  0.36610000  1.0 0.1440776729
H  H29  1  0.84010000  0.91550000  0.13390000  1.0 0.1440776729
H  H30  1  0.15990000  0.08450000  0.13390000  1.0 0.1440776729
H  H31  1  0.41550000  0.65990000  0.63390000  1.0 0.1440776729
H  H32  1  0.58450000  0.34010000  0.63390000  1.0 0.1440776729
H  H33  1  0.73820000  0.00180000  0.51830000  1.0 0.1495255622
H  H34  1  0.26180000  0.99820000  0.51830000  1.0 0.1495255622
H  H35  1  0.49820000  0.23820000  0.01830000  1.0 0.1495255622
H  H36  1  0.50180000  0.76180000  0.01830000  1.0 0.1495255622
H  H37  1  0.76180000  0.50180000  0.48170000  1.0 0.1495255622
H  H38  1  0.23820000  0.49820000  0.48170000  1.0 0.1495255622
H  H39  1  0.00180000  0.73820000  0.98170000  1.0 0.1495255622
H  H40  1  0.99820000  0.26180000  0.98170000  1.0 0.1495255622
H  H41  1  0.76180000  0.49820000  0.98170000  1.0 0.1495255622
H  H42  1  0.23820000  0.50180000  0.98170000  1.0 0.1495255622
H  H43  1  0.00180000  0.26180000  0.48170000  1.0 0.1495255622
H  H44  1  0.99820000  0.73820000  0.48170000  1.0 0.1495255622
H  H45  1  0.73820000  0.99820000  0.01830000  1.0 0.1495255622
H  H46  1  0.26180000  0.00180000  0.01830000  1.0 0.1495255622
H  H47  1  0.49820000  0.76180000  0.51830000  1.0 0.1495255622
H  H48  1  0.50180000  0.23820000  0.51830000  1.0 0.1495255622
H  H49  1  0.74980000  0.01400000  0.36610000  1.0 0.1806871288
H  H50  1  0.25020000  0.98600000  0.36610000  1.0 0.1806871288
H  H51  1  0.48600000  0.24980000  0.86610000  1.0 0.1806871288
H  H52  1  0.51400000  0.75020000  0.86610000  1.0 0.1806871288
H  H53  1  0.75020000  0.51400000  0.63390000  1.0 0.1806871288
H  H54  1  0.24980000  0.48600000  0.63390000  1.0 0.1806871288
H  H55  1  0.01400000  0.74980000  0.13390000  1.0 0.1806871288
H  H56  1  0.98600000  0.25020000  0.13390000  1.0 0.1806871288
H  H57  1  0.75020000  0.48600000  0.13390000  1.0 0.1806871288
H  H58  1  0.24980000  0.51400000  0.13390000  1.0 0.1806871288
H  H59  1  0.01400000  0.25020000  0.63390000  1.0 0.1806871288
H  H60  1  0.98600000  0.74980000  0.63390000  1.0 0.1806871288
H  H61  1  0.74980000  0.98600000  0.86610000  1.0 0.1806871288
H  H62  1  0.25020000  0.01400000  0.86610000  1.0 0.1806871288
H  H63  1  0.48600000  0.75020000  0.36610000  1.0 0.1806871288
H  H64  1  0.51400000  0.24980000  0.36610000  1.0 0.1806871288
H  H65  1  0.77920000  0.93920000  0.36980000  1.0 0.1564672899
H  H66  1  0.22080000  0.06080000  0.36980000  1.0 0.1564672899
H  H67  1  0.56080000  0.27920000  0.86980000  1.0 0.1564672899
H  H68  1  0.43920000  0.72080000  0.86980000  1.0 0.1564672899
H  H69  1  0.72080000  0.43920000  0.63020000  1.0 0.1564672899
H  H70  1  0.27920000  0.56080000  0.63020000  1.0 0.1564672899
H  H71  1  0.93920000  0.77920000  0.13020000  1.0 0.1564672899
H  H72  1  0.06080000  0.22080000  0.13020000  1.0 0.1564672899
H  H73  1  0.72080000  0.56080000  0.13020000  1.0 0.1564672899
H  H74  1  0.27920000  0.43920000  0.13020000  1.0 0.1564672899
H  H75  1  0.93920000  0.22080000  0.63020000  1.0 0.1564672899
H  H76  1  0.06080000  0.77920000  0.63020000  1.0 0.1564672899
H  H77  1  0.77920000  0.06080000  0.86980000  1.0 0.1564672899
H  H78  1  0.22080000  0.93920000  0.86980000  1.0 0.1564672899
H  H79  1  0.56080000  0.72080000  0.36980000  1.0 0.1564672899
H  H80  1  0.43920000  0.27920000  0.36980000  1.0 0.1564672899
H  H81  1  0.81970000  0.99570000  0.33990000  1.0 0.1564672899
H  H82  1  0.18030000  0.00430000  0.33990000  1.0 0.1564672899
H  H83  1  0.50430000  0.31970000  0.83990000  1.0 0.1564672899
H  H84  1  0.49570000  0.68030000  0.83990000  1.0 0.1564672899
H  H85  1  0.68030000  0.49570000  0.66010000  1.0 0.1564672899
H  H86  1  0.31970000  0.50430000  0.66010000  1.0 0.1564672899
H  H87  1  0.99570000  0.81970000  0.16010000  1.0 0.1564672899
H  H88  1  0.00430000  0.18030000  0.16010000  1.0 0.1564672899
H  H89  1  0.68030000  0.50430000  0.16010000  1.0 0.1564672899
H  H90  1  0.31970000  0.49570000  0.16010000  1.0 0.1564672899
H  H91  1  0.99570000  0.18030000  0.66010000  1.0 0.1564672899
H  H92  1  0.00430000  0.81970000  0.66010000  1.0 0.1564672899
H  H93  1  0.81970000  0.00430000  0.83990000  1.0 0.1564672899
H  H94  1  0.18030000  0.99570000  0.83990000  1.0 0.1564672899
H  H95  1  0.50430000  0.68030000  0.33990000  1.0 0.1564672899
H  H96  1  0.49570000  0.31970000  0.33990000  1.0 0.1564672899
H  H97  1  0.90680000  0.93640000  0.42180000  1.0 0.1495255622
H  H98  1  0.09320000  0.06360000  0.42180000  1.0 0.1495255622
H  H99  1  0.56360000  0.40680000  0.92180000  1.0 0.1495255622
H  H100  1  0.43640000  0.59320000  0.92180000  1.0 0.1495255622
H  H101  1  0.59320000  0.43640000  0.57820000  1.0 0.1495255622
H  H102  1  0.40680000  0.56360000  0.57820000  1.0 0.1495255622
H  H103  1  0.93640000  0.90680000  0.07820000  1.0 0.1495255622
H  H104  1  0.06360000  0.09320000  0.07820000  1.0 0.1495255622
H  H105  1  0.59320000  0.56360000  0.07820000  1.0 0.1495255622
H  H106  1  0.40680000  0.43640000  0.07820000  1.0 0.1495255622
H  H107  1  0.93640000  0.09320000  0.57820000  1.0 0.1495255622
H  H108  1  0.06360000  0.90680000  0.57820000  1.0 0.1495255622
H  H109  1  0.90680000  0.06360000  0.92180000  1.0 0.1495255622
H  H110  1  0.09320000  0.93640000  0.92180000  1.0 0.1495255622
H  H111  1  0.56360000  0.59320000  0.42180000  1.0 0.1495255622
H  H112  1  0.43640000  0.40680000  0.42180000  1.0 0.1495255622
H  H113  1  0.88210000  0.97090000  0.47230000  1.0 0.1440776729
H  H114  1  0.11790000  0.02910000  0.47230000  1.0 0.1440776729
H  H115  1  0.52910000  0.38210000  0.97230000  1.0 0.1440776729
H  H116  1  0.47090000  0.61790000  0.97230000  1.0 0.1440776729
H  H117  1  0.61790000  0.47090000  0.52770000  1.0 0.1440776729
H  H118  1  0.38210000  0.52910000  0.52770000  1.0 0.1440776729
H  H119  1  0.97090000  0.88210000  0.02770000  1.0 0.1440776729
H  H120  1  0.02910000  0.11790000  0.02770000  1.0 0.1440776729
H  H121  1  0.61790000  0.52910000  0.02770000  1.0 0.1440776729
H  H122  1  0.38210000  0.47090000  0.02770000  1.0 0.1440776729
H  H123  1  0.97090000  0.11790000  0.52770000  1.0 0.1440776729
H  H124  1  0.02910000  0.88210000  0.52770000  1.0 0.1440776729
H  H125  1  0.88210000  0.02910000  0.97230000  1.0 0.1440776729
H  H126  1  0.11790000  0.97090000  0.97230000  1.0 0.1440776729
H  H127  1  0.52910000  0.61790000  0.47230000  1.0 0.1440776729
H  H128  1  0.47090000  0.38210000  0.47230000  1.0 0.1440776729
H  H129  1  0.92630000  0.01290000  0.43350000  1.0 0.1495255622
H  H130  1  0.07370000  0.98710000  0.43350000  1.0 0.1495255622
H  H131  1  0.48710000  0.42630000  0.93350000  1.0 0.1495255622
H  H132  1  0.51290000  0.57370000  0.93350000  1.0 0.1495255622
H  H133  1  0.57370000  0.51290000  0.56650000  1.0 0.1495255622
H  H134  1  0.42630000  0.48710000  0.56650000  1.0 0.1495255622
H  H135  1  0.01290000  0.92630000  0.06650000  1.0 0.1495255622
H  H136  1  0.98710000  0.07370000  0.06650000  1.0 0.1495255622
H  H137  1  0.57370000  0.48710000  0.06650000  1.0 0.1495255622
H  H138  1  0.42630000  0.51290000  0.06650000  1.0 0.1495255622
H  H139  1  0.01290000  0.07370000  0.56650000  1.0 0.1495255622
H  H140  1  0.98710000  0.92630000  0.56650000  1.0 0.1495255622
H  H141  1  0.92630000  0.98710000  0.93350000  1.0 0.1495255622
H  H142  1  0.07370000  0.01290000  0.93350000  1.0 0.1495255622
H  H143  1  0.48710000  0.57370000  0.43350000  1.0 0.1495255622
H  H144  1  0.51290000  0.42630000  0.43350000  1.0 0.1495255622
C  C1  1  0.76660000  0.12470000  0.55590000  1.0 0.6125062715
C  C2  1  0.23340000  0.87530000  0.55590000  1.0 0.6125062715
C  C3  1  0.37530000  0.26660000  0.05590000  1.0 0.6125062715
C  C4  1  0.62470000  0.73340000  0.05590000  1.0 0.6125062715
C  C5  1  0.73340000  0.62470000  0.44410000  1.0 0.6125062715
C  C6  1  0.26660000  0.37530000  0.44410000  1.0 0.6125062715
C  C7  1  0.12470000  0.76660000  0.94410000  1.0 0.6125062715
C  C8  1  0.87530000  0.23340000  0.94410000  1.0 0.6125062715
C  C9  1  0.73340000  0.37530000  0.94410000  1.0 0.6125062715
C  C10  1  0.26660000  0.62470000  0.94410000  1.0 0.6125062715
C  C11  1  0.12470000  0.23340000  0.44410000  1.0 0.6125062715
C  C12  1  0.87530000  0.76660000  0.44410000  1.0 0.6125062715
C  C13  1  0.76660000  0.87530000  0.05590000  1.0 0.6125062715
C  C14  1  0.23340000  0.12470000  0.05590000  1.0 0.6125062715
C  C15  1  0.37530000  0.73340000  0.55590000  1.0 0.6125062715
C  C16  1  0.62470000  0.26660000  0.55590000  1.0 0.6125062715
C  C17  1  0.82840000  0.92480000  0.60400000  1.0 -0.0912413157
C  C18  1  0.17160000  0.07520000  0.60400000  1.0 -0.0912413157
C  C19  1  0.57520000  0.32840000  0.10400000  1.0 -0.0912413157
C  C20  1  0.42480000  0.67160000  0.10400000  1.0 -0.0912413157
C  C21  1  0.67160000  0.42480000  0.39600000  1.0 -0.0912413157
C  C22  1  0.32840000  0.57520000  0.39600000  1.0 -0.0912413157
C  C23  1  0.92480000  0.82840000  0.89600000  1.0 -0.0912413157
C  C24  1  0.07520000  0.17160000  0.89600000  1.0 -0.0912413157
C  C25  1  0.67160000  0.57520000  0.89600000  1.0 -0.0912413157
C  C26  1  0.32840000  0.42480000  0.89600000  1.0 -0.0912413157
C  C27  1  0.92480000  0.17160000  0.39600000  1.0 -0.0912413157
C  C28  1  0.07520000  0.82840000  0.39600000  1.0 -0.0912413157
C  C29  1  0.82840000  0.07520000  0.10400000  1.0 -0.0912413157
C  C30  1  0.17160000  0.92480000  0.10400000  1.0 -0.0912413157
C  C31  1  0.57520000  0.67160000  0.60400000  1.0 -0.0912413157
C  C32  1  0.42480000  0.32840000  0.60400000  1.0 -0.0912413157
C  C33  1  0.82690000  0.04580000  0.61560000  1.0 -0.0983186655
C  C34  1  0.17310000  0.95420000  0.61560000  1.0 -0.0983186655
C  C35  1  0.45420000  0.32690000  0.11560000  1.0 -0.0983186655
C  C36  1  0.54580000  0.67310000  0.11560000  1.0 -0.0983186655
C  C37  1  0.67310000  0.54580000  0.38440000  1.0 -0.0983186655
C  C38  1  0.32690000  0.45420000  0.38440000  1.0 -0.0983186655
C  C39  1  0.04580000  0.82690000  0.88440000  1.0 -0.0983186655
C  C40  1  0.95420000  0.17310000  0.88440000  1.0 -0.0983186655
C  C41  1  0.67310000  0.45420000  0.88440000  1.0 -0.0983186655
C  C42  1  0.32690000  0.54580000  0.88440000  1.0 -0.0983186655
C  C43  1  0.04580000  0.17310000  0.38440000  1.0 -0.0983186655
C  C44  1  0.95420000  0.82690000  0.38440000  1.0 -0.0983186655
C  C45  1  0.82690000  0.95420000  0.11560000  1.0 -0.0983186655
C  C46  1  0.17310000  0.04580000  0.11560000  1.0 -0.0983186655
C  C47  1  0.45420000  0.67310000  0.61560000  1.0 -0.0983186655
C  C48  1  0.54580000  0.32690000  0.61560000  1.0 -0.0983186655
C  C49  1  0.84920000  0.98200000  0.63110000  1.0 -0.0127339881
C  C50  1  0.15080000  0.01800000  0.63110000  1.0 -0.0127339881
C  C51  1  0.51800000  0.34920000  0.13110000  1.0 -0.0127339881
C  C52  1  0.48200000  0.65080000  0.13110000  1.0 -0.0127339881
C  C53  1  0.65080000  0.48200000  0.36890000  1.0 -0.0127339881
C  C54  1  0.34920000  0.51800000  0.36890000  1.0 -0.0127339881
C  C55  1  0.98200000  0.84920000  0.86890000  1.0 -0.0127339881
C  C56  1  0.01800000  0.15080000  0.86890000  1.0 -0.0127339881
C  C57  1  0.65080000  0.51800000  0.86890000  1.0 -0.0127339881
C  C58  1  0.34920000  0.48200000  0.86890000  1.0 -0.0127339881
C  C59  1  0.98200000  0.15080000  0.36890000  1.0 -0.0127339881
C  C60  1  0.01800000  0.84920000  0.36890000  1.0 -0.0127339881
C  C61  1  0.84920000  0.01800000  0.13110000  1.0 -0.0127339881
C  C62  1  0.15080000  0.98200000  0.13110000  1.0 -0.0127339881
C  C63  1  0.51800000  0.65080000  0.63110000  1.0 -0.0127339881
C  C64  1  0.48200000  0.34920000  0.63110000  1.0 -0.0127339881
C  C65  1  0.76710000  0.86970000  0.53090000  1.0 0.6125062715
C  C66  1  0.23290000  0.13030000  0.53090000  1.0 0.6125062715
C  C67  1  0.63030000  0.26710000  0.03090000  1.0 0.6125062715
C  C68  1  0.36970000  0.73290000  0.03090000  1.0 0.6125062715
C  C69  1  0.73290000  0.36970000  0.46910000  1.0 0.6125062715
C  C70  1  0.26710000  0.63030000  0.46910000  1.0 0.6125062715
C  C71  1  0.86970000  0.76710000  0.96910000  1.0 0.6125062715
C  C72  1  0.13030000  0.23290000  0.96910000  1.0 0.6125062715
C  C73  1  0.73290000  0.63030000  0.96910000  1.0 0.6125062715
C  C74  1  0.26710000  0.36970000  0.96910000  1.0 0.6125062715
C  C75  1  0.86970000  0.23290000  0.46910000  1.0 0.6125062715
C  C76  1  0.13030000  0.76710000  0.46910000  1.0 0.6125062715
C  C77  1  0.76710000  0.13030000  0.03090000  1.0 0.6125062715
C  C78  1  0.23290000  0.86970000  0.03090000  1.0 0.6125062715
C  C79  1  0.63030000  0.73290000  0.53090000  1.0 0.6125062715
C  C80  1  0.36970000  0.26710000  0.53090000  1.0 0.6125062715
C  C81  1  0.89820000  0.97460000  0.67430000  1.0 0.5557055019
C  C82  1  0.10180000  0.02540000  0.67430000  1.0 0.5557055019
C  C83  1  0.52540000  0.39820000  0.17430000  1.0 0.5557055019
C  C84  1  0.47460000  0.60180000  0.17430000  1.0 0.5557055019
C  C85  1  0.60180000  0.47460000  0.32570000  1.0 0.5557055019
C  C86  1  0.39820000  0.52540000  0.32570000  1.0 0.5557055019
C  C87  1  0.97460000  0.89820000  0.82570000  1.0 0.5557055019
C  C88  1  0.02540000  0.10180000  0.82570000  1.0 0.5557055019
C  C89  1  0.60180000  0.52540000  0.82570000  1.0 0.5557055019
C  C90  1  0.39820000  0.47460000  0.82570000  1.0 0.5557055019
C  C91  1  0.97460000  0.10180000  0.32570000  1.0 0.5557055019
C  C92  1  0.02540000  0.89820000  0.32570000  1.0 0.5557055019
C  C93  1  0.89820000  0.02540000  0.17430000  1.0 0.5557055019
C  C94  1  0.10180000  0.97460000  0.17430000  1.0 0.5557055019
C  C95  1  0.52540000  0.60180000  0.67430000  1.0 0.5557055019
C  C96  1  0.47460000  0.39820000  0.67430000  1.0 0.5557055019
C  C97  1  0.78750000  0.93240000  0.56140000  1.0 -0.0127339881
C  C98  1  0.21250000  0.06760000  0.56140000  1.0 -0.0127339881
C  C99  1  0.56760000  0.28750000  0.06140000  1.0 -0.0127339881
C  C100  1  0.43240000  0.71250000  0.06140000  1.0 -0.0127339881
C  C101  1  0.71250000  0.43240000  0.43860000  1.0 -0.0127339881
C  C102  1  0.28750000  0.56760000  0.43860000  1.0 -0.0127339881
C  C103  1  0.93240000  0.78750000  0.93860000  1.0 -0.0127339881
C  C104  1  0.06760000  0.21250000  0.93860000  1.0 -0.0127339881
C  C105  1  0.71250000  0.56760000  0.93860000  1.0 -0.0127339881
C  C106  1  0.28750000  0.43240000  0.93860000  1.0 -0.0127339881
C  C107  1  0.93240000  0.21250000  0.43860000  1.0 -0.0127339881
C  C108  1  0.06760000  0.78750000  0.43860000  1.0 -0.0127339881
C  C109  1  0.78750000  0.06760000  0.06140000  1.0 -0.0127339881
C  C110  1  0.21250000  0.93240000  0.06140000  1.0 -0.0127339881
C  C111  1  0.56760000  0.71250000  0.56140000  1.0 -0.0127339881
C  C112  1  0.43240000  0.28750000  0.56140000  1.0 -0.0127339881
C  C113  1  0.78580000  0.05350000  0.57410000  1.0 -0.0163590356
C  C114  1  0.21420000  0.94650000  0.57410000  1.0 -0.0163590356
C  C115  1  0.44650000  0.28580000  0.07410000  1.0 -0.0163590356
C  C116  1  0.55350000  0.71420000  0.07410000  1.0 -0.0163590356
C  C117  1  0.71420000  0.55350000  0.42590000  1.0 -0.0163590356
C  C118  1  0.28580000  0.44650000  0.42590000  1.0 -0.0163590356
C  C119  1  0.05350000  0.78580000  0.92590000  1.0 -0.0163590356
C  C120  1  0.94650000  0.21420000  0.92590000  1.0 -0.0163590356
C  C121  1  0.71420000  0.44650000  0.92590000  1.0 -0.0163590356
C  C122  1  0.28580000  0.55350000  0.92590000  1.0 -0.0163590356
C  C123  1  0.05350000  0.21420000  0.42590000  1.0 -0.0163590356
C  C124  1  0.94650000  0.78580000  0.42590000  1.0 -0.0163590356
C  C125  1  0.78580000  0.94650000  0.07410000  1.0 -0.0163590356
C  C126  1  0.21420000  0.05350000  0.07410000  1.0 -0.0163590356
C  C127  1  0.44650000  0.71420000  0.57410000  1.0 -0.0163590356
C  C128  1  0.55350000  0.28580000  0.57410000  1.0 -0.0163590356
C  C129  1  0.76600000  0.99670000  0.54670000  1.0 -0.0983186655
C  C130  1  0.23400000  0.00330000  0.54670000  1.0 -0.0983186655
C  C131  1  0.50330000  0.26600000  0.04670000  1.0 -0.0983186655
C  C132  1  0.49670000  0.73400000  0.04670000  1.0 -0.0983186655
C  C133  1  0.73400000  0.49670000  0.45330000  1.0 -0.0983186655
C  C134  1  0.26600000  0.50330000  0.45330000  1.0 -0.0983186655
C  C135  1  0.99670000  0.76600000  0.95330000  1.0 -0.0983186655
C  C136  1  0.00330000  0.23400000  0.95330000  1.0 -0.0983186655
C  C137  1  0.73400000  0.50330000  0.95330000  1.0 -0.0983186655
C  C138  1  0.26600000  0.49670000  0.95330000  1.0 -0.0983186655
C  C139  1  0.99670000  0.23400000  0.45330000  1.0 -0.0983186655
C  C140  1  0.00330000  0.76600000  0.45330000  1.0 -0.0983186655
C  C141  1  0.76600000  0.00330000  0.04670000  1.0 -0.0983186655
C  C142  1  0.23400000  0.99670000  0.04670000  1.0 -0.0983186655
C  C143  1  0.50330000  0.73400000  0.54670000  1.0 -0.0983186655
C  C144  1  0.49670000  0.26600000  0.54670000  1.0 -0.0983186655
C  C145  1  0.79860000  0.06110000  0.42840000  1.0 0.3116154179
C  C146  1  0.20140000  0.93890000  0.42840000  1.0 0.3116154179
C  C147  1  0.43890000  0.29860000  0.92840000  1.0 0.3116154179
C  C148  1  0.56110000  0.70140000  0.92840000  1.0 0.3116154179
C  C149  1  0.70140000  0.56110000  0.57160000  1.0 0.3116154179
C  C150  1  0.29860000  0.43890000  0.57160000  1.0 0.3116154179
C  C151  1  0.06110000  0.79860000  0.07160000  1.0 0.3116154179
C  C152  1  0.93890000  0.20140000  0.07160000  1.0 0.3116154179
C  C153  1  0.70140000  0.43890000  0.07160000  1.0 0.3116154179
C  C154  1  0.29860000  0.56110000  0.07160000  1.0 0.3116154179
C  C155  1  0.06110000  0.20140000  0.57160000  1.0 0.3116154179
C  C156  1  0.93890000  0.79860000  0.57160000  1.0 0.3116154179
C  C157  1  0.79860000  0.93890000  0.92840000  1.0 0.3116154179
C  C158  1  0.20140000  0.06110000  0.92840000  1.0 0.3116154179
C  C159  1  0.43890000  0.70140000  0.42840000  1.0 0.3116154179
C  C160  1  0.56110000  0.29860000  0.42840000  1.0 0.3116154179
C  C161  1  0.79100000  0.98710000  0.36870000  1.0 -0.1992474634
C  C162  1  0.20900000  0.01290000  0.36870000  1.0 -0.1992474634
C  C163  1  0.51290000  0.29100000  0.86870000  1.0 -0.1992474634
C  C164  1  0.48710000  0.70900000  0.86870000  1.0 -0.1992474634
C  C165  1  0.70900000  0.48710000  0.63130000  1.0 -0.1992474634
C  C166  1  0.29100000  0.51290000  0.63130000  1.0 -0.1992474634
C  C167  1  0.98710000  0.79100000  0.13130000  1.0 -0.1992474634
C  C168  1  0.01290000  0.20900000  0.13130000  1.0 -0.1992474634
C  C169  1  0.70900000  0.51290000  0.13130000  1.0 -0.1992474634
C  C170  1  0.29100000  0.48710000  0.13130000  1.0 -0.1992474634
C  C171  1  0.98710000  0.20900000  0.63130000  1.0 -0.1992474634
C  C172  1  0.01290000  0.79100000  0.63130000  1.0 -0.1992474634
C  C173  1  0.79100000  0.01290000  0.86870000  1.0 -0.1992474634
C  C174  1  0.20900000  0.98710000  0.86870000  1.0 -0.1992474634
C  C175  1  0.51290000  0.70900000  0.36870000  1.0 -0.1992474634
C  C176  1  0.48710000  0.29100000  0.36870000  1.0 -0.1992474634
C  C177  1  0.89100000  0.97850000  0.43700000  1.0 -0.34161664
C  C178  1  0.10900000  0.02150000  0.43700000  1.0 -0.34161664
C  C179  1  0.52150000  0.39100000  0.93700000  1.0 -0.34161664
C  C180  1  0.47850000  0.60900000  0.93700000  1.0 -0.34161664
C  C181  1  0.60900000  0.47850000  0.56300000  1.0 -0.34161664
C  C182  1  0.39100000  0.52150000  0.56300000  1.0 -0.34161664
C  C183  1  0.97850000  0.89100000  0.06300000  1.0 -0.34161664
C  C184  1  0.02150000  0.10900000  0.06300000  1.0 -0.34161664
C  C185  1  0.60900000  0.52150000  0.06300000  1.0 -0.34161664
C  C186  1  0.39100000  0.47850000  0.06300000  1.0 -0.34161664
C  C187  1  0.97850000  0.10900000  0.56300000  1.0 -0.34161664
C  C188  1  0.02150000  0.89100000  0.56300000  1.0 -0.34161664
C  C189  1  0.89100000  0.02150000  0.93700000  1.0 -0.34161664
C  C190  1  0.10900000  0.97850000  0.93700000  1.0 -0.34161664
C  C191  1  0.52150000  0.60900000  0.43700000  1.0 -0.34161664
C  C192  1  0.47850000  0.39100000  0.43700000  1.0 -0.34161664
N  N1  1  0.82340000  0.00350000  0.40960000  1.0 0.0521820469
N  N2  1  0.17660000  0.99650000  0.40960000  1.0 0.0521820469
N  N3  1  0.49650000  0.32340000  0.90960000  1.0 0.0521820469
N  N4  1  0.50350000  0.67660000  0.90960000  1.0 0.0521820469
N  N5  1  0.67660000  0.50350000  0.59040000  1.0 0.0521820469
N  N6  1  0.32340000  0.49650000  0.59040000  1.0 0.0521820469
N  N7  1  0.00350000  0.82340000  0.09040000  1.0 0.0521820469
N  N8  1  0.99650000  0.17660000  0.09040000  1.0 0.0521820469
N  N9  1  0.67660000  0.49650000  0.09040000  1.0 0.0521820469
N  N10  1  0.32340000  0.50350000  0.09040000  1.0 0.0521820469
N  N11  1  0.00350000  0.17660000  0.59040000  1.0 0.0521820469
N  N12  1  0.99650000  0.82340000  0.59040000  1.0 0.0521820469
N  N13  1  0.82340000  0.99650000  0.90960000  1.0 0.0521820469
N  N14  1  0.17660000  0.00350000  0.90960000  1.0 0.0521820469
N  N15  1  0.49650000  0.67660000  0.40960000  1.0 0.0521820469
N  N16  1  0.50350000  0.32340000  0.40960000  1.0 0.0521820469
O  O1  1  0.78920000  0.17440000  0.58070000  1.0 -0.5114663008
O  O2  1  0.21080000  0.82560000  0.58070000  1.0 -0.5114663008
O  O3  1  0.32560000  0.28920000  0.08070000  1.0 -0.5114663008
O  O4  1  0.67440000  0.71080000  0.08070000  1.0 -0.5114663008
O  O5  1  0.71080000  0.67440000  0.41930000  1.0 -0.5114663008
O  O6  1  0.28920000  0.32560000  0.41930000  1.0 -0.5114663008
O  O7  1  0.17440000  0.78920000  0.91930000  1.0 -0.5114663008
O  O8  1  0.82560000  0.21080000  0.91930000  1.0 -0.5114663008
O  O9  1  0.71080000  0.32560000  0.91930000  1.0 -0.5114663008
O  O10  1  0.28920000  0.67440000  0.91930000  1.0 -0.5114663008
O  O11  1  0.17440000  0.21080000  0.41930000  1.0 -0.5114663008
O  O12  1  0.82560000  0.78920000  0.41930000  1.0 -0.5114663008
O  O13  1  0.78920000  0.82560000  0.08070000  1.0 -0.5114663008
O  O14  1  0.21080000  0.17440000  0.08070000  1.0 -0.5114663008
O  O15  1  0.32560000  0.71080000  0.58070000  1.0 -0.5114663008
O  O16  1  0.67440000  0.28920000  0.58070000  1.0 -0.5114663008
O  O17  1  0.73190000  0.13000000  0.51740000  1.0 -0.5913936354
O  O18  1  0.26810000  0.87000000  0.51740000  1.0 -0.5913936354
O  O19  1  0.37000000  0.23190000  0.01740000  1.0 -0.5913936354
O  O20  1  0.63000000  0.76810000  0.01740000  1.0 -0.5913936354
O  O21  1  0.76810000  0.63000000  0.48260000  1.0 -0.5913936354
O  O22  1  0.23190000  0.37000000  0.48260000  1.0 -0.5913936354
O  O23  1  0.13000000  0.73190000  0.98260000  1.0 -0.5913936354
O  O24  1  0.87000000  0.26810000  0.98260000  1.0 -0.5913936354
O  O25  1  0.76810000  0.37000000  0.98260000  1.0 -0.5913936354
O  O26  1  0.23190000  0.63000000  0.98260000  1.0 -0.5913936354
O  O27  1  0.13000000  0.26810000  0.48260000  1.0 -0.5913936354
O  O28  1  0.87000000  0.73190000  0.48260000  1.0 -0.5913936354
O  O29  1  0.73190000  0.87000000  0.01740000  1.0 -0.5913936354
O  O30  1  0.26810000  0.13000000  0.01740000  1.0 -0.5913936354
O  O31  1  0.37000000  0.76810000  0.51740000  1.0 -0.5913936354
O  O32  1  0.63000000  0.23190000  0.51740000  1.0 -0.5913936354
O  O33  1  0.91490000  0.02940000  0.69840000  1.0 -0.5046978898
O  O34  1  0.08510000  0.97060000  0.69840000  1.0 -0.5046978898
O  O35  1  0.47060000  0.41490000  0.19840000  1.0 -0.5046978898
O  O36  1  0.52940000  0.58510000  0.19840000  1.0 -0.5046978898
O  O37  1  0.58510000  0.52940000  0.30160000  1.0 -0.5046978898
O  O38  1  0.41490000  0.47060000  0.30160000  1.0 -0.5046978898
O  O39  1  0.02940000  0.91490000  0.80160000  1.0 -0.5046978898
O  O40  1  0.97060000  0.08510000  0.80160000  1.0 -0.5046978898
O  O41  1  0.58510000  0.47060000  0.80160000  1.0 -0.5046978898
O  O42  1  0.41490000  0.52940000  0.80160000  1.0 -0.5046978898
O  O43  1  0.02940000  0.08510000  0.30160000  1.0 -0.5046978898
O  O44  1  0.97060000  0.91490000  0.30160000  1.0 -0.5046978898
O  O45  1  0.91490000  0.97060000  0.19840000  1.0 -0.5046978898
O  O46  1  0.08510000  0.02940000  0.19840000  1.0 -0.5046978898
O  O47  1  0.47060000  0.58510000  0.69840000  1.0 -0.5046978898
O  O48  1  0.52940000  0.41490000  0.69840000  1.0 -0.5046978898
O  O49  1  0.78850000  0.81270000  0.54440000  1.0 -0.6246694483
O  O50  1  0.21150000  0.18730000  0.54440000  1.0 -0.6246694483
O  O51  1  0.68730000  0.28850000  0.04440000  1.0 -0.6246694483
O  O52  1  0.31270000  0.71150000  0.04440000  1.0 -0.6246694483
O  O53  1  0.71150000  0.31270000  0.45560000  1.0 -0.6246694483
O  O54  1  0.28850000  0.68730000  0.45560000  1.0 -0.6246694483
O  O55  1  0.81270000  0.78850000  0.95560000  1.0 -0.6246694483
O  O56  1  0.18730000  0.21150000  0.95560000  1.0 -0.6246694483
O  O57  1  0.71150000  0.68730000  0.95560000  1.0 -0.6246694483
O  O58  1  0.28850000  0.31270000  0.95560000  1.0 -0.6246694483
O  O59  1  0.81270000  0.21150000  0.45560000  1.0 -0.6246694483
O  O60  1  0.18730000  0.78850000  0.45560000  1.0 -0.6246694483
O  O61  1  0.78850000  0.18730000  0.04440000  1.0 -0.6246694483
O  O62  1  0.21150000  0.81270000  0.04440000  1.0 -0.6246694483
O  O63  1  0.68730000  0.71150000  0.54440000  1.0 -0.6246694483
O  O64  1  0.31270000  0.28850000  0.54440000  1.0 -0.6246694483
O  O65  1  0.73300000  0.88030000  0.49070000  1.0 -0.5114663008
O  O66  1  0.26700000  0.11970000  0.49070000  1.0 -0.5114663008
O  O67  1  0.61970000  0.23300000  0.99070000  1.0 -0.5114663008
O  O68  1  0.38030000  0.76700000  0.99070000  1.0 -0.5114663008
O  O69  1  0.76700000  0.38030000  0.50930000  1.0 -0.5114663008
O  O70  1  0.23300000  0.61970000  0.50930000  1.0 -0.5114663008
O  O71  1  0.88030000  0.73300000  0.00930000  1.0 -0.5114663008
O  O72  1  0.11970000  0.26700000  0.00930000  1.0 -0.5114663008
O  O73  1  0.76700000  0.61970000  0.00930000  1.0 -0.5114663008
O  O74  1  0.23300000  0.38030000  0.00930000  1.0 -0.5114663008
O  O75  1  0.88030000  0.26700000  0.50930000  1.0 -0.5114663008
O  O76  1  0.11970000  0.73300000  0.50930000  1.0 -0.5114663008
O  O77  1  0.73300000  0.11970000  0.99070000  1.0 -0.5114663008
O  O78  1  0.26700000  0.88030000  0.99070000  1.0 -0.5114663008
O  O79  1  0.61970000  0.76700000  0.49070000  1.0 -0.5114663008
O  O80  1  0.38030000  0.23300000  0.49070000  1.0 -0.5114663008
O  O81  1  0.92150000  0.91820000  0.68590000  1.0 -0.4872771658
O  O82  1  0.07850000  0.08180000  0.68590000  1.0 -0.4872771658
O  O83  1  0.58180000  0.42150000  0.18590000  1.0 -0.4872771658
O  O84  1  0.41820000  0.57850000  0.18590000  1.0 -0.4872771658
O  O85  1  0.57850000  0.41820000  0.31410000  1.0 -0.4872771658
O  O86  1  0.42150000  0.58180000  0.31410000  1.0 -0.4872771658
O  O87  1  0.91820000  0.92150000  0.81410000  1.0 -0.4872771658
O  O88  1  0.08180000  0.07850000  0.81410000  1.0 -0.4872771658
O  O89  1  0.57850000  0.58180000  0.81410000  1.0 -0.4872771658
O  O90  1  0.42150000  0.41820000  0.81410000  1.0 -0.4872771658
O  O91  1  0.91820000  0.07850000  0.31410000  1.0 -0.4872771658
O  O92  1  0.08180000  0.92150000  0.31410000  1.0 -0.4872771658
O  O93  1  0.92150000  0.08180000  0.18590000  1.0 -0.4872771658
O  O94  1  0.07850000  0.91820000  0.18590000  1.0 -0.4872771658
O  O95  1  0.58180000  0.57850000  0.68590000  1.0 -0.4872771658
O  O96  1  0.41820000  0.42150000  0.68590000  1.0 -0.4872771658
O  O97  1  0.71360000  0.21360000  0.35960000  1.0 -0.4635397016
O  O98  1  0.28640000  0.78640000  0.35960000  1.0 -0.4635397016
O  O99  1  0.28640000  0.21360000  0.85960000  1.0 -0.4635397016
O  O100  1  0.71360000  0.78640000  0.85960000  1.0 -0.4635397016
O  O101  1  0.78640000  0.71360000  0.64040000  1.0 -0.4635397016
O  O102  1  0.21360000  0.28640000  0.64040000  1.0 -0.4635397016
O  O103  1  0.21360000  0.71360000  0.14040000  1.0 -0.4635397016
O  O104  1  0.78640000  0.28640000  0.14040000  1.0 -0.4635397016
O  O105  1  0.60740000  0.10740000  0.44950000  1.0 -0.34161664
O  O106  1  0.39260000  0.89260000  0.44950000  1.0 -0.34161664
O  O107  1  0.39260000  0.10740000  0.94950000  1.0 -0.34161664
O  O108  1  0.60740000  0.89260000  0.94950000  1.0 -0.34161664
O  O109  1  0.89260000  0.60740000  0.55050000  1.0 -0.34161664
O  O110  1  0.10740000  0.39260000  0.55050000  1.0 -0.34161664
O  O111  1  0.10740000  0.60740000  0.05050000  1.0 -0.34161664
O  O112  1  0.89260000  0.39260000  0.05050000  1.0 -0.34161664
O  O113  1  0.74410000  0.08920000  0.41300000  1.0 -0.6310470558
O  O114  1  0.25590000  0.91080000  0.41300000  1.0 -0.6310470558
O  O115  1  0.41080000  0.24410000  0.91300000  1.0 -0.6310470558
O  O116  1  0.58920000  0.75590000  0.91300000  1.0 -0.6310470558
O  O117  1  0.75590000  0.58920000  0.58700000  1.0 -0.6310470558
O  O118  1  0.24410000  0.41080000  0.58700000  1.0 -0.6310470558
O  O119  1  0.08920000  0.74410000  0.08700000  1.0 -0.6310470558
O  O120  1  0.91080000  0.25590000  0.08700000  1.0 -0.6310470558
O  O121  1  0.75590000  0.41080000  0.08700000  1.0 -0.6310470558
O  O122  1  0.24410000  0.58920000  0.08700000  1.0 -0.6310470558
O  O123  1  0.08920000  0.25590000  0.58700000  1.0 -0.6310470558
O  O124  1  0.91080000  0.74410000  0.58700000  1.0 -0.6310470558
O  O125  1  0.74410000  0.91080000  0.91300000  1.0 -0.6310470558
O  O126  1  0.25590000  0.08920000  0.91300000  1.0 -0.6310470558
O  O127  1  0.41080000  0.75590000  0.41300000  1.0 -0.6310470558
O  O128  1  0.58920000  0.24410000  0.41300000  1.0 -0.6310470558
O  O129  1  0.83890000  0.33890000  0.61800000  1.0 -0.355958496
O  O130  1  0.16110000  0.66110000  0.61800000  1.0 -0.355958496
O  O131  1  0.16110000  0.33890000  0.11800000  1.0 -0.355958496
O  O132  1  0.83890000  0.66110000  0.11800000  1.0 -0.355958496
O  O133  1  0.66110000  0.83890000  0.38200000  1.0 -0.355958496
O  O134  1  0.33890000  0.16110000  0.38200000  1.0 -0.355958496
O  O135  1  0.33890000  0.83890000  0.88200000  1.0 -0.355958496
O  O136  1  0.66110000  0.16110000  0.88200000  1.0 -0.355958496
