# DDEC6 charges by PACMAN v1.1 (https://github.com/mtap-research/PACMAN-charge/)
data_TAZLOX_FSR_pacman
_symmetry_space_group_name_H-M   'P 1'
_cell_length_a   19.49110000
_cell_length_b   19.49110000
_cell_length_c   26.29950000
_cell_angle_alpha   90.00000000
_cell_angle_beta   90.00000000
_cell_angle_gamma   90.00000000
_symmetry_Int_Tables_number   1
_chemical_formula_structural   Eu2Cd3H36C48(N2O17)2
_chemical_formula_sum   'Eu8 Cd12 H144 C192 N16 O136'
_cell_volume   9991.25840173
_cell_formula_units_Z   4
loop_
 _symmetry_equiv_pos_site_id
 _symmetry_equiv_pos_as_xyz
  1  'x, y, z'
loop_
 _atom_site_type_symbol
 _atom_site_label
 _atom_site_symmetry_multiplicity
 _atom_site_fract_x
 _atom_site_fract_y
 _atom_site_fract_z
 _atom_site_occupancy
 _atom_site_charge
Eu  Eu1  1  0.19347000  0.30653000  0.55259000  1.0 2.1550893807
Eu  Eu2  1  0.80653000  0.69347000  0.55259000  1.0 2.1550893807
Eu  Eu3  1  0.19347000  0.69347000  0.05259000  1.0 2.1544203441
Eu  Eu4  1  0.80653000  0.30653000  0.05259000  1.0 2.1550893807
Eu  Eu5  1  0.30653000  0.80653000  0.44741000  1.0 2.1550893807
Eu  Eu6  1  0.69347000  0.19347000  0.44741000  1.0 2.1550893807
Eu  Eu7  1  0.30653000  0.19347000  0.94741000  1.0 2.1550893807
Eu  Eu8  1  0.69347000  0.80653000  0.94741000  1.0 2.1550893807
Cd  Cd1  1  0.28243000  0.21757000  0.44633000  1.0 1.0260028521
Cd  Cd2  1  0.71757000  0.78243000  0.44633000  1.0 1.0260028521
Cd  Cd3  1  0.28243000  0.78243000  0.94633000  1.0 1.0260028521
Cd  Cd4  1  0.71757000  0.21757000  0.94633000  1.0 1.0260028521
Cd  Cd5  1  0.21757000  0.71757000  0.55367000  1.0 1.0260028521
Cd  Cd6  1  0.78243000  0.28243000  0.55367000  1.0 1.0260028521
Cd  Cd7  1  0.21757000  0.28243000  0.05367000  1.0 1.0260028521
Cd  Cd8  1  0.78243000  0.71757000  0.05367000  1.0 1.0260028521
Cd  Cd9  1  0.50000000  0.50000000  0.75000000  1.0 0.9799966494
Cd  Cd10  1  0.00000000  0.00000000  0.25000000  1.0 0.9799966494
Cd  Cd11  1  0.00000000  0.00000000  0.75000000  1.0 0.9799966494
Cd  Cd12  1  0.50000000  0.50000000  0.25000000  1.0 0.9799966494
H  H1  1  0.58520000  0.33980000  0.63460000  1.0 0.1497500819
H  H2  1  0.41480000  0.66020000  0.63460000  1.0 0.1497500819
H  H3  1  0.16020000  0.08520000  0.13460000  1.0 0.1497500819
H  H4  1  0.83980000  0.91480000  0.13460000  1.0 0.1497500819
H  H5  1  0.91480000  0.83980000  0.36540000  1.0 0.1497500819
H  H6  1  0.08520000  0.16020000  0.36540000  1.0 0.1497500819
H  H7  1  0.33980000  0.58520000  0.86540000  1.0 0.1497500819
H  H8  1  0.66020000  0.41480000  0.86540000  1.0 0.1497500819
H  H9  1  0.91480000  0.16020000  0.86540000  1.0 0.1497500819
H  H10  1  0.08520000  0.83980000  0.86540000  1.0 0.1497500819
H  H11  1  0.33980000  0.41480000  0.36540000  1.0 0.1497500819
H  H12  1  0.66020000  0.58520000  0.36540000  1.0 0.1497500819
H  H13  1  0.58520000  0.66020000  0.13460000  1.0 0.1497500819
H  H14  1  0.41480000  0.33980000  0.13460000  1.0 0.1497500819
H  H15  1  0.16020000  0.91480000  0.63460000  1.0 0.1497500819
H  H16  1  0.83980000  0.08520000  0.63460000  1.0 0.1497500819
H  H17  1  0.50190000  0.23890000  0.51820000  1.0 0.1497500819
H  H18  1  0.49810000  0.76110000  0.51820000  1.0 0.1497500819
H  H19  1  0.26110000  0.00190000  0.01820000  1.0 0.1497500819
H  H20  1  0.73890000  0.99810000  0.01820000  1.0 0.1497500819
H  H21  1  0.99810000  0.73890000  0.48180000  1.0 0.1497500819
H  H22  1  0.00190000  0.26110000  0.48180000  1.0 0.1497500819
H  H23  1  0.23890000  0.50190000  0.98180000  1.0 0.1497500819
H  H24  1  0.76110000  0.49810000  0.98180000  1.0 0.1497500819
H  H25  1  0.99810000  0.26110000  0.98180000  1.0 0.1497500819
H  H26  1  0.00190000  0.73890000  0.98180000  1.0 0.1497500819
H  H27  1  0.23890000  0.49810000  0.48180000  1.0 0.1497500819
H  H28  1  0.76110000  0.50190000  0.48180000  1.0 0.1497500819
H  H29  1  0.50190000  0.76110000  0.01820000  1.0 0.1497500819
H  H30  1  0.49810000  0.23890000  0.01820000  1.0 0.1497500819
H  H31  1  0.26110000  0.99810000  0.51820000  1.0 0.1497500819
H  H32  1  0.73890000  0.00190000  0.51820000  1.0 0.1497500819
H  H33  1  0.38130000  0.34240000  0.61410000  1.0 0.1497500819
H  H34  1  0.61870000  0.65760000  0.61410000  1.0 0.1497500819
H  H35  1  0.15760000  0.88130000  0.11410000  1.0 0.1497500819
H  H36  1  0.84240000  0.11870000  0.11410000  1.0 0.1497500819
H  H37  1  0.11870000  0.84240000  0.38590000  1.0 0.1497500819
H  H38  1  0.88130000  0.15760000  0.38590000  1.0 0.1497500819
H  H39  1  0.34240000  0.38130000  0.88590000  1.0 0.1497500819
H  H40  1  0.65760000  0.61870000  0.88590000  1.0 0.1497500819
H  H41  1  0.11870000  0.15760000  0.88590000  1.0 0.1497500819
H  H42  1  0.88130000  0.84240000  0.88590000  1.0 0.1497500819
H  H43  1  0.34240000  0.61870000  0.38590000  1.0 0.1497500819
H  H44  1  0.65760000  0.38130000  0.38590000  1.0 0.1497500819
H  H45  1  0.38130000  0.65760000  0.11410000  1.0 0.1497500819
H  H46  1  0.61870000  0.34240000  0.11410000  1.0 0.1497500819
H  H47  1  0.15760000  0.11870000  0.61410000  1.0 0.1497500819
H  H48  1  0.84240000  0.88130000  0.61410000  1.0 0.1497500819
H  H49  1  0.00530000  0.09900000  0.53160000  1.0 0.1444051591
H  H50  1  0.99470000  0.90100000  0.53160000  1.0 0.1444051591
H  H51  1  0.40100000  0.50530000  0.03160000  1.0 0.1444051591
H  H52  1  0.59900000  0.49470000  0.03160000  1.0 0.1444051591
H  H53  1  0.49470000  0.59900000  0.46840000  1.0 0.1444051591
H  H54  1  0.50530000  0.40100000  0.46840000  1.0 0.1444051591
H  H55  1  0.09900000  0.00530000  0.96840000  1.0 0.1444051591
H  H56  1  0.90100000  0.99470000  0.96840000  1.0 0.1444051591
H  H57  1  0.49470000  0.40100000  0.96840000  1.0 0.1444051591
H  H58  1  0.50530000  0.59900000  0.96840000  1.0 0.1444051591
H  H59  1  0.09900000  0.99470000  0.46840000  1.0 0.1444051591
H  H60  1  0.90100000  0.00530000  0.46840000  1.0 0.1444051591
H  H61  1  0.00530000  0.90100000  0.03160000  1.0 0.1444051591
H  H62  1  0.99470000  0.09900000  0.03160000  1.0 0.1444051591
H  H63  1  0.40100000  0.49470000  0.53160000  1.0 0.1444051591
H  H64  1  0.59900000  0.50530000  0.53160000  1.0 0.1444051591
H  H65  1  0.93120000  0.11390000  0.55200000  1.0 0.1497500819
H  H66  1  0.06880000  0.88610000  0.55200000  1.0 0.1497500819
H  H67  1  0.38610000  0.43120000  0.05200000  1.0 0.1497500819
H  H68  1  0.61390000  0.56880000  0.05200000  1.0 0.1497500819
H  H69  1  0.56880000  0.61390000  0.44800000  1.0 0.1497500819
H  H70  1  0.43120000  0.38610000  0.44800000  1.0 0.1497500819
H  H71  1  0.11390000  0.93120000  0.94800000  1.0 0.1497500819
H  H72  1  0.88610000  0.06880000  0.94800000  1.0 0.1497500819
H  H73  1  0.56880000  0.38610000  0.94800000  1.0 0.1497500819
H  H74  1  0.43120000  0.61390000  0.94800000  1.0 0.1497500819
H  H75  1  0.11390000  0.06880000  0.44800000  1.0 0.1497500819
H  H76  1  0.88610000  0.93120000  0.44800000  1.0 0.1497500819
H  H77  1  0.93120000  0.88610000  0.05200000  1.0 0.1497500819
H  H78  1  0.06880000  0.11390000  0.05200000  1.0 0.1497500819
H  H79  1  0.38610000  0.56880000  0.55200000  1.0 0.1497500819
H  H80  1  0.61390000  0.43120000  0.55200000  1.0 0.1497500819
H  H81  1  0.98180000  0.06870000  0.58400000  1.0 0.1586453349
H  H82  1  0.01820000  0.93130000  0.58400000  1.0 0.1586453349
H  H83  1  0.43130000  0.48180000  0.08400000  1.0 0.1586453349
H  H84  1  0.56870000  0.51820000  0.08400000  1.0 0.1586453349
H  H85  1  0.51820000  0.56870000  0.41600000  1.0 0.1586453349
H  H86  1  0.48180000  0.43130000  0.41600000  1.0 0.1586453349
H  H87  1  0.06870000  0.98180000  0.91600000  1.0 0.1586453349
H  H88  1  0.93130000  0.01820000  0.91600000  1.0 0.1586453349
H  H89  1  0.51820000  0.43130000  0.91600000  1.0 0.1586453349
H  H90  1  0.48180000  0.56870000  0.91600000  1.0 0.1586453349
H  H91  1  0.06870000  0.01820000  0.41600000  1.0 0.1586453349
H  H92  1  0.93130000  0.98180000  0.41600000  1.0 0.1586453349
H  H93  1  0.98180000  0.93130000  0.08400000  1.0 0.1586453349
H  H94  1  0.01820000  0.06870000  0.08400000  1.0 0.1586453349
H  H95  1  0.43130000  0.51820000  0.58400000  1.0 0.1586453349
H  H96  1  0.56870000  0.48180000  0.58400000  1.0 0.1586453349
H  H97  1  0.01070000  0.24710000  0.63520000  1.0 0.1838533859
H  H98  1  0.98930000  0.75290000  0.63520000  1.0 0.1838533859
H  H99  1  0.25290000  0.51070000  0.13520000  1.0 0.1838533859
H  H100  1  0.74710000  0.48930000  0.13520000  1.0 0.1838533859
H  H101  1  0.48930000  0.74710000  0.36480000  1.0 0.1838533859
H  H102  1  0.51070000  0.25290000  0.36480000  1.0 0.1838533859
H  H103  1  0.24710000  0.01070000  0.86480000  1.0 0.1838533859
H  H104  1  0.75290000  0.98930000  0.86480000  1.0 0.1838533859
H  H105  1  0.48930000  0.25290000  0.86480000  1.0 0.1838533859
H  H106  1  0.51070000  0.74710000  0.86480000  1.0 0.1838533859
H  H107  1  0.24710000  0.98930000  0.36480000  1.0 0.1838533859
H  H108  1  0.75290000  0.01070000  0.36480000  1.0 0.1838533859
H  H109  1  0.01070000  0.75290000  0.13520000  1.0 0.1838533859
H  H110  1  0.98930000  0.24710000  0.13520000  1.0 0.1838533859
H  H111  1  0.25290000  0.48930000  0.63520000  1.0 0.1838533859
H  H112  1  0.74710000  0.51070000  0.63520000  1.0 0.1838533859
H  H113  1  0.98850000  0.17760000  0.66040000  1.0 0.1586453349
H  H114  1  0.01150000  0.82240000  0.66040000  1.0 0.1586453349
H  H115  1  0.32240000  0.48850000  0.16040000  1.0 0.1586453349
H  H116  1  0.67760000  0.51150000  0.16040000  1.0 0.1586453349
H  H117  1  0.51150000  0.67760000  0.33960000  1.0 0.1586453349
H  H118  1  0.48850000  0.32240000  0.33960000  1.0 0.1586453349
H  H119  1  0.17760000  0.98850000  0.83960000  1.0 0.1586453349
H  H120  1  0.82240000  0.01150000  0.83960000  1.0 0.1586453349
H  H121  1  0.51150000  0.32240000  0.83960000  1.0 0.1586453349
H  H122  1  0.48850000  0.67760000  0.83960000  1.0 0.1586453349
H  H123  1  0.17760000  0.01150000  0.33960000  1.0 0.1586453349
H  H124  1  0.82240000  0.98850000  0.33960000  1.0 0.1586453349
H  H125  1  0.98850000  0.82240000  0.16040000  1.0 0.1586453349
H  H126  1  0.01150000  0.17760000  0.16040000  1.0 0.1586453349
H  H127  1  0.32240000  0.51150000  0.66040000  1.0 0.1586453349
H  H128  1  0.67760000  0.48850000  0.66040000  1.0 0.1586453349
H  H129  1  0.93600000  0.21910000  0.62740000  1.0 0.1586453349
H  H130  1  0.06400000  0.78090000  0.62740000  1.0 0.1586453349
H  H131  1  0.28090000  0.43600000  0.12740000  1.0 0.1586453349
H  H132  1  0.71910000  0.56400000  0.12740000  1.0 0.1586453349
H  H133  1  0.56400000  0.71910000  0.37260000  1.0 0.1586453349
H  H134  1  0.43600000  0.28090000  0.37260000  1.0 0.1586453349
H  H135  1  0.21910000  0.93600000  0.87260000  1.0 0.1586453349
H  H136  1  0.78090000  0.06400000  0.87260000  1.0 0.1586453349
H  H137  1  0.56400000  0.28090000  0.87260000  1.0 0.1586453349
H  H138  1  0.43600000  0.71910000  0.87260000  1.0 0.1586453349
H  H139  1  0.21910000  0.06400000  0.37260000  1.0 0.1586453349
H  H140  1  0.78090000  0.93600000  0.37260000  1.0 0.1586453349
H  H141  1  0.93600000  0.78090000  0.12740000  1.0 0.1586453349
H  H142  1  0.06400000  0.21910000  0.12740000  1.0 0.1586453349
H  H143  1  0.28090000  0.56400000  0.62740000  1.0 0.1586453349
H  H144  1  0.71910000  0.43600000  0.62740000  1.0 0.1586453349
C  C1  1  0.62410000  0.26790000  0.55570000  1.0 0.6188621799
C  C2  1  0.37590000  0.73210000  0.55570000  1.0 0.6188621799
C  C3  1  0.23210000  0.12410000  0.05570000  1.0 0.6188621799
C  C4  1  0.76790000  0.87590000  0.05570000  1.0 0.6188621799
C  C5  1  0.87590000  0.76790000  0.44430000  1.0 0.6188621799
C  C6  1  0.12410000  0.23210000  0.44430000  1.0 0.6188621799
C  C7  1  0.26790000  0.62410000  0.94430000  1.0 0.6188621799
C  C8  1  0.73210000  0.37590000  0.94430000  1.0 0.6188621799
C  C9  1  0.87590000  0.23210000  0.94430000  1.0 0.6188621799
C  C10  1  0.12410000  0.76790000  0.94430000  1.0 0.6188621799
C  C11  1  0.26790000  0.37590000  0.44430000  1.0 0.6188621799
C  C12  1  0.73210000  0.62410000  0.44430000  1.0 0.6188621799
C  C13  1  0.62410000  0.73210000  0.05570000  1.0 0.6188621799
C  C14  1  0.37590000  0.26790000  0.05570000  1.0 0.6188621799
C  C15  1  0.23210000  0.87590000  0.55570000  1.0 0.6188621799
C  C16  1  0.76790000  0.12410000  0.55570000  1.0 0.6188621799
C  C17  1  0.43210000  0.28780000  0.56180000  1.0 -0.0062363857
C  C18  1  0.56790000  0.71220000  0.56180000  1.0 -0.0062363857
C  C19  1  0.21220000  0.93210000  0.06180000  1.0 -0.0062363857
C  C20  1  0.78780000  0.06790000  0.06180000  1.0 -0.0062363857
C  C21  1  0.06790000  0.78780000  0.43820000  1.0 -0.0062363857
C  C22  1  0.93210000  0.21220000  0.43820000  1.0 -0.0062363857
C  C23  1  0.28780000  0.43210000  0.93820000  1.0 -0.0062363857
C  C24  1  0.71220000  0.56790000  0.93820000  1.0 -0.0062363857
C  C25  1  0.06790000  0.21220000  0.93820000  1.0 -0.0062363857
C  C26  1  0.93210000  0.78780000  0.93820000  1.0 -0.0062363857
C  C27  1  0.28780000  0.56790000  0.43820000  1.0 -0.0062363857
C  C28  1  0.71220000  0.43210000  0.43820000  1.0 -0.0062363857
C  C29  1  0.43210000  0.71220000  0.06180000  1.0 -0.0062363857
C  C30  1  0.56790000  0.28780000  0.06180000  1.0 -0.0062363857
C  C31  1  0.21220000  0.06790000  0.56180000  1.0 -0.0062363857
C  C32  1  0.78780000  0.93210000  0.56180000  1.0 -0.0062363857
C  C33  1  0.55310000  0.28620000  0.57400000  1.0 -0.0179440268
C  C34  1  0.44690000  0.71380000  0.57400000  1.0 -0.0179440268
C  C35  1  0.21380000  0.05310000  0.07400000  1.0 -0.0179440268
C  C36  1  0.78620000  0.94690000  0.07400000  1.0 -0.0179440268
C  C37  1  0.94690000  0.78620000  0.42600000  1.0 -0.0179440268
C  C38  1  0.05310000  0.21380000  0.42600000  1.0 -0.0179440268
C  C39  1  0.28620000  0.55310000  0.92600000  1.0 -0.0179440268
C  C40  1  0.71380000  0.44690000  0.92600000  1.0 -0.0179440268
C  C41  1  0.94690000  0.21380000  0.92600000  1.0 -0.0179440268
C  C42  1  0.05310000  0.78620000  0.92600000  1.0 -0.0179440268
C  C43  1  0.28620000  0.44690000  0.42600000  1.0 -0.0179440268
C  C44  1  0.71380000  0.55310000  0.42600000  1.0 -0.0179440268
C  C45  1  0.55310000  0.71380000  0.07400000  1.0 -0.0179440268
C  C46  1  0.44690000  0.28620000  0.07400000  1.0 -0.0179440268
C  C47  1  0.21380000  0.94690000  0.57400000  1.0 -0.0179440268
C  C48  1  0.78620000  0.05310000  0.57400000  1.0 -0.0179440268
C  C49  1  0.54650000  0.32700000  0.61610000  1.0 -0.0899473961
C  C50  1  0.45350000  0.67300000  0.61610000  1.0 -0.0899473961
C  C51  1  0.17300000  0.04650000  0.11610000  1.0 -0.0899473961
C  C52  1  0.82700000  0.95350000  0.11610000  1.0 -0.0899473961
C  C53  1  0.95350000  0.82700000  0.38390000  1.0 -0.0899473961
C  C54  1  0.04650000  0.17300000  0.38390000  1.0 -0.0899473961
C  C55  1  0.32700000  0.54650000  0.88390000  1.0 -0.0899473961
C  C56  1  0.67300000  0.45350000  0.88390000  1.0 -0.0899473961
C  C57  1  0.95350000  0.17300000  0.88390000  1.0 -0.0899473961
C  C58  1  0.04650000  0.82700000  0.88390000  1.0 -0.0899473961
C  C59  1  0.32700000  0.45350000  0.38390000  1.0 -0.0899473961
C  C60  1  0.67300000  0.54650000  0.38390000  1.0 -0.0899473961
C  C61  1  0.54650000  0.67300000  0.11610000  1.0 -0.0899473961
C  C62  1  0.45350000  0.32700000  0.11610000  1.0 -0.0899473961
C  C63  1  0.17300000  0.95350000  0.61610000  1.0 -0.0899473961
C  C64  1  0.82700000  0.04650000  0.61610000  1.0 -0.0899473961
C  C65  1  0.36980000  0.26720000  0.53100000  1.0 0.6069783847
C  C66  1  0.63020000  0.73280000  0.53100000  1.0 0.6069783847
C  C67  1  0.23280000  0.86980000  0.03100000  1.0 0.6069783847
C  C68  1  0.76720000  0.13020000  0.03100000  1.0 0.6069783847
C  C69  1  0.13020000  0.76720000  0.46900000  1.0 0.6069783847
C  C70  1  0.86980000  0.23280000  0.46900000  1.0 0.6069783847
C  C71  1  0.26720000  0.36980000  0.96900000  1.0 0.6069783847
C  C72  1  0.73280000  0.63020000  0.96900000  1.0 0.6069783847
C  C73  1  0.13020000  0.23280000  0.96900000  1.0 0.6069783847
C  C74  1  0.86980000  0.76720000  0.96900000  1.0 0.6069783847
C  C75  1  0.26720000  0.63020000  0.46900000  1.0 0.6069783847
C  C76  1  0.73280000  0.36980000  0.46900000  1.0 0.6069783847
C  C77  1  0.36980000  0.73280000  0.03100000  1.0 0.6069783847
C  C78  1  0.63020000  0.26720000  0.03100000  1.0 0.6069783847
C  C79  1  0.23280000  0.13020000  0.53100000  1.0 0.6069783847
C  C80  1  0.76720000  0.86980000  0.53100000  1.0 0.6069783847
C  C81  1  0.49680000  0.26650000  0.54680000  1.0 -0.0961266925
C  C82  1  0.50320000  0.73350000  0.54680000  1.0 -0.0961266925
C  C83  1  0.23350000  0.99680000  0.04680000  1.0 -0.0961266925
C  C84  1  0.76650000  0.00320000  0.04680000  1.0 -0.0961266925
C  C85  1  0.00320000  0.76650000  0.45320000  1.0 -0.0961266925
C  C86  1  0.99680000  0.23350000  0.45320000  1.0 -0.0961266925
C  C87  1  0.26650000  0.49680000  0.95320000  1.0 -0.0961266925
C  C88  1  0.73350000  0.50320000  0.95320000  1.0 -0.0961266925
C  C89  1  0.00320000  0.23350000  0.95320000  1.0 -0.0961266925
C  C90  1  0.99680000  0.76650000  0.95320000  1.0 -0.0961266925
C  C91  1  0.26650000  0.50320000  0.45320000  1.0 -0.0961266925
C  C92  1  0.73350000  0.49680000  0.45320000  1.0 -0.0961266925
C  C93  1  0.49680000  0.73350000  0.04680000  1.0 -0.0961266925
C  C94  1  0.50320000  0.26650000  0.04680000  1.0 -0.0961266925
C  C95  1  0.23350000  0.00320000  0.54680000  1.0 -0.0961266925
C  C96  1  0.76650000  0.99680000  0.54680000  1.0 -0.0961266925
C  C97  1  0.47510000  0.39740000  0.67530000  1.0 0.5543837602
C  C98  1  0.52490000  0.60260000  0.67530000  1.0 0.5543837602
C  C99  1  0.10260000  0.97510000  0.17530000  1.0 0.5543837602
C  C100  1  0.89740000  0.02490000  0.17530000  1.0 0.5543837602
C  C101  1  0.02490000  0.89740000  0.32470000  1.0 0.5543837602
C  C102  1  0.97510000  0.10260000  0.32470000  1.0 0.5543837602
C  C103  1  0.39740000  0.47510000  0.82470000  1.0 0.5543837602
C  C104  1  0.60260000  0.52490000  0.82470000  1.0 0.5543837602
C  C105  1  0.02490000  0.10260000  0.82470000  1.0 0.5543837602
C  C106  1  0.97510000  0.89740000  0.82470000  1.0 0.5543837602
C  C107  1  0.39740000  0.52490000  0.32470000  1.0 0.5543837602
C  C108  1  0.60260000  0.47510000  0.32470000  1.0 0.5543837602
C  C109  1  0.47510000  0.60260000  0.17530000  1.0 0.5543837602
C  C110  1  0.52490000  0.39740000  0.17530000  1.0 0.5543837602
C  C111  1  0.10260000  0.02490000  0.67530000  1.0 0.5543837602
C  C112  1  0.89740000  0.97510000  0.67530000  1.0 0.5543837602
C  C113  1  0.42480000  0.32850000  0.60390000  1.0 -0.0899473961
C  C114  1  0.57520000  0.67150000  0.60390000  1.0 -0.0899473961
C  C115  1  0.17150000  0.92480000  0.10390000  1.0 -0.0899473961
C  C116  1  0.82850000  0.07520000  0.10390000  1.0 -0.0899473961
C  C117  1  0.07520000  0.82850000  0.39610000  1.0 -0.0899473961
C  C118  1  0.92480000  0.17150000  0.39610000  1.0 -0.0899473961
C  C119  1  0.32850000  0.42480000  0.89610000  1.0 -0.0899473961
C  C120  1  0.67150000  0.57520000  0.89610000  1.0 -0.0899473961
C  C121  1  0.07520000  0.17150000  0.89610000  1.0 -0.0899473961
C  C122  1  0.92480000  0.82850000  0.89610000  1.0 -0.0899473961
C  C123  1  0.32850000  0.57520000  0.39610000  1.0 -0.0899473961
C  C124  1  0.67150000  0.42480000  0.39610000  1.0 -0.0899473961
C  C125  1  0.42480000  0.67150000  0.10390000  1.0 -0.0899473961
C  C126  1  0.57520000  0.32850000  0.10390000  1.0 -0.0899473961
C  C127  1  0.17150000  0.07520000  0.60390000  1.0 -0.0899473961
C  C128  1  0.82850000  0.92480000  0.60390000  1.0 -0.0899473961
C  C129  1  0.48190000  0.34910000  0.63120000  1.0 -0.003542795
C  C130  1  0.51810000  0.65090000  0.63120000  1.0 -0.003542795
C  C131  1  0.15090000  0.98190000  0.13120000  1.0 -0.003542795
C  C132  1  0.84910000  0.01810000  0.13120000  1.0 -0.003542795
C  C133  1  0.01810000  0.84910000  0.36880000  1.0 -0.003542795
C  C134  1  0.98190000  0.15090000  0.36880000  1.0 -0.003542795
C  C135  1  0.34910000  0.48190000  0.86880000  1.0 -0.003542795
C  C136  1  0.65090000  0.51810000  0.86880000  1.0 -0.003542795
C  C137  1  0.01810000  0.15090000  0.86880000  1.0 -0.003542795
C  C138  1  0.98190000  0.84910000  0.86880000  1.0 -0.003542795
C  C139  1  0.34910000  0.51810000  0.36880000  1.0 -0.003542795
C  C140  1  0.65090000  0.48190000  0.36880000  1.0 -0.003542795
C  C141  1  0.48190000  0.65090000  0.13120000  1.0 -0.003542795
C  C142  1  0.51810000  0.34910000  0.13120000  1.0 -0.003542795
C  C143  1  0.15090000  0.01810000  0.63120000  1.0 -0.003542795
C  C144  1  0.84910000  0.98190000  0.63120000  1.0 -0.003542795
C  C145  1  0.97830000  0.10730000  0.56150000  1.0 -0.3220692297
C  C146  1  0.02170000  0.89270000  0.56150000  1.0 -0.3220692297
C  C147  1  0.39270000  0.47830000  0.06150000  1.0 -0.3220692297
C  C148  1  0.60730000  0.52170000  0.06150000  1.0 -0.3220692297
C  C149  1  0.52170000  0.60730000  0.43850000  1.0 -0.3220692297
C  C150  1  0.47830000  0.39270000  0.43850000  1.0 -0.3220692297
C  C151  1  0.10730000  0.97830000  0.93850000  1.0 -0.3220692297
C  C152  1  0.89270000  0.02170000  0.93850000  1.0 -0.3220692297
C  C153  1  0.52170000  0.39270000  0.93850000  1.0 -0.3220692297
C  C154  1  0.47830000  0.60730000  0.93850000  1.0 -0.3220692297
C  C155  1  0.10730000  0.02170000  0.43850000  1.0 -0.3220692297
C  C156  1  0.89270000  0.97830000  0.43850000  1.0 -0.3220692297
C  C157  1  0.97830000  0.89270000  0.06150000  1.0 -0.3220692297
C  C158  1  0.02170000  0.10730000  0.06150000  1.0 -0.3220692297
C  C159  1  0.39270000  0.52170000  0.56150000  1.0 -0.3220692297
C  C160  1  0.60730000  0.47830000  0.56150000  1.0 -0.3220692297
C  C161  1  0.98330000  0.20650000  0.63110000  1.0 -0.280915849
C  C162  1  0.01670000  0.79350000  0.63110000  1.0 -0.280915849
C  C163  1  0.29350000  0.48330000  0.13110000  1.0 -0.280915849
C  C164  1  0.70650000  0.51670000  0.13110000  1.0 -0.280915849
C  C165  1  0.51670000  0.70650000  0.36890000  1.0 -0.280915849
C  C166  1  0.48330000  0.29350000  0.36890000  1.0 -0.280915849
C  C167  1  0.20650000  0.98330000  0.86890000  1.0 -0.280915849
C  C168  1  0.79350000  0.01670000  0.86890000  1.0 -0.280915849
C  C169  1  0.51670000  0.29350000  0.86890000  1.0 -0.280915849
C  C170  1  0.48330000  0.70650000  0.86890000  1.0 -0.280915849
C  C171  1  0.20650000  0.01670000  0.36890000  1.0 -0.280915849
C  C172  1  0.79350000  0.98330000  0.36890000  1.0 -0.280915849
C  C173  1  0.98330000  0.79350000  0.13110000  1.0 -0.280915849
C  C174  1  0.01670000  0.20650000  0.13110000  1.0 -0.280915849
C  C175  1  0.29350000  0.51670000  0.63110000  1.0 -0.280915849
C  C176  1  0.70650000  0.48330000  0.63110000  1.0 -0.280915849
C  C177  1  0.06200000  0.20140000  0.57170000  1.0 0.3397340792
C  C178  1  0.93800000  0.79860000  0.57170000  1.0 0.3397340792
C  C179  1  0.29860000  0.56200000  0.07170000  1.0 0.3397340792
C  C180  1  0.70140000  0.43800000  0.07170000  1.0 0.3397340792
C  C181  1  0.43800000  0.70140000  0.42830000  1.0 0.3397340792
C  C182  1  0.56200000  0.29860000  0.42830000  1.0 0.3397340792
C  C183  1  0.20140000  0.06200000  0.92830000  1.0 0.3397340792
C  C184  1  0.79860000  0.93800000  0.92830000  1.0 0.3397340792
C  C185  1  0.43800000  0.29860000  0.92830000  1.0 0.3397340792
C  C186  1  0.56200000  0.70140000  0.92830000  1.0 0.3397340792
C  C187  1  0.20140000  0.93800000  0.42830000  1.0 0.3397340792
C  C188  1  0.79860000  0.06200000  0.42830000  1.0 0.3397340792
C  C189  1  0.06200000  0.79860000  0.07170000  1.0 0.3397340792
C  C190  1  0.93800000  0.20140000  0.07170000  1.0 0.3397340792
C  C191  1  0.29860000  0.43800000  0.57170000  1.0 0.3397340792
C  C192  1  0.70140000  0.56200000  0.57170000  1.0 0.3397340792
N  N1  1  0.00470000  0.17140000  0.58830000  1.0 0.0378741006
N  N2  1  0.99530000  0.82860000  0.58830000  1.0 0.0378741006
N  N3  1  0.32860000  0.50470000  0.08830000  1.0 0.0378741006
N  N4  1  0.67140000  0.49530000  0.08830000  1.0 0.0378741006
N  N5  1  0.49530000  0.67140000  0.41170000  1.0 0.0378741006
N  N6  1  0.50470000  0.32860000  0.41170000  1.0 0.0378741006
N  N7  1  0.17140000  0.00470000  0.91170000  1.0 0.0378741006
N  N8  1  0.82860000  0.99530000  0.91170000  1.0 0.0378741006
N  N9  1  0.49530000  0.32860000  0.91170000  1.0 0.0378741006
N  N10  1  0.50470000  0.67140000  0.91170000  1.0 0.0378741006
N  N11  1  0.17140000  0.99530000  0.41170000  1.0 0.0378741006
N  N12  1  0.82860000  0.00470000  0.41170000  1.0 0.0378741006
N  N13  1  0.00470000  0.82860000  0.08830000  1.0 0.0378741006
N  N14  1  0.99530000  0.17140000  0.08830000  1.0 0.0378741006
N  N15  1  0.32860000  0.49530000  0.58830000  1.0 0.0378741006
N  N16  1  0.67140000  0.50470000  0.58830000  1.0 0.0378741006
O  O1  1  0.41800000  0.42200000  0.68600000  1.0 -0.4928966631
O  O2  1  0.58200000  0.57800000  0.68600000  1.0 -0.4928966631
O  O3  1  0.07800000  0.91800000  0.18600000  1.0 -0.4928966631
O  O4  1  0.92200000  0.08200000  0.18600000  1.0 -0.4928966631
O  O5  1  0.08200000  0.92200000  0.31400000  1.0 -0.4928966631
O  O6  1  0.91800000  0.07800000  0.31400000  1.0 -0.4928966631
O  O7  1  0.42200000  0.41800000  0.81400000  1.0 -0.4928966631
O  O8  1  0.57800000  0.58200000  0.81400000  1.0 -0.4928966631
O  O9  1  0.08200000  0.07800000  0.81400000  1.0 -0.4928966631
O  O10  1  0.91800000  0.92200000  0.81400000  1.0 -0.4928966631
O  O11  1  0.42200000  0.58200000  0.31400000  1.0 -0.4928966631
O  O12  1  0.57800000  0.41800000  0.31400000  1.0 -0.4928966631
O  O13  1  0.41800000  0.57800000  0.18600000  1.0 -0.4928966631
O  O14  1  0.58200000  0.42200000  0.18600000  1.0 -0.4928966631
O  O15  1  0.07800000  0.08200000  0.68600000  1.0 -0.4928966631
O  O16  1  0.92200000  0.91800000  0.68600000  1.0 -0.4928966631
O  O17  1  0.52940000  0.41490000  0.69840000  1.0 -0.4928966631
O  O18  1  0.47060000  0.58510000  0.69840000  1.0 -0.4928966631
O  O19  1  0.08510000  0.02940000  0.19840000  1.0 -0.4928966631
O  O20  1  0.91490000  0.97060000  0.19840000  1.0 -0.4928966631
O  O21  1  0.97060000  0.91490000  0.30160000  1.0 -0.4928966631
O  O22  1  0.02940000  0.08510000  0.30160000  1.0 -0.4928966631
O  O23  1  0.41490000  0.52940000  0.80160000  1.0 -0.4928966631
O  O24  1  0.58510000  0.47060000  0.80160000  1.0 -0.4928966631
O  O25  1  0.97060000  0.08510000  0.80160000  1.0 -0.4928966631
O  O26  1  0.02940000  0.91490000  0.80160000  1.0 -0.4928966631
O  O27  1  0.41490000  0.47060000  0.30160000  1.0 -0.4928966631
O  O28  1  0.58510000  0.52940000  0.30160000  1.0 -0.4928966631
O  O29  1  0.52940000  0.58510000  0.19840000  1.0 -0.4928966631
O  O30  1  0.47060000  0.41490000  0.19840000  1.0 -0.4928966631
O  O31  1  0.08510000  0.97060000  0.69840000  1.0 -0.4928966631
O  O32  1  0.91490000  0.02940000  0.69840000  1.0 -0.4928966631
O  O33  1  0.31360000  0.28810000  0.54470000  1.0 -0.6128827651
O  O34  1  0.68640000  0.71190000  0.54470000  1.0 -0.6128827651
O  O35  1  0.21190000  0.81360000  0.04470000  1.0 -0.6128827651
O  O36  1  0.78810000  0.18640000  0.04470000  1.0 -0.6128827651
O  O37  1  0.18640000  0.78810000  0.45530000  1.0 -0.6128827651
O  O38  1  0.81360000  0.21190000  0.45530000  1.0 -0.6128827651
O  O39  1  0.28810000  0.31360000  0.95530000  1.0 -0.6128827651
O  O40  1  0.71190000  0.68640000  0.95530000  1.0 -0.6128827651
O  O41  1  0.18640000  0.21190000  0.95530000  1.0 -0.6128827651
O  O42  1  0.81360000  0.78810000  0.95530000  1.0 -0.6128827651
O  O43  1  0.28810000  0.68640000  0.45530000  1.0 -0.6128827651
O  O44  1  0.71190000  0.31360000  0.45530000  1.0 -0.6128827651
O  O45  1  0.31360000  0.71190000  0.04470000  1.0 -0.6128827651
O  O46  1  0.68640000  0.28810000  0.04470000  1.0 -0.6128827651
O  O47  1  0.21190000  0.18640000  0.54470000  1.0 -0.6128827651
O  O48  1  0.78810000  0.81360000  0.54470000  1.0 -0.6128827651
O  O49  1  0.37960000  0.23390000  0.49070000  1.0 -0.4984398582
O  O50  1  0.62040000  0.76610000  0.49070000  1.0 -0.4984398582
O  O51  1  0.26610000  0.87960000  0.99070000  1.0 -0.4984398582
O  O52  1  0.73390000  0.12040000  0.99070000  1.0 -0.4984398582
O  O53  1  0.12040000  0.73390000  0.50930000  1.0 -0.4984398582
O  O54  1  0.87960000  0.26610000  0.50930000  1.0 -0.4984398582
O  O55  1  0.23390000  0.37960000  0.00930000  1.0 -0.4984398582
O  O56  1  0.76610000  0.62040000  0.00930000  1.0 -0.4984398582
O  O57  1  0.12040000  0.26610000  0.00930000  1.0 -0.4984398582
O  O58  1  0.87960000  0.73390000  0.00930000  1.0 -0.4984398582
O  O59  1  0.23390000  0.62040000  0.50930000  1.0 -0.4984398582
O  O60  1  0.76610000  0.37960000  0.50930000  1.0 -0.4984398582
O  O61  1  0.37960000  0.76610000  0.99070000  1.0 -0.4984398582
O  O62  1  0.62040000  0.23390000  0.99070000  1.0 -0.4984398582
O  O63  1  0.26610000  0.12040000  0.49070000  1.0 -0.4984398582
O  O64  1  0.73390000  0.87960000  0.49070000  1.0 -0.4984398582
O  O65  1  0.67390000  0.29050000  0.58050000  1.0 -0.5093880103
O  O66  1  0.32610000  0.70950000  0.58050000  1.0 -0.5093880103
O  O67  1  0.20950000  0.17390000  0.08050000  1.0 -0.5093880103
O  O68  1  0.79050000  0.82610000  0.08050000  1.0 -0.5093880103
O  O69  1  0.82610000  0.79050000  0.41950000  1.0 -0.5093880103
O  O70  1  0.17390000  0.20950000  0.41950000  1.0 -0.5093880103
O  O71  1  0.29050000  0.67390000  0.91950000  1.0 -0.5093880103
O  O72  1  0.70950000  0.32610000  0.91950000  1.0 -0.5093880103
O  O73  1  0.82610000  0.20950000  0.91950000  1.0 -0.5093880103
O  O74  1  0.17390000  0.79050000  0.91950000  1.0 -0.5093880103
O  O75  1  0.29050000  0.32610000  0.41950000  1.0 -0.5093880103
O  O76  1  0.70950000  0.67390000  0.41950000  1.0 -0.5093880103
O  O77  1  0.67390000  0.70950000  0.08050000  1.0 -0.5093880103
O  O78  1  0.32610000  0.29050000  0.08050000  1.0 -0.5093880103
O  O79  1  0.20950000  0.82610000  0.58050000  1.0 -0.5093880103
O  O80  1  0.79050000  0.17390000  0.58050000  1.0 -0.5093880103
O  O81  1  0.63010000  0.23170000  0.51780000  1.0 -0.5999013503
O  O82  1  0.36990000  0.76830000  0.51780000  1.0 -0.5999013503
O  O83  1  0.26830000  0.13010000  0.01780000  1.0 -0.5999013503
O  O84  1  0.73170000  0.86990000  0.01780000  1.0 -0.5999013503
O  O85  1  0.86990000  0.73170000  0.48220000  1.0 -0.5999013503
O  O86  1  0.13010000  0.26830000  0.48220000  1.0 -0.5999013503
O  O87  1  0.23170000  0.63010000  0.98220000  1.0 -0.5999013503
O  O88  1  0.76830000  0.36990000  0.98220000  1.0 -0.5999013503
O  O89  1  0.86990000  0.26830000  0.98220000  1.0 -0.5999013503
O  O90  1  0.13010000  0.73170000  0.98220000  1.0 -0.5999013503
O  O91  1  0.23170000  0.36990000  0.48220000  1.0 -0.5999013503
O  O92  1  0.76830000  0.63010000  0.48220000  1.0 -0.5999013503
O  O93  1  0.63010000  0.76830000  0.01780000  1.0 -0.5999013503
O  O94  1  0.36990000  0.23170000  0.01780000  1.0 -0.5999013503
O  O95  1  0.26830000  0.86990000  0.51780000  1.0 -0.5999013503
O  O96  1  0.73170000  0.13010000  0.51780000  1.0 -0.5999013503
O  O97  1  0.08970000  0.25580000  0.58780000  1.0 -0.6319799629
O  O98  1  0.91030000  0.74420000  0.58780000  1.0 -0.6319799629
O  O99  1  0.24420000  0.58970000  0.08780000  1.0 -0.6319799629
O  O100  1  0.75580000  0.41030000  0.08780000  1.0 -0.6319799629
O  O101  1  0.41030000  0.75580000  0.41220000  1.0 -0.6319799629
O  O102  1  0.58970000  0.24420000  0.41220000  1.0 -0.6319799629
O  O103  1  0.25580000  0.08970000  0.91220000  1.0 -0.6319799629
O  O104  1  0.74420000  0.91030000  0.91220000  1.0 -0.6319799629
O  O105  1  0.41030000  0.24420000  0.91220000  1.0 -0.6319799629
O  O106  1  0.58970000  0.75580000  0.91220000  1.0 -0.6319799629
O  O107  1  0.25580000  0.91030000  0.41220000  1.0 -0.6319799629
O  O108  1  0.74420000  0.08970000  0.41220000  1.0 -0.6319799629
O  O109  1  0.08970000  0.74420000  0.08780000  1.0 -0.6319799629
O  O110  1  0.91030000  0.25580000  0.08780000  1.0 -0.6319799629
O  O111  1  0.24420000  0.41030000  0.58780000  1.0 -0.6319799629
O  O112  1  0.75580000  0.58970000  0.58780000  1.0 -0.6319799629
O  O113  1  0.10690000  0.39310000  0.54990000  1.0 -0.3987745755
O  O114  1  0.89310000  0.60690000  0.54990000  1.0 -0.3987745755
O  O115  1  0.10690000  0.60690000  0.04990000  1.0 -0.3987745755
O  O116  1  0.89310000  0.39310000  0.04990000  1.0 -0.3987745755
O  O117  1  0.39310000  0.89310000  0.45010000  1.0 -0.3987745755
O  O118  1  0.60690000  0.10690000  0.45010000  1.0 -0.3987745755
O  O119  1  0.39310000  0.10690000  0.95010000  1.0 -0.3987745755
O  O120  1  0.60690000  0.89310000  0.95010000  1.0 -0.3987745755
O  O121  1  0.21200000  0.28800000  0.64050000  1.0 -0.5093880103
O  O122  1  0.78800000  0.71200000  0.64050000  1.0 -0.5093880103
O  O123  1  0.21200000  0.71200000  0.14050000  1.0 -0.4984398582
O  O124  1  0.78800000  0.28800000  0.14050000  1.0 -0.4984398582
O  O125  1  0.28800000  0.78800000  0.35950000  1.0 -0.4984398582
O  O126  1  0.71200000  0.21200000  0.35950000  1.0 -0.5093880103
O  O127  1  0.28800000  0.21200000  0.85950000  1.0 -0.5093880103
O  O128  1  0.71200000  0.78800000  0.85950000  1.0 -0.5093880103
O  O129  1  0.33570000  0.16430000  0.38040000  1.0 -0.3987745755
O  O130  1  0.66430000  0.83570000  0.38040000  1.0 -0.3987745755
O  O131  1  0.33570000  0.83570000  0.88040000  1.0 -0.3987745755
O  O132  1  0.66430000  0.16430000  0.88040000  1.0 -0.3987745755
O  O133  1  0.16430000  0.66430000  0.61960000  1.0 -0.3987745755
O  O134  1  0.83570000  0.33570000  0.61960000  1.0 -0.3987745755
O  O135  1  0.16430000  0.33570000  0.11960000  1.0 -0.3987745755
O  O136  1  0.83570000  0.66430000  0.11960000  1.0 -0.3987745755
