# DDEC6 charges by PACMAN v1.1 (https://github.com/mtap-research/PACMAN-charge/)
data_TEBKOD_FSR_pacman
_symmetry_space_group_name_H-M   'P 1'
_cell_length_a   9.41600000
_cell_length_b   23.01100000
_cell_length_c   31.37000000
_cell_angle_alpha   90.00000000
_cell_angle_beta   90.00000000
_cell_angle_gamma   90.00000000
_symmetry_Int_Tables_number   1
_chemical_formula_structural   Ce2Cu4H46C50I3N9O16
_chemical_formula_sum   'Ce8 Cu16 H184 C200 I12 N36 O64'
_cell_volume   6796.98733912
_cell_formula_units_Z   4
loop_
 _symmetry_equiv_pos_site_id
 _symmetry_equiv_pos_as_xyz
  1  'x, y, z'
loop_
 _atom_site_type_symbol
 _atom_site_label
 _atom_site_symmetry_multiplicity
 _atom_site_fract_x
 _atom_site_fract_y
 _atom_site_fract_z
 _atom_site_occupancy
 _atom_site_charge
Ce  Ce1  1  0.46298000  0.94144000  0.98507000  1.0 2.0329036572
Ce  Ce2  1  0.99357000  0.97123000  0.97814000  1.0 2.0524989226
Ce  Ce3  1  0.03702000  0.05856000  0.48507000  1.0 2.0329036572
Ce  Ce4  1  0.50643000  0.02877000  0.47814000  1.0 2.0524989226
Ce  Ce5  1  0.53702000  0.44144000  0.51493000  1.0 2.0329036572
Ce  Ce6  1  0.00643000  0.47123000  0.52186000  1.0 2.0524989226
Ce  Ce7  1  0.96298000  0.55856000  0.01493000  1.0 2.0329036572
Ce  Ce8  1  0.49357000  0.52877000  0.02186000  1.0 2.0524989226
Cu  Cu1  1  0.51460000  0.13923000  0.74859000  1.0 0.1999447056
Cu  Cu2  1  0.53910000  0.11675000  0.22539000  1.0 0.2897510537
Cu  Cu3  1  0.71560000  0.26595000  0.81785000  1.0 0.1942830243
Cu  Cu4  1  0.74380000  0.21585000  0.73900000  1.0 0.1719352034
Cu  Cu5  1  0.98540000  0.86077000  0.24859000  1.0 0.1999447056
Cu  Cu6  1  0.96090000  0.88325000  0.72539000  1.0 0.2897510537
Cu  Cu7  1  0.78440000  0.73405000  0.31785000  1.0 0.1942830243
Cu  Cu8  1  0.75620000  0.78415000  0.23900000  1.0 0.1719352034
Cu  Cu9  1  0.48540000  0.63923000  0.75141000  1.0 0.1999447056
Cu  Cu10  1  0.46090000  0.61675000  0.27461000  1.0 0.2897510537
Cu  Cu11  1  0.28440000  0.76595000  0.68215000  1.0 0.1942830243
Cu  Cu12  1  0.25620000  0.71585000  0.76100000  1.0 0.1719352034
Cu  Cu13  1  0.01460000  0.36077000  0.25141000  1.0 0.1999447056
Cu  Cu14  1  0.03910000  0.38325000  0.77461000  1.0 0.2897510537
Cu  Cu15  1  0.21560000  0.23405000  0.18215000  1.0 0.1942830243
Cu  Cu16  1  0.24380000  0.28415000  0.26100000  1.0 0.1719352034
H  H1  1  0.42130000  0.80960000  0.89800000  1.0 0.1390345608
H  H2  1  0.61110000  0.10370000  0.66120000  1.0 0.1012981317
H  H3  1  0.97630000  0.96540000  0.79770000  1.0 0.1173868891
H  H4  1  0.50760000  0.20130000  0.87310000  1.0 0.1012981317
H  H5  1  0.42010000  0.15270000  0.13950000  1.0 0.0909797753
H  H6  1  0.88090000  0.98130000  0.86140000  1.0 0.1475714508
H  H7  1  0.49220000  0.12930000  0.92270000  1.0 0.1390345608
H  H8  1  0.10820000  0.08330000  0.84330000  1.0 0.1390345608
H  H9  1  0.56400000  0.95370000  0.12110000  1.0 0.1475714508
H  H10  1  0.00740000  0.81670000  0.87790000  1.0 0.1289100071
H  H11  1  0.89610000  0.16330000  0.84720000  1.0 0.1012981317
H  H12  1  0.75540000  0.82160000  0.78560000  1.0 0.1111292521
H  H13  1  0.15960000  0.15310000  0.62840000  1.0 0.1390345608
H  H14  1  0.21770000  0.12230000  0.78650000  1.0 0.1173868891
H  H15  1  0.03080000  0.75640000  0.82160000  1.0 0.1012981317
H  H16  1  0.74830000  0.13320000  0.15510000  1.0 0.1111292521
H  H17  1  0.47850000  0.00400000  0.87230000  1.0 0.1390345608
H  H18  1  0.64390000  0.83740000  0.84640000  1.0 0.1390345608
H  H19  1  0.23690000  0.16220000  0.69640000  1.0 0.1111292521
H  H20  1  0.44320000  0.75910000  0.83340000  1.0 0.1012981317
H  H21  1  0.57410000  0.04820000  0.81290000  1.0 0.1012981317
H  H22  1  0.82270000  0.08850000  0.09230000  1.0 0.1289100071
H  H23  1  0.92330000  0.80660000  0.05260000  1.0 0.1173868891
H  H24  1  0.00200000  0.78570000  0.01140000  1.0 0.1475714508
H  H25  1  0.91020000  0.74180000  0.03780000  1.0 0.1390345608
H  H26  1  0.15140000  0.07940000  0.30800000  1.0 0.1572185316
H  H27  1  0.12420000  0.13540000  0.28080000  1.0 0.1475714508
H  H28  1  0.27790000  0.12100000  0.29670000  1.0 0.1572185316
H  H29  1  0.52820000  0.08000000  0.59400000  1.0 0.1390345608
H  H30  1  0.01490000  0.17720000  0.11830000  1.0 0.1012981317
H  H31  1  0.77450000  0.85800000  0.07690000  1.0 0.1475714508
H  H32  1  0.71290000  0.79510000  0.08220000  1.0 0.1390345608
H  H33  1  0.61020000  0.84870000  0.08120000  1.0 0.1719352034
H  H34  1  0.69070000  0.78280000  0.94630000  1.0 0.1390345608
H  H35  1  0.82650000  0.74450000  0.95300000  1.0 0.1475714508
H  H36  1  0.84190000  0.81050000  0.94140000  1.0 0.1390345608
H  H37  1  0.91220000  0.02180000  0.24020000  1.0 0.1289100071
H  H38  1  0.90060000  0.08370000  0.21950000  1.0 0.1289100071
H  H39  1  0.96160000  0.07670000  0.26570000  1.0 0.1173868891
H  H40  1  0.49550000  0.00790000  0.18020000  1.0 0.1111292521
H  H41  1  0.90620000  0.09560000  0.89950000  1.0 0.1390345608
H  H42  1  0.22230000  0.01250000  0.17980000  1.0 0.1289100071
H  H43  1  0.10310000  0.05070000  0.15900000  1.0 0.1289100071
H  H44  1  0.06400000  0.99150000  0.18070000  1.0 0.1289100071
H  H45  1  0.01950000  0.12300000  0.05390000  1.0 0.1289100071
H  H46  1  0.44080000  0.09390000  0.08150000  1.0 0.1289100071
H  H47  1  0.07870000  0.19040000  0.39800000  1.0 0.1390345608
H  H48  1  0.88890000  0.89630000  0.16120000  1.0 0.1012981317
H  H49  1  0.52370000  0.03460000  0.29770000  1.0 0.1173868891
H  H50  1  0.99240000  0.79870000  0.37310000  1.0 0.1012981317
H  H51  1  0.07990000  0.84730000  0.63950000  1.0 0.0909797753
H  H52  1  0.61910000  0.01870000  0.36140000  1.0 0.1390345608
H  H53  1  0.00780000  0.87070000  0.42270000  1.0 0.1390345608
H  H54  1  0.39180000  0.91670000  0.34330000  1.0 0.1390345608
H  H55  1  0.93600000  0.04630000  0.62110000  1.0 0.1475714508
H  H56  1  0.49260000  0.18330000  0.37790000  1.0 0.1289100071
H  H57  1  0.60390000  0.83670000  0.34720000  1.0 0.1012981317
H  H58  1  0.74460000  0.17840000  0.28560000  1.0 0.1111292521
H  H59  1  0.34040000  0.84690000  0.12840000  1.0 0.1390345608
H  H60  1  0.28230000  0.87770000  0.28650000  1.0 0.1173868891
H  H61  1  0.46920000  0.24360000  0.32160000  1.0 0.1012981317
H  H62  1  0.75170000  0.86680000  0.65510000  1.0 0.1111292521
H  H63  1  0.02150000  0.99600000  0.37230000  1.0 0.1390345608
H  H64  1  0.85610000  0.16260000  0.34640000  1.0 0.1390345608
H  H65  1  0.26310000  0.83780000  0.19640000  1.0 0.1111292521
H  H66  1  0.05680000  0.24090000  0.33340000  1.0 0.1012981317
H  H67  1  0.92590000  0.95180000  0.31290000  1.0 0.1012981317
H  H68  1  0.67730000  0.91150000  0.59230000  1.0 0.1289100071
H  H69  1  0.57670000  0.19340000  0.55260000  1.0 0.1173868891
H  H70  1  0.49800000  0.21430000  0.51140000  1.0 0.1475714508
H  H71  1  0.58980000  0.25820000  0.53780000  1.0 0.1390345608
H  H72  1  0.34860000  0.92060000  0.80800000  1.0 0.1572185316
H  H73  1  0.37580000  0.86460000  0.78080000  1.0 0.1475714508
H  H74  1  0.22210000  0.87900000  0.79670000  1.0 0.1572185316
H  H75  1  0.97180000  0.92000000  0.09400000  1.0 0.1390345608
H  H76  1  0.48510000  0.82280000  0.61830000  1.0 0.1012981317
H  H77  1  0.72550000  0.14200000  0.57690000  1.0 0.1475714508
H  H78  1  0.78710000  0.20490000  0.58220000  1.0 0.1390345608
H  H79  1  0.88980000  0.15130000  0.58120000  1.0 0.1719352034
H  H80  1  0.80930000  0.21720000  0.44630000  1.0 0.1390345608
H  H81  1  0.67350000  0.25550000  0.45300000  1.0 0.1475714508
H  H82  1  0.65810000  0.18950000  0.44140000  1.0 0.1390345608
H  H83  1  0.58780000  0.97820000  0.74020000  1.0 0.1289100071
H  H84  1  0.59940000  0.91630000  0.71950000  1.0 0.1289100071
H  H85  1  0.53840000  0.92330000  0.76570000  1.0 0.1173868891
H  H86  1  0.00450000  0.99210000  0.68020000  1.0 0.1111292521
H  H87  1  0.59380000  0.90440000  0.39950000  1.0 0.1390345608
H  H88  1  0.27770000  0.98750000  0.67980000  1.0 0.1289100071
H  H89  1  0.39690000  0.94930000  0.65900000  1.0 0.1289100071
H  H90  1  0.43600000  0.00850000  0.68070000  1.0 0.1289100071
H  H91  1  0.48050000  0.87700000  0.55390000  1.0 0.1289100071
H  H92  1  0.05920000  0.90610000  0.58150000  1.0 0.1289100071
H  H93  1  0.57870000  0.30960000  0.60200000  1.0 0.1390345608
H  H94  1  0.38890000  0.60370000  0.83880000  1.0 0.1012981317
H  H95  1  0.02370000  0.46540000  0.70230000  1.0 0.1173868891
H  H96  1  0.49240000  0.70130000  0.62690000  1.0 0.1012981317
H  H97  1  0.57990000  0.65270000  0.36050000  1.0 0.0909797753
H  H98  1  0.11910000  0.48130000  0.63860000  1.0 0.1390345608
H  H99  1  0.50780000  0.62930000  0.57730000  1.0 0.1390345608
H  H100  1  0.89180000  0.58330000  0.65670000  1.0 0.1390345608
H  H101  1  0.43600000  0.45370000  0.37890000  1.0 0.1475714508
H  H102  1  0.99260000  0.31670000  0.62210000  1.0 0.1289100071
H  H103  1  0.10390000  0.66330000  0.65280000  1.0 0.1012981317
H  H104  1  0.24460000  0.32160000  0.71440000  1.0 0.1111292521
H  H105  1  0.84040000  0.65310000  0.87160000  1.0 0.1390345608
H  H106  1  0.78230000  0.62230000  0.71350000  1.0 0.1173868891
H  H107  1  0.96920000  0.25640000  0.67840000  1.0 0.1012981317
H  H108  1  0.25170000  0.63320000  0.34490000  1.0 0.1111292521
H  H109  1  0.52150000  0.50400000  0.62770000  1.0 0.1390345608
H  H110  1  0.35610000  0.33740000  0.65360000  1.0 0.1390345608
H  H111  1  0.76310000  0.66220000  0.80360000  1.0 0.1111292521
H  H112  1  0.55680000  0.25910000  0.66666667  1.0 0.1012981317
H  H113  1  0.42590000  0.54820000  0.68710000  1.0 0.1012981317
H  H114  1  0.17730000  0.58850000  0.40770000  1.0 0.1289100071
H  H115  1  0.07670000  0.30660000  0.44740000  1.0 0.1173868891
H  H116  1  0.99800000  0.28570000  0.48860000  1.0 0.1475714508
H  H117  1  0.08980000  0.24180000  0.46220000  1.0 0.1390345608
H  H118  1  0.84860000  0.57940000  0.19200000  1.0 0.1572185316
H  H119  1  0.87580000  0.63540000  0.21920000  1.0 0.1475714508
H  H120  1  0.72210000  0.62100000  0.20330000  1.0 0.1572185316
H  H121  1  0.47180000  0.58000000  0.90600000  1.0 0.1390345608
H  H122  1  0.98510000  0.67720000  0.38170000  1.0 0.1012981317
H  H123  1  0.22550000  0.35800000  0.42310000  1.0 0.1475714508
H  H124  1  0.28710000  0.29510000  0.41780000  1.0 0.1390345608
H  H125  1  0.38980000  0.34870000  0.41880000  1.0 0.1719352034
H  H126  1  0.30930000  0.28280000  0.55370000  1.0 0.1390345608
H  H127  1  0.17350000  0.24450000  0.54700000  1.0 0.1475714508
H  H128  1  0.15810000  0.31050000  0.55860000  1.0 0.1390345608
H  H129  1  0.08780000  0.52180000  0.25980000  1.0 0.1289100071
H  H130  1  0.09940000  0.58370000  0.28050000  1.0 0.1289100071
H  H131  1  0.03840000  0.57670000  0.23430000  1.0 0.1173868891
H  H132  1  0.50450000  0.50790000  0.31980000  1.0 0.1111292521
H  H133  1  0.09380000  0.59560000  0.60050000  1.0 0.1390345608
H  H134  1  0.77770000  0.51250000  0.32020000  1.0 0.1289100071
H  H135  1  0.89690000  0.55070000  0.34100000  1.0 0.1289100071
H  H136  1  0.93600000  0.49150000  0.31930000  1.0 0.1289100071
H  H137  1  0.98050000  0.62300000  0.44610000  1.0 0.1289100071
H  H138  1  0.55920000  0.59390000  0.41850000  1.0 0.1289100071
H  H139  1  0.92130000  0.69040000  0.10200000  1.0 0.1390345608
H  H140  1  0.11110000  0.39630000  0.33880000  1.0 0.1012981317
H  H141  1  0.47630000  0.53460000  0.20230000  1.0 0.1173868891
H  H142  1  0.00760000  0.29870000  0.12690000  1.0 0.1012981317
H  H143  1  0.92010000  0.34730000  0.86050000  1.0 0.0909797753
H  H144  1  0.38090000  0.51870000  0.13860000  1.0 0.1475714508
H  H145  1  0.99220000  0.37070000  0.07730000  1.0 0.1390345608
H  H146  1  0.60820000  0.41670000  0.15670000  1.0 0.1390345608
H  H147  1  0.06400000  0.54630000  0.87890000  1.0 0.1475714508
H  H148  1  0.50740000  0.68330000  0.12210000  1.0 0.1289100071
H  H149  1  0.39610000  0.33670000  0.15280000  1.0 0.1012981317
H  H150  1  0.25540000  0.67840000  0.21440000  1.0 0.1111292521
H  H151  1  0.65960000  0.34690000  0.37160000  1.0 0.1390345608
H  H152  1  0.71770000  0.37770000  0.21350000  1.0 0.1173868891
H  H153  1  0.53080000  0.74360000  0.17840000  1.0 0.1012981317
H  H154  1  0.24830000  0.36680000  0.84490000  1.0 0.1111292521
H  H155  1  0.97850000  0.49600000  0.12770000  1.0 0.1390345608
H  H156  1  0.14390000  0.66260000  0.15360000  1.0 0.1390345608
H  H157  1  0.73690000  0.33780000  0.30360000  1.0 0.1111292521
H  H158  1  0.94320000  0.74090000  0.16660000  1.0 0.1012981317
H  H159  1  0.07410000  0.45180000  0.18710000  1.0 0.1012981317
H  H160  1  0.32270000  0.41150000  0.90770000  1.0 0.1289100071
H  H161  1  0.42330000  0.69340000  0.94740000  1.0 0.1173868891
H  H162  1  0.50200000  0.71430000  0.98860000  1.0 0.1475714508
H  H163  1  0.41020000  0.75820000  0.96220000  1.0 0.1390345608
H  H164  1  0.65140000  0.42060000  0.69200000  1.0 0.1572185316
H  H165  1  0.62420000  0.36460000  0.71920000  1.0 0.1475714508
H  H166  1  0.77790000  0.37900000  0.70330000  1.0 0.1572185316
H  H167  1  0.02820000  0.42000000  0.40600000  1.0 0.1390345608
H  H168  1  0.51490000  0.32280000  0.88170000  1.0 0.1012981317
H  H169  1  0.27450000  0.64200000  0.92310000  1.0 0.1475714508
H  H170  1  0.21290000  0.70490000  0.91780000  1.0 0.1390345608
H  H171  1  0.11020000  0.65130000  0.91880000  1.0 0.1719352034
H  H172  1  0.19070000  0.71720000  0.05370000  1.0 0.1390345608
H  H173  1  0.32650000  0.75550000  0.04700000  1.0 0.1475714508
H  H174  1  0.34190000  0.68950000  0.05860000  1.0 0.1390345608
H  H175  1  0.41220000  0.47820000  0.75980000  1.0 0.1289100071
H  H176  1  0.40060000  0.41630000  0.78050000  1.0 0.1289100071
H  H177  1  0.46160000  0.42330000  0.73430000  1.0 0.1173868891
H  H178  1  0.99550000  0.49210000  0.81980000  1.0 0.1111292521
H  H179  1  0.40620000  0.40440000  0.10050000  1.0 0.1390345608
H  H180  1  0.72230000  0.48750000  0.82020000  1.0 0.1289100071
H  H181  1  0.60310000  0.44930000  0.84100000  1.0 0.1289100071
H  H182  1  0.56400000  0.50850000  0.81930000  1.0 0.1289100071
H  H183  1  0.51950000  0.37700000  0.94610000  1.0 0.1289100071
H  H184  1  0.94080000  0.40610000  0.91850000  1.0 0.1289100071
C  C1  1  0.24800000  0.05670000  0.02640000  1.0 0.6190747378
C  C2  1  0.34100000  0.80280000  0.88120000  1.0 -0.1584211319
C  C3  1  0.27000000  0.09580000  0.56000000  1.0 0.6119800367
C  C4  1  0.51600000  0.11130000  0.65500000  1.0 0.0429008611
C  C5  1  0.68400000  0.82700000  0.02080000  1.0 0.5410500922
C  C6  1  0.76000000  0.90790000  0.86660000  1.0 0.0317447064
C  C7  1  0.74400000  0.98620000  0.05760000  1.0 0.6190747378
C  C8  1  0.69800000  0.01660000  0.09680000  1.0 0.002801755
C  C9  1  0.19900000  0.85700000  0.93530000  1.0 0.6190747378
C  C10  1  0.91100000  0.93860000  0.80800000  1.0 0.0909797753
C  C11  1  0.20900000  0.82490000  0.89370000  1.0 0.0084813971
C  C12  1  0.21200000  0.00920000  0.90400000  1.0 0.6119800367
C  C13  1  0.58800000  0.17880000  0.87810000  1.0 0.0478963217
C  C14  1  0.69700000  0.05540000  0.95090000  1.0 0.6375453927
C  C15  1  0.69700000  0.10100000  0.91730000  1.0 0.002801755
C  C16  1  0.34000000  0.14610000  0.12300000  1.0 0.0909797753
C  C17  1  0.85600000  0.94770000  0.84680000  1.0 -0.1584211319
C  C18  1  0.57700000  0.13560000  0.90840000  1.0 -0.15042701
C  C19  1  0.20300000  0.07510000  0.83820000  1.0 -0.1419961016
C  C20  1  0.69900000  0.91510000  0.91070000  1.0 0.5847228327
C  C21  1  0.60100000  0.99060000  0.12570000  1.0 -0.1584211319
C  C22  1  0.09800000  0.80530000  0.87000000  1.0 -0.1584211319
C  C23  1  0.81500000  0.15750000  0.86360000  1.0 0.0683817621
C  C24  1  0.77900000  0.85460000  0.80110000  1.0 0.0187879228
C  C25  1  0.25000000  0.13950000  0.63500000  1.0 -0.15042701
C  C26  1  0.27100000  0.09950000  0.80490000  1.0 0.0084813971
C  C27  1  0.11200000  0.76990000  0.83510000  1.0 0.083538304
C  C28  1  0.27900000  0.03690000  0.86540000  1.0 0.0187879228
C  C29  1  0.71000000  0.09740000  0.14760000  1.0 0.0187879228
C  C30  1  0.42200000  0.02820000  0.85550000  1.0 -0.1584211319
C  C31  1  0.71700000  0.86220000  0.83830000  1.0 -0.15042701
C  C32  1  0.29900000  0.14760000  0.67590000  1.0 0.0478963217
C  C33  1  0.35400000  0.77010000  0.84300000  1.0 0.0683817621
C  C34  1  0.48000000  0.05680000  0.81970000  1.0 0.1012981317
C  C35  1  0.21900000  0.06930000  0.24480000  1.0 0.5410500922
C  C36  1  0.75500000  0.07040000  0.10930000  1.0 -0.15042701
C  C37  1  0.91800000  0.78130000  0.02830000  1.0 -0.3594104713
C  C38  1  0.19000000  0.10470000  0.28660000  1.0 -0.5795578352
C  C39  1  0.46900000  0.09790000  0.61380000  1.0 -0.15042701
C  C40  1  0.10000000  0.16100000  0.10950000  1.0 0.0187879228
C  C41  1  0.69700000  0.83280000  0.06990000  1.0 -0.5795578352
C  C42  1  0.78600000  0.78250000  0.95680000  1.0 -0.3228360779
C  C43  1  0.32500000  0.11320000  0.60350000  1.0 0.0084813971
C  C44  1  0.95600000  0.05900000  0.23800000  1.0 -0.3594104713
C  C45  1  0.56400000  0.02400000  0.16230000  1.0 0.0909797753
C  C46  1  0.82100000  0.11490000  0.89410000  1.0 -0.15042701
C  C47  1  0.12500000  0.02500000  0.18200000  1.0 -0.2611800871
C  C48  1  0.23700000  0.09390000  0.06360000  1.0 -0.0270655966
C  C49  1  0.09800000  0.12590000  0.07170000  1.0 -0.1419961016
C  C50  1  0.35200000  0.10900000  0.08830000  1.0 -0.15042701
C  C51  1  0.25200000  0.94330000  0.52640000  1.0 0.6190747378
C  C52  1  0.15900000  0.19720000  0.38120000  1.0 -0.1584211319
C  C53  1  0.23000000  0.90420000  0.06000000  1.0 0.6119800367
C  C54  1  0.98400000  0.88870000  0.15500000  1.0 0.0429008611
C  C55  1  0.81600000  0.17300000  0.52080000  1.0 0.5410500922
C  C56  1  0.74000000  0.09210000  0.36660000  1.0 0.0317447064
C  C57  1  0.75600000  0.01380000  0.55760000  1.0 0.6190747378
C  C58  1  0.80200000  0.98340000  0.59680000  1.0 0.002801755
C  C59  1  0.30100000  0.14300000  0.43530000  1.0 0.6190747378
C  C60  1  0.58900000  0.06140000  0.30800000  1.0 0.0909797753
C  C61  1  0.29100000  0.17510000  0.39370000  1.0 0.0084813971
C  C62  1  0.28800000  0.99080000  0.40400000  1.0 0.6119800367
C  C63  1  0.91200000  0.82120000  0.37810000  1.0 0.0478963217
C  C64  1  0.80300000  0.94460000  0.45090000  1.0 0.6375453927
C  C65  1  0.80300000  0.89900000  0.41730000  1.0 0.002801755
C  C66  1  0.16000000  0.85390000  0.62300000  1.0 0.0909797753
C  C67  1  0.64400000  0.05230000  0.34680000  1.0 -0.1584211319
C  C68  1  0.92300000  0.86440000  0.40840000  1.0 -0.15042701
C  C69  1  0.29700000  0.92490000  0.33820000  1.0 -0.1419961016
C  C70  1  0.80100000  0.08490000  0.41070000  1.0 0.5847228327
C  C71  1  0.89900000  0.00940000  0.62570000  1.0 -0.1584211319
C  C72  1  0.40200000  0.19470000  0.37000000  1.0 -0.1584211319
C  C73  1  0.68500000  0.84250000  0.36360000  1.0 0.0683817621
C  C74  1  0.72100000  0.14540000  0.30110000  1.0 0.0187879228
C  C75  1  0.25000000  0.86050000  0.13500000  1.0 -0.15042701
C  C76  1  0.22900000  0.90050000  0.30490000  1.0 0.0084813971
C  C77  1  0.38800000  0.23010000  0.33510000  1.0 0.083538304
C  C78  1  0.22100000  0.96310000  0.36540000  1.0 0.0187879228
C  C79  1  0.79000000  0.90260000  0.64760000  1.0 0.0187879228
C  C80  1  0.07800000  0.97180000  0.35550000  1.0 -0.1584211319
C  C81  1  0.78300000  0.13780000  0.33830000  1.0 -0.15042701
C  C82  1  0.20100000  0.85240000  0.17590000  1.0 0.0478963217
C  C83  1  0.14600000  0.22990000  0.34300000  1.0 0.0683817621
C  C84  1  0.02000000  0.94320000  0.31970000  1.0 0.1012981317
C  C85  1  0.28100000  0.93070000  0.74480000  1.0 0.5410500922
C  C86  1  0.74500000  0.92960000  0.60930000  1.0 -0.15042701
C  C87  1  0.58200000  0.21870000  0.52830000  1.0 -0.3594104713
C  C88  1  0.31000000  0.89530000  0.78660000  1.0 -0.5795578352
C  C89  1  0.03100000  0.90210000  0.11380000  1.0 -0.15042701
C  C90  1  0.40000000  0.83900000  0.60950000  1.0 0.0187879228
C  C91  1  0.80300000  0.16720000  0.56990000  1.0 -0.5795578352
C  C92  1  0.71400000  0.21750000  0.45680000  1.0 -0.3228360779
C  C93  1  0.17500000  0.88680000  0.10350000  1.0 0.0084813971
C  C94  1  0.54400000  0.94100000  0.73800000  1.0 -0.3594104713
C  C95  1  0.93600000  0.97600000  0.66230000  1.0 0.0909797753
C  C96  1  0.67900000  0.88510000  0.39410000  1.0 -0.15042701
C  C97  1  0.37500000  0.97500000  0.68200000  1.0 -0.2611800871
C  C98  1  0.26300000  0.90610000  0.56360000  1.0 -0.0270655966
C  C99  1  0.40200000  0.87410000  0.57170000  1.0 -0.1419961016
C  C100  1  0.14800000  0.89100000  0.58830000  1.0 -0.15042701
C  C101  1  0.75200000  0.55670000  0.47360000  1.0 0.6190747378
C  C102  1  0.65900000  0.30280000  0.61880000  1.0 -0.1584211319
C  C103  1  0.73000000  0.59580000  0.94000000  1.0 0.6119800367
C  C104  1  0.48400000  0.61130000  0.84500000  1.0 0.0429008611
C  C105  1  0.31600000  0.32700000  0.47920000  1.0 0.5410500922
C  C106  1  0.24000000  0.40790000  0.63340000  1.0 0.0317447064
C  C107  1  0.25600000  0.48620000  0.44240000  1.0 0.6190747378
C  C108  1  0.30200000  0.51660000  0.40320000  1.0 0.002801755
C  C109  1  0.80100000  0.35700000  0.56470000  1.0 0.6190747378
C  C110  1  0.08900000  0.43860000  0.69200000  1.0 0.0909797753
C  C111  1  0.79100000  0.32490000  0.60630000  1.0 0.0084813971
C  C112  1  0.78800000  0.50920000  0.59600000  1.0 0.6119800367
C  C113  1  0.41200000  0.67880000  0.62190000  1.0 0.0478963217
C  C114  1  0.30300000  0.55540000  0.54910000  1.0 0.6375453927
C  C115  1  0.30300000  0.60100000  0.58270000  1.0 0.002801755
C  C116  1  0.66000000  0.64610000  0.37700000  1.0 0.0909797753
C  C117  1  0.14400000  0.44770000  0.65320000  1.0 -0.1584211319
C  C118  1  0.42300000  0.63560000  0.59160000  1.0 -0.15042701
C  C119  1  0.79700000  0.57510000  0.66180000  1.0 -0.1419961016
C  C120  1  0.30100000  0.41510000  0.58930000  1.0 0.5847228327
C  C121  1  0.39900000  0.49060000  0.37430000  1.0 -0.1584211319
C  C122  1  0.90200000  0.30530000  0.63000000  1.0 -0.1584211319
C  C123  1  0.18500000  0.65750000  0.63640000  1.0 0.0683817621
C  C124  1  0.22100000  0.35460000  0.69890000  1.0 0.0187879228
C  C125  1  0.75000000  0.63950000  0.86500000  1.0 -0.15042701
C  C126  1  0.72900000  0.59950000  0.69510000  1.0 0.0084813971
C  C127  1  0.88800000  0.26990000  0.66490000  1.0 0.083538304
C  C128  1  0.72100000  0.53690000  0.63460000  1.0 0.0187879228
C  C129  1  0.29000000  0.59740000  0.35240000  1.0 0.0187879228
C  C130  1  0.57800000  0.52820000  0.64450000  1.0 -0.1584211319
C  C131  1  0.28300000  0.36220000  0.66170000  1.0 -0.15042701
C  C132  1  0.70100000  0.64760000  0.82410000  1.0 0.0478963217
C  C133  1  0.64600000  0.27010000  0.65700000  1.0 0.0683817621
C  C134  1  0.52000000  0.55680000  0.68030000  1.0 0.1012981317
C  C135  1  0.78100000  0.56930000  0.25520000  1.0 0.5410500922
C  C136  1  0.24500000  0.57040000  0.39070000  1.0 -0.15042701
C  C137  1  0.08200000  0.28130000  0.47170000  1.0 -0.3594104713
C  C138  1  0.81000000  0.60470000  0.21340000  1.0 -0.5795578352
C  C139  1  0.53100000  0.59790000  0.88620000  1.0 -0.15042701
C  C140  1  0.90000000  0.66100000  0.39050000  1.0 0.0187879228
C  C141  1  0.30300000  0.33280000  0.43010000  1.0 -0.5795578352
C  C142  1  0.21400000  0.28250000  0.54320000  1.0 -0.3228360779
C  C143  1  0.67500000  0.61320000  0.89650000  1.0 0.0084813971
C  C144  1  0.04400000  0.55900000  0.26200000  1.0 -0.3594104713
C  C145  1  0.43600000  0.52400000  0.33770000  1.0 0.0909797753
C  C146  1  0.17900000  0.61490000  0.60590000  1.0 -0.15042701
C  C147  1  0.87500000  0.52500000  0.31800000  1.0 -0.2611800871
C  C148  1  0.76300000  0.59390000  0.43640000  1.0 -0.0270655966
C  C149  1  0.90200000  0.62590000  0.42830000  1.0 -0.1419961016
C  C150  1  0.64800000  0.60900000  0.41170000  1.0 -0.15042701
C  C151  1  0.74800000  0.44330000  0.97360000  1.0 0.6190747378
C  C152  1  0.84100000  0.69720000  0.11880000  1.0 -0.1584211319
C  C153  1  0.77000000  0.40420000  0.44000000  1.0 0.6119800367
C  C154  1  0.01600000  0.38870000  0.34500000  1.0 0.0429008611
C  C155  1  0.18400000  0.67300000  0.97920000  1.0 0.5410500922
C  C156  1  0.26000000  0.59210000  0.13340000  1.0 0.0317447064
C  C157  1  0.24400000  0.51380000  0.94240000  1.0 0.6190747378
C  C158  1  0.19800000  0.48340000  0.90320000  1.0 0.002801755
C  C159  1  0.69900000  0.64300000  0.06470000  1.0 0.6190747378
C  C160  1  0.41100000  0.56140000  0.19200000  1.0 0.0909797753
C  C161  1  0.70900000  0.67510000  0.10630000  1.0 0.0084813971
C  C162  1  0.71200000  0.49080000  0.09600000  1.0 0.6119800367
C  C163  1  0.08800000  0.32120000  0.12190000  1.0 0.0478963217
C  C164  1  0.19700000  0.44460000  0.04910000  1.0 0.6375453927
C  C165  1  0.19700000  0.39900000  0.08270000  1.0 0.002801755
C  C166  1  0.84000000  0.35390000  0.87700000  1.0 0.0909797753
C  C167  1  0.35600000  0.55230000  0.15320000  1.0 -0.1584211319
C  C168  1  0.07700000  0.36440000  0.09160000  1.0 -0.15042701
C  C169  1  0.70300000  0.42490000  0.16180000  1.0 -0.1419961016
C  C170  1  0.19900000  0.58490000  0.08930000  1.0 0.5847228327
C  C171  1  0.10100000  0.50940000  0.87430000  1.0 -0.1584211319
C  C172  1  0.59800000  0.69470000  0.13000000  1.0 -0.1584211319
C  C173  1  0.31500000  0.34250000  0.13640000  1.0 0.0683817621
C  C174  1  0.27900000  0.64540000  0.19890000  1.0 0.0187879228
C  C175  1  0.75000000  0.36050000  0.36500000  1.0 -0.15042701
C  C176  1  0.77100000  0.40050000  0.19510000  1.0 0.0084813971
C  C177  1  0.61200000  0.73010000  0.16490000  1.0 0.083538304
C  C178  1  0.77900000  0.46310000  0.13460000  1.0 0.0187879228
C  C179  1  0.21000000  0.40260000  0.85240000  1.0 0.0187879228
C  C180  1  0.92200000  0.47180000  0.14450000  1.0 -0.1584211319
C  C181  1  0.21700000  0.63780000  0.16170000  1.0 -0.15042701
C  C182  1  0.79900000  0.35240000  0.32410000  1.0 0.0478963217
C  C183  1  0.85400000  0.72990000  0.15700000  1.0 0.0683817621
C  C184  1  0.98000000  0.44320000  0.18030000  1.0 0.1012981317
C  C185  1  0.71900000  0.43070000  0.75520000  1.0 0.5410500922
C  C186  1  0.25500000  0.42960000  0.89070000  1.0 -0.15042701
C  C187  1  0.41800000  0.71870000  0.97170000  1.0 -0.3594104713
C  C188  1  0.69000000  0.39530000  0.71340000  1.0 -0.5795578352
C  C189  1  0.96900000  0.40210000  0.38620000  1.0 -0.15042701
C  C190  1  0.60000000  0.33900000  0.89050000  1.0 0.0187879228
C  C191  1  0.19700000  0.66720000  0.93010000  1.0 -0.5795578352
C  C192  1  0.28600000  0.71750000  0.04320000  1.0 -0.3228360779
C  C193  1  0.82500000  0.38680000  0.39650000  1.0 0.0084813971
C  C194  1  0.45600000  0.44100000  0.76200000  1.0 -0.3594104713
C  C195  1  0.06400000  0.47600000  0.83770000  1.0 0.0909797753
C  C196  1  0.32100000  0.38510000  0.10590000  1.0 -0.15042701
C  C197  1  0.62500000  0.47500000  0.81800000  1.0 -0.2611800871
C  C198  1  0.73700000  0.40610000  0.93640000  1.0 -0.0270655966
C  C199  1  0.59800000  0.37410000  0.92830000  1.0 -0.1419961016
C  C200  1  0.85200000  0.39100000  0.91170000  1.0 -0.15042701
I  I1  1  0.48588000  0.25460000  0.76994000  1.0 -0.375464677
I  I2  1  0.97280000  0.27070000  0.78184000  1.0 -0.3960694811
I  I3  1  0.79040000  0.10509000  0.74580000  1.0 -0.4363310627
I  I4  1  0.01412000  0.74540000  0.26994000  1.0 -0.375464677
I  I5  1  0.52720000  0.72930000  0.28184000  1.0 -0.3960694811
I  I6  1  0.70960000  0.89491000  0.24580000  1.0 -0.4363310627
I  I7  1  0.51412000  0.75460000  0.73006000  1.0 -0.3737810395
I  I8  1  0.02720000  0.77070000  0.71816000  1.0 -0.3960694811
I  I9  1  0.20960000  0.60509000  0.75420000  1.0 -0.4363310627
I  I10  1  0.98588000  0.24540000  0.23006000  1.0 -0.3737810395
I  I11  1  0.47280000  0.22930000  0.21816000  1.0 -0.3960694811
I  I12  1  0.29040000  0.39491000  0.25420000  1.0 -0.4363310627
N  N1  1  0.70500000  0.19120000  0.85510000  1.0 -0.1872286788
N  N2  1  0.23700000  0.75450000  0.82030000  1.0 -0.1722781669
N  N3  1  0.41700000  0.09310000  0.79590000  1.0 -0.1722781669
N  N4  1  0.22100000  0.17270000  0.13410000  1.0 -0.1833159841
N  N5  1  0.43600000  0.13460000  0.68710000  1.0 -0.1981372303
N  N6  1  0.61300000  0.07300000  0.17340000  1.0 -0.15042701
N  N7  1  0.87800000  0.89380000  0.78340000  1.0 -0.2069797582
N  N8  1  0.78700000  0.79710000  0.00150000  1.0 0.002801755
N  N9  1  0.10600000  0.05270000  0.21960000  1.0 -0.0011293109
N  N10  1  0.79500000  0.80880000  0.35510000  1.0 -0.1872286788
N  N11  1  0.26300000  0.24550000  0.32030000  1.0 -0.1722781669
N  N12  1  0.08300000  0.90690000  0.29590000  1.0 -0.1722781669
N  N13  1  0.27900000  0.82730000  0.63410000  1.0 -0.1833159841
N  N14  1  0.06400000  0.86540000  0.18710000  1.0 -0.1981372303
N  N15  1  0.88700000  0.92700000  0.67340000  1.0 -0.15042701
N  N16  1  0.62200000  0.10620000  0.28340000  1.0 -0.2069797582
N  N17  1  0.71300000  0.20290000  0.50150000  1.0 0.002801755
N  N18  1  0.39400000  0.94730000  0.71960000  1.0 -0.0011293109
N  N19  1  0.29500000  0.69120000  0.64490000  1.0 -0.1872286788
N  N20  1  0.76300000  0.25450000  0.67970000  1.0 -0.1722781669
N  N21  1  0.58300000  0.59310000  0.70410000  1.0 -0.1722781669
N  N22  1  0.77900000  0.67270000  0.36590000  1.0 -0.1833159841
N  N23  1  0.56400000  0.63460000  0.81290000  1.0 -0.1981372303
N  N24  1  0.38700000  0.57300000  0.32660000  1.0 -0.15042701
N  N25  1  0.12200000  0.39380000  0.71660000  1.0 -0.2069797582
N  N26  1  0.21300000  0.29710000  0.49850000  1.0 0.002801755
N  N27  1  0.89400000  0.55270000  0.28040000  1.0 -0.0011293109
N  N28  1  0.20500000  0.30880000  0.14490000  1.0 -0.1872286788
N  N29  1  0.73700000  0.74550000  0.17970000  1.0 -0.1722781669
N  N30  1  0.91700000  0.40690000  0.20410000  1.0 -0.1722781669
N  N31  1  0.72100000  0.32730000  0.86590000  1.0 -0.1833159841
N  N32  1  0.93600000  0.36540000  0.31290000  1.0 -0.1981372303
N  N33  1  0.11300000  0.42700000  0.82660000  1.0 -0.15042701
N  N34  1  0.37800000  0.60620000  0.21660000  1.0 -0.2069797582
N  N35  1  0.28700000  0.70290000  0.99850000  1.0 0.002801755
N  N36  1  0.60600000  0.44730000  0.78040000  1.0 -0.0011293109
O  O1  1  0.07790000  0.01910000  0.91040000  1.0 -0.6565123086
O  O2  1  0.30290000  0.86480000  0.95800000  1.0 -0.5868474982
O  O3  1  0.81800000  0.04620000  0.96640000  1.0 -0.620382636
O  O4  1  0.58700000  0.84560000  0.99890000  1.0 -0.5545410893
O  O5  1  0.13910000  0.09780000  0.55380000  1.0 -0.6008744902
O  O6  1  0.64670000  0.95880000  0.03760000  1.0 -0.651557024
O  O7  1  0.07500000  0.88140000  0.94200000  1.0 -0.6795897922
O  O8  1  0.35600000  0.02630000  0.02260000  1.0 -0.6008744902
O  O9  1  0.57630000  0.02980000  0.95750000  1.0 -0.6565123086
O  O10  1  0.28700000  0.98160000  0.93060000  1.0 -0.651557024
O  O11  1  0.57200000  0.91090000  0.91480000  1.0 -0.56051466
O  O12  1  0.36090000  0.07710000  0.53300000  1.0 -0.6795897922
O  O13  1  0.87500000  0.98840000  0.04670000  1.0 -0.651557024
O  O14  1  0.78790000  0.93000000  0.94010000  1.0 -0.6795897922
O  O15  1  0.34600000  0.06290000  0.23170000  1.0 -0.56051466
O  O16  1  0.13700000  0.04970000  0.00380000  1.0 -0.6259310982
O  O17  1  0.42210000  0.98090000  0.41040000  1.0 -0.6565123086
O  O18  1  0.19710000  0.13520000  0.45800000  1.0 -0.5868474982
O  O19  1  0.68200000  0.95380000  0.46640000  1.0 -0.620382636
O  O20  1  0.91300000  0.15440000  0.49890000  1.0 -0.5545410893
O  O21  1  0.36090000  0.90220000  0.05380000  1.0 -0.6008744902
O  O22  1  0.85330000  0.04120000  0.53760000  1.0 -0.651557024
O  O23  1  0.42500000  0.11860000  0.44200000  1.0 -0.6795897922
O  O24  1  0.14400000  0.97370000  0.52260000  1.0 -0.6008744902
O  O25  1  0.92370000  0.97020000  0.45750000  1.0 -0.6565123086
O  O26  1  0.21300000  0.01840000  0.43060000  1.0 -0.651557024
O  O27  1  0.92800000  0.08910000  0.41480000  1.0 -0.5545410893
O  O28  1  0.13910000  0.92290000  0.03300000  1.0 -0.6795897922
O  O29  1  0.62500000  0.01160000  0.54670000  1.0 -0.651557024
O  O30  1  0.71210000  0.07000000  0.44010000  1.0 -0.6795897922
O  O31  1  0.15400000  0.93710000  0.73170000  1.0 -0.56051466
O  O32  1  0.36300000  0.95030000  0.50380000  1.0 -0.6259310982
O  O33  1  0.92210000  0.51910000  0.58960000  1.0 -0.6565123086
O  O34  1  0.69710000  0.36480000  0.54200000  1.0 -0.5868474982
O  O35  1  0.18200000  0.54620000  0.53360000  1.0 -0.620382636
O  O36  1  0.41300000  0.34560000  0.50110000  1.0 -0.5545410893
O  O37  1  0.86090000  0.59780000  0.94620000  1.0 -0.6008744902
O  O38  1  0.35330000  0.45880000  0.46240000  1.0 -0.651557024
O  O39  1  0.92500000  0.38140000  0.55800000  1.0 -0.6795897922
O  O40  1  0.64400000  0.52630000  0.47740000  1.0 -0.6008744902
O  O41  1  0.42370000  0.52980000  0.54250000  1.0 -0.6565123086
O  O42  1  0.71300000  0.48160000  0.56940000  1.0 -0.651557024
O  O43  1  0.42800000  0.41090000  0.58520000  1.0 -0.56051466
O  O44  1  0.63910000  0.57710000  0.96700000  1.0 -0.6795897922
O  O45  1  0.12500000  0.48840000  0.45330000  1.0 -0.651557024
O  O46  1  0.21210000  0.43000000  0.55990000  1.0 -0.6795897922
O  O47  1  0.65400000  0.56290000  0.26830000  1.0 -0.56051466
O  O48  1  0.86300000  0.54970000  0.49620000  1.0 -0.6259310982
O  O49  1  0.57790000  0.48090000  0.08960000  1.0 -0.651557024
O  O50  1  0.80290000  0.63520000  0.04200000  1.0 -0.5868474982
O  O51  1  0.31800000  0.45380000  0.03360000  1.0 -0.620382636
O  O52  1  0.08700000  0.65440000  0.00110000  1.0 -0.5545410893
O  O53  1  0.63910000  0.40220000  0.44620000  1.0 -0.6008744902
O  O54  1  0.14670000  0.54120000  0.96240000  1.0 -0.651557024
O  O55  1  0.57500000  0.61860000  0.05800000  1.0 -0.6795897922
O  O56  1  0.85600000  0.47370000  0.97740000  1.0 -0.6008744902
O  O57  1  0.07630000  0.47020000  0.04250000  1.0 -0.6565123086
O  O58  1  0.78700000  0.51840000  0.06940000  1.0 -0.651557024
O  O59  1  0.07200000  0.58910000  0.08520000  1.0 -0.56051466
O  O60  1  0.86090000  0.42290000  0.46700000  1.0 -0.6795897922
O  O61  1  0.37500000  0.51160000  0.95330000  1.0 -0.651557024
O  O62  1  0.28790000  0.57000000  0.05990000  1.0 -0.6795897922
O  O63  1  0.84600000  0.43710000  0.76830000  1.0 -0.56051466
O  O64  1  0.63700000  0.45030000  0.99620000  1.0 -0.6259310982
