# DDEC6 charges by PACMAN v1.1 (https://github.com/mtap-research/PACMAN-charge/)
data_TEFWIL_FSR_pacman
_symmetry_space_group_name_H-M   'P 1'
_cell_length_a   26.90070000
_cell_length_b   26.90070000
_cell_length_c   26.90070000
_cell_angle_alpha   109.47100000
_cell_angle_beta   109.47100000
_cell_angle_gamma   109.47100000
_symmetry_Int_Tables_number   1
_chemical_formula_structural   InH4C10(NO2)4
_chemical_formula_sum   'In24 H96 C240 N96 O192'
_cell_volume   14985.54011033
_cell_formula_units_Z   24
loop_
 _symmetry_equiv_pos_site_id
 _symmetry_equiv_pos_as_xyz
  1  'x, y, z'
loop_
 _atom_site_type_symbol
 _atom_site_label
 _atom_site_symmetry_multiplicity
 _atom_site_fract_x
 _atom_site_fract_y
 _atom_site_fract_z
 _atom_site_occupancy
 _atom_site_charge
In  In1  1  0.64558000  0.35442000  0.50000000  1.0 1.1510836745
In  In2  1  0.50000000  0.64558000  0.35442000  1.0 1.1510836745
In  In3  1  0.35442000  0.50000000  0.64558000  1.0 1.1510836745
In  In4  1  0.85442000  0.14558000  0.50000000  1.0 1.1510836745
In  In5  1  0.14558000  0.64558000  0.29116000  1.0 1.1510836745
In  In6  1  0.35442000  0.85442000  0.70884000  1.0 1.1510836745
In  In7  1  0.85442000  0.70884000  0.35442000  1.0 1.1510836745
In  In8  1  0.64558000  0.29116000  0.14558000  1.0 1.1510836745
In  In9  1  0.14558000  0.50000000  0.85442000  1.0 1.1510836745
In  In10  1  0.29116000  0.14558000  0.64558000  1.0 1.1510836745
In  In11  1  0.70884000  0.35442000  0.85442000  1.0 1.1510836745
In  In12  1  0.50000000  0.85442000  0.14558000  1.0 1.1510836745
In  In13  1  0.35442000  0.64558000  0.50000000  1.0 1.1510836745
In  In14  1  0.50000000  0.35442000  0.64558000  1.0 1.1510836745
In  In15  1  0.64558000  0.50000000  0.35442000  1.0 1.1510836745
In  In16  1  0.14558000  0.85442000  0.50000000  1.0 1.1510836745
In  In17  1  0.85442000  0.35442000  0.70884000  1.0 1.1510836745
In  In18  1  0.64558000  0.14558000  0.29116000  1.0 1.1510836745
In  In19  1  0.14558000  0.29116000  0.64558000  1.0 1.1510836745
In  In20  1  0.35442000  0.70884000  0.85442000  1.0 1.1510836745
In  In21  1  0.85442000  0.50000000  0.14558000  1.0 1.1510836745
In  In22  1  0.70884000  0.85442000  0.35442000  1.0 1.1510836745
In  In23  1  0.29116000  0.64558000  0.14558000  1.0 1.1510836745
In  In24  1  0.50000000  0.14558000  0.85442000  1.0 1.1510836745
H  H1  1  0.40770000  0.24700000  0.40770000  1.0 0.3784142089
H  H2  1  0.40770000  0.40770000  0.24700000  1.0 0.3784142089
H  H3  1  0.24700000  0.40770000  0.40770000  1.0 0.3784142089
H  H4  1  0.00000000  0.16070000  0.40770000  1.0 0.3784142089
H  H5  1  0.00000000  0.40770000  0.16070000  1.0 0.3784142089
H  H6  1  0.24700000  0.83930000  0.83930000  1.0 0.3784142089
H  H7  1  0.83930000  0.83930000  0.24700000  1.0 0.3784142089
H  H8  1  0.40770000  0.16070000  0.00000000  1.0 0.3784142089
H  H9  1  0.16070000  0.40770000  0.00000000  1.0 0.3784142089
H  H10  1  0.16070000  0.00000000  0.40770000  1.0 0.3784142089
H  H11  1  0.83930000  0.24700000  0.83930000  1.0 0.3784142089
H  H12  1  0.40770000  0.00000000  0.16070000  1.0 0.3784142089
H  H13  1  0.83930000  0.00000000  0.59230000  1.0 0.3784142089
H  H14  1  0.16070000  0.75300000  0.16070000  1.0 0.3784142089
H  H15  1  0.59230000  0.00000000  0.83930000  1.0 0.3784142089
H  H16  1  0.59230000  0.83930000  0.00000000  1.0 0.3784142089
H  H17  1  0.16070000  0.16070000  0.75300000  1.0 0.3784142089
H  H18  1  0.83930000  0.59230000  0.00000000  1.0 0.3784142089
H  H19  1  0.00000000  0.59230000  0.83930000  1.0 0.3784142089
H  H20  1  0.75300000  0.16070000  0.16070000  1.0 0.3784142089
H  H21  1  0.00000000  0.83930000  0.59230000  1.0 0.3784142089
H  H22  1  0.75300000  0.59230000  0.59230000  1.0 0.3784142089
H  H23  1  0.59230000  0.59230000  0.75300000  1.0 0.3784142089
H  H24  1  0.59230000  0.75300000  0.59230000  1.0 0.3784142089
H  H25  1  0.62280000  0.40440000  0.62280000  1.0 0.1338116541
H  H26  1  0.62280000  0.62280000  0.40440000  1.0 0.1338116541
H  H27  1  0.40440000  0.62280000  0.62280000  1.0 0.1338116541
H  H28  1  0.00000000  0.21840000  0.62280000  1.0 0.1338116541
H  H29  1  0.00000000  0.62280000  0.21840000  1.0 0.1338116541
H  H30  1  0.40440000  0.78160000  0.78160000  1.0 0.1338116541
H  H31  1  0.78160000  0.78160000  0.40440000  1.0 0.1338116541
H  H32  1  0.62280000  0.21840000  0.00000000  1.0 0.1338116541
H  H33  1  0.21840000  0.62280000  0.00000000  1.0 0.1338116541
H  H34  1  0.21840000  0.00000000  0.62280000  1.0 0.1338116541
H  H35  1  0.78160000  0.40440000  0.78160000  1.0 0.1338116541
H  H36  1  0.62280000  0.00000000  0.21840000  1.0 0.1338116541
H  H37  1  0.78160000  0.00000000  0.37720000  1.0 0.1338116541
H  H38  1  0.21840000  0.59560000  0.21840000  1.0 0.1338116541
H  H39  1  0.37720000  0.00000000  0.78160000  1.0 0.1338116541
H  H40  1  0.37720000  0.78160000  0.00000000  1.0 0.1338116541
H  H41  1  0.21840000  0.21840000  0.59560000  1.0 0.1338116541
H  H42  1  0.78160000  0.37720000  0.00000000  1.0 0.1338116541
H  H43  1  0.00000000  0.37720000  0.78160000  1.0 0.1338116541
H  H44  1  0.59560000  0.21840000  0.21840000  1.0 0.1338116541
H  H45  1  0.00000000  0.78160000  0.37720000  1.0 0.1338116541
H  H46  1  0.59560000  0.37720000  0.37720000  1.0 0.1338116541
H  H47  1  0.37720000  0.37720000  0.59560000  1.0 0.1338116541
H  H48  1  0.37720000  0.59560000  0.37720000  1.0 0.1338116541
H  H49  1  0.81730000  0.37360000  0.44370000  1.0 0.344822895
H  H50  1  0.44370000  0.81730000  0.37360000  1.0 0.3451704497
H  H51  1  0.37360000  0.44370000  0.81730000  1.0 0.3451704497
H  H52  1  0.62640000  0.07010000  0.44370000  1.0 0.3451704497
H  H53  1  0.37360000  0.81730000  0.44370000  1.0 0.3451704497
H  H54  1  0.37360000  0.92990000  0.55630000  1.0 0.3451704497
H  H55  1  0.92990000  0.55630000  0.37360000  1.0 0.344822895
H  H56  1  0.81730000  0.44370000  0.37360000  1.0 0.344822895
H  H57  1  0.07010000  0.44370000  0.62640000  1.0 0.3451704497
H  H58  1  0.44370000  0.37360000  0.81730000  1.0 0.3451704497
H  H59  1  0.55630000  0.37360000  0.92990000  1.0 0.3451704497
H  H60  1  0.44370000  0.62640000  0.07010000  1.0 0.344822895
H  H61  1  0.92990000  0.37360000  0.55630000  1.0 0.344822895
H  H62  1  0.07010000  0.62640000  0.44370000  1.0 0.3451704497
H  H63  1  0.18270000  0.62640000  0.55630000  1.0 0.3451704497
H  H64  1  0.55630000  0.92990000  0.37360000  1.0 0.3451704497
H  H65  1  0.44370000  0.07010000  0.62640000  1.0 0.3451704497
H  H66  1  0.55630000  0.18270000  0.62640000  1.0 0.3451704497
H  H67  1  0.37360000  0.55630000  0.92990000  1.0 0.3451704497
H  H68  1  0.62640000  0.44370000  0.07010000  1.0 0.344822895
H  H69  1  0.62640000  0.55630000  0.18270000  1.0 0.3451704497
H  H70  1  0.62640000  0.18270000  0.55630000  1.0 0.3451704497
H  H71  1  0.18270000  0.55630000  0.62640000  1.0 0.3451704497
H  H72  1  0.55630000  0.62640000  0.18270000  1.0 0.3451704497
H  H73  1  0.58920000  0.21900000  0.37020000  1.0 0.1360939191
H  H74  1  0.37020000  0.58920000  0.21900000  1.0 0.1360939191
H  H75  1  0.21900000  0.37020000  0.58920000  1.0 0.1360939191
H  H76  1  0.78100000  0.15120000  0.37020000  1.0 0.1360939191
H  H77  1  0.21900000  0.58920000  0.37020000  1.0 0.1360939191
H  H78  1  0.21900000  0.84880000  0.62980000  1.0 0.1360939191
H  H79  1  0.84880000  0.62980000  0.21900000  1.0 0.1360939191
H  H80  1  0.58920000  0.37020000  0.21900000  1.0 0.1360939191
H  H81  1  0.15120000  0.37020000  0.78100000  1.0 0.1360939191
H  H82  1  0.37020000  0.21900000  0.58920000  1.0 0.1360939191
H  H83  1  0.62980000  0.21900000  0.84880000  1.0 0.1360939191
H  H84  1  0.37020000  0.78100000  0.15120000  1.0 0.1360939191
H  H85  1  0.84880000  0.21900000  0.62980000  1.0 0.1360939191
H  H86  1  0.15120000  0.78100000  0.37020000  1.0 0.1360939191
H  H87  1  0.41080000  0.78100000  0.62980000  1.0 0.1360939191
H  H88  1  0.62980000  0.84880000  0.21900000  1.0 0.1360939191
H  H89  1  0.37020000  0.15120000  0.78100000  1.0 0.1360939191
H  H90  1  0.62980000  0.41080000  0.78100000  1.0 0.1360939191
H  H91  1  0.21900000  0.62980000  0.84880000  1.0 0.1360939191
H  H92  1  0.78100000  0.37020000  0.15120000  1.0 0.1360939191
H  H93  1  0.78100000  0.62980000  0.41080000  1.0 0.1360939191
H  H94  1  0.78100000  0.41080000  0.62980000  1.0 0.1360939191
H  H95  1  0.41080000  0.62980000  0.78100000  1.0 0.1360939191
H  H96  1  0.62980000  0.78100000  0.41080000  1.0 0.1360939191
C  C1  1  0.50430000  0.29110000  0.42320000  1.0 0.5630901881
C  C2  1  0.42320000  0.50430000  0.29110000  1.0 0.5630901881
C  C3  1  0.29110000  0.42320000  0.50430000  1.0 0.5630901881
C  C4  1  0.91890000  0.13210000  0.42320000  1.0 0.5630901881
C  C5  1  0.08110000  0.50430000  0.21320000  1.0 0.5630901881
C  C6  1  0.29110000  0.86790000  0.78680000  1.0 0.5630901881
C  C7  1  0.86790000  0.78680000  0.29110000  1.0 0.5630901881
C  C8  1  0.50430000  0.21320000  0.08110000  1.0 0.5630901881
C  C9  1  0.13210000  0.42320000  0.91890000  1.0 0.5630901881
C  C10  1  0.21320000  0.08110000  0.50430000  1.0 0.5630901881
C  C11  1  0.78680000  0.29110000  0.86790000  1.0 0.5630901881
C  C12  1  0.42320000  0.91890000  0.13210000  1.0 0.5630901881
C  C13  1  0.86790000  0.08110000  0.57680000  1.0 0.5630901881
C  C14  1  0.13210000  0.70890000  0.21320000  1.0 0.5630901881
C  C15  1  0.49570000  0.91890000  0.78680000  1.0 0.5630901881
C  C16  1  0.57680000  0.86790000  0.08110000  1.0 0.5630901881
C  C17  1  0.21320000  0.13210000  0.70890000  1.0 0.5630901881
C  C18  1  0.78680000  0.49570000  0.91890000  1.0 0.5630901881
C  C19  1  0.08110000  0.57680000  0.86790000  1.0 0.5630901881
C  C20  1  0.70890000  0.21320000  0.13210000  1.0 0.5630901881
C  C21  1  0.91890000  0.78680000  0.49570000  1.0 0.5630901881
C  C22  1  0.70890000  0.49570000  0.57680000  1.0 0.5630901881
C  C23  1  0.49570000  0.57680000  0.70890000  1.0 0.5630901881
C  C24  1  0.57680000  0.70890000  0.49570000  1.0 0.5630901881
C  C25  1  0.49570000  0.70890000  0.57680000  1.0 0.5630901881
C  C26  1  0.57680000  0.49570000  0.70890000  1.0 0.5630901881
C  C27  1  0.70890000  0.57680000  0.49570000  1.0 0.5630901881
C  C28  1  0.08110000  0.86790000  0.57680000  1.0 0.5630901881
C  C29  1  0.91890000  0.49570000  0.78680000  1.0 0.5630901881
C  C30  1  0.70890000  0.13210000  0.21320000  1.0 0.5630901881
C  C31  1  0.13210000  0.21320000  0.70890000  1.0 0.5630901881
C  C32  1  0.49570000  0.78680000  0.91890000  1.0 0.5630901881
C  C33  1  0.86790000  0.57680000  0.08110000  1.0 0.5630901881
C  C34  1  0.78680000  0.91890000  0.49570000  1.0 0.5630901881
C  C35  1  0.21320000  0.70890000  0.13210000  1.0 0.5630901881
C  C36  1  0.57680000  0.08110000  0.86790000  1.0 0.5630901881
C  C37  1  0.13210000  0.91890000  0.42320000  1.0 0.5630901881
C  C38  1  0.86790000  0.29110000  0.78680000  1.0 0.5630901881
C  C39  1  0.50430000  0.08110000  0.21320000  1.0 0.5630901881
C  C40  1  0.42320000  0.13210000  0.91890000  1.0 0.5630901881
C  C41  1  0.78680000  0.86790000  0.29110000  1.0 0.5630901881
C  C42  1  0.21320000  0.50430000  0.08110000  1.0 0.5630901881
C  C43  1  0.91890000  0.42320000  0.13210000  1.0 0.5630901881
C  C44  1  0.29110000  0.78680000  0.86790000  1.0 0.5630901881
C  C45  1  0.08110000  0.21320000  0.50430000  1.0 0.5630901881
C  C46  1  0.29110000  0.50430000  0.42320000  1.0 0.5630901881
C  C47  1  0.50430000  0.42320000  0.29110000  1.0 0.5630901881
C  C48  1  0.42320000  0.29110000  0.50430000  1.0 0.5630901881
C  C49  1  0.52450000  0.32340000  0.49110000  1.0 0.0407132594
C  C50  1  0.49110000  0.52450000  0.32340000  1.0 0.0407132594
C  C51  1  0.32340000  0.49110000  0.52450000  1.0 0.0407132594
C  C52  1  0.96660000  0.16770000  0.49110000  1.0 0.0407132594
C  C53  1  0.03340000  0.52450000  0.20110000  1.0 0.0407132594
C  C54  1  0.32340000  0.83230000  0.79890000  1.0 0.0407132594
C  C55  1  0.83230000  0.79890000  0.32340000  1.0 0.0407132594
C  C56  1  0.52450000  0.20110000  0.03340000  1.0 0.0407132594
C  C57  1  0.16770000  0.49110000  0.96660000  1.0 0.0407132594
C  C58  1  0.20110000  0.03340000  0.52450000  1.0 0.0407132594
C  C59  1  0.79890000  0.32340000  0.83230000  1.0 0.0407132594
C  C60  1  0.49110000  0.96660000  0.16770000  1.0 0.0407132594
C  C61  1  0.83230000  0.03340000  0.50890000  1.0 0.0407132594
C  C62  1  0.16770000  0.67660000  0.20110000  1.0 0.0407132594
C  C63  1  0.47550000  0.96660000  0.79890000  1.0 0.0407132594
C  C64  1  0.50890000  0.83230000  0.03340000  1.0 0.0407132594
C  C65  1  0.20110000  0.16770000  0.67660000  1.0 0.0407132594
C  C66  1  0.79890000  0.47550000  0.96660000  1.0 0.0407132594
C  C67  1  0.03340000  0.50890000  0.83230000  1.0 0.0407132594
C  C68  1  0.67660000  0.20110000  0.16770000  1.0 0.0407132594
C  C69  1  0.96660000  0.79890000  0.47550000  1.0 0.0407132594
C  C70  1  0.67660000  0.47550000  0.50890000  1.0 0.0407132594
C  C71  1  0.47550000  0.50890000  0.67660000  1.0 0.0407132594
C  C72  1  0.50890000  0.67660000  0.47550000  1.0 0.0407132594
C  C73  1  0.47550000  0.67660000  0.50890000  1.0 0.0407132594
C  C74  1  0.50890000  0.47550000  0.67660000  1.0 0.0407132594
C  C75  1  0.67660000  0.50890000  0.47550000  1.0 0.0407132594
C  C76  1  0.03340000  0.83230000  0.50890000  1.0 0.0407132594
C  C77  1  0.96660000  0.47550000  0.79890000  1.0 0.0407132594
C  C78  1  0.67660000  0.16770000  0.20110000  1.0 0.0407132594
C  C79  1  0.16770000  0.20110000  0.67660000  1.0 0.0407132594
C  C80  1  0.47550000  0.79890000  0.96660000  1.0 0.0407132594
C  C81  1  0.83230000  0.50890000  0.03340000  1.0 0.0407132594
C  C82  1  0.79890000  0.96660000  0.47550000  1.0 0.0407132594
C  C83  1  0.20110000  0.67660000  0.16770000  1.0 0.0407132594
C  C84  1  0.50890000  0.03340000  0.83230000  1.0 0.0407132594
C  C85  1  0.16770000  0.96660000  0.49110000  1.0 0.0407132594
C  C86  1  0.83230000  0.32340000  0.79890000  1.0 0.0407132594
C  C87  1  0.52450000  0.03340000  0.20110000  1.0 0.0407132594
C  C88  1  0.49110000  0.16770000  0.96660000  1.0 0.0407132594
C  C89  1  0.79890000  0.83230000  0.32340000  1.0 0.0407132594
C  C90  1  0.20110000  0.52450000  0.03340000  1.0 0.0407132594
C  C91  1  0.96660000  0.49110000  0.16770000  1.0 0.0407132594
C  C92  1  0.32340000  0.79890000  0.83230000  1.0 0.0407132594
C  C93  1  0.03340000  0.20110000  0.52450000  1.0 0.0407132594
C  C94  1  0.32340000  0.52450000  0.49110000  1.0 0.0407132594
C  C95  1  0.52450000  0.49110000  0.32340000  1.0 0.0407132594
C  C96  1  0.49110000  0.32340000  0.52450000  1.0 0.0407132594
C  C97  1  0.58530000  0.37760000  0.58530000  1.0 0.2263121036
C  C98  1  0.58530000  0.58530000  0.37760000  1.0 0.2263121036
C  C99  1  0.37760000  0.58530000  0.58530000  1.0 0.2263121036
C  C100  1  0.00000000  0.20770000  0.58530000  1.0 0.2263121036
C  C101  1  0.00000000  0.58530000  0.20770000  1.0 0.2263121036
C  C102  1  0.37760000  0.79230000  0.79230000  1.0 0.2263121036
C  C103  1  0.79230000  0.79230000  0.37760000  1.0 0.2263121036
C  C104  1  0.58530000  0.20770000  0.00000000  1.0 0.2263121036
C  C105  1  0.20770000  0.58530000  0.00000000  1.0 0.2263121036
C  C106  1  0.20770000  0.00000000  0.58530000  1.0 0.2263121036
C  C107  1  0.79230000  0.37760000  0.79230000  1.0 0.2263121036
C  C108  1  0.58530000  0.00000000  0.20770000  1.0 0.2263121036
C  C109  1  0.79230000  0.00000000  0.41470000  1.0 0.2263121036
C  C110  1  0.20770000  0.62240000  0.20770000  1.0 0.2263121036
C  C111  1  0.41470000  0.00000000  0.79230000  1.0 0.2263121036
C  C112  1  0.41470000  0.79230000  0.00000000  1.0 0.2263121036
C  C113  1  0.20770000  0.20770000  0.62240000  1.0 0.2263121036
C  C114  1  0.79230000  0.41470000  0.00000000  1.0 0.2263121036
C  C115  1  0.00000000  0.41470000  0.79230000  1.0 0.2263121036
C  C116  1  0.62240000  0.20770000  0.20770000  1.0 0.2263121036
C  C117  1  0.00000000  0.79230000  0.41470000  1.0 0.2263121036
C  C118  1  0.62240000  0.41470000  0.41470000  1.0 0.2263121036
C  C119  1  0.41470000  0.41470000  0.62240000  1.0 0.2263121036
C  C120  1  0.41470000  0.62240000  0.41470000  1.0 0.2263121036
C  C121  1  0.76490000  0.38870000  0.48660000  1.0 0.5728482308
C  C122  1  0.48660000  0.76490000  0.38870000  1.0 0.5728482308
C  C123  1  0.38870000  0.48660000  0.76490000  1.0 0.5728482308
C  C124  1  0.72170000  0.09790000  0.48660000  1.0 0.5728482308
C  C125  1  0.27830000  0.76490000  0.37620000  1.0 0.5728482308
C  C126  1  0.38870000  0.90210000  0.62380000  1.0 0.5728482308
C  C127  1  0.90210000  0.62380000  0.38870000  1.0 0.5728482308
C  C128  1  0.76490000  0.37620000  0.27830000  1.0 0.5728482308
C  C129  1  0.09790000  0.48660000  0.72170000  1.0 0.5728482308
C  C130  1  0.37620000  0.27830000  0.76490000  1.0 0.5728482308
C  C131  1  0.62380000  0.38870000  0.90210000  1.0 0.5728482308
C  C132  1  0.48660000  0.72170000  0.09790000  1.0 0.5728482308
C  C133  1  0.90210000  0.27830000  0.51340000  1.0 0.5728482308
C  C134  1  0.09790000  0.61130000  0.37620000  1.0 0.5728482308
C  C135  1  0.23510000  0.72170000  0.62380000  1.0 0.5728482308
C  C136  1  0.51340000  0.90210000  0.27830000  1.0 0.5728482308
C  C137  1  0.37620000  0.09790000  0.61130000  1.0 0.5728482308
C  C138  1  0.62380000  0.23510000  0.72170000  1.0 0.5728482308
C  C139  1  0.27830000  0.51340000  0.90210000  1.0 0.5728482308
C  C140  1  0.61130000  0.37620000  0.09790000  1.0 0.5728482308
C  C141  1  0.72170000  0.62380000  0.23510000  1.0 0.5728482308
C  C142  1  0.61130000  0.23510000  0.51340000  1.0 0.5728482308
C  C143  1  0.23510000  0.51340000  0.61130000  1.0 0.5728482308
C  C144  1  0.51340000  0.61130000  0.23510000  1.0 0.5728482308
C  C145  1  0.23510000  0.61130000  0.51340000  1.0 0.5728482308
C  C146  1  0.51340000  0.23510000  0.61130000  1.0 0.5728482308
C  C147  1  0.61130000  0.51340000  0.23510000  1.0 0.5728482308
C  C148  1  0.27830000  0.90210000  0.51340000  1.0 0.5728482308
C  C149  1  0.72170000  0.23510000  0.62380000  1.0 0.5728482308
C  C150  1  0.61130000  0.09790000  0.37620000  1.0 0.5728482308
C  C151  1  0.09790000  0.37620000  0.61130000  1.0 0.5728482308
C  C152  1  0.23510000  0.62380000  0.72170000  1.0 0.5728482308
C  C153  1  0.90210000  0.51340000  0.27830000  1.0 0.5728482308
C  C154  1  0.62380000  0.72170000  0.23510000  1.0 0.5728482308
C  C155  1  0.37620000  0.61130000  0.09790000  1.0 0.5728482308
C  C156  1  0.51340000  0.27830000  0.90210000  1.0 0.5728482308
C  C157  1  0.09790000  0.72170000  0.48660000  1.0 0.5728482308
C  C158  1  0.90210000  0.38870000  0.62380000  1.0 0.5728482308
C  C159  1  0.76490000  0.27830000  0.37620000  1.0 0.5728482308
C  C160  1  0.48660000  0.09790000  0.72170000  1.0 0.5728482308
C  C161  1  0.62380000  0.90210000  0.38870000  1.0 0.5728482308
C  C162  1  0.37620000  0.76490000  0.27830000  1.0 0.5728482308
C  C163  1  0.72170000  0.48660000  0.09790000  1.0 0.5728482308
C  C164  1  0.38870000  0.62380000  0.90210000  1.0 0.5728482308
C  C165  1  0.27830000  0.37620000  0.76490000  1.0 0.5728482308
C  C166  1  0.38870000  0.76490000  0.48660000  1.0 0.5728482308
C  C167  1  0.76490000  0.48660000  0.38870000  1.0 0.5728482308
C  C168  1  0.48660000  0.38870000  0.76490000  1.0 0.5728482308
C  C169  1  0.71700000  0.32450000  0.43530000  1.0 -0.0094874732
C  C170  1  0.43530000  0.71700000  0.32450000  1.0 -0.0094874732
C  C171  1  0.32450000  0.43530000  0.71700000  1.0 -0.0094874732
C  C172  1  0.71830000  0.11080000  0.43530000  1.0 -0.0094874732
C  C173  1  0.28170000  0.71700000  0.39250000  1.0 -0.0094874732
C  C174  1  0.32450000  0.88920000  0.60750000  1.0 -0.0094874732
C  C175  1  0.88920000  0.60750000  0.32450000  1.0 -0.0094874732
C  C176  1  0.71700000  0.39250000  0.28170000  1.0 -0.0094874732
C  C177  1  0.11080000  0.43530000  0.71830000  1.0 -0.0094874732
C  C178  1  0.39250000  0.28170000  0.71700000  1.0 -0.0094874732
C  C179  1  0.60750000  0.32450000  0.88920000  1.0 -0.0094874732
C  C180  1  0.43530000  0.71830000  0.11080000  1.0 -0.0094874732
C  C181  1  0.88920000  0.28170000  0.56470000  1.0 -0.0094874732
C  C182  1  0.11080000  0.67550000  0.39250000  1.0 -0.0094874732
C  C183  1  0.28300000  0.71830000  0.60750000  1.0 -0.0094874732
C  C184  1  0.56470000  0.88920000  0.28170000  1.0 -0.0094874732
C  C185  1  0.39250000  0.11080000  0.67550000  1.0 -0.0094874732
C  C186  1  0.60750000  0.28300000  0.71830000  1.0 -0.0094874732
C  C187  1  0.28170000  0.56470000  0.88920000  1.0 -0.0094874732
C  C188  1  0.67550000  0.39250000  0.11080000  1.0 -0.0094874732
C  C189  1  0.71830000  0.60750000  0.28300000  1.0 -0.0094874732
C  C190  1  0.67550000  0.28300000  0.56470000  1.0 -0.0094874732
C  C191  1  0.28300000  0.56470000  0.67550000  1.0 -0.0094874732
C  C192  1  0.56470000  0.67550000  0.28300000  1.0 -0.0094874732
C  C193  1  0.28300000  0.67550000  0.56470000  1.0 -0.0094874732
C  C194  1  0.56470000  0.28300000  0.67550000  1.0 -0.0094874732
C  C195  1  0.67550000  0.56470000  0.28300000  1.0 -0.0094874732
C  C196  1  0.28170000  0.88920000  0.56470000  1.0 -0.0094874732
C  C197  1  0.71830000  0.28300000  0.60750000  1.0 -0.0094874732
C  C198  1  0.67550000  0.11080000  0.39250000  1.0 -0.0094874732
C  C199  1  0.11080000  0.39250000  0.67550000  1.0 -0.0094874732
C  C200  1  0.28300000  0.60750000  0.71830000  1.0 -0.0094874732
C  C201  1  0.88920000  0.56470000  0.28170000  1.0 -0.0094874732
C  C202  1  0.60750000  0.71830000  0.28300000  1.0 -0.0094874732
C  C203  1  0.39250000  0.67550000  0.11080000  1.0 -0.0094874732
C  C204  1  0.56470000  0.28170000  0.88920000  1.0 -0.0094874732
C  C205  1  0.11080000  0.71830000  0.43530000  1.0 -0.0094874732
C  C206  1  0.88920000  0.32450000  0.60750000  1.0 -0.0094874732
C  C207  1  0.71700000  0.28170000  0.39250000  1.0 -0.0094874732
C  C208  1  0.43530000  0.11080000  0.71830000  1.0 -0.0094874732
C  C209  1  0.60750000  0.88920000  0.32450000  1.0 -0.0094874732
C  C210  1  0.39250000  0.71700000  0.28170000  1.0 -0.0094874732
C  C211  1  0.71830000  0.43530000  0.11080000  1.0 -0.0094874732
C  C212  1  0.32450000  0.60750000  0.88920000  1.0 -0.0094874732
C  C213  1  0.28170000  0.39250000  0.71700000  1.0 -0.0094874732
C  C214  1  0.32450000  0.71700000  0.43530000  1.0 -0.0094874732
C  C215  1  0.71700000  0.43530000  0.32450000  1.0 -0.0094874732
C  C216  1  0.43530000  0.32450000  0.71700000  1.0 -0.0094874732
C  C217  1  0.63040000  0.24610000  0.38430000  1.0 0.237599791
C  C218  1  0.38430000  0.63040000  0.24610000  1.0 0.237599791
C  C219  1  0.24610000  0.38430000  0.63040000  1.0 0.237599791
C  C220  1  0.75390000  0.13820000  0.38430000  1.0 0.237599791
C  C221  1  0.24610000  0.63040000  0.38430000  1.0 0.237599791
C  C222  1  0.24610000  0.86180000  0.61570000  1.0 0.237599791
C  C223  1  0.86180000  0.61570000  0.24610000  1.0 0.237599791
C  C224  1  0.63040000  0.38430000  0.24610000  1.0 0.237599791
C  C225  1  0.13820000  0.38430000  0.75390000  1.0 0.237599791
C  C226  1  0.38430000  0.24610000  0.63040000  1.0 0.237599791
C  C227  1  0.61570000  0.24610000  0.86180000  1.0 0.237599791
C  C228  1  0.38430000  0.75390000  0.13820000  1.0 0.237599791
C  C229  1  0.86180000  0.24610000  0.61570000  1.0 0.237599791
C  C230  1  0.13820000  0.75390000  0.38430000  1.0 0.237599791
C  C231  1  0.36960000  0.75390000  0.61570000  1.0 0.237599791
C  C232  1  0.61570000  0.86180000  0.24610000  1.0 0.237599791
C  C233  1  0.38430000  0.13820000  0.75390000  1.0 0.237599791
C  C234  1  0.61570000  0.36960000  0.75390000  1.0 0.237599791
C  C235  1  0.24610000  0.61570000  0.86180000  1.0 0.237599791
C  C236  1  0.75390000  0.38430000  0.13820000  1.0 0.237599791
C  C237  1  0.75390000  0.61570000  0.36960000  1.0 0.237599791
C  C238  1  0.75390000  0.36960000  0.61570000  1.0 0.237599791
C  C239  1  0.36960000  0.61570000  0.75390000  1.0 0.237599791
C  C240  1  0.61570000  0.75390000  0.36960000  1.0 0.237599791
N  N1  1  0.58500000  0.35920000  0.53380000  1.0 -0.3285702148
N  N2  1  0.53380000  0.58500000  0.35920000  1.0 -0.3285702148
N  N3  1  0.35920000  0.53380000  0.58500000  1.0 -0.3285702148
N  N4  1  0.94880000  0.17460000  0.53380000  1.0 -0.3285702148
N  N5  1  0.05120000  0.58500000  0.22580000  1.0 -0.3285702148
N  N6  1  0.35920000  0.82540000  0.77420000  1.0 -0.3285702148
N  N7  1  0.82540000  0.77420000  0.35920000  1.0 -0.3285702148
N  N8  1  0.58500000  0.22580000  0.05120000  1.0 -0.3285702148
N  N9  1  0.17460000  0.53380000  0.94880000  1.0 -0.3285702148
N  N10  1  0.22580000  0.05120000  0.58500000  1.0 -0.3285702148
N  N11  1  0.77420000  0.35920000  0.82540000  1.0 -0.3285702148
N  N12  1  0.53380000  0.94880000  0.17460000  1.0 -0.3285702148
N  N13  1  0.82540000  0.05120000  0.46620000  1.0 -0.3285702148
N  N14  1  0.17460000  0.64080000  0.22580000  1.0 -0.3285702148
N  N15  1  0.41500000  0.94880000  0.77420000  1.0 -0.3285702148
N  N16  1  0.46620000  0.82540000  0.05120000  1.0 -0.3285702148
N  N17  1  0.22580000  0.17460000  0.64080000  1.0 -0.3285702148
N  N18  1  0.77420000  0.41500000  0.94880000  1.0 -0.3285702148
N  N19  1  0.05120000  0.46620000  0.82540000  1.0 -0.3285702148
N  N20  1  0.64080000  0.22580000  0.17460000  1.0 -0.3285702148
N  N21  1  0.94880000  0.77420000  0.41500000  1.0 -0.3285702148
N  N22  1  0.64080000  0.41500000  0.46620000  1.0 -0.3285702148
N  N23  1  0.41500000  0.46620000  0.64080000  1.0 -0.3285702148
N  N24  1  0.46620000  0.64080000  0.41500000  1.0 -0.3285702148
N  N25  1  0.41500000  0.64080000  0.46620000  1.0 -0.3285702148
N  N26  1  0.46620000  0.41500000  0.64080000  1.0 -0.3285702148
N  N27  1  0.64080000  0.46620000  0.41500000  1.0 -0.3285702148
N  N28  1  0.05120000  0.82540000  0.46620000  1.0 -0.3285702148
N  N29  1  0.94880000  0.41500000  0.77420000  1.0 -0.3285702148
N  N30  1  0.64080000  0.17460000  0.22580000  1.0 -0.3285702148
N  N31  1  0.17460000  0.22580000  0.64080000  1.0 -0.3285702148
N  N32  1  0.41500000  0.77420000  0.94880000  1.0 -0.3285702148
N  N33  1  0.82540000  0.46620000  0.05120000  1.0 -0.3285702148
N  N34  1  0.77420000  0.94880000  0.41500000  1.0 -0.3285702148
N  N35  1  0.22580000  0.64080000  0.17460000  1.0 -0.3285702148
N  N36  1  0.46620000  0.05120000  0.82540000  1.0 -0.3285702148
N  N37  1  0.17460000  0.94880000  0.53380000  1.0 -0.3285702148
N  N38  1  0.82540000  0.35920000  0.77420000  1.0 -0.3285702148
N  N39  1  0.58500000  0.05120000  0.22580000  1.0 -0.3285702148
N  N40  1  0.53380000  0.17460000  0.94880000  1.0 -0.3285702148
N  N41  1  0.77420000  0.82540000  0.35920000  1.0 -0.3285702148
N  N42  1  0.22580000  0.58500000  0.05120000  1.0 -0.3285702148
N  N43  1  0.94880000  0.53380000  0.17460000  1.0 -0.3285702148
N  N44  1  0.35920000  0.77420000  0.82540000  1.0 -0.3285702148
N  N45  1  0.05120000  0.22580000  0.58500000  1.0 -0.3285702148
N  N46  1  0.35920000  0.58500000  0.53380000  1.0 -0.3285702148
N  N47  1  0.58500000  0.53380000  0.35920000  1.0 -0.3285702148
N  N48  1  0.53380000  0.35920000  0.58500000  1.0 -0.3285702148
N  N49  1  0.66060000  0.30240000  0.43100000  1.0 -0.3285702148
N  N50  1  0.43100000  0.66060000  0.30240000  1.0 -0.3285702148
N  N51  1  0.30240000  0.43100000  0.66060000  1.0 -0.3285702148
N  N52  1  0.77040000  0.12860000  0.43100000  1.0 -0.3285702148
N  N53  1  0.22960000  0.66060000  0.35820000  1.0 -0.3285702148
N  N54  1  0.30240000  0.87140000  0.64180000  1.0 -0.3285702148
N  N55  1  0.87140000  0.64180000  0.30240000  1.0 -0.3285702148
N  N56  1  0.66060000  0.35820000  0.22960000  1.0 -0.3285702148
N  N57  1  0.12860000  0.43100000  0.77040000  1.0 -0.3285702148
N  N58  1  0.35820000  0.22960000  0.66060000  1.0 -0.3285702148
N  N59  1  0.64180000  0.30240000  0.87140000  1.0 -0.3285702148
N  N60  1  0.43100000  0.77040000  0.12860000  1.0 -0.3285702148
N  N61  1  0.87140000  0.22960000  0.56900000  1.0 -0.3285702148
N  N62  1  0.12860000  0.69760000  0.35820000  1.0 -0.3285702148
N  N63  1  0.33940000  0.77040000  0.64180000  1.0 -0.3285702148
N  N64  1  0.56900000  0.87140000  0.22960000  1.0 -0.3285702148
N  N65  1  0.35820000  0.12860000  0.69760000  1.0 -0.3285702148
N  N66  1  0.64180000  0.33940000  0.77040000  1.0 -0.3285702148
N  N67  1  0.22960000  0.56900000  0.87140000  1.0 -0.3285702148
N  N68  1  0.69760000  0.35820000  0.12860000  1.0 -0.3285702148
N  N69  1  0.77040000  0.64180000  0.33940000  1.0 -0.3285702148
N  N70  1  0.69760000  0.33940000  0.56900000  1.0 -0.3285702148
N  N71  1  0.33940000  0.56900000  0.69760000  1.0 -0.3285702148
N  N72  1  0.56900000  0.69760000  0.33940000  1.0 -0.3285702148
N  N73  1  0.33940000  0.69760000  0.56900000  1.0 -0.3285702148
N  N74  1  0.56900000  0.33940000  0.69760000  1.0 -0.3285702148
N  N75  1  0.69760000  0.56900000  0.33940000  1.0 -0.3285702148
N  N76  1  0.22960000  0.87140000  0.56900000  1.0 -0.3285702148
N  N77  1  0.77040000  0.33940000  0.64180000  1.0 -0.3285702148
N  N78  1  0.69760000  0.12860000  0.35820000  1.0 -0.3285702148
N  N79  1  0.12860000  0.35820000  0.69760000  1.0 -0.3285702148
N  N80  1  0.33940000  0.64180000  0.77040000  1.0 -0.3285702148
N  N81  1  0.87140000  0.56900000  0.22960000  1.0 -0.3285702148
N  N82  1  0.64180000  0.77040000  0.33940000  1.0 -0.3285702148
N  N83  1  0.35820000  0.69760000  0.12860000  1.0 -0.3285702148
N  N84  1  0.56900000  0.22960000  0.87140000  1.0 -0.3285702148
N  N85  1  0.12860000  0.77040000  0.43100000  1.0 -0.3285702148
N  N86  1  0.87140000  0.30240000  0.64180000  1.0 -0.3285702148
N  N87  1  0.66060000  0.22960000  0.35820000  1.0 -0.3285702148
N  N88  1  0.43100000  0.12860000  0.77040000  1.0 -0.3285702148
N  N89  1  0.64180000  0.87140000  0.30240000  1.0 -0.3285702148
N  N90  1  0.35820000  0.66060000  0.22960000  1.0 -0.3285702148
N  N91  1  0.77040000  0.43100000  0.12860000  1.0 -0.3285702148
N  N92  1  0.30240000  0.64180000  0.87140000  1.0 -0.3285702148
N  N93  1  0.22960000  0.35820000  0.66060000  1.0 -0.3285702148
N  N94  1  0.30240000  0.66060000  0.43100000  1.0 -0.3285702148
N  N95  1  0.66060000  0.43100000  0.30240000  1.0 -0.3285702148
N  N96  1  0.43100000  0.30240000  0.66060000  1.0 -0.3285702148
O  O1  1  0.54130000  0.29659000  0.40829000  1.0 -0.4489664427
O  O2  1  0.40829000  0.54130000  0.29659000  1.0 -0.4489664427
O  O3  1  0.29659000  0.40829000  0.54130000  1.0 -0.4489664427
O  O4  1  0.86699000  0.11170000  0.40829000  1.0 -0.4489664427
O  O5  1  0.13301000  0.54130000  0.24471000  1.0 -0.4489664427
O  O6  1  0.29659000  0.88830000  0.75529000  1.0 -0.4489664427
O  O7  1  0.88830000  0.75529000  0.29659000  1.0 -0.4489664427
O  O8  1  0.54130000  0.24471000  0.13301000  1.0 -0.4489664427
O  O9  1  0.11170000  0.40829000  0.86699000  1.0 -0.4489664427
O  O10  1  0.24471000  0.13301000  0.54130000  1.0 -0.4489664427
O  O11  1  0.75529000  0.29659000  0.88830000  1.0 -0.4489664427
O  O12  1  0.40829000  0.86699000  0.11170000  1.0 -0.4489664427
O  O13  1  0.88830000  0.13301000  0.59171000  1.0 -0.4489664427
O  O14  1  0.11170000  0.70341000  0.24471000  1.0 -0.4489664427
O  O15  1  0.45870000  0.86699000  0.75529000  1.0 -0.4489664427
O  O16  1  0.59171000  0.88830000  0.13301000  1.0 -0.4489664427
O  O17  1  0.24471000  0.11170000  0.70341000  1.0 -0.4489664427
O  O18  1  0.75529000  0.45870000  0.86699000  1.0 -0.4489664427
O  O19  1  0.13301000  0.59171000  0.88830000  1.0 -0.4489664427
O  O20  1  0.70341000  0.24471000  0.11170000  1.0 -0.4489664427
O  O21  1  0.86699000  0.75529000  0.45870000  1.0 -0.4489664427
O  O22  1  0.70341000  0.45870000  0.59171000  1.0 -0.4489664427
O  O23  1  0.45870000  0.59171000  0.70341000  1.0 -0.4489664427
O  O24  1  0.59171000  0.70341000  0.45870000  1.0 -0.4489664427
O  O25  1  0.45870000  0.70341000  0.59171000  1.0 -0.4489664427
O  O26  1  0.59171000  0.45870000  0.70341000  1.0 -0.4489664427
O  O27  1  0.70341000  0.59171000  0.45870000  1.0 -0.4489664427
O  O28  1  0.13301000  0.88830000  0.59171000  1.0 -0.4489664427
O  O29  1  0.86699000  0.45870000  0.75529000  1.0 -0.4489664427
O  O30  1  0.70341000  0.11170000  0.24471000  1.0 -0.4489664427
O  O31  1  0.11170000  0.24471000  0.70341000  1.0 -0.4489664427
O  O32  1  0.45870000  0.75529000  0.86699000  1.0 -0.4489664427
O  O33  1  0.88830000  0.59171000  0.13301000  1.0 -0.4489664427
O  O34  1  0.75529000  0.86699000  0.45870000  1.0 -0.4489664427
O  O35  1  0.24471000  0.70341000  0.11170000  1.0 -0.4489664427
O  O36  1  0.59171000  0.13301000  0.88830000  1.0 -0.4489664427
O  O37  1  0.11170000  0.86699000  0.40829000  1.0 -0.4489664427
O  O38  1  0.88830000  0.29659000  0.75529000  1.0 -0.4489664427
O  O39  1  0.54130000  0.13301000  0.24471000  1.0 -0.4489664427
O  O40  1  0.40829000  0.11170000  0.86699000  1.0 -0.4489664427
O  O41  1  0.75529000  0.88830000  0.29659000  1.0 -0.4489664427
O  O42  1  0.24471000  0.54130000  0.13301000  1.0 -0.4489664427
O  O43  1  0.86699000  0.40829000  0.11170000  1.0 -0.4489664427
O  O44  1  0.29659000  0.75529000  0.88830000  1.0 -0.4489664427
O  O45  1  0.13301000  0.24471000  0.54130000  1.0 -0.4489664427
O  O46  1  0.29659000  0.54130000  0.40829000  1.0 -0.4489664427
O  O47  1  0.54130000  0.40829000  0.29659000  1.0 -0.4489664427
O  O48  1  0.40829000  0.29659000  0.54130000  1.0 -0.4489664427
O  O49  1  0.44350000  0.25682000  0.38572000  1.0 -0.4861286818
O  O50  1  0.38572000  0.44350000  0.25682000  1.0 -0.4861286818
O  O51  1  0.25682000  0.38572000  0.44350000  1.0 -0.4861286818
O  O52  1  0.94222000  0.12890000  0.38572000  1.0 -0.4861286818
O  O53  1  0.05778000  0.44350000  0.18668000  1.0 -0.4861286818
O  O54  1  0.25682000  0.87110000  0.81332000  1.0 -0.4861286818
O  O55  1  0.87110000  0.81332000  0.25682000  1.0 -0.4861286818
O  O56  1  0.44350000  0.18668000  0.05778000  1.0 -0.4861286818
O  O57  1  0.12890000  0.38572000  0.94222000  1.0 -0.4861286818
O  O58  1  0.18668000  0.05778000  0.44350000  1.0 -0.4861286818
O  O59  1  0.81332000  0.25682000  0.87110000  1.0 -0.4861286818
O  O60  1  0.38572000  0.94222000  0.12890000  1.0 -0.4861286818
O  O61  1  0.87110000  0.05778000  0.61428000  1.0 -0.4861286818
O  O62  1  0.12890000  0.74318000  0.18668000  1.0 -0.4861286818
O  O63  1  0.55650000  0.94222000  0.81332000  1.0 -0.4861286818
O  O64  1  0.61428000  0.87110000  0.05778000  1.0 -0.4861286818
O  O65  1  0.18668000  0.12890000  0.74318000  1.0 -0.4861286818
O  O66  1  0.81332000  0.55650000  0.94222000  1.0 -0.4861286818
O  O67  1  0.05778000  0.61428000  0.87110000  1.0 -0.4861286818
O  O68  1  0.74318000  0.18668000  0.12890000  1.0 -0.4861286818
O  O69  1  0.94222000  0.81332000  0.55650000  1.0 -0.4861286818
O  O70  1  0.74318000  0.55650000  0.61428000  1.0 -0.4861286818
O  O71  1  0.55650000  0.61428000  0.74318000  1.0 -0.4861286818
O  O72  1  0.61428000  0.74318000  0.55650000  1.0 -0.4861286818
O  O73  1  0.55650000  0.74318000  0.61428000  1.0 -0.4861286818
O  O74  1  0.61428000  0.55650000  0.74318000  1.0 -0.4861286818
O  O75  1  0.74318000  0.61428000  0.55650000  1.0 -0.4861286818
O  O76  1  0.05778000  0.87110000  0.61428000  1.0 -0.4861286818
O  O77  1  0.94222000  0.55650000  0.81332000  1.0 -0.4861286818
O  O78  1  0.74318000  0.12890000  0.18668000  1.0 -0.4861286818
O  O79  1  0.12890000  0.18668000  0.74318000  1.0 -0.4861286818
O  O80  1  0.55650000  0.81332000  0.94222000  1.0 -0.4861286818
O  O81  1  0.87110000  0.61428000  0.05778000  1.0 -0.4861286818
O  O82  1  0.81332000  0.94222000  0.55650000  1.0 -0.4861286818
O  O83  1  0.18668000  0.74318000  0.12890000  1.0 -0.484230805
O  O84  1  0.61428000  0.05778000  0.87110000  1.0 -0.4861286818
O  O85  1  0.12890000  0.94222000  0.38572000  1.0 -0.4861286818
O  O86  1  0.87110000  0.25682000  0.81332000  1.0 -0.4861286818
O  O87  1  0.44350000  0.05778000  0.18668000  1.0 -0.4861286818
O  O88  1  0.38572000  0.12890000  0.94222000  1.0 -0.4861286818
O  O89  1  0.81332000  0.87110000  0.25682000  1.0 -0.4861286818
O  O90  1  0.18668000  0.44350000  0.05778000  1.0 -0.4861286818
O  O91  1  0.94222000  0.38572000  0.12890000  1.0 -0.484230805
O  O92  1  0.25682000  0.81332000  0.87110000  1.0 -0.4861286818
O  O93  1  0.05778000  0.18668000  0.44350000  1.0 -0.484230805
O  O94  1  0.25682000  0.44350000  0.38572000  1.0 -0.4861286818
O  O95  1  0.44350000  0.38572000  0.25682000  1.0 -0.4861286818
O  O96  1  0.38572000  0.25682000  0.44350000  1.0 -0.4861286818
O  O97  1  0.75407000  0.41562000  0.52325000  1.0 -0.4396233622
O  O98  1  0.52325000  0.75407000  0.41562000  1.0 -0.4396233622
O  O99  1  0.41562000  0.52325000  0.75407000  1.0 -0.4396233622
O  O100  1  0.76918000  0.10763000  0.52325000  1.0 -0.4396233622
O  O101  1  0.23082000  0.75407000  0.33845000  1.0 -0.4396233622
O  O102  1  0.41562000  0.89237000  0.66155000  1.0 -0.4396233622
O  O103  1  0.89237000  0.66155000  0.41562000  1.0 -0.4396233622
O  O104  1  0.75407000  0.33845000  0.23082000  1.0 -0.4396233622
O  O105  1  0.10763000  0.52325000  0.76918000  1.0 -0.4396233622
O  O106  1  0.33845000  0.23082000  0.75407000  1.0 -0.4396233622
O  O107  1  0.66155000  0.41562000  0.89237000  1.0 -0.4396233622
O  O108  1  0.52325000  0.76918000  0.10763000  1.0 -0.4396233622
O  O109  1  0.89237000  0.23082000  0.47675000  1.0 -0.4396233622
O  O110  1  0.10763000  0.58438000  0.33845000  1.0 -0.4396233622
O  O111  1  0.24593000  0.76918000  0.66155000  1.0 -0.4396233622
O  O112  1  0.47675000  0.89237000  0.23082000  1.0 -0.4396233622
O  O113  1  0.33845000  0.10763000  0.58438000  1.0 -0.4396233622
O  O114  1  0.66155000  0.24593000  0.76918000  1.0 -0.4396233622
O  O115  1  0.23082000  0.47675000  0.89237000  1.0 -0.4396233622
O  O116  1  0.58438000  0.33845000  0.10763000  1.0 -0.4396233622
O  O117  1  0.76918000  0.66155000  0.24593000  1.0 -0.4396233622
O  O118  1  0.58438000  0.24593000  0.47675000  1.0 -0.4396233622
O  O119  1  0.24593000  0.47675000  0.58438000  1.0 -0.4396233622
O  O120  1  0.47675000  0.58438000  0.24593000  1.0 -0.4396233622
O  O121  1  0.24593000  0.58438000  0.47675000  1.0 -0.4396233622
O  O122  1  0.47675000  0.24593000  0.58438000  1.0 -0.4396233622
O  O123  1  0.58438000  0.47675000  0.24593000  1.0 -0.4396233622
O  O124  1  0.23082000  0.89237000  0.47675000  1.0 -0.4396233622
O  O125  1  0.76918000  0.24593000  0.66155000  1.0 -0.4396233622
O  O126  1  0.58438000  0.10763000  0.33845000  1.0 -0.4396233622
O  O127  1  0.10763000  0.33845000  0.58438000  1.0 -0.4396233622
O  O128  1  0.24593000  0.66155000  0.76918000  1.0 -0.4396233622
O  O129  1  0.89237000  0.47675000  0.23082000  1.0 -0.4396233622
O  O130  1  0.66155000  0.76918000  0.24593000  1.0 -0.4396233622
O  O131  1  0.33845000  0.58438000  0.10763000  1.0 -0.4396233622
O  O132  1  0.47675000  0.23082000  0.89237000  1.0 -0.4396233622
O  O133  1  0.10763000  0.76918000  0.52325000  1.0 -0.4396233622
O  O134  1  0.89237000  0.41562000  0.66155000  1.0 -0.4396233622
O  O135  1  0.75407000  0.23082000  0.33845000  1.0 -0.4396233622
O  O136  1  0.52325000  0.10763000  0.76918000  1.0 -0.4396233622
O  O137  1  0.66155000  0.89237000  0.41562000  1.0 -0.4396233622
O  O138  1  0.33845000  0.75407000  0.23082000  1.0 -0.4396233622
O  O139  1  0.76918000  0.52325000  0.10763000  1.0 -0.4396233622
O  O140  1  0.41562000  0.66155000  0.89237000  1.0 -0.4396233622
O  O141  1  0.23082000  0.33845000  0.75407000  1.0 -0.4396233622
O  O142  1  0.41562000  0.75407000  0.52325000  1.0 -0.4396233622
O  O143  1  0.75407000  0.52325000  0.41562000  1.0 -0.4396233622
O  O144  1  0.52325000  0.41562000  0.75407000  1.0 -0.4396233622
O  O145  1  0.81723000  0.40933000  0.48790000  1.0 -0.4396233622
O  O146  1  0.48790000  0.81723000  0.40933000  1.0 -0.4396233622
O  O147  1  0.40933000  0.48790000  0.81723000  1.0 -0.4396233622
O  O148  1  0.67067000  0.07857000  0.48790000  1.0 -0.4396233622
O  O149  1  0.32933000  0.81723000  0.40790000  1.0 -0.4396233622
O  O150  1  0.40933000  0.92143000  0.59210000  1.0 -0.4396233622
O  O151  1  0.92143000  0.59210000  0.40933000  1.0 -0.4396233622
O  O152  1  0.81723000  0.40790000  0.32933000  1.0 -0.4396233622
O  O153  1  0.07857000  0.48790000  0.67067000  1.0 -0.4396233622
O  O154  1  0.40790000  0.32933000  0.81723000  1.0 -0.4396233622
O  O155  1  0.59210000  0.40933000  0.92143000  1.0 -0.4396233622
O  O156  1  0.48790000  0.67067000  0.07857000  1.0 -0.4396233622
O  O157  1  0.92143000  0.32933000  0.51210000  1.0 -0.4396233622
O  O158  1  0.07857000  0.59067000  0.40790000  1.0 -0.4396233622
O  O159  1  0.18277000  0.67067000  0.59210000  1.0 -0.4396233622
O  O160  1  0.51210000  0.92143000  0.32933000  1.0 -0.4396233622
O  O161  1  0.40790000  0.07857000  0.59067000  1.0 -0.4396233622
O  O162  1  0.59210000  0.18277000  0.67067000  1.0 -0.4396233622
O  O163  1  0.32933000  0.51210000  0.92143000  1.0 -0.4396233622
O  O164  1  0.59067000  0.40790000  0.07857000  1.0 -0.4396233622
O  O165  1  0.67067000  0.59210000  0.18277000  1.0 -0.4396233622
O  O166  1  0.59067000  0.18277000  0.51210000  1.0 -0.4396233622
O  O167  1  0.18277000  0.51210000  0.59067000  1.0 -0.4396233622
O  O168  1  0.51210000  0.59067000  0.18277000  1.0 -0.4396233622
O  O169  1  0.18277000  0.59067000  0.51210000  1.0 -0.4396233622
O  O170  1  0.51210000  0.18277000  0.59067000  1.0 -0.4396233622
O  O171  1  0.59067000  0.51210000  0.18277000  1.0 -0.4396233622
O  O172  1  0.32933000  0.92143000  0.51210000  1.0 -0.4396233622
O  O173  1  0.67067000  0.18277000  0.59210000  1.0 -0.4396233622
O  O174  1  0.59067000  0.07857000  0.40790000  1.0 -0.4396233622
O  O175  1  0.07857000  0.40790000  0.59067000  1.0 -0.4396233622
O  O176  1  0.18277000  0.59210000  0.67067000  1.0 -0.4396233622
O  O177  1  0.92143000  0.51210000  0.32933000  1.0 -0.4396233622
O  O178  1  0.59210000  0.67067000  0.18277000  1.0 -0.4396233622
O  O179  1  0.40790000  0.59067000  0.07857000  1.0 -0.4396233622
O  O180  1  0.51210000  0.32933000  0.92143000  1.0 -0.4396233622
O  O181  1  0.07857000  0.67067000  0.48790000  1.0 -0.4396233622
O  O182  1  0.92143000  0.40933000  0.59210000  1.0 -0.4396233622
O  O183  1  0.81723000  0.32933000  0.40790000  1.0 -0.4396233622
O  O184  1  0.48790000  0.07857000  0.67067000  1.0 -0.4396233622
O  O185  1  0.59210000  0.92143000  0.40933000  1.0 -0.4396233622
O  O186  1  0.40790000  0.81723000  0.32933000  1.0 -0.4396233622
O  O187  1  0.67067000  0.48790000  0.07857000  1.0 -0.4396233622
O  O188  1  0.40933000  0.59210000  0.92143000  1.0 -0.4396233622
O  O189  1  0.32933000  0.40790000  0.81723000  1.0 -0.4396233622
O  O190  1  0.40933000  0.81723000  0.48790000  1.0 -0.4396233622
O  O191  1  0.81723000  0.48790000  0.40933000  1.0 -0.4396233622
O  O192  1  0.48790000  0.40933000  0.81723000  1.0 -0.4396233622
