# DDEC6 charges by PACMAN v1.1 (https://github.com/mtap-research/PACMAN-charge/)
data_TEKLIH_FSR_pacman
_symmetry_space_group_name_H-M   'P 1'
_cell_length_a   8.80630000
_cell_length_b   14.61500000
_cell_length_c   12.48270000
_cell_angle_alpha   90.00000000
_cell_angle_beta   98.55500000
_cell_angle_gamma   90.00000000
_symmetry_Int_Tables_number   1
_chemical_formula_structural   ZnH38C43(NO2)4
_chemical_formula_sum   'Zn2 H76 C86 N8 O16'
_cell_volume   1588.69883476
_cell_formula_units_Z   2
loop_
 _symmetry_equiv_pos_site_id
 _symmetry_equiv_pos_as_xyz
  1  'x, y, z'
loop_
 _atom_site_type_symbol
 _atom_site_label
 _atom_site_symmetry_multiplicity
 _atom_site_fract_x
 _atom_site_fract_y
 _atom_site_fract_z
 _atom_site_occupancy
 _atom_site_charge
Zn  Zn1  1  0.59312000  0.25000000  0.60689000  1.0 0.6725145771
Zn  Zn2  1  0.40688000  0.75000000  0.39311000  1.0 0.6725145771
H  H1  1  0.35420000  0.36020000  0.43810000  1.0 0.1066809433
H  H2  1  0.51310000  0.42930000  0.74090000  1.0 0.0971508147
H  H3  1  0.33410000  0.55070000  0.66500000  1.0 0.1182793385
H  H4  1  0.20000000  0.58810000  0.46430000  1.0 0.0971508147
H  H5  1  0.22040000  0.51440000  0.37270000  1.0 0.0703447032
H  H6  1  0.02560000  0.42190000  0.43650000  1.0 0.0971508147
H  H7  1  0.96140000  0.51760000  0.38670000  1.0 0.0905167765
H  H8  1  0.65000000  0.19550000  0.19330000  1.0 0.0971508147
H  H9  1  0.85460000  0.19540000  0.33430000  1.0 0.1182793385
H  H10  1  0.67540000  0.30450000  0.99800000  1.0 0.0905167765
H  H11  1  0.90110000  0.30530000  0.91990000  1.0 0.0767293206
H  H12  1  0.75030000  0.05340000  0.10730000  1.0 0.0620697283
H  H13  1  0.91780000  0.92820000  0.12700000  1.0 0.0971508147
H  H14  1  0.18280000  0.95190000  0.16850000  1.0 0.0703447032
H  H15  1  0.28030000  0.10080000  0.19050000  1.0 0.0703447032
H  H16  1  0.33090000  0.26870000  0.20620000  1.0 0.0703447032
H  H17  1  0.33620000  0.42870000  0.20290000  1.0 0.0620697283
H  H18  1  0.10720000  0.51120000  0.16220000  1.0 0.0620697283
H  H19  1  0.87280000  0.43370000  0.12480000  1.0 0.0485333606
H  H20  1  0.64580000  0.86020000  0.56190000  1.0 0.1066809433
H  H21  1  0.48690000  0.92930000  0.25910000  1.0 0.0971508147
H  H22  1  0.66590000  0.05070000  0.33500000  1.0 0.1182793385
H  H23  1  0.80000000  0.08810000  0.53570000  1.0 0.0971508147
H  H24  1  0.77960000  0.01440000  0.62730000  1.0 0.0703447032
H  H25  1  0.97440000  0.92190000  0.56350000  1.0 0.0971508147
H  H26  1  0.03860000  0.01760000  0.61330000  1.0 0.0905167765
H  H27  1  0.35000000  0.69550000  0.80670000  1.0 0.0971508147
H  H28  1  0.14540000  0.69540000  0.66570000  1.0 0.1182793385
H  H29  1  0.32460000  0.80450000  0.00200000  1.0 0.0905167765
H  H30  1  0.09890000  0.80530000  0.08010000  1.0 0.0767293206
H  H31  1  0.24970000  0.55340000  0.89270000  1.0 0.0620697283
H  H32  1  0.08220000  0.42820000  0.87300000  1.0 0.0971508147
H  H33  1  0.81720000  0.45190000  0.83150000  1.0 0.0703447032
H  H34  1  0.71970000  0.60080000  0.80950000  1.0 0.0703447032
H  H35  1  0.66910000  0.76870000  0.79380000  1.0 0.0703447032
H  H36  1  0.66380000  0.92870000  0.79710000  1.0 0.0620697283
H  H37  1  0.89280000  0.01120000  0.83780000  1.0 0.0620697283
H  H38  1  0.12720000  0.93370000  0.87520000  1.0 0.0485333606
H  H39  1  0.64580000  0.63980000  0.56190000  1.0 0.1066809433
H  H40  1  0.48690000  0.57070000  0.25910000  1.0 0.0971508147
H  H41  1  0.66590000  0.44930000  0.33500000  1.0 0.1182793385
H  H42  1  0.80000000  0.41190000  0.53570000  1.0 0.0971508147
H  H43  1  0.77960000  0.48560000  0.62730000  1.0 0.0703447032
H  H44  1  0.97440000  0.57810000  0.56350000  1.0 0.0971508147
H  H45  1  0.03860000  0.48240000  0.61330000  1.0 0.0905167765
H  H46  1  0.35000000  0.80450000  0.80670000  1.0 0.0971508147
H  H47  1  0.14540000  0.80460000  0.66570000  1.0 0.1182793385
H  H48  1  0.32460000  0.69550000  0.00200000  1.0 0.0905167765
H  H49  1  0.09890000  0.69470000  0.08010000  1.0 0.0767293206
H  H50  1  0.24970000  0.94660000  0.89270000  1.0 0.0620697283
H  H51  1  0.08220000  0.07180000  0.87300000  1.0 0.0971508147
H  H52  1  0.81720000  0.04810000  0.83150000  1.0 0.0703447032
H  H53  1  0.71970000  0.89920000  0.80950000  1.0 0.0703447032
H  H54  1  0.66910000  0.73130000  0.79380000  1.0 0.0703447032
H  H55  1  0.66380000  0.57130000  0.79710000  1.0 0.0620697283
H  H56  1  0.89280000  0.48880000  0.83780000  1.0 0.0620697283
H  H57  1  0.12720000  0.56630000  0.87520000  1.0 0.0485333606
H  H58  1  0.35420000  0.13980000  0.43810000  1.0 0.1066809433
H  H59  1  0.51310000  0.07070000  0.74090000  1.0 0.0971508147
H  H60  1  0.33410000  0.94930000  0.66500000  1.0 0.1182793385
H  H61  1  0.20000000  0.91190000  0.46430000  1.0 0.0971508147
H  H62  1  0.22040000  0.98560000  0.37270000  1.0 0.0703447032
H  H63  1  0.02560000  0.07810000  0.43650000  1.0 0.0971508147
H  H64  1  0.96140000  0.98240000  0.38670000  1.0 0.0905167765
H  H65  1  0.65000000  0.30450000  0.19330000  1.0 0.0971508147
H  H66  1  0.85460000  0.30460000  0.33430000  1.0 0.1182793385
H  H67  1  0.67540000  0.19550000  0.99800000  1.0 0.0905167765
H  H68  1  0.90110000  0.19470000  0.91990000  1.0 0.0767293206
H  H69  1  0.75030000  0.44660000  0.10730000  1.0 0.0620697283
H  H70  1  0.91780000  0.57180000  0.12700000  1.0 0.0971508147
H  H71  1  0.18280000  0.54810000  0.16850000  1.0 0.0703447032
H  H72  1  0.28030000  0.39920000  0.19050000  1.0 0.0703447032
H  H73  1  0.33090000  0.23130000  0.20620000  1.0 0.0703447032
H  H74  1  0.33620000  0.07130000  0.20290000  1.0 0.0620697283
H  H75  1  0.10720000  0.98880000  0.16220000  1.0 0.0620697283
H  H76  1  0.87280000  0.06630000  0.12480000  1.0 0.0485333606
C  C1  1  0.37230000  0.39250000  0.50480000  1.0 0.0703447032
C  C2  1  0.45820000  0.43060000  0.66940000  1.0 -0.1095758642
C  C3  1  0.36040000  0.49730000  0.62850000  1.0 -0.1095758642
C  C4  1  0.19400000  0.52210000  0.44660000  1.0 -0.1396679537
C  C5  1  0.02960000  0.48890000  0.44770000  1.0 -0.1941542085
C  C6  1  0.91580000  0.15140000  0.13720000  1.0 0.019778846
C  C7  1  0.85790000  0.06300000  0.12420000  1.0 -0.1229718154
C  C8  1  0.95740000  0.98860000  0.13590000  1.0 -0.1396679537
C  C9  1  0.11480000  0.00270000  0.16060000  1.0 -0.0871851196
C  C10  1  0.17270000  0.09110000  0.17360000  1.0 -0.0104380896
C  C11  1  0.07320000  0.16550000  0.16190000  1.0 0.00209184
C  C12  1  0.09870000  0.25610000  0.16740000  1.0 -0.0811828555
C  C13  1  0.23790000  0.30220000  0.18970000  1.0 -0.0636265635
C  C14  1  0.24110000  0.39730000  0.18770000  1.0 -0.0478849368
C  C15  1  0.10500000  0.44630000  0.16350000  1.0 0.019778846
C  C16  1  0.96580000  0.40020000  0.14130000  1.0 0.019778846
C  C17  1  0.96260000  0.30510000  0.14320000  1.0 0.0485333606
C  C18  1  0.77480000  0.22680000  0.80460000  1.0 0.2247837527
C  C19  1  0.62770000  0.89250000  0.49520000  1.0 0.0703447032
C  C20  1  0.54180000  0.93060000  0.33060000  1.0 -0.1095758642
C  C21  1  0.63960000  0.99730000  0.37150000  1.0 -0.1095758642
C  C22  1  0.80600000  0.02210000  0.55340000  1.0 -0.1396679537
C  C23  1  0.97040000  0.98890000  0.55230000  1.0 -0.2007463889
C  C24  1  0.08420000  0.65140000  0.86280000  1.0 0.019778846
C  C25  1  0.14210000  0.56300000  0.87580000  1.0 -0.1229718154
C  C26  1  0.04260000  0.48860000  0.86410000  1.0 -0.1396679537
C  C27  1  0.88520000  0.50270000  0.83940000  1.0 -0.0871851196
C  C28  1  0.82730000  0.59110000  0.82640000  1.0 -0.0104380896
C  C29  1  0.92680000  0.66550000  0.83810000  1.0 0.00209184
C  C30  1  0.90130000  0.75610000  0.83260000  1.0 -0.0811828555
C  C31  1  0.76210000  0.80220000  0.81030000  1.0 -0.0636265635
C  C32  1  0.75890000  0.89730000  0.81230000  1.0 -0.0478849368
C  C33  1  0.89500000  0.94630000  0.83650000  1.0 0.019778846
C  C34  1  0.03420000  0.90020000  0.85870000  1.0 0.019778846
C  C35  1  0.03740000  0.80510000  0.85680000  1.0 0.0485333606
C  C36  1  0.22520000  0.72680000  0.19540000  1.0 0.2287931536
C  C37  1  0.62770000  0.60750000  0.49520000  1.0 0.0703447032
C  C38  1  0.54180000  0.56940000  0.33060000  1.0 -0.1095758642
C  C39  1  0.63960000  0.50270000  0.37150000  1.0 -0.1095758642
C  C40  1  0.80600000  0.47790000  0.55340000  1.0 -0.1396679537
C  C41  1  0.97040000  0.51110000  0.55230000  1.0 -0.1941542085
C  C42  1  0.08420000  0.84860000  0.86280000  1.0 0.019778846
C  C43  1  0.14210000  0.93700000  0.87580000  1.0 -0.1229718154
C  C44  1  0.04260000  0.01140000  0.86410000  1.0 -0.1396679537
C  C45  1  0.88520000  0.99730000  0.83940000  1.0 -0.0871851196
C  C46  1  0.82730000  0.90890000  0.82640000  1.0 -0.0104380896
C  C47  1  0.92680000  0.83450000  0.83810000  1.0 0.00209184
C  C48  1  0.90130000  0.74390000  0.83260000  1.0 -0.0811828555
C  C49  1  0.76210000  0.69780000  0.81030000  1.0 -0.0636265635
C  C50  1  0.75890000  0.60270000  0.81230000  1.0 -0.0478849368
C  C51  1  0.89500000  0.55370000  0.83650000  1.0 0.019778846
C  C52  1  0.03420000  0.59980000  0.85870000  1.0 0.019778846
C  C53  1  0.03740000  0.69490000  0.85680000  1.0 0.0485333606
C  C54  1  0.22520000  0.77320000  0.19540000  1.0 0.2287931536
C  C55  1  0.37230000  0.10750000  0.50480000  1.0 0.0703447032
C  C56  1  0.45820000  0.06940000  0.66940000  1.0 -0.1095758642
C  C57  1  0.36040000  0.00270000  0.62850000  1.0 -0.1095758642
C  C58  1  0.19400000  0.97790000  0.44660000  1.0 -0.1396679537
C  C59  1  0.02960000  0.01110000  0.44770000  1.0 -0.1941542085
C  C60  1  0.91580000  0.34860000  0.13720000  1.0 0.019778846
C  C61  1  0.85790000  0.43700000  0.12420000  1.0 -0.1229718154
C  C62  1  0.95740000  0.51140000  0.13590000  1.0 -0.1396679537
C  C63  1  0.11480000  0.49730000  0.16060000  1.0 -0.0871851196
C  C64  1  0.17270000  0.40890000  0.17360000  1.0 -0.0104380896
C  C65  1  0.07320000  0.33450000  0.16190000  1.0 0.00209184
C  C66  1  0.09870000  0.24390000  0.16740000  1.0 -0.0811828555
C  C67  1  0.23790000  0.19780000  0.18970000  1.0 -0.0636265635
C  C68  1  0.24110000  0.10270000  0.18770000  1.0 -0.0478849368
C  C69  1  0.10500000  0.05370000  0.16350000  1.0 0.019778846
C  C70  1  0.96580000  0.09980000  0.14130000  1.0 0.019778846
C  C71  1  0.96260000  0.19490000  0.14320000  1.0 0.0485333606
C  C72  1  0.77480000  0.27320000  0.80460000  1.0 0.2247837527
C  C73  1  0.82350000  0.25000000  0.12190000  1.0 0.1066809433
C  C74  1  0.71700000  0.25000000  0.20580000  1.0 -0.2810678886
C  C75  1  0.78790000  0.25000000  0.32120000  1.0 -0.328297119
C  C76  1  0.67590000  0.25000000  0.40390000  1.0 0.568202038
C  C77  1  0.74290000  0.25000000  0.00720000  1.0 -0.3974035786
C  C78  1  0.83580000  0.25000000  0.91820000  1.0 -0.2493469523
C  C79  1  0.70350000  0.25000000  0.81570000  1.0 0.2370320304
C  C80  1  0.17650000  0.75000000  0.87810000  1.0 0.1066809433
C  C81  1  0.28300000  0.75000000  0.79420000  1.0 -0.2810678886
C  C82  1  0.21210000  0.75000000  0.67880000  1.0 -0.328297119
C  C83  1  0.32410000  0.75000000  0.59610000  1.0 0.568202038
C  C84  1  0.25710000  0.75000000  0.99280000  1.0 -0.3974035786
C  C85  1  0.16420000  0.75000000  0.08180000  1.0 -0.2493469523
C  C86  1  0.29650000  0.75000000  0.18430000  1.0 0.2287931536
N  N1  1  0.46590000  0.36466000  0.59120000  1.0 -0.3433931873
N  N2  1  0.30620000  0.47265000  0.52350000  1.0 -0.0031794148
N  N3  1  0.53410000  0.86466000  0.40880000  1.0 -0.3433931873
N  N4  1  0.69380000  0.97265000  0.47650000  1.0 -0.0031794148
N  N5  1  0.53410000  0.63534000  0.40880000  1.0 -0.3433931873
N  N6  1  0.69380000  0.52735000  0.47650000  1.0 -0.0031794148
N  N7  1  0.46590000  0.13534000  0.59120000  1.0 -0.3433931873
N  N8  1  0.30620000  0.02735000  0.52350000  1.0 -0.0031794148
O  O1  1  0.79310000  0.14970000  0.76850000  1.0 -0.2007463889
O  O2  1  0.68960000  0.28760000  0.75460000  1.0 0.1066809433
O  O3  1  0.20690000  0.64970000  0.23150000  1.0 -0.2007463889
O  O4  1  0.31040000  0.78760000  0.24540000  1.0 0.0971508147
O  O5  1  0.20690000  0.85030000  0.23150000  1.0 -0.2007463889
O  O6  1  0.31040000  0.71240000  0.24540000  1.0 0.1066809433
O  O7  1  0.79310000  0.35030000  0.76850000  1.0 -0.2007463889
O  O8  1  0.68960000  0.21240000  0.75460000  1.0 0.0971508147
O  O9  1  0.55770000  0.25000000  0.81140000  1.0 -0.2493469523
O  O10  1  0.76190000  0.25000000  0.72800000  1.0 0.0767293206
O  O11  1  0.74060000  0.25000000  0.50250000  1.0 -0.5492961215
O  O12  1  0.53860000  0.25000000  0.37310000  1.0 -0.5162617372
O  O13  1  0.44230000  0.75000000  0.18860000  1.0 -0.2493469523
O  O14  1  0.23810000  0.75000000  0.27200000  1.0 0.0767293206
O  O15  1  0.25940000  0.75000000  0.49750000  1.0 -0.5492961215
O  O16  1  0.46140000  0.75000000  0.62690000  1.0 -0.5162617372
