# DDEC6 charges by PACMAN v1.1 (https://github.com/mtap-research/PACMAN-charge/)
data_TELGUP_FSR_pacman
_chemical_formula_sum              "O144 Ni36 N348 C1164 H1944 Ir12"
_cell_length_a       23.6322
_cell_length_b       23.6322
_cell_length_c       69.865
_cell_angle_alpha    90
_cell_angle_beta     90
_cell_angle_gamma    120

_symmetry_space_group_name_H-M    "P 1"
_symmetry_Int_Tables_number       1

loop_
  _symmetry_equiv_pos_as_xyz
  'x, y, z'

loop_
  _atom_site_type_symbol
  _atom_site_label
  _atom_site_symmetry_multiplicity
  _atom_site_fract_x
  _atom_site_fract_y
  _atom_site_fract_z
  _atom_site_occupancy
 _atom_site_charge
O   O1        1.0  0.39020  0.17270  0.01847  1.0000 -0.4828358619
Ni  Ni1       1.0  0.32521  0.13606  0.04133  1.0000 0.2342789186
N   N1        1.0  0.39300  0.12240  0.05610  1.0000 -0.0610470701
O   O2        1.0  0.26250  0.10370  0.06446  1.0000 -0.4928275375
N   N2        1.0  0.25650  0.14650  0.02640  1.0000 -0.0686857758
N   N3        1.0  0.27970  0.04380  0.02880  1.0000 -0.0610470701
N   N4        1.0  0.37200  0.22920  0.05200  1.0000 -0.0686857758
C   C1        1.0  0.44710  0.18540  0.06190  1.0000 -0.0881865386
C   C2        1.0  0.41690  0.08390  0.04700  1.0000 0.0041466364
H   H1        1.0  0.37110  0.09890  0.06820  1.0000 0.1007798595
C   C3        1.0  0.25520  0.07240  0.07918  1.0000 0.01818332
C   C4        1.0  0.23500  0.18900  0.03490  1.0000 0.027875408
C   C5        1.0  0.20210  0.08530  0.02170  1.0000 -0.0804308695
H   H2        1.0  0.27750  0.16720  0.01400  1.0000 0.1103299505
H   H3        1.0  0.25200  0.01350  0.03920  1.0000 0.1103299505
C   C6        1.0  0.23220  0.04430  0.01490  1.0000 0.0096146532
C   C7        1.0  0.32170  0.01810  0.02250  1.0000 -0.0804308695
C   C8        1.0  0.33800  0.26160  0.05830  1.0000 -0.0463115656
C   C9        1.0  0.41370  0.22500  0.06700  1.0000 0.027875408
H   H4        1.0  0.40250  0.25740  0.04170  1.0000 0.1007798595
H   H5        1.0  0.47010  0.18090  0.07310  1.0000 0.040310148
H   H6        1.0  0.47860  0.20620  0.05130  1.0000 0.0599627315
C   C10       1.0  0.36470  0.01960  0.03900  1.0000 -0.0804308695
H   H7        1.0  0.44660  0.10990  0.03640  1.0000 0.0599627315
H   H8        1.0  0.44290  0.07520  0.05640  1.0000 0.0486432212
O   O3        1.0  0.28830  0.04830  0.08421  1.0000 -0.5016892986
C   C11       1.0  0.19750  0.05940  0.09105  1.0000 0.0096146532
H   H9        1.0  0.20710  0.16700  0.04610  1.0000 0.0599627315
C   C12       1.0  0.29480  0.25630  0.04130  1.0000 -0.101100454
H   H10       1.0  0.20850  0.19690  0.02540  1.0000 0.040310148
H   H11       1.0  0.17370  0.06510  0.03300  1.0000 0.0599627315
H   H12       1.0  0.17590  0.08990  0.01130  1.0000 0.040310148
H   H13       1.0  0.19690  0.99890  0.01270  1.0000 0.040310148
H   H14       1.0  0.25480  0.06190  0.00250  1.0000 0.0486432212
H   H15       1.0  0.34950  0.04470  0.01180  1.0000 0.0599627315
H   H16       1.0  0.29430  0.97260  0.01800  1.0000 0.0599627315
H   H17       1.0  0.31100  0.23970  0.06980  1.0000 0.0599627315
H   H18       1.0  0.36890  0.30790  0.06150  1.0000 0.0599627315
H   H19       1.0  0.38660  0.20540  0.07850  1.0000 0.0599627315
H   H20       1.0  0.44800  0.26990  0.07030  1.0000 0.040310148
H   H21       1.0  0.38650  0.99520  0.03480  1.0000 0.0599627315
H   H22       1.0  0.33540  0.99470  0.04970  1.0000 0.0777011545
C   C13       1.0  0.15620  0.08210  0.08552  1.0000 -0.1918009899
C   C14       1.0  0.18020  0.02030  0.10758  1.0000 -0.1918009899
H   H23       1.0  0.27750  0.28600  0.04390  1.0000 0.0486432212
H   H24       1.0  0.32390  0.27430  0.03000  1.0000 0.0693294588
C   C15       1.0  0.10230  0.07020  0.09578  1.0000 0.0599627315
H   H25       1.0  0.16590  0.10710  0.07410  1.0000 0.1199420073
C   C16       1.0  0.12360  0.00620  0.11777  1.0000 0.1422292007
H   H26       1.0  0.20700  0.00340  0.11190  1.0000 0.1332312332
C   C17       1.0  0.08440  0.03240  0.11180  1.0000 -0.2412144577
H   H27       1.0  0.07690  0.08880  0.09170  1.0000 0.1199420073
C   C18       1.0  0.10060  0.96520  0.13496  1.0000 0.1542727053
N   N5        1.0  0.04220  0.95560  0.14194  1.0000 -0.2412144577
C   C19       1.0  0.13250  0.93730  0.14388  1.0000 -0.1823075057
N   N6        1.0  0.94790  0.91560  0.11180  1.0000 -0.2028512544
C   C20       1.0  0.01640  0.91770  0.15777  1.0000 0.040310148
H   H28       1.0  0.17310  0.94440  0.13900  1.0000 0.1332312332
C   C21       1.0  0.10600  0.89900  0.16007  1.0000 0.0096146532
C   C22       1.0  0.04760  0.89080  0.16702  1.0000 -0.1918009899
H   H29       1.0  0.97530  0.90990  0.16250  1.0000 0.1103299505
C   C23       1.0  0.14010  0.86760  0.16991  1.0000 0.0041466364
H   H30       1.0  0.02920  0.86610  0.17840  1.0000 0.1199420073
O   O4        1.0  0.19120  0.87380  0.16270  1.0000 -0.5068227806
N   N7        1.0  0.46360  0.38600  0.86200  1.0000 -0.0686857758
H   H31       1.0  0.46260  0.35570  0.87210  1.0000 0.1007798595
N   N8        1.0  0.57200  0.50980  0.86470  1.0000 -0.0804308695
H   H32       1.0  0.57400  0.53290  0.85250  1.0000 0.1007798595
N   N9        1.0  0.49230  0.55110  0.88850  1.0000 -0.0686857758
H   H33       1.0  0.48360  0.57550  0.87830  1.0000 0.1103299505
N   N10       1.0  0.38380  0.42840  0.88480  1.0000 -0.0804308695
H   H34       1.0  0.38130  0.40280  0.89650  1.0000 0.1007798595
C   C24       1.0  0.51900  0.40340  0.84940  1.0000 -0.0610470701
H   H35       1.0  0.51320  0.42130  0.83720  1.0000 0.0599627315
H   H36       1.0  0.52240  0.36420  0.84650  1.0000 0.040310148
C   C25       1.0  0.58100  0.45460  0.85950  1.0000 0.027875408
H   H37       1.0  0.58880  0.43560  0.87120  1.0000 0.0693294588
H   H38       1.0  0.61920  0.46960  0.85090  1.0000 0.040310148
C   C26       1.0  0.62450  0.55700  0.87680  1.0000 -0.0804308695
H   H39       1.0  0.66540  0.58170  0.86940  1.0000 0.0599627315
H   H40       1.0  0.63240  0.53500  0.88770  1.0000 0.0777011545
C   C27       1.0  0.60000  0.60300  0.88390  1.0000 -0.0366537845
H   H41       1.0  0.64090  0.64150  0.88810  1.0000 0.0599627315
H   H42       1.0  0.58820  0.61590  0.87180  1.0000 0.0486432212
C   C28       1.0  0.55040  0.60200  0.89780  1.0000 -0.0153511054
H   H43       1.0  0.55590  0.59000  0.91090  1.0000 0.040310148
H   H44       1.0  0.55120  0.64450  0.89800  1.0000 0.01818332
C   C29       1.0  0.43700  0.53100  0.90150  1.0000 -0.0881865386
H   H45       1.0  0.43430  0.56990  0.90550  1.0000 0.0486432212
H   H46       1.0  0.44350  0.51100  0.91310  1.0000 0.0599627315
C   C30       1.0  0.36750  0.47750  0.89070  1.0000 0.0096146532
H   H47       1.0  0.33010  0.45940  0.89970  1.0000 0.040310148
H   H48       1.0  0.35770  0.49720  0.87960  1.0000 0.0599627315
C   C31       1.0  0.33120  0.38500  0.87240  1.0000 -0.0463115656
H   H49       1.0  0.32830  0.41040  0.86160  1.0000 0.0693294588
H   H50       1.0  0.28960  0.36610  0.87960  1.0000 0.0777011545
C   C32       1.0  0.34000  0.32900  0.86450  1.0000 -0.101100454
H   H51       1.0  0.34250  0.30350  0.87520  1.0000 0.0777011545
H   H52       1.0  0.30090  0.29980  0.85670  1.0000 0.0599627315
C   C33       1.0  0.40080  0.35600  0.85220  1.0000 0.027875408
H   H53       1.0  0.39750  0.31900  0.84440  1.0000 0.0599627315
H   H54       1.0  0.40090  0.38800  0.84320  1.0000 0.0599627315
O   O5        1.0  0.05687  0.50603  0.35180  1.0000 -0.4828358619
Ni  Ni2       1.0  0.99188  0.46939  0.37466  1.0000 0.2342789186
N   N11       1.0  0.05967  0.45573  0.38943  1.0000 -0.0686857758
O   O6        1.0  0.92917  0.43703  0.39779  1.0000 -0.4928275375
N   N12       1.0  0.92317  0.47983  0.35973  1.0000 -0.0610470701
N   N13       1.0  0.94637  0.37713  0.36213  1.0000 -0.0610470701
N   N14       1.0  0.03867  0.56253  0.38533  1.0000 -0.0686857758
C   C34       1.0  0.11377  0.51873  0.39523  1.0000 -0.0881865386
C   C35       1.0  0.08357  0.41723  0.38033  1.0000 0.0041466364
H   H55       1.0  0.03777  0.43223  0.40153  1.0000 0.1007798595
C   C36       1.0  0.92187  0.40573  0.41251  1.0000 0.027875408
C   C37       1.0  0.90167  0.52233  0.36823  1.0000 0.027875408
C   C38       1.0  0.86877  0.41863  0.35503  1.0000 -0.0804308695
H   H56       1.0  0.94417  0.50053  0.34733  1.0000 0.1103299505
H   H57       1.0  0.91867  0.34683  0.37253  1.0000 0.1103299505
C   C39       1.0  0.89887  0.37763  0.34823  1.0000 0.0096146532
C   C40       1.0  0.98837  0.35143  0.35583  1.0000 -0.0804308695
C   C41       1.0  0.00467  0.59493  0.39163  1.0000 -0.0463115656
C   C42       1.0  0.08037  0.55833  0.40033  1.0000 0.027875408
H   H58       1.0  0.06917  0.59073  0.37503  1.0000 0.1007798595
H   H59       1.0  0.13677  0.51423  0.40643  1.0000 0.040310148
H   H60       1.0  0.14527  0.53953  0.38463  1.0000 0.0599627315
C   C43       1.0  0.03137  0.35293  0.37233  1.0000 -0.0804308695
H   H61       1.0  0.11327  0.44323  0.36973  1.0000 0.0599627315
H   H62       1.0  0.10957  0.40853  0.38973  1.0000 0.0486432212
O   O7        1.0  0.95497  0.38163  0.41754  1.0000 -0.5068227806
C   C44       1.0  0.86417  0.39273  0.42438  1.0000 0.0096146532
H   H63       1.0  0.87377  0.50033  0.37943  1.0000 0.0599627315
C   C45       1.0  0.96147  0.58963  0.37463  1.0000 -0.101100454
H   H64       1.0  0.87517  0.53023  0.35873  1.0000 0.027875408
H   H65       1.0  0.84037  0.39843  0.36633  1.0000 0.0599627315
H   H66       1.0  0.84257  0.42323  0.34463  1.0000 0.040310148
H   H67       1.0  0.86357  0.33223  0.34603  1.0000 0.040310148
H   H68       1.0  0.92147  0.39523  0.33583  1.0000 0.0486432212
H   H69       1.0  0.01617  0.37803  0.34513  1.0000 0.0599627315
H   H70       1.0  0.96097  0.30593  0.35133  1.0000 0.0599627315
H   H71       1.0  0.97767  0.57303  0.40313  1.0000 0.0599627315
H   H72       1.0  0.03557  0.64123  0.39483  1.0000 0.0599627315
H   H73       1.0  0.05327  0.53873  0.41183  1.0000 0.0599627315
H   H74       1.0  0.11467  0.60323  0.40363  1.0000 0.040310148
H   H75       1.0  0.05317  0.32853  0.36813  1.0000 0.0599627315
H   H76       1.0  0.00207  0.32803  0.38303  1.0000 0.0777011545
C   C46       1.0  0.82287  0.41543  0.41885  1.0000 -0.1918009899
C   C47       1.0  0.84687  0.35363  0.44091  1.0000 -0.1918009899
H   H77       1.0  0.94417  0.61933  0.37723  1.0000 0.0486432212
H   H78       1.0  0.99057  0.60763  0.36333  1.0000 0.0693294588
C   C48       1.0  0.76897  0.40353  0.42911  1.0000 0.0599627315
H   H79       1.0  0.83257  0.44043  0.40743  1.0000 0.1199420073
C   C49       1.0  0.79027  0.33953  0.45110  1.0000 0.1422292007
H   H80       1.0  0.87367  0.33673  0.44523  1.0000 0.1332312332
C   C50       1.0  0.75107  0.36573  0.44513  1.0000 -0.2412144577
H   H81       1.0  0.74357  0.42213  0.42503  1.0000 0.1199420073
C   C51       1.0  0.76727  0.29853  0.46829  1.0000 0.1542727053
N   N15       1.0  0.70887  0.28893  0.47527  1.0000 -0.2412144577
C   C52       1.0  0.79917  0.27063  0.47721  1.0000 -0.1823075057
N   N16       1.0  0.61457  0.24893  0.44513  1.0000 -0.2028512544
C   C53       1.0  0.68307  0.25103  0.49110  1.0000 0.040310148
H   H82       1.0  0.83977  0.27773  0.47233  1.0000 0.1332312332
C   C54       1.0  0.77267  0.23233  0.49340  1.0000 0.0096146532
C   C55       1.0  0.71427  0.22413  0.50035  1.0000 -0.1918009899
H   H83       1.0  0.64197  0.24323  0.49583  1.0000 0.1103299505
C   C56       1.0  0.80677  0.20093  0.50324  1.0000 -0.0018398883
H   H84       1.0  0.69587  0.19943  0.51173  1.0000 0.1199420073
O   O8        1.0  0.85787  0.20713  0.49603  1.0000 -0.5068227806
N   N17       1.0  0.13027  0.71933  0.19533  1.0000 -0.0686857758
H   H85       1.0  0.12927  0.68903  0.20543  1.0000 0.1007798595
N   N18       1.0  0.23867  0.84313  0.19803  1.0000 -0.0804308695
H   H86       1.0  0.24067  0.86623  0.18583  1.0000 0.1007798595
N   N19       1.0  0.15897  0.88443  0.22183  1.0000 -0.0686857758
H   H87       1.0  0.15027  0.90883  0.21163  1.0000 0.1103299505
N   N20       1.0  0.05047  0.76173  0.21813  1.0000 -0.0804308695
H   H88       1.0  0.04797  0.73613  0.22983  1.0000 0.1007798595
C   C57       1.0  0.18567  0.73673  0.18273  1.0000 -0.0610470701
H   H89       1.0  0.17987  0.75463  0.17053  1.0000 0.0599627315
H   H90       1.0  0.18907  0.69753  0.17983  1.0000 0.040310148
C   C58       1.0  0.24767  0.78793  0.19283  1.0000 0.027875408
H   H91       1.0  0.25547  0.76893  0.20453  1.0000 0.0693294588
H   H92       1.0  0.28587  0.80293  0.18423  1.0000 0.040310148
C   C59       1.0  0.29117  0.89033  0.21013  1.0000 -0.0804308695
H   H93       1.0  0.33207  0.91503  0.20273  1.0000 0.0599627315
H   H94       1.0  0.29907  0.86833  0.22103  1.0000 0.0693294588
C   C60       1.0  0.26667  0.93633  0.21723  1.0000 -0.0366537845
H   H95       1.0  0.30757  0.97483  0.22143  1.0000 0.0599627315
H   H96       1.0  0.25487  0.94923  0.20513  1.0000 0.0486432212
C   C61       1.0  0.21707  0.93533  0.23113  1.0000 -0.0153511054
H   H97       1.0  0.22257  0.92333  0.24423  1.0000 0.040310148
H   H98       1.0  0.21787  0.97783  0.23133  1.0000 0.01818332
C   C62       1.0  0.10367  0.86433  0.23483  1.0000 -0.0881865386
H   H99       1.0  0.10097  0.90323  0.23883  1.0000 0.0486432212
H   H100      1.0  0.11017  0.84433  0.24643  1.0000 0.0599627315
C   C63       1.0  0.03417  0.81083  0.22403  1.0000 0.0096146532
H   H101      1.0  0.99677  0.79273  0.23303  1.0000 0.040310148
H   H102      1.0  0.02437  0.83053  0.21293  1.0000 0.0599627315
C   C64       1.0  0.99787  0.71833  0.20573  1.0000 -0.0366537845
H   H103      1.0  0.99497  0.74373  0.19493  1.0000 0.0693294588
H   H104      1.0  0.95627  0.69943  0.21293  1.0000 0.0777011545
C   C65       1.0  0.00667  0.66233  0.19783  1.0000 -0.101100454
H   H105      1.0  0.00917  0.63683  0.20853  1.0000 0.0777011545
H   H106      1.0  0.96757  0.63313  0.19003  1.0000 0.0599627315
C   C66       1.0  0.06747  0.68933  0.18553  1.0000 0.027875408
H   H107      1.0  0.06417  0.65233  0.17773  1.0000 0.0599627315
H   H108      1.0  0.06757  0.72133  0.17653  1.0000 0.0599627315
O   O9        1.0  0.72353  0.83937  0.68514  1.0000 -0.4828358619
Ni  Ni3       1.0  0.65854  0.80273  0.70800  1.0000 0.2361303248
N   N21       1.0  0.72633  0.78907  0.72277  1.0000 -0.0686857758
O   O10       1.0  0.59583  0.77037  0.73113  1.0000 -0.4928275375
N   N22       1.0  0.58983  0.81317  0.69307  1.0000 -0.0686857758
N   N23       1.0  0.61303  0.71047  0.69547  1.0000 -0.0686857758
N   N24       1.0  0.70533  0.89587  0.71867  1.0000 -0.0686857758
C   C67       1.0  0.78043  0.85207  0.72857  1.0000 -0.0881865386
C   C68       1.0  0.75023  0.75057  0.71367  1.0000 0.0041466364
H   H109      1.0  0.70443  0.76557  0.73487  1.0000 0.1007798595
C   C69       1.0  0.58853  0.73907  0.74585  1.0000 0.027875408
C   C70       1.0  0.56833  0.85567  0.70157  1.0000 0.027875408
C   C71       1.0  0.53543  0.75197  0.68837  1.0000 -0.0804308695
H   H110      1.0  0.61083  0.83387  0.68067  1.0000 0.1103299505
H   H111      1.0  0.58533  0.68017  0.70587  1.0000 0.1103299505
C   C72       1.0  0.56553  0.71097  0.68157  1.0000 0.0096146532
C   C73       1.0  0.65503  0.68477  0.68917  1.0000 -0.0804308695
C   C74       1.0  0.67133  0.92827  0.72497  1.0000 -0.0463115656
C   C75       1.0  0.74703  0.89167  0.73367  1.0000 0.027875408
H   H112      1.0  0.73583  0.92407  0.70837  1.0000 0.1007798595
H   H113      1.0  0.80343  0.84757  0.73977  1.0000 0.040310148
H   H114      1.0  0.81193  0.87287  0.71797  1.0000 0.0599627315
C   C76       1.0  0.69803  0.68627  0.70567  1.0000 -0.0804308695
H   H115      1.0  0.77993  0.77657  0.70307  1.0000 0.0599627315
H   H116      1.0  0.77623  0.74187  0.72307  1.0000 0.0486432212
O   O11       1.0  0.62163  0.71497  0.75088  1.0000 -0.5016892986
C   C77       1.0  0.53083  0.72607  0.75772  1.0000 0.0096146532
H   H117      1.0  0.54043  0.83367  0.71277  1.0000 0.0599627315
C   C78       1.0  0.62813  0.92297  0.70797  1.0000 -0.101100454
H   H118      1.0  0.54183  0.86357  0.69207  1.0000 0.040310148
H   H119      1.0  0.50703  0.73177  0.69967  1.0000 0.0599627315
H   H120      1.0  0.50923  0.75657  0.67797  1.0000 0.040310148
H   H121      1.0  0.53023  0.66557  0.67937  1.0000 0.040310148
H   H122      1.0  0.58813  0.72857  0.66917  1.0000 0.0486432212
H   H123      1.0  0.68283  0.71137  0.67847  1.0000 0.0599627315
H   H124      1.0  0.62763  0.63927  0.68467  1.0000 0.0599627315
H   H125      1.0  0.64433  0.90637  0.73647  1.0000 0.0599627315
H   H126      1.0  0.70223  0.97457  0.72817  1.0000 0.0599627315
H   H127      1.0  0.71993  0.87207  0.74517  1.0000 0.0599627315
H   H128      1.0  0.78133  0.93657  0.73697  1.0000 0.040310148
H   H129      1.0  0.71983  0.66187  0.70147  1.0000 0.0599627315
H   H130      1.0  0.66873  0.66137  0.71637  1.0000 0.0777011545
C   C79       1.0  0.48953  0.74877  0.75219  1.0000 -0.1918009899
C   C80       1.0  0.51353  0.68697  0.77425  1.0000 -0.1918009899
H   H131      1.0  0.61083  0.95267  0.71057  1.0000 0.0486432212
H   H132      1.0  0.65723  0.94097  0.69667  1.0000 0.0693294588
C   C81       1.0  0.43563  0.73687  0.76245  1.0000 0.0599627315
H   H133      1.0  0.49923  0.77377  0.74077  1.0000 0.1199420073
C   C82       1.0  0.45693  0.67287  0.78444  1.0000 0.1422292007
H   H134      1.0  0.54033  0.67007  0.77857  1.0000 0.1332312332
C   C83       1.0  0.41773  0.69907  0.77847  1.0000 -0.2412144577
H   H135      1.0  0.41023  0.75547  0.75837  1.0000 0.1199420073
C   C84       1.0  0.43393  0.63187  0.80163  1.0000 0.1542727053
N   N25       1.0  0.37553  0.62227  0.80861  1.0000 -0.2412144577
C   C85       1.0  0.46583  0.60397  0.81055  1.0000 -0.1823075057
N   N26       1.0  0.28123  0.58227  0.77847  1.0000 -0.2028512544
C   C86       1.0  0.34973  0.58437  0.82444  1.0000 0.040310148
H   H136      1.0  0.50643  0.61107  0.80567  1.0000 0.1332312332
C   C87       1.0  0.43933  0.56567  0.82674  1.0000 0.0096146532
C   C88       1.0  0.38093  0.55747  0.83369  1.0000 -0.1918009899
H   H137      1.0  0.30863  0.57657  0.82917  1.0000 0.1103299505
C   C89       1.0  0.47343  0.53427  0.83658  1.0000 -0.0018398883
H   H138      1.0  0.36253  0.53277  0.84507  1.0000 0.1199420073
O   O12       1.0  0.52453  0.54047  0.82937  1.0000 -0.5068227806
N   N27       1.0  0.79693  0.05267  0.52867  1.0000 -0.0686857758
H   H139      1.0  0.79593  0.02237  0.53877  1.0000 0.1007798595
N   N28       1.0  0.90533  0.17647  0.53137  1.0000 -0.0804308695
H   H140      1.0  0.90733  0.19957  0.51917  1.0000 0.1007798595
N   N29       1.0  0.82563  0.21777  0.55517  1.0000 -0.0686857758
H   H141      1.0  0.81693  0.24217  0.54497  1.0000 0.1103299505
N   N30       1.0  0.71713  0.09507  0.55147  1.0000 -0.0804308695
H   H142      1.0  0.71463  0.06947  0.56317  1.0000 0.1007798595
C   C90       1.0  0.85233  0.07007  0.51607  1.0000 -0.0610470701
H   H143      1.0  0.84653  0.08797  0.50387  1.0000 0.0599627315
H   H144      1.0  0.85573  0.03087  0.51317  1.0000 0.040310148
C   C91       1.0  0.91433  0.12127  0.52617  1.0000 0.027875408
H   H145      1.0  0.92213  0.10227  0.53787  1.0000 0.0693294588
H   H146      1.0  0.95253  0.13627  0.51757  1.0000 0.040310148
C   C92       1.0  0.95783  0.22367  0.54347  1.0000 -0.0804308695
H   H147      1.0  0.99873  0.24837  0.53607  1.0000 0.0599627315
H   H148      1.0  0.96573  0.20167  0.55437  1.0000 0.0693294588
C   C93       1.0  0.93333  0.26967  0.55057  1.0000 -0.0366537845
H   H149      1.0  0.97423  0.30817  0.55477  1.0000 0.0599627315
H   H150      1.0  0.92153  0.28257  0.53847  1.0000 0.0486432212
C   C94       1.0  0.88373  0.26867  0.56447  1.0000 -0.0153511054
H   H151      1.0  0.88923  0.25667  0.57757  1.0000 0.040310148
H   H152      1.0  0.88453  0.31117  0.56467  1.0000 0.01818332
C   C95       1.0  0.77033  0.19767  0.56817  1.0000 -0.0881865386
H   H153      1.0  0.76763  0.23657  0.57217  1.0000 0.0486432212
H   H154      1.0  0.77683  0.17767  0.57977  1.0000 0.0599627315
C   C96       1.0  0.70083  0.14417  0.55737  1.0000 0.0096146532
H   H155      1.0  0.66343  0.12607  0.56637  1.0000 0.040310148
H   H156      1.0  0.69103  0.16387  0.54627  1.0000 0.0599627315
C   C97       1.0  0.66453  0.05167  0.53907  1.0000 -0.0463115656
H   H157      1.0  0.66163  0.07707  0.52827  1.0000 0.0693294588
H   H158      1.0  0.62293  0.03277  0.54627  1.0000 0.0777011545
C   C98       1.0  0.67333  0.99567  0.53117  1.0000 -0.101100454
H   H159      1.0  0.67583  0.97017  0.54187  1.0000 0.0777011545
H   H160      1.0  0.63423  0.96647  0.52337  1.0000 0.0599627315
C   C99       1.0  0.73413  0.02267  0.51887  1.0000 0.027875408
H   H161      1.0  0.73083  0.98567  0.51107  1.0000 0.0599627315
H   H162      1.0  0.73423  0.05467  0.50987  1.0000 0.0599627315
O   O13       1.0  0.78250  0.60980  0.01847  1.0000 -0.4828358619
Ni  Ni4       1.0  0.81085  0.67479  0.04133  1.0000 0.2361303248
N   N31       1.0  0.72940  0.60700  0.05610  1.0000 -0.0686857758
O   O14       1.0  0.84120  0.73750  0.06446  1.0000 -0.4928275375
N   N32       1.0  0.89000  0.74350  0.02640  1.0000 -0.0610470701
N   N33       1.0  0.76410  0.72030  0.02880  1.0000 -0.0610470701
N   N34       1.0  0.85720  0.62800  0.05200  1.0000 -0.0686857758
C   C100      1.0  0.73830  0.55290  0.06190  1.0000 -0.0881865386
C   C101      1.0  0.66700  0.58310  0.04700  1.0000 0.0041466364
H   H163      1.0  0.72780  0.62890  0.06820  1.0000 0.1007798595
C   C102      1.0  0.81720  0.74480  0.07918  1.0000 0.027875408
C   C103      1.0  0.95400  0.76500  0.03490  1.0000 0.027875408
C   C104      1.0  0.88320  0.79790  0.02170  1.0000 -0.0804308695
H   H164      1.0  0.88970  0.72250  0.01400  1.0000 0.1103299505
H   H165      1.0  0.76150  0.74800  0.03920  1.0000 0.1103299505
C   C105      1.0  0.81210  0.76780  0.01490  1.0000 0.0096146532
C   C106      1.0  0.69640  0.67830  0.02250  1.0000 -0.0804308695
C   C107      1.0  0.92360  0.66200  0.05830  1.0000 -0.0463115656
C   C108      1.0  0.81130  0.58630  0.06700  1.0000 0.027875408
H   H166      1.0  0.85490  0.59750  0.04170  1.0000 0.1007798595
H   H167      1.0  0.71080  0.52990  0.07310  1.0000 0.040310148
H   H168      1.0  0.72760  0.52140  0.05130  1.0000 0.0599627315
C   C109      1.0  0.65490  0.63530  0.03900  1.0000 -0.0804308695
H   H169      1.0  0.66330  0.55340  0.03640  1.0000 0.0599627315
H   H170      1.0  0.63230  0.55710  0.05640  1.0000 0.0486432212
O   O15       1.0  0.76000  0.71170  0.08421  1.0000 -0.5016892986
C   C110      1.0  0.86190  0.80250  0.09105  1.0000 -0.0153511054
H   H171      1.0  0.95990  0.79290  0.04610  1.0000 0.0599627315
C   C111      1.0  0.96150  0.70520  0.04130  1.0000 -0.101100454
H   H172      1.0  0.98840  0.79150  0.02540  1.0000 0.040310148
H   H173      1.0  0.89140  0.82630  0.03300  1.0000 0.0599627315
H   H174      1.0  0.91400  0.82410  0.01130  1.0000 0.040310148
H   H175      1.0  0.80200  0.80310  0.01270  1.0000 0.040310148
H   H176      1.0  0.80710  0.74520  0.00250  1.0000 0.0486432212
H   H177      1.0  0.69520  0.65050  0.01180  1.0000 0.0599627315
H   H178      1.0  0.67830  0.70570  0.01800  1.0000 0.0599627315
H   H179      1.0  0.92870  0.68900  0.06980  1.0000 0.0599627315
H   H180      1.0  0.93900  0.63110  0.06150  1.0000 0.0599627315
H   H181      1.0  0.81880  0.61340  0.07850  1.0000 0.0599627315
H   H182      1.0  0.82190  0.55200  0.07030  1.0000 0.040310148
H   H183      1.0  0.60870  0.61350  0.03480  1.0000 0.0599627315
H   H184      1.0  0.65930  0.66460  0.04970  1.0000 0.0777011545
C   C112      1.0  0.92590  0.84380  0.08552  1.0000 -0.1482281308
C   C113      1.0  0.84010  0.81980  0.10758  1.0000 -0.1482281308
H   H185      1.0  0.00850  0.72250  0.04390  1.0000 0.0486432212
H   H186      1.0  0.95040  0.67610  0.03000  1.0000 0.0693294588
C   C114      1.0  0.96790  0.89770  0.09578  1.0000 -0.0881865386
H   H187      1.0  0.94120  0.83410  0.07410  1.0000 0.1103299505
C   C115      1.0  0.88260  0.87640  0.11777  1.0000 0.027875408
H   H188      1.0  0.79640  0.79300  0.11190  1.0000 0.1199420073
H   H189      1.0  0.01190  0.92310  0.09170  1.0000 0.1199420073
C   C116      1.0  0.86460  0.89940  0.13496  1.0000 0.1772400725
N   N35       1.0  0.91340  0.95780  0.14194  1.0000 -0.2412144577
C   C117      1.0  0.80480  0.86750  0.14388  1.0000 -0.1823075057
N   N36       1.0  0.96770  0.05210  0.11180  1.0000 -0.2093651803
C   C118      1.0  0.90130  0.98360  0.15777  1.0000 0.040310148
H   H190      1.0  0.77130  0.82690  0.13900  1.0000 0.1332312332
C   C119      1.0  0.79300  0.89400  0.16007  1.0000 0.0096146532
C   C120      1.0  0.84320  0.95240  0.16702  1.0000 -0.1918009899
H   H191      1.0  0.93460  0.02470  0.16250  1.0000 0.1103299505
C   C121      1.0  0.72750  0.85990  0.16991  1.0000 -0.0018398883
H   H192      1.0  0.83690  0.97080  0.17840  1.0000 0.1199420073
O   O16       1.0  0.68260  0.80880  0.16270  1.0000 -0.5068227806
N   N37       1.0  0.92240  0.53640  0.86200  1.0000 -0.0686857758
H   H193      1.0  0.89310  0.53740  0.87210  1.0000 0.1007798595
N   N38       1.0  0.93780  0.42800  0.86470  1.0000 -0.0804308695
H   H194      1.0  0.95890  0.42600  0.85250  1.0000 0.1007798595
N   N39       1.0  0.05880  0.50770  0.88850  1.0000 -0.0686857758
H   H195      1.0  0.09190  0.51640  0.87830  1.0000 0.1103299505
N   N40       1.0  0.04460  0.61620  0.88480  1.0000 -0.0804308695
H   H196      1.0  0.02150  0.61870  0.89650  1.0000 0.1007798595
C   C122      1.0  0.88440  0.48100  0.84940  1.0000 -0.0610470701
H   H197      1.0  0.90810  0.48680  0.83720  1.0000 0.0599627315
H   H198      1.0  0.84180  0.47760  0.84650  1.0000 0.040310148
C   C123      1.0  0.87360  0.41900  0.85950  1.0000 0.027875408
H   H199      1.0  0.84680  0.41120  0.87120  1.0000 0.0693294588
H   H200      1.0  0.85040  0.38080  0.85090  1.0000 0.040310148
C   C124      1.0  0.93250  0.37550  0.87680  1.0000 -0.0804308695
H   H201      1.0  0.91630  0.33460  0.86940  1.0000 0.0599627315
H   H202      1.0  0.90260  0.36760  0.88770  1.0000 0.0777011545
C   C125      1.0  0.00300  0.40000  0.88390  1.0000 -0.0366537845
H   H203      1.0  0.00060  0.35910  0.88810  1.0000 0.0599627315
H   H204      1.0  0.02770  0.41180  0.87180  1.0000 0.0486432212
C   C126      1.0  0.05160  0.44960  0.89780  1.0000 -0.0153511054
H   H205      1.0  0.03410  0.44410  0.91090  1.0000 0.040310148
H   H206      1.0  0.09330  0.44880  0.89800  1.0000 0.01818332
C   C127      1.0  0.09400  0.56300  0.90150  1.0000 -0.0881865386
H   H207      1.0  0.13560  0.56570  0.90550  1.0000 0.0486432212
H   H208      1.0  0.06750  0.55650  0.91310  1.0000 0.0599627315
C   C128      1.0  0.11000  0.63250  0.89070  1.0000 0.0096146532
H   H209      1.0  0.12930  0.66990  0.89970  1.0000 0.040310148
H   H210      1.0  0.13950  0.64230  0.87960  1.0000 0.0599627315
C   C129      1.0  0.05380  0.66880  0.87240  1.0000 -0.0463115656
H   H211      1.0  0.08210  0.67170  0.86160  1.0000 0.0693294588
H   H212      1.0  0.07650  0.71040  0.87960  1.0000 0.0777011545
C   C130      1.0  0.98900  0.66000  0.86450  1.0000 -0.101100454
H   H213      1.0  0.96100  0.65750  0.87520  1.0000 0.0777011545
H   H214      1.0  0.99890  0.69910  0.85670  1.0000 0.0599627315
C   C131      1.0  0.95520  0.59920  0.85220  1.0000 0.027875408
H   H215      1.0  0.92150  0.60250  0.84440  1.0000 0.0599627315
H   H216      1.0  0.98710  0.59910  0.84320  1.0000 0.0599627315
O   O17       1.0  0.44917  0.94313  0.35180  1.0000 -0.4828358619
Ni  Ni5       1.0  0.47752  0.00812  0.37466  1.0000 0.2361303248
N   N41       1.0  0.39607  0.94033  0.38943  1.0000 -0.0686857758
O   O18       1.0  0.50787  0.07083  0.39779  1.0000 -0.4928275375
N   N42       1.0  0.55667  0.07683  0.35973  1.0000 -0.0686857758
N   N43       1.0  0.43077  0.05363  0.36213  1.0000 -0.0610470701
N   N44       1.0  0.52387  0.96133  0.38533  1.0000 -0.0686857758
C   C132      1.0  0.40497  0.88623  0.39523  1.0000 -0.0881865386
C   C133      1.0  0.33367  0.91643  0.38033  1.0000 0.0041466364
H   H217      1.0  0.39447  0.96223  0.40153  1.0000 0.1007798595
C   C134      1.0  0.48387  0.07813  0.41251  1.0000 0.027875408
C   C135      1.0  0.62067  0.09833  0.36823  1.0000 0.027875408
C   C136      1.0  0.54987  0.13123  0.35503  1.0000 -0.0804308695
H   H218      1.0  0.55637  0.05583  0.34733  1.0000 0.1103299505
H   H219      1.0  0.42817  0.08133  0.37253  1.0000 0.1103299505
C   C137      1.0  0.47877  0.10113  0.34823  1.0000 0.0096146532
C   C138      1.0  0.36307  0.01163  0.35583  1.0000 -0.0804308695
C   C139      1.0  0.59027  0.99533  0.39163  1.0000 -0.0463115656
C   C140      1.0  0.47797  0.91963  0.40033  1.0000 0.027875408
H   H220      1.0  0.52157  0.93083  0.37503  1.0000 0.1007798595
H   H221      1.0  0.37747  0.86323  0.40643  1.0000 0.040310148
H   H222      1.0  0.39427  0.85473  0.38463  1.0000 0.0599627315
C   C141      1.0  0.32157  0.96863  0.37233  1.0000 -0.0804308695
H   H223      1.0  0.32997  0.88673  0.36973  1.0000 0.0599627315
H   H224      1.0  0.29897  0.89043  0.38973  1.0000 0.0486432212
O   O19       1.0  0.42667  0.04503  0.41754  1.0000 -0.5016892986
C   C142      1.0  0.52857  0.13583  0.42438  1.0000 -0.0140314105
H   H225      1.0  0.62657  0.12623  0.37943  1.0000 0.0599627315
C   C143      1.0  0.62817  0.03853  0.37463  1.0000 -0.101100454
H   H226      1.0  0.65507  0.12483  0.35873  1.0000 0.027875408
H   H227      1.0  0.55807  0.15963  0.36633  1.0000 0.0599627315
H   H228      1.0  0.58067  0.15743  0.34463  1.0000 0.040310148
H   H229      1.0  0.46867  0.13643  0.34603  1.0000 0.040310148
H   H230      1.0  0.47377  0.07853  0.33583  1.0000 0.0486432212
H   H231      1.0  0.36187  0.98383  0.34513  1.0000 0.0599627315
H   H232      1.0  0.34497  0.03903  0.35133  1.0000 0.0599627315
H   H233      1.0  0.59537  0.02233  0.40313  1.0000 0.0599627315
H   H234      1.0  0.60567  0.96443  0.39483  1.0000 0.0599627315
H   H235      1.0  0.48547  0.94673  0.41183  1.0000 0.0599627315
H   H236      1.0  0.48857  0.88533  0.40363  1.0000 0.040310148
H   H237      1.0  0.27537  0.94683  0.36813  1.0000 0.0599627315
H   H238      1.0  0.32597  0.99793  0.38303  1.0000 0.0777011545
C   C144      1.0  0.59257  0.17713  0.41885  1.0000 -0.1441280382
C   C145      1.0  0.50677  0.15313  0.44091  1.0000 -0.1482281308
H   H239      1.0  0.67517  0.05583  0.37723  1.0000 0.0486432212
H   H240      1.0  0.61707  0.00943  0.36333  1.0000 0.0693294588
C   C146      1.0  0.63457  0.23103  0.42911  1.0000 -0.101100454
H   H241      1.0  0.60787  0.16743  0.40743  1.0000 0.1103299505
C   C147      1.0  0.54927  0.20973  0.45110  1.0000 0.027875408
H   H242      1.0  0.46307  0.12633  0.44523  1.0000 0.1199420073
H   H243      1.0  0.67857  0.25643  0.42503  1.0000 0.1199420073
C   C148      1.0  0.53127  0.23273  0.46829  1.0000 0.1772400725
N   N45       1.0  0.58007  0.29113  0.47527  1.0000 -0.2412144577
C   C149      1.0  0.47147  0.20083  0.47721  1.0000 -0.1823075057
N   N46       1.0  0.63437  0.38543  0.44513  1.0000 -0.2093651803
C   C150      1.0  0.56797  0.31693  0.49110  1.0000 0.040310148
H   H244      1.0  0.43797  0.16023  0.47233  1.0000 0.1332312332
C   C151      1.0  0.45967  0.22733  0.49340  1.0000 0.0096146532
C   C152      1.0  0.50987  0.28573  0.50035  1.0000 -0.1918009899
H   H245      1.0  0.60127  0.35803  0.49583  1.0000 0.1103299505
C   C153      1.0  0.39417  0.19323  0.50324  1.0000 -0.0018398883
H   H246      1.0  0.50357  0.30413  0.51173  1.0000 0.1199420073
O   O20       1.0  0.34927  0.14213  0.49603  1.0000 -0.5068227806
N   N47       1.0  0.58907  0.86973  0.19533  1.0000 -0.0686857758
H   H247      1.0  0.55977  0.87073  0.20543  1.0000 0.1007798595
N   N48       1.0  0.60447  0.76133  0.19803  1.0000 -0.0804308695
H   H248      1.0  0.62557  0.75933  0.18583  1.0000 0.1007798595
N   N49       1.0  0.72547  0.84103  0.22183  1.0000 -0.0686857758
H   H249      1.0  0.75857  0.84973  0.21163  1.0000 0.1103299505
N   N50       1.0  0.71127  0.94953  0.21813  1.0000 -0.0804308695
H   H250      1.0  0.68817  0.95203  0.22983  1.0000 0.1007798595
C   C154      1.0  0.55107  0.81433  0.18273  1.0000 -0.0610470701
H   H251      1.0  0.57477  0.82013  0.17053  1.0000 0.0599627315
H   H252      1.0  0.50847  0.81093  0.17983  1.0000 0.040310148
C   C155      1.0  0.54027  0.75233  0.19283  1.0000 0.027875408
H   H253      1.0  0.51347  0.74453  0.20453  1.0000 0.0693294588
H   H254      1.0  0.51707  0.71413  0.18423  1.0000 0.040310148
C   C156      1.0  0.59917  0.70883  0.21013  1.0000 -0.0804308695
H   H255      1.0  0.58297  0.66793  0.20273  1.0000 0.0599627315
H   H256      1.0  0.56927  0.70093  0.22103  1.0000 0.0693294588
C   C157      1.0  0.66967  0.73333  0.21723  1.0000 -0.0366537845
H   H257      1.0  0.66727  0.69243  0.22143  1.0000 0.0599627315
H   H258      1.0  0.69437  0.74513  0.20513  1.0000 0.0486432212
C   C158      1.0  0.71827  0.78293  0.23113  1.0000 -0.0153511054
H   H259      1.0  0.70077  0.77743  0.24423  1.0000 0.040310148
H   H260      1.0  0.75997  0.78213  0.23133  1.0000 0.01818332
C   C159      1.0  0.76067  0.89633  0.23483  1.0000 -0.0881865386
H   H261      1.0  0.80227  0.89903  0.23883  1.0000 0.0486432212
H   H262      1.0  0.73417  0.88983  0.24643  1.0000 0.0599627315
C   C160      1.0  0.77667  0.96583  0.22403  1.0000 0.0096146532
H   H263      1.0  0.79597  0.00323  0.23303  1.0000 0.040310148
H   H264      1.0  0.80617  0.97563  0.21293  1.0000 0.0599627315
C   C161      1.0  0.72047  0.00213  0.20573  1.0000 -0.0366537845
H   H265      1.0  0.74877  0.00503  0.19493  1.0000 0.0693294588
H   H266      1.0  0.74317  0.04373  0.21293  1.0000 0.0777011545
C   C162      1.0  0.65567  0.99333  0.19783  1.0000 -0.101100454
H   H267      1.0  0.62767  0.99083  0.20853  1.0000 0.0777011545
H   H268      1.0  0.66557  0.03243  0.19003  1.0000 0.0599627315
C   C163      1.0  0.62187  0.93253  0.18553  1.0000 0.027875408
H   H269      1.0  0.58817  0.93583  0.17773  1.0000 0.0599627315
H   H270      1.0  0.65377  0.93243  0.17653  1.0000 0.0599627315
O   O21       1.0  0.11583  0.27647  0.68514  1.0000 -0.4828358619
Ni  Ni6       1.0  0.14418  0.34146  0.70800  1.0000 0.2342789186
N   N51       1.0  0.06273  0.27367  0.72277  1.0000 -0.0686857758
O   O22       1.0  0.17453  0.40417  0.73113  1.0000 -0.5016892986
N   N52       1.0  0.22333  0.41017  0.69307  1.0000 -0.0686857758
N   N53       1.0  0.09743  0.38697  0.69547  1.0000 -0.0686857758
N   N54       1.0  0.19053  0.29467  0.71867  1.0000 -0.0686857758
C   C164      1.0  0.07163  0.21957  0.72857  1.0000 -0.0881865386
C   C165      1.0  0.00033  0.24977  0.71367  1.0000 0.0041466364
H   H271      1.0  0.06113  0.29557  0.73487  1.0000 0.1007798595
C   C166      1.0  0.15053  0.41147  0.74585  1.0000 0.027875408
C   C167      1.0  0.28733  0.43167  0.70157  1.0000 0.027875408
C   C168      1.0  0.21653  0.46457  0.68837  1.0000 -0.0804308695
H   H272      1.0  0.22303  0.38917  0.68067  1.0000 0.1103299505
H   H273      1.0  0.09483  0.41467  0.70587  1.0000 0.1103299505
C   C169      1.0  0.14543  0.43447  0.68157  1.0000 0.0096146532
C   C170      1.0  0.02973  0.34497  0.68917  1.0000 -0.0804308695
C   C171      1.0  0.25693  0.32867  0.72497  1.0000 -0.0463115656
C   C172      1.0  0.14463  0.25297  0.73367  1.0000 0.027875408
H   H274      1.0  0.18823  0.26417  0.70837  1.0000 0.1007798595
H   H275      1.0  0.04413  0.19657  0.73977  1.0000 0.040310148
H   H276      1.0  0.06093  0.18807  0.71797  1.0000 0.0599627315
C   C173      1.0  0.98823  0.30197  0.70567  1.0000 -0.0804308695
H   H277      1.0  0.99663  0.22007  0.70307  1.0000 0.0599627315
H   H278      1.0  0.96563  0.22377  0.72307  1.0000 0.0486432212
O   O23       1.0  0.09333  0.37837  0.75088  1.0000 -0.5016892986
C   C174      1.0  0.19523  0.46917  0.75772  1.0000 -0.0153511054
H   H279      1.0  0.29323  0.45957  0.71277  1.0000 0.0599627315
C   C175      1.0  0.29483  0.37187  0.70797  1.0000 -0.101100454
H   H280      1.0  0.32173  0.45817  0.69207  1.0000 0.027875408
H   H281      1.0  0.22473  0.49297  0.69967  1.0000 0.0599627315
H   H282      1.0  0.24733  0.49077  0.67797  1.0000 0.040310148
H   H283      1.0  0.13533  0.46977  0.67937  1.0000 0.040310148
H   H284      1.0  0.14043  0.41187  0.66917  1.0000 0.0486432212
H   H285      1.0  0.02853  0.31717  0.67847  1.0000 0.0599627315
H   H286      1.0  0.01163  0.37237  0.68467  1.0000 0.0599627315
H   H287      1.0  0.26203  0.35567  0.73647  1.0000 0.0599627315
H   H288      1.0  0.27233  0.29777  0.72817  1.0000 0.0599627315
H   H289      1.0  0.15213  0.28007  0.74517  1.0000 0.0599627315
H   H290      1.0  0.15523  0.21867  0.73697  1.0000 0.040310148
H   H291      1.0  0.94203  0.28017  0.70147  1.0000 0.0599627315
H   H292      1.0  0.99263  0.33127  0.71637  1.0000 0.0777011545
C   C176      1.0  0.25923  0.51047  0.75219  1.0000 -0.1482281308
C   C177      1.0  0.17343  0.48647  0.77425  1.0000 -0.1482281308
H   H293      1.0  0.34183  0.38917  0.71057  1.0000 0.0486432212
H   H294      1.0  0.28373  0.34277  0.69667  1.0000 0.0693294588
C   C178      1.0  0.30123  0.56437  0.76245  1.0000 -0.0881865386
H   H295      1.0  0.27453  0.50077  0.74077  1.0000 0.1103299505
C   C179      1.0  0.21593  0.54307  0.78444  1.0000 0.027875408
H   H296      1.0  0.12973  0.45967  0.77857  1.0000 0.1199420073
H   H297      1.0  0.34523  0.58977  0.75837  1.0000 0.1199420073
C   C180      1.0  0.19793  0.56607  0.80163  1.0000 0.1772400725
N   N55       1.0  0.24673  0.62447  0.80861  1.0000 -0.247256526
C   C181      1.0  0.13813  0.53417  0.81055  1.0000 -0.1823075057
N   N56       1.0  0.30103  0.71877  0.77847  1.0000 -0.2093651803
C   C182      1.0  0.23463  0.65027  0.82444  1.0000 0.040310148
H   H298      1.0  0.10463  0.49357  0.80567  1.0000 0.1332312332
C   C183      1.0  0.12633  0.56067  0.82674  1.0000 0.0096146532
C   C184      1.0  0.17653  0.61907  0.83369  1.0000 -0.1918009899
H   H299      1.0  0.26793  0.69137  0.82917  1.0000 0.1103299505
C   C185      1.0  0.06083  0.52657  0.83658  1.0000 -0.0018398883
H   H300      1.0  0.17023  0.63747  0.84507  1.0000 0.1199420073
O   O24       1.0  0.01593  0.47547  0.82937  1.0000 -0.5068227806
N   N57       1.0  0.25573  0.20307  0.52867  1.0000 -0.0686857758
H   H301      1.0  0.22643  0.20407  0.53877  1.0000 0.1007798595
N   N58       1.0  0.27113  0.09467  0.53137  1.0000 -0.0804308695
H   H302      1.0  0.29223  0.09267  0.51917  1.0000 0.1007798595
N   N59       1.0  0.39213  0.17437  0.55517  1.0000 -0.0686857758
H   H303      1.0  0.42523  0.18307  0.54497  1.0000 0.1103299505
N   N60       1.0  0.37793  0.28287  0.55147  1.0000 -0.0804308695
H   H304      1.0  0.35483  0.28537  0.56317  1.0000 0.1007798595
C   C186      1.0  0.21773  0.14767  0.51607  1.0000 -0.0610470701
H   H305      1.0  0.24143  0.15347  0.50387  1.0000 0.0599627315
H   H306      1.0  0.17513  0.14427  0.51317  1.0000 0.040310148
C   C187      1.0  0.20693  0.08567  0.52617  1.0000 0.027875408
H   H307      1.0  0.18013  0.07787  0.53787  1.0000 0.0693294588
H   H308      1.0  0.18373  0.04747  0.51757  1.0000 0.040310148
C   C188      1.0  0.26583  0.04217  0.54347  1.0000 -0.0804308695
H   H309      1.0  0.24963  0.00127  0.53607  1.0000 0.0599627315
H   H310      1.0  0.23593  0.03427  0.55437  1.0000 0.0693294588
C   C189      1.0  0.33633  0.06667  0.55057  1.0000 -0.0366537845
H   H311      1.0  0.33393  0.02577  0.55477  1.0000 0.0599627315
H   H312      1.0  0.36103  0.07847  0.53847  1.0000 0.0486432212
C   C190      1.0  0.38493  0.11627  0.56447  1.0000 -0.0153511054
H   H313      1.0  0.36743  0.11077  0.57757  1.0000 0.040310148
H   H314      1.0  0.42663  0.11547  0.56467  1.0000 0.01818332
C   C191      1.0  0.42733  0.22967  0.56817  1.0000 -0.0881865386
H   H315      1.0  0.46893  0.23237  0.57217  1.0000 0.0486432212
H   H316      1.0  0.40083  0.22317  0.57977  1.0000 0.0599627315
C   C192      1.0  0.44333  0.29917  0.55737  1.0000 0.0096146532
H   H317      1.0  0.46263  0.33657  0.56637  1.0000 0.040310148
H   H318      1.0  0.47283  0.30897  0.54627  1.0000 0.0599627315
C   C193      1.0  0.38713  0.33547  0.53907  1.0000 -0.0463115656
H   H319      1.0  0.41543  0.33837  0.52827  1.0000 0.0693294588
H   H320      1.0  0.40983  0.37707  0.54627  1.0000 0.0777011545
C   C194      1.0  0.32233  0.32667  0.53117  1.0000 -0.101100454
H   H321      1.0  0.29433  0.32417  0.54187  1.0000 0.0777011545
H   H322      1.0  0.33223  0.36577  0.52337  1.0000 0.0599627315
C   C195      1.0  0.28853  0.26587  0.51887  1.0000 0.027875408
H   H323      1.0  0.25483  0.26917  0.51107  1.0000 0.0599627315
H   H324      1.0  0.32043  0.26577  0.50987  1.0000 0.0599627315
O   O25       1.0  0.82730  0.21750  0.01847  1.0000 -0.4828358619
Ni  Ni7       1.0  0.86394  0.18915  0.04133  1.0000 0.2361303248
N   N61       1.0  0.87760  0.27060  0.05610  1.0000 -0.0610470701
O   O26       1.0  0.89630  0.15880  0.06446  1.0000 -0.4928275375
N   N62       1.0  0.85350  0.11000  0.02640  1.0000 -0.0686857758
N   N63       1.0  0.95620  0.23590  0.02880  1.0000 -0.0610470701
N   N64       1.0  0.77080  0.14280  0.05200  1.0000 -0.0686857758
C   C196      1.0  0.81460  0.26170  0.06190  1.0000 -0.0881865386
C   C197      1.0  0.91610  0.33300  0.04700  1.0000 0.0096146532
H   H325      1.0  0.90110  0.27220  0.06820  1.0000 0.1007798595
C   C198      1.0  0.92760  0.18280  0.07918  1.0000 0.027875408
C   C199      1.0  0.81100  0.04600  0.03490  1.0000 0.027875408
C   C200      1.0  0.91470  0.11680  0.02170  1.0000 -0.0804308695
H   H326      1.0  0.83280  0.11030  0.01400  1.0000 0.1103299505
H   H327      1.0  0.98650  0.23850  0.03920  1.0000 0.1103299505
C   C201      1.0  0.95570  0.18790  0.01490  1.0000 0.0096146532
C   C202      1.0  0.98190  0.30360  0.02250  1.0000 -0.0804308695
C   C203      1.0  0.73840  0.07640  0.05830  1.0000 -0.0463115656
C   C204      1.0  0.77500  0.18870  0.06700  1.0000 0.027875408
H   H328      1.0  0.74260  0.14510  0.04170  1.0000 0.1007798595
H   H329      1.0  0.81910  0.28920  0.07310  1.0000 0.040310148
H   H330      1.0  0.79380  0.27240  0.05130  1.0000 0.0599627315
C   C205      1.0  0.98040  0.34510  0.03900  1.0000 -0.0804308695
H   H331      1.0  0.89010  0.33670  0.03640  1.0000 0.0599627315
H   H332      1.0  0.92480  0.36770  0.05640  1.0000 0.0486432212
O   O27       1.0  0.95170  0.24000  0.08421  1.0000 -0.5016892986
C   C206      1.0  0.94060  0.13810  0.09105  1.0000 -0.0140314105
H   H333      1.0  0.83300  0.04010  0.04610  1.0000 0.0599627315
C   C207      1.0  0.74370  0.03850  0.04130  1.0000 -0.101100454
H   H334      1.0  0.80310  0.01160  0.02540  1.0000 0.027875408
H   H335      1.0  0.93490  0.10860  0.03300  1.0000 0.0599627315
H   H336      1.0  0.91010  0.08600  0.01130  1.0000 0.040310148
H   H337      1.0  0.00110  0.19800  0.01270  1.0000 0.040310148
H   H338      1.0  0.93810  0.19290  0.00250  1.0000 0.040310148
H   H339      1.0  0.95530  0.30480  0.01180  1.0000 0.0599627315
H   H340      1.0  0.02740  0.32170  0.01800  1.0000 0.0599627315
H   H341      1.0  0.76030  0.07130  0.06980  1.0000 0.0599627315
H   H342      1.0  0.69210  0.06100  0.06150  1.0000 0.0599627315
H   H343      1.0  0.79460  0.18120  0.07850  1.0000 0.0599627315
H   H344      1.0  0.73010  0.17810  0.07030  1.0000 0.040310148
H   H345      1.0  0.00480  0.39130  0.03480  1.0000 0.0599627315
H   H346      1.0  0.00530  0.34070  0.04970  1.0000 0.0777011545
C   C208      1.0  0.91790  0.07410  0.08552  1.0000 -0.1482281308
C   C209      1.0  0.97970  0.15990  0.10758  1.0000 -0.1482281308
H   H347      1.0  0.71400  0.99150  0.04390  1.0000 0.0486432212
H   H348      1.0  0.72570  0.04960  0.03000  1.0000 0.0693294588
C   C210      1.0  0.92980  0.03210  0.09578  1.0000 -0.0881865386
H   H349      1.0  0.89290  0.05880  0.07410  1.0000 0.1103299505
C   C211      1.0  0.99380  0.11740  0.11777  1.0000 0.027875408
H   H350      1.0  0.99660  0.20360  0.11190  1.0000 0.1199420073
H   H351      1.0  0.91120  0.98810  0.09170  1.0000 0.1199420073
C   C212      1.0  0.03480  0.13540  0.13496  1.0000 0.1772400725
N   N65       1.0  0.04440  0.08660  0.14194  1.0000 -0.247256526
C   C213      1.0  0.06270  0.19520  0.14388  1.0000 -0.1823075057
C   C214      1.0  0.08230  0.09870  0.15777  1.0000 0.040310148
H   H352      1.0  0.05560  0.22870  0.13900  1.0000 0.1332312332
C   C215      1.0  0.10100  0.20700  0.16007  1.0000 0.0096146532
C   C216      1.0  0.10920  0.15680  0.16702  1.0000 -0.1918009899
H   H353      1.0  0.09010  0.06540  0.16250  1.0000 0.1103299505
C   C217      1.0  0.13240  0.27250  0.16991  1.0000 0.0041466364
H   H354      1.0  0.13390  0.16310  0.17840  1.0000 0.1199420073
O   O28       1.0  0.12620  0.31740  0.16270  1.0000 -0.5068227806
N   N66       1.0  0.61400  0.07760  0.86200  1.0000 -0.0686857758
H   H355      1.0  0.64430  0.10690  0.87210  1.0000 0.1007798595
N   N67       1.0  0.49020  0.06220  0.86470  1.0000 -0.0804308695
H   H356      1.0  0.46710  0.04110  0.85250  1.0000 0.1007798595
N   N68       1.0  0.44890  0.94120  0.88850  1.0000 -0.0686857758
H   H357      1.0  0.42450  0.90810  0.87830  1.0000 0.1103299505
N   N69       1.0  0.57160  0.95540  0.88480  1.0000 -0.0804308695
H   H358      1.0  0.59720  0.97850  0.89650  1.0000 0.1007798595
C   C218      1.0  0.59660  0.11560  0.84940  1.0000 -0.0610470701
H   H359      1.0  0.57870  0.09190  0.83720  1.0000 0.0599627315
H   H360      1.0  0.63580  0.15820  0.84650  1.0000 0.040310148
C   C219      1.0  0.54540  0.12640  0.85950  1.0000 0.027875408
H   H361      1.0  0.56440  0.15320  0.87120  1.0000 0.0693294588
H   H362      1.0  0.53040  0.14960  0.85090  1.0000 0.040310148
C   C220      1.0  0.44300  0.06750  0.87680  1.0000 -0.0804308695
H   H363      1.0  0.41830  0.08370  0.86940  1.0000 0.0599627315
H   H364      1.0  0.46500  0.09740  0.88770  1.0000 0.0693294588
C   C221      1.0  0.39700  0.99700  0.88390  1.0000 -0.0366537845
H   H365      1.0  0.35850  0.99940  0.88810  1.0000 0.0599627315
H   H366      1.0  0.38410  0.97230  0.87180  1.0000 0.0486432212
C   C222      1.0  0.39800  0.94840  0.89780  1.0000 -0.0153511054
H   H367      1.0  0.41000  0.96590  0.91090  1.0000 0.040310148
H   H368      1.0  0.35550  0.90670  0.89800  1.0000 0.01818332
C   C223      1.0  0.46900  0.90600  0.90150  1.0000 -0.0881865386
H   H369      1.0  0.43010  0.86440  0.90550  1.0000 0.0486432212
H   H370      1.0  0.48900  0.93250  0.91310  1.0000 0.0599627315
C   C224      1.0  0.52250  0.89000  0.89070  1.0000 0.0096146532
H   H371      1.0  0.54060  0.87070  0.89970  1.0000 0.040310148
H   H372      1.0  0.50280  0.86050  0.87960  1.0000 0.0599627315
C   C225      1.0  0.61500  0.94620  0.87240  1.0000 -0.0463115656
H   H373      1.0  0.58960  0.91790  0.86160  1.0000 0.0693294588
H   H374      1.0  0.63390  0.92350  0.87960  1.0000 0.0777011545
C   C226      1.0  0.67100  0.01100  0.86450  1.0000 -0.101100454
H   H375      1.0  0.69650  0.03900  0.87520  1.0000 0.0777011545
H   H376      1.0  0.70020  0.00110  0.85670  1.0000 0.0599627315
C   C227      1.0  0.64400  0.04480  0.85220  1.0000 0.027875408
H   H377      1.0  0.68100  0.07850  0.84440  1.0000 0.0599627315
H   H378      1.0  0.61200  0.01290  0.84320  1.0000 0.0599627315
O   O29       1.0  0.49397  0.55083  0.35180  1.0000 -0.4828358619
Ni  Ni8       1.0  0.53061  0.52248  0.37466  1.0000 0.2361303248
N   N70       1.0  0.54427  0.60393  0.38943  1.0000 -0.0686857758
O   O30       1.0  0.56297  0.49213  0.39779  1.0000 -0.4928275375
N   N71       1.0  0.52017  0.44333  0.35973  1.0000 -0.0686857758
N   N72       1.0  0.62287  0.56923  0.36213  1.0000 -0.0686857758
N   N73       1.0  0.43747  0.47613  0.38533  1.0000 -0.0686857758
C   C228      1.0  0.48127  0.59503  0.39523  1.0000 -0.0881865386
C   C229      1.0  0.58277  0.66633  0.38033  1.0000 0.0041466364
H   H379      1.0  0.56777  0.60553  0.40153  1.0000 0.1007798595
C   C230      1.0  0.59427  0.51613  0.41251  1.0000 0.027875408
C   C231      1.0  0.47767  0.37933  0.36823  1.0000 0.027875408
C   C232      1.0  0.58137  0.45013  0.35503  1.0000 -0.0804308695
H   H380      1.0  0.49947  0.44363  0.34733  1.0000 0.1103299505
H   H381      1.0  0.65317  0.57183  0.37253  1.0000 0.1103299505
C   C233      1.0  0.62237  0.52123  0.34823  1.0000 0.0096146532
C   C234      1.0  0.64857  0.63693  0.35583  1.0000 -0.0804308695
C   C235      1.0  0.40507  0.40973  0.39163  1.0000 -0.0463115656
C   C236      1.0  0.44167  0.52203  0.40033  1.0000 0.027875408
H   H382      1.0  0.40927  0.47843  0.37503  1.0000 0.1007798595
H   H383      1.0  0.48577  0.62253  0.40643  1.0000 0.040310148
H   H384      1.0  0.46047  0.60573  0.38463  1.0000 0.0599627315
C   C237      1.0  0.64707  0.67843  0.37233  1.0000 -0.0804308695
H   H385      1.0  0.55677  0.67003  0.36973  1.0000 0.0599627315
H   H386      1.0  0.59147  0.70103  0.38973  1.0000 0.0486432212
O   O31       1.0  0.61837  0.57333  0.41754  1.0000 -0.5016892986
C   C238      1.0  0.60727  0.47143  0.42438  1.0000 -0.0153511054
H   H387      1.0  0.49967  0.37343  0.37943  1.0000 0.0599627315
C   C239      1.0  0.41037  0.37183  0.37463  1.0000 -0.101100454
H   H388      1.0  0.46977  0.34493  0.35873  1.0000 0.040310148
H   H389      1.0  0.60157  0.44193  0.36633  1.0000 0.0599627315
H   H390      1.0  0.57677  0.41933  0.34463  1.0000 0.040310148
H   H391      1.0  0.66777  0.53133  0.34603  1.0000 0.040310148
H   H392      1.0  0.60477  0.52623  0.33583  1.0000 0.0486432212
H   H393      1.0  0.62197  0.63813  0.34513  1.0000 0.0599627315
H   H394      1.0  0.69407  0.65503  0.35133  1.0000 0.0599627315
H   H395      1.0  0.42697  0.40463  0.40313  1.0000 0.0599627315
H   H396      1.0  0.35877  0.39433  0.39483  1.0000 0.0599627315
H   H397      1.0  0.46127  0.51453  0.41183  1.0000 0.0599627315
H   H398      1.0  0.39677  0.51143  0.40363  1.0000 0.040310148
H   H399      1.0  0.67147  0.72463  0.36813  1.0000 0.0599627315
H   H400      1.0  0.67197  0.67403  0.38303  1.0000 0.0777011545
C   C240      1.0  0.58457  0.40743  0.41885  1.0000 -0.1482281308
C   C241      1.0  0.64637  0.49323  0.44091  1.0000 -0.1482281308
H   H401      1.0  0.38067  0.32483  0.37723  1.0000 0.0486432212
H   H402      1.0  0.39237  0.38293  0.36333  1.0000 0.0693294588
C   C242      1.0  0.59647  0.36543  0.42911  1.0000 -0.0881865386
H   H403      1.0  0.55957  0.39213  0.40743  1.0000 0.1103299505
C   C243      1.0  0.66047  0.45073  0.45110  1.0000 0.027875408
H   H404      1.0  0.66327  0.53693  0.44523  1.0000 0.1199420073
H   H405      1.0  0.57787  0.32143  0.42503  1.0000 0.1199420073
C   C244      1.0  0.70147  0.46873  0.46829  1.0000 0.1772400725
N   N74       1.0  0.71107  0.41993  0.47527  1.0000 -0.247256526
C   C245      1.0  0.72937  0.52853  0.47721  1.0000 -0.1823075057
C   C246      1.0  0.74897  0.43203  0.49110  1.0000 0.040310148
H   H406      1.0  0.72227  0.56203  0.47233  1.0000 0.1332312332
C   C247      1.0  0.76767  0.54033  0.49340  1.0000 0.0096146532
C   C248      1.0  0.77587  0.49013  0.50035  1.0000 -0.1918009899
H   H407      1.0  0.75677  0.39873  0.49583  1.0000 0.1103299505
C   C249      1.0  0.79907  0.60583  0.50324  1.0000 -0.0018398883
H   H408      1.0  0.80057  0.49643  0.51173  1.0000 0.1199420073
O   O32       1.0  0.79287  0.65073  0.49603  1.0000 -0.5068227806
N   N75       1.0  0.28067  0.41093  0.19533  1.0000 -0.0686857758
H   H409      1.0  0.31097  0.44023  0.20543  1.0000 0.1007798595
N   N76       1.0  0.15687  0.39553  0.19803  1.0000 -0.0804308695
H   H410      1.0  0.13377  0.37443  0.18583  1.0000 0.1007798595
N   N77       1.0  0.11557  0.27453  0.22183  1.0000 -0.0686857758
H   H411      1.0  0.09117  0.24143  0.21163  1.0000 0.1103299505
N   N78       1.0  0.23827  0.28873  0.21813  1.0000 -0.0804308695
H   H412      1.0  0.26387  0.31183  0.22983  1.0000 0.1007798595
C   C250      1.0  0.26327  0.44893  0.18273  1.0000 -0.0610470701
H   H413      1.0  0.24537  0.42523  0.17053  1.0000 0.0599627315
H   H414      1.0  0.30247  0.49153  0.17983  1.0000 0.040310148
C   C251      1.0  0.21207  0.45973  0.19283  1.0000 0.027875408
H   H415      1.0  0.23107  0.48653  0.20453  1.0000 0.0693294588
H   H416      1.0  0.19707  0.48293  0.18423  1.0000 0.040310148
C   C252      1.0  0.10967  0.40083  0.21013  1.0000 -0.0804308695
H   H417      1.0  0.08497  0.41703  0.20273  1.0000 0.0599627315
H   H418      1.0  0.13167  0.43073  0.22103  1.0000 0.0693294588
C   C253      1.0  0.06367  0.33033  0.21723  1.0000 -0.0366537845
H   H419      1.0  0.02517  0.33273  0.22143  1.0000 0.0599627315
H   H420      1.0  0.05077  0.30563  0.20513  1.0000 0.0486432212
C   C254      1.0  0.06467  0.28173  0.23113  1.0000 -0.0153511054
H   H421      1.0  0.07667  0.29923  0.24423  1.0000 0.040310148
H   H422      1.0  0.02217  0.24003  0.23133  1.0000 0.01818332
C   C255      1.0  0.13567  0.23933  0.23483  1.0000 -0.0881865386
H   H423      1.0  0.09677  0.19773  0.23883  1.0000 0.0486432212
H   H424      1.0  0.15567  0.26583  0.24643  1.0000 0.0599627315
C   C256      1.0  0.18917  0.22333  0.22403  1.0000 0.0096146532
H   H425      1.0  0.20727  0.20403  0.23303  1.0000 0.040310148
H   H426      1.0  0.16947  0.19383  0.21293  1.0000 0.0599627315
C   C257      1.0  0.28167  0.27953  0.20573  1.0000 -0.0463115656
H   H427      1.0  0.25627  0.25123  0.19493  1.0000 0.0693294588
H   H428      1.0  0.30057  0.25683  0.21293  1.0000 0.0777011545
C   C258      1.0  0.33767  0.34433  0.19783  1.0000 -0.101100454
H   H429      1.0  0.36317  0.37233  0.20853  1.0000 0.0777011545
H   H430      1.0  0.36687  0.33443  0.19003  1.0000 0.0599627315
C   C259      1.0  0.31067  0.37813  0.18553  1.0000 0.027875408
H   H431      1.0  0.34767  0.41183  0.17773  1.0000 0.0599627315
H   H432      1.0  0.27867  0.34623  0.17653  1.0000 0.0599627315
O   O33       1.0  0.16063  0.88417  0.68514  1.0000 -0.4828358619
Ni  Ni9       1.0  0.19727  0.85582  0.70800  1.0000 0.2361303248
N   N79       1.0  0.21093  0.93727  0.72277  1.0000 -0.0686857758
O   O34       1.0  0.22963  0.82547  0.73113  1.0000 -0.5016892986
N   N80       1.0  0.18683  0.77667  0.69307  1.0000 -0.0686857758
N   N81       1.0  0.28953  0.90257  0.69547  1.0000 -0.0686857758
N   N82       1.0  0.10413  0.80947  0.71867  1.0000 -0.0686857758
C   C260      1.0  0.14793  0.92837  0.72857  1.0000 -0.0881865386
C   C261      1.0  0.24943  0.99967  0.71367  1.0000 0.0041466364
H   H433      1.0  0.23443  0.93887  0.73487  1.0000 0.1007798595
C   C262      1.0  0.26093  0.84947  0.74585  1.0000 0.027875408
C   C263      1.0  0.14433  0.71267  0.70157  1.0000 0.027875408
C   C264      1.0  0.24803  0.78347  0.68837  1.0000 -0.0804308695
H   H434      1.0  0.16613  0.77697  0.68067  1.0000 0.1103299505
H   H435      1.0  0.31983  0.90517  0.70587  1.0000 0.1103299505
C   C265      1.0  0.28903  0.85457  0.68157  1.0000 0.0096146532
C   C266      1.0  0.31523  0.97027  0.68917  1.0000 -0.0804308695
C   C267      1.0  0.07173  0.74307  0.72497  1.0000 -0.0463115656
C   C268      1.0  0.10833  0.85537  0.73367  1.0000 0.027875408
H   H436      1.0  0.07593  0.81177  0.70837  1.0000 0.1007798595
H   H437      1.0  0.15243  0.95587  0.73977  1.0000 0.040310148
H   H438      1.0  0.12713  0.93907  0.71797  1.0000 0.0599627315
C   C269      1.0  0.31373  0.01177  0.70567  1.0000 -0.0804308695
H   H439      1.0  0.22343  0.00337  0.70307  1.0000 0.0599627315
H   H440      1.0  0.25813  0.03437  0.72307  1.0000 0.0486432212
O   O35       1.0  0.28503  0.90667  0.75088  1.0000 -0.5016892986
C   C270      1.0  0.27393  0.80477  0.75772  1.0000 -0.0153511054
H   H441      1.0  0.16633  0.70677  0.71277  1.0000 0.0599627315
C   C271      1.0  0.07703  0.70517  0.70797  1.0000 -0.101100454
H   H442      1.0  0.13643  0.67827  0.69207  1.0000 0.040310148
H   H443      1.0  0.26823  0.77527  0.69967  1.0000 0.0599627315
H   H444      1.0  0.24343  0.75267  0.67797  1.0000 0.040310148
H   H445      1.0  0.33443  0.86467  0.67937  1.0000 0.040310148
H   H446      1.0  0.27143  0.85957  0.66917  1.0000 0.0486432212
H   H447      1.0  0.28863  0.97147  0.67847  1.0000 0.0599627315
H   H448      1.0  0.36073  0.98837  0.68467  1.0000 0.0599627315
H   H449      1.0  0.09363  0.73797  0.73647  1.0000 0.0599627315
H   H450      1.0  0.02543  0.72767  0.72817  1.0000 0.0599627315
H   H451      1.0  0.12793  0.84787  0.74517  1.0000 0.0599627315
H   H452      1.0  0.06343  0.84477  0.73697  1.0000 0.040310148
H   H453      1.0  0.33813  0.05797  0.70147  1.0000 0.0599627315
H   H454      1.0  0.33863  0.00737  0.71637  1.0000 0.0777011545
C   C272      1.0  0.25123  0.74077  0.75219  1.0000 -0.1482281308
C   C273      1.0  0.31303  0.82657  0.77425  1.0000 -0.1482281308
H   H455      1.0  0.04733  0.65817  0.71057  1.0000 0.0486432212
H   H456      1.0  0.05903  0.71627  0.69667  1.0000 0.0693294588
C   C274      1.0  0.26313  0.69877  0.76245  1.0000 -0.0881865386
H   H457      1.0  0.22623  0.72547  0.74077  1.0000 0.1103299505
C   C275      1.0  0.32713  0.78407  0.78444  1.0000 0.027875408
H   H458      1.0  0.32993  0.87027  0.77857  1.0000 0.1199420073
H   H459      1.0  0.24453  0.65477  0.75837  1.0000 0.1199420073
C   C276      1.0  0.36813  0.80207  0.80163  1.0000 0.1772400725
N   N83       1.0  0.37773  0.75327  0.80861  1.0000 -0.247256526
C   C277      1.0  0.39603  0.86187  0.81055  1.0000 -0.1823075057
C   C278      1.0  0.41563  0.76537  0.82444  1.0000 0.040310148
H   H460      1.0  0.38893  0.89537  0.80567  1.0000 0.1332312332
C   C279      1.0  0.43433  0.87367  0.82674  1.0000 0.0096146532
C   C280      1.0  0.44253  0.82347  0.83369  1.0000 -0.1918009899
H   H461      1.0  0.42343  0.73207  0.82917  1.0000 0.1103299505
C   C281      1.0  0.46573  0.93917  0.83658  1.0000 0.0041466364
H   H462      1.0  0.46723  0.82977  0.84507  1.0000 0.1199420073
O   O36       1.0  0.45953  0.98407  0.82937  1.0000 -0.5068227806
N   N84       1.0  0.94733  0.74427  0.52867  1.0000 -0.0686857758
H   H463      1.0  0.97763  0.77357  0.53877  1.0000 0.1007798595
N   N85       1.0  0.82353  0.72887  0.53137  1.0000 -0.0804308695
H   H464      1.0  0.80043  0.70777  0.51917  1.0000 0.1007798595
N   N86       1.0  0.78223  0.60787  0.55517  1.0000 -0.0686857758
H   H465      1.0  0.75783  0.57477  0.54497  1.0000 0.1103299505
N   N87       1.0  0.90493  0.62207  0.55147  1.0000 -0.0804308695
H   H466      1.0  0.93053  0.64517  0.56317  1.0000 0.1007798595
C   C282      1.0  0.92993  0.78227  0.51607  1.0000 -0.0610470701
H   H467      1.0  0.91203  0.75857  0.50387  1.0000 0.0599627315
H   H468      1.0  0.96913  0.82487  0.51317  1.0000 0.040310148
C   C283      1.0  0.87873  0.79307  0.52617  1.0000 0.027875408
H   H469      1.0  0.89773  0.81987  0.53787  1.0000 0.0693294588
H   H470      1.0  0.86373  0.81627  0.51757  1.0000 0.040310148
C   C284      1.0  0.77633  0.73417  0.54347  1.0000 -0.0804308695
H   H471      1.0  0.75163  0.75037  0.53607  1.0000 0.0599627315
H   H472      1.0  0.79833  0.76407  0.55437  1.0000 0.0693294588
C   C285      1.0  0.73033  0.66367  0.55057  1.0000 -0.0366537845
H   H473      1.0  0.69183  0.66607  0.55477  1.0000 0.0599627315
H   H474      1.0  0.71743  0.63897  0.53847  1.0000 0.0486432212
C   C286      1.0  0.73133  0.61507  0.56447  1.0000 -0.0153511054
H   H475      1.0  0.74333  0.63257  0.57757  1.0000 0.040310148
H   H476      1.0  0.68883  0.57337  0.56467  1.0000 0.01818332
C   C287      1.0  0.80233  0.57267  0.56817  1.0000 -0.0881865386
H   H477      1.0  0.76343  0.53107  0.57217  1.0000 0.0486432212
H   H478      1.0  0.82233  0.59917  0.57977  1.0000 0.0599627315
C   C288      1.0  0.85583  0.55667  0.55737  1.0000 0.0096146532
H   H479      1.0  0.87393  0.53737  0.56637  1.0000 0.040310148
H   H480      1.0  0.83613  0.52717  0.54627  1.0000 0.0599627315
C   C289      1.0  0.94833  0.61287  0.53907  1.0000 -0.0463115656
H   H481      1.0  0.92293  0.58457  0.52827  1.0000 0.0693294588
H   H482      1.0  0.96723  0.59017  0.54627  1.0000 0.0777011545
C   C290      1.0  0.00433  0.67767  0.53117  1.0000 -0.101100454
H   H483      1.0  0.02983  0.70567  0.54187  1.0000 0.0777011545
H   H484      1.0  0.03353  0.66777  0.52337  1.0000 0.0599627315
C   C291      1.0  0.97733  0.71147  0.51887  1.0000 0.027875408
H   H485      1.0  0.01433  0.74517  0.51107  1.0000 0.0599627315
H   H486      1.0  0.94533  0.67957  0.50987  1.0000 0.0599627315
O   O37       1.0  0.82730  0.60980  0.51847  1.0000 -0.4828358619
Ni  Ni10      1.0  0.86394  0.67479  0.54133  1.0000 0.2361303248
N   N88       1.0  0.87760  0.60700  0.55610  1.0000 -0.0610470701
O   O38       1.0  0.89630  0.73750  0.56446  1.0000 -0.4928275375
N   N89       1.0  0.85350  0.74350  0.52640  1.0000 -0.0686857758
N   N90       1.0  0.95620  0.72030  0.52880  1.0000 -0.0610470701
N   N91       1.0  0.77080  0.62800  0.55200  1.0000 -0.0686857758
C   C292      1.0  0.81460  0.55290  0.56190  1.0000 -0.0881865386
C   C293      1.0  0.91610  0.58310  0.54700  1.0000 0.0096146532
H   H487      1.0  0.90110  0.62890  0.56820  1.0000 0.1007798595
C   C294      1.0  0.92760  0.74480  0.57918  1.0000 0.027875408
C   C295      1.0  0.81100  0.76500  0.53490  1.0000 0.027875408
C   C296      1.0  0.91470  0.79790  0.52170  1.0000 -0.0804308695
H   H488      1.0  0.83280  0.72250  0.51400  1.0000 0.1103299505
H   H489      1.0  0.98650  0.74800  0.53920  1.0000 0.1103299505
C   C297      1.0  0.95570  0.76780  0.51490  1.0000 0.0096146532
C   C298      1.0  0.98190  0.67830  0.52250  1.0000 -0.0804308695
C   C299      1.0  0.73840  0.66200  0.55830  1.0000 -0.0463115656
C   C300      1.0  0.77500  0.58630  0.56700  1.0000 0.027875408
H   H490      1.0  0.74260  0.59750  0.54170  1.0000 0.1007798595
H   H491      1.0  0.81910  0.52990  0.57310  1.0000 0.040310148
H   H492      1.0  0.79380  0.52140  0.55130  1.0000 0.0599627315
C   C301      1.0  0.98040  0.63530  0.53900  1.0000 -0.0804308695
H   H493      1.0  0.89010  0.55340  0.53640  1.0000 0.0599627315
H   H494      1.0  0.92480  0.55710  0.55640  1.0000 0.0486432212
O   O39       1.0  0.95170  0.71170  0.58421  1.0000 -0.5016892986
C   C302      1.0  0.94060  0.80250  0.59105  1.0000 0.0096146532
H   H495      1.0  0.83300  0.79290  0.54610  1.0000 0.0599627315
C   C303      1.0  0.74370  0.70520  0.54130  1.0000 -0.101100454
H   H496      1.0  0.80310  0.79150  0.52540  1.0000 0.040310148
H   H497      1.0  0.93490  0.82630  0.53300  1.0000 0.0599627315
H   H498      1.0  0.91010  0.82410  0.51130  1.0000 0.040310148
H   H499      1.0  0.00110  0.80310  0.51270  1.0000 0.040310148
H   H500      1.0  0.93810  0.74520  0.50250  1.0000 0.0486432212
H   H501      1.0  0.95530  0.65050  0.51180  1.0000 0.0599627315
H   H502      1.0  0.02740  0.70570  0.51800  1.0000 0.0599627315
H   H503      1.0  0.76030  0.68900  0.56980  1.0000 0.0599627315
H   H504      1.0  0.69210  0.63110  0.56150  1.0000 0.0599627315
H   H505      1.0  0.79460  0.61340  0.57850  1.0000 0.0599627315
H   H506      1.0  0.73010  0.55200  0.57030  1.0000 0.040310148
H   H507      1.0  0.00480  0.61350  0.53480  1.0000 0.0599627315
H   H508      1.0  0.00530  0.66460  0.54970  1.0000 0.0777011545
C   C304      1.0  0.91790  0.84380  0.58552  1.0000 -0.1918009899
C   C305      1.0  0.97970  0.81980  0.60758  1.0000 -0.1918009899
H   H509      1.0  0.71400  0.72250  0.54390  1.0000 0.0486432212
H   H510      1.0  0.72570  0.67610  0.53000  1.0000 0.0693294588
C   C306      1.0  0.92980  0.89770  0.59578  1.0000 0.0599627315
H   H511      1.0  0.89290  0.83410  0.57410  1.0000 0.1199420073
C   C307      1.0  0.99380  0.87640  0.61777  1.0000 0.1422292007
H   H512      1.0  0.99660  0.79300  0.61190  1.0000 0.1332312332
C   C308      1.0  0.96760  0.91560  0.61180  1.0000 -0.2412144577
H   H513      1.0  0.91120  0.92310  0.59170  1.0000 0.1199420073
C   C309      1.0  0.03480  0.89940  0.63496  1.0000 0.1542727053
N   N92       1.0  0.04440  0.95780  0.64194  1.0000 -0.2412144577
C   C310      1.0  0.06270  0.86750  0.64388  1.0000 -0.1823075057
N   N93       1.0  0.08440  0.05210  0.61180  1.0000 -0.2028512544
C   C311      1.0  0.08230  0.98360  0.65777  1.0000 0.040310148
H   H514      1.0  0.05560  0.82690  0.63900  1.0000 0.1332312332
C   C312      1.0  0.10100  0.89400  0.66007  1.0000 0.0096146532
C   C313      1.0  0.10920  0.95240  0.66702  1.0000 -0.1918009899
H   H515      1.0  0.09010  0.02470  0.66250  1.0000 0.1103299505
C   C314      1.0  0.13240  0.85990  0.66991  1.0000 -0.0018398883
H   H516      1.0  0.13390  0.97080  0.67840  1.0000 0.1199420073
O   O40       1.0  0.12620  0.80880  0.66270  1.0000 -0.5068227806
N   N94       1.0  0.61400  0.53640  0.36200  1.0000 -0.0686857758
H   H517      1.0  0.64430  0.53740  0.37210  1.0000 0.1007798595
N   N95       1.0  0.49020  0.42800  0.36470  1.0000 -0.0804308695
H   H518      1.0  0.46710  0.42600  0.35250  1.0000 0.1007798595
N   N96       1.0  0.44890  0.50770  0.38850  1.0000 -0.0686857758
H   H519      1.0  0.42450  0.51640  0.37830  1.0000 0.1103299505
N   N97       1.0  0.57160  0.61620  0.38480  1.0000 -0.0804308695
H   H520      1.0  0.59720  0.61870  0.39650  1.0000 0.1007798595
C   C315      1.0  0.59660  0.48100  0.34940  1.0000 -0.0610470701
H   H521      1.0  0.57870  0.48680  0.33720  1.0000 0.0599627315
H   H522      1.0  0.63580  0.47760  0.34650  1.0000 0.040310148
C   C316      1.0  0.54540  0.41900  0.35950  1.0000 0.027875408
H   H523      1.0  0.56440  0.41120  0.37120  1.0000 0.0693294588
H   H524      1.0  0.53040  0.38080  0.35090  1.0000 0.040310148
C   C317      1.0  0.44300  0.37550  0.37680  1.0000 -0.0804308695
H   H525      1.0  0.41830  0.33460  0.36940  1.0000 0.0599627315
H   H526      1.0  0.46500  0.36760  0.38770  1.0000 0.0777011545
C   C318      1.0  0.39700  0.40000  0.38390  1.0000 -0.0366537845
H   H527      1.0  0.35850  0.35910  0.38810  1.0000 0.0599627315
H   H528      1.0  0.38410  0.41180  0.37180  1.0000 0.0486432212
C   C319      1.0  0.39800  0.44960  0.39780  1.0000 -0.0153511054
H   H529      1.0  0.41000  0.44410  0.41090  1.0000 0.040310148
H   H530      1.0  0.35550  0.44880  0.39800  1.0000 0.01818332
C   C320      1.0  0.46900  0.56300  0.40150  1.0000 -0.0881865386
H   H531      1.0  0.43010  0.56570  0.40550  1.0000 0.0486432212
H   H532      1.0  0.48900  0.55650  0.41310  1.0000 0.0599627315
C   C321      1.0  0.52250  0.63250  0.39070  1.0000 0.0096146532
H   H533      1.0  0.54060  0.66990  0.39970  1.0000 0.040310148
H   H534      1.0  0.50280  0.64230  0.37960  1.0000 0.0599627315
C   C322      1.0  0.61500  0.66880  0.37240  1.0000 -0.0463115656
H   H535      1.0  0.58960  0.67170  0.36160  1.0000 0.0693294588
H   H536      1.0  0.63390  0.71040  0.37960  1.0000 0.0777011545
C   C323      1.0  0.67100  0.66000  0.36450  1.0000 -0.101100454
H   H537      1.0  0.69650  0.65750  0.37520  1.0000 0.0777011545
H   H538      1.0  0.70020  0.69910  0.35670  1.0000 0.0599627315
C   C324      1.0  0.64400  0.59920  0.35220  1.0000 0.027875408
H   H539      1.0  0.68100  0.60250  0.34440  1.0000 0.0599627315
H   H540      1.0  0.61200  0.59910  0.34320  1.0000 0.0599627315
O   O41       1.0  0.49397  0.94313  0.85180  1.0000 -0.4828358619
Ni  Ni11      1.0  0.53061  0.00812  0.87466  1.0000 0.2361303248
N   N98       1.0  0.54427  0.94033  0.88943  1.0000 -0.0686857758
O   O42       1.0  0.56297  0.07083  0.89779  1.0000 -0.4928275375
N   N99       1.0  0.52017  0.07683  0.85973  1.0000 -0.0686857758
N   N100      1.0  0.62287  0.05363  0.86213  1.0000 -0.0610470701
N   N101      1.0  0.43747  0.96133  0.88533  1.0000 -0.0686857758
C   C325      1.0  0.48127  0.88623  0.89523  1.0000 -0.0881865386
C   C326      1.0  0.58277  0.91643  0.88033  1.0000 0.0041466364
H   H541      1.0  0.56777  0.96223  0.90153  1.0000 0.1007798595
C   C327      1.0  0.59427  0.07813  0.91251  1.0000 0.027875408
C   C328      1.0  0.47767  0.09833  0.86823  1.0000 0.027875408
C   C329      1.0  0.58137  0.13123  0.85503  1.0000 -0.0804308695
H   H542      1.0  0.49947  0.05583  0.84733  1.0000 0.1103299505
H   H543      1.0  0.65317  0.08133  0.87253  1.0000 0.1103299505
C   C330      1.0  0.62237  0.10113  0.84823  1.0000 0.0096146532
C   C331      1.0  0.64857  0.01163  0.85583  1.0000 -0.0804308695
C   C332      1.0  0.40507  0.99533  0.89163  1.0000 -0.0463115656
C   C333      1.0  0.44167  0.91963  0.90033  1.0000 0.027875408
H   H544      1.0  0.40927  0.93083  0.87503  1.0000 0.1007798595
H   H545      1.0  0.48577  0.86323  0.90643  1.0000 0.040310148
H   H546      1.0  0.46047  0.85473  0.88463  1.0000 0.0599627315
C   C334      1.0  0.64707  0.96863  0.87233  1.0000 -0.0804308695
H   H547      1.0  0.55677  0.88673  0.86973  1.0000 0.0599627315
H   H548      1.0  0.59147  0.89043  0.88973  1.0000 0.0486432212
O   O43       1.0  0.61837  0.04503  0.91754  1.0000 -0.5068227806
C   C335      1.0  0.60727  0.13583  0.92438  1.0000 0.0096146532
H   H549      1.0  0.49967  0.12623  0.87943  1.0000 0.0599627315
C   C336      1.0  0.41037  0.03853  0.87463  1.0000 -0.101100454
H   H550      1.0  0.46977  0.12483  0.85873  1.0000 0.040310148
H   H551      1.0  0.60157  0.15963  0.86633  1.0000 0.0599627315
H   H552      1.0  0.57677  0.15743  0.84463  1.0000 0.040310148
H   H553      1.0  0.66777  0.13643  0.84603  1.0000 0.040310148
H   H554      1.0  0.60477  0.07853  0.83583  1.0000 0.0486432212
H   H555      1.0  0.62197  0.98383  0.84513  1.0000 0.0599627315
H   H556      1.0  0.69407  0.03903  0.85133  1.0000 0.0599627315
H   H557      1.0  0.42697  0.02233  0.90313  1.0000 0.0599627315
H   H558      1.0  0.35877  0.96443  0.89483  1.0000 0.0599627315
H   H559      1.0  0.46127  0.94673  0.91183  1.0000 0.0599627315
H   H560      1.0  0.39677  0.88533  0.90363  1.0000 0.040310148
H   H561      1.0  0.67147  0.94683  0.86813  1.0000 0.0599627315
H   H562      1.0  0.67197  0.99793  0.88303  1.0000 0.0777011545
C   C337      1.0  0.58457  0.17713  0.91885  1.0000 -0.1918009899
C   C338      1.0  0.64637  0.15313  0.94091  1.0000 -0.1918009899
H   H563      1.0  0.38067  0.05583  0.87723  1.0000 0.0486432212
H   H564      1.0  0.39237  0.00943  0.86333  1.0000 0.0693294588
C   C339      1.0  0.59647  0.23103  0.92911  1.0000 0.0599627315
H   H565      1.0  0.55957  0.16743  0.90743  1.0000 0.1199420073
C   C340      1.0  0.66047  0.20973  0.95110  1.0000 0.1422292007
H   H566      1.0  0.66327  0.12633  0.94523  1.0000 0.1332312332
C   C341      1.0  0.63427  0.24893  0.94513  1.0000 -0.2412144577
H   H567      1.0  0.57787  0.25643  0.92503  1.0000 0.1199420073
C   C342      1.0  0.70147  0.23273  0.96829  1.0000 0.1542727053
N   N102      1.0  0.71107  0.29113  0.97527  1.0000 -0.2412144577
C   C343      1.0  0.72937  0.20083  0.97721  1.0000 -0.1823075057
N   N103      1.0  0.75107  0.38543  0.94513  1.0000 -0.2028512544
C   C344      1.0  0.74897  0.31693  0.99110  1.0000 0.040310148
H   H568      1.0  0.72227  0.16023  0.97233  1.0000 0.1332312332
C   C345      1.0  0.76767  0.22733  0.99340  1.0000 0.0096146532
C   C346      1.0  0.77587  0.28573  0.00035  1.0000 -0.1918009899
H   H569      1.0  0.75677  0.35803  0.99583  1.0000 0.1103299505
C   C347      1.0  0.79907  0.19323  0.00324  1.0000 -0.0018398883
H   H570      1.0  0.80057  0.30413  0.01173  1.0000 0.1199420073
O   O44       1.0  0.79287  0.14213  0.99603  1.0000 -0.5068227806
N   N104      1.0  0.28067  0.86973  0.69533  1.0000 -0.0686857758
H   H571      1.0  0.31097  0.87073  0.70543  1.0000 0.1007798595
N   N105      1.0  0.15687  0.76133  0.69803  1.0000 -0.0804308695
H   H572      1.0  0.13377  0.75933  0.68583  1.0000 0.1007798595
N   N106      1.0  0.11557  0.84103  0.72183  1.0000 -0.0686857758
H   H573      1.0  0.09117  0.84973  0.71163  1.0000 0.1103299505
N   N107      1.0  0.23827  0.94953  0.71813  1.0000 -0.0804308695
H   H574      1.0  0.26387  0.95203  0.72983  1.0000 0.1007798595
C   C348      1.0  0.26327  0.81433  0.68273  1.0000 -0.0610470701
H   H575      1.0  0.24537  0.82013  0.67053  1.0000 0.0599627315
H   H576      1.0  0.30247  0.81093  0.67983  1.0000 0.040310148
C   C349      1.0  0.21207  0.75233  0.69283  1.0000 0.027875408
H   H577      1.0  0.23107  0.74453  0.70453  1.0000 0.0693294588
H   H578      1.0  0.19707  0.71413  0.68423  1.0000 0.040310148
C   C350      1.0  0.10967  0.70883  0.71013  1.0000 -0.0804308695
H   H579      1.0  0.08497  0.66793  0.70273  1.0000 0.0599627315
H   H580      1.0  0.13167  0.70093  0.72103  1.0000 0.0693294588
C   C351      1.0  0.06367  0.73333  0.71723  1.0000 -0.0366537845
H   H581      1.0  0.02517  0.69243  0.72143  1.0000 0.0599627315
H   H582      1.0  0.05077  0.74513  0.70513  1.0000 0.0486432212
C   C352      1.0  0.06467  0.78293  0.73113  1.0000 -0.0153511054
H   H583      1.0  0.07667  0.77743  0.74423  1.0000 0.040310148
H   H584      1.0  0.02217  0.78213  0.73133  1.0000 0.01818332
C   C353      1.0  0.13567  0.89633  0.73483  1.0000 -0.0881865386
H   H585      1.0  0.09677  0.89903  0.73883  1.0000 0.0486432212
H   H586      1.0  0.15567  0.88983  0.74643  1.0000 0.0599627315
C   C354      1.0  0.18917  0.96583  0.72403  1.0000 0.0096146532
H   H587      1.0  0.20727  0.00323  0.73303  1.0000 0.040310148
H   H588      1.0  0.16947  0.97563  0.71293  1.0000 0.0599627315
C   C355      1.0  0.28167  0.00213  0.70573  1.0000 -0.0463115656
H   H589      1.0  0.25627  0.00503  0.69493  1.0000 0.0693294588
H   H590      1.0  0.30057  0.04373  0.71293  1.0000 0.0777011545
C   C356      1.0  0.33767  0.99333  0.69783  1.0000 -0.101100454
H   H591      1.0  0.36317  0.99083  0.70853  1.0000 0.0777011545
H   H592      1.0  0.36687  0.03243  0.69003  1.0000 0.0599627315
C   C357      1.0  0.31067  0.93253  0.68553  1.0000 0.027875408
H   H593      1.0  0.34767  0.93583  0.67773  1.0000 0.0599627315
H   H594      1.0  0.27867  0.93243  0.67653  1.0000 0.0599627315
O   O45       1.0  0.16063  0.27647  0.18514  1.0000 -0.4828358619
Ni  Ni12      1.0  0.19727  0.34146  0.20800  1.0000 0.2342789186
N   N108      1.0  0.21093  0.27367  0.22277  1.0000 -0.0610470701
O   O46       1.0  0.22963  0.40417  0.23113  1.0000 -0.4928275375
N   N109      1.0  0.18683  0.41017  0.19307  1.0000 -0.0686857758
N   N110      1.0  0.28953  0.38697  0.19547  1.0000 -0.0686857758
N   N111      1.0  0.10413  0.29467  0.21867  1.0000 -0.0686857758
C   C358      1.0  0.14793  0.21957  0.22857  1.0000 -0.0881865386
C   C359      1.0  0.24943  0.24977  0.21367  1.0000 0.0041466364
H   H595      1.0  0.23443  0.29557  0.23487  1.0000 0.1007798595
C   C360      1.0  0.26093  0.41147  0.24585  1.0000 0.027875408
C   C361      1.0  0.14433  0.43167  0.20157  1.0000 0.027875408
C   C362      1.0  0.24803  0.46457  0.18837  1.0000 -0.0804308695
H   H596      1.0  0.16613  0.38917  0.18067  1.0000 0.1103299505
H   H597      1.0  0.31983  0.41467  0.20587  1.0000 0.1103299505
C   C363      1.0  0.28903  0.43447  0.18157  1.0000 0.0096146532
C   C364      1.0  0.31523  0.34497  0.18917  1.0000 -0.0804308695
C   C365      1.0  0.07173  0.32867  0.22497  1.0000 -0.0463115656
C   C366      1.0  0.10833  0.25297  0.23367  1.0000 0.027875408
H   H598      1.0  0.07593  0.26417  0.20837  1.0000 0.1007798595
H   H599      1.0  0.15243  0.19657  0.23977  1.0000 0.040310148
H   H600      1.0  0.12713  0.18807  0.21797  1.0000 0.0599627315
C   C367      1.0  0.31373  0.30197  0.20567  1.0000 -0.0804308695
H   H601      1.0  0.22343  0.22007  0.20307  1.0000 0.0599627315
H   H602      1.0  0.25813  0.22377  0.22307  1.0000 0.0486432212
O   O47       1.0  0.28503  0.37837  0.25088  1.0000 -0.5068227806
C   C368      1.0  0.27393  0.46917  0.25772  1.0000 0.0096146532
H   H603      1.0  0.16633  0.45957  0.21277  1.0000 0.0599627315
C   C369      1.0  0.07703  0.37187  0.20797  1.0000 -0.101100454
H   H604      1.0  0.13643  0.45817  0.19207  1.0000 0.027875408
H   H605      1.0  0.26823  0.49297  0.19967  1.0000 0.0599627315
H   H606      1.0  0.24343  0.49077  0.17797  1.0000 0.040310148
H   H607      1.0  0.33443  0.46977  0.17937  1.0000 0.040310148
H   H608      1.0  0.27143  0.41187  0.16917  1.0000 0.0486432212
H   H609      1.0  0.28863  0.31717  0.17847  1.0000 0.0599627315
H   H610      1.0  0.36073  0.37237  0.18467  1.0000 0.0599627315
H   H611      1.0  0.09363  0.35567  0.23647  1.0000 0.0599627315
H   H612      1.0  0.02543  0.29777  0.22817  1.0000 0.0599627315
H   H613      1.0  0.12793  0.28007  0.24517  1.0000 0.0599627315
H   H614      1.0  0.06343  0.21867  0.23697  1.0000 0.040310148
H   H615      1.0  0.33813  0.28017  0.20147  1.0000 0.0599627315
H   H616      1.0  0.33863  0.33127  0.21637  1.0000 0.0777011545
C   C370      1.0  0.25123  0.51047  0.25219  1.0000 -0.1918009899
C   C371      1.0  0.31303  0.48647  0.27425  1.0000 -0.1918009899
H   H617      1.0  0.04733  0.38917  0.21057  1.0000 0.0486432212
H   H618      1.0  0.05903  0.34277  0.19667  1.0000 0.0693294588
C   C372      1.0  0.26313  0.56437  0.26245  1.0000 0.0599627315
H   H619      1.0  0.22623  0.50077  0.24077  1.0000 0.1199420073
C   C373      1.0  0.32713  0.54307  0.28444  1.0000 0.1422292007
H   H620      1.0  0.32993  0.45967  0.27857  1.0000 0.1332312332
C   C374      1.0  0.30093  0.58227  0.27847  1.0000 -0.2412144577
H   H621      1.0  0.24453  0.58977  0.25837  1.0000 0.1199420073
C   C375      1.0  0.36813  0.56607  0.30163  1.0000 0.1542727053
N   N112      1.0  0.37773  0.62447  0.30861  1.0000 -0.2412144577
C   C376      1.0  0.39603  0.53417  0.31055  1.0000 -0.1823075057
N   N113      1.0  0.41773  0.71877  0.27847  1.0000 -0.2028512544
C   C377      1.0  0.41563  0.65027  0.32444  1.0000 0.040310148
H   H622      1.0  0.38893  0.49357  0.30567  1.0000 0.1332312332
C   C378      1.0  0.43433  0.56067  0.32674  1.0000 0.0096146532
C   C379      1.0  0.44253  0.61907  0.33369  1.0000 -0.1918009899
H   H623      1.0  0.42343  0.69137  0.32917  1.0000 0.1103299505
C   C380      1.0  0.46573  0.52657  0.33658  1.0000 0.0041466364
H   H624      1.0  0.46723  0.63747  0.34507  1.0000 0.1199420073
O   O48       1.0  0.45953  0.47547  0.32937  1.0000 -0.5068227806
N   N114      1.0  0.94733  0.20307  0.02867  1.0000 -0.0686857758
H   H625      1.0  0.97763  0.20407  0.03877  1.0000 0.1007798595
N   N115      1.0  0.82353  0.09467  0.03137  1.0000 -0.0804308695
H   H626      1.0  0.80043  0.09267  0.01917  1.0000 0.1007798595
N   N116      1.0  0.78223  0.17437  0.05517  1.0000 -0.0686857758
H   H627      1.0  0.75783  0.18307  0.04497  1.0000 0.1103299505
N   N117      1.0  0.90493  0.28287  0.05147  1.0000 -0.0804308695
H   H628      1.0  0.93053  0.28537  0.06317  1.0000 0.1007798595
C   C381      1.0  0.92993  0.14767  0.01607  1.0000 -0.0610470701
H   H629      1.0  0.91203  0.15347  0.00387  1.0000 0.0599627315
H   H630      1.0  0.96913  0.14427  0.01317  1.0000 0.040310148
C   C382      1.0  0.87873  0.08567  0.02617  1.0000 0.027875408
H   H631      1.0  0.89773  0.07787  0.03787  1.0000 0.0693294588
H   H632      1.0  0.86373  0.04747  0.01757  1.0000 0.040310148
C   C383      1.0  0.77633  0.04217  0.04347  1.0000 -0.0804308695
H   H633      1.0  0.75163  0.00127  0.03607  1.0000 0.0599627315
H   H634      1.0  0.79833  0.03427  0.05437  1.0000 0.0693294588
C   C384      1.0  0.73033  0.06667  0.05057  1.0000 -0.0366537845
H   H635      1.0  0.69183  0.02577  0.05477  1.0000 0.0599627315
H   H636      1.0  0.71743  0.07847  0.03847  1.0000 0.0486432212
C   C385      1.0  0.73133  0.11627  0.06447  1.0000 -0.0153511054
H   H637      1.0  0.74333  0.11077  0.07757  1.0000 0.040310148
H   H638      1.0  0.68883  0.11547  0.06467  1.0000 0.01818332
C   C386      1.0  0.80233  0.22967  0.06817  1.0000 -0.0881865386
H   H639      1.0  0.76343  0.23237  0.07217  1.0000 0.0486432212
H   H640      1.0  0.82233  0.22317  0.07977  1.0000 0.0599627315
C   C387      1.0  0.85583  0.29917  0.05737  1.0000 0.0096146532
H   H641      1.0  0.87393  0.33657  0.06637  1.0000 0.040310148
H   H642      1.0  0.83613  0.30897  0.04627  1.0000 0.0599627315
C   C388      1.0  0.94833  0.33547  0.03907  1.0000 -0.0463115656
H   H643      1.0  0.92293  0.33837  0.02827  1.0000 0.0693294588
H   H644      1.0  0.96723  0.37707  0.04627  1.0000 0.0777011545
C   C389      1.0  0.00433  0.32667  0.03117  1.0000 -0.101100454
H   H645      1.0  0.02983  0.32417  0.04187  1.0000 0.0777011545
H   H646      1.0  0.03353  0.36577  0.02337  1.0000 0.0599627315
C   C390      1.0  0.97733  0.26587  0.01887  1.0000 0.027875408
H   H647      1.0  0.01433  0.26917  0.01107  1.0000 0.0599627315
H   H648      1.0  0.94533  0.26577  0.00987  1.0000 0.0599627315
O   O49       1.0  0.39020  0.21750  0.51847  1.0000 -0.4828358619
Ni  Ni13      1.0  0.32521  0.18915  0.54133  1.0000 0.2342789186
N   N118      1.0  0.39300  0.27060  0.55610  1.0000 -0.0686857758
O   O50       1.0  0.26250  0.15880  0.56446  1.0000 -0.4928275375
N   N119      1.0  0.25650  0.11000  0.52640  1.0000 -0.0686857758
N   N120      1.0  0.27970  0.23590  0.52880  1.0000 -0.0610470701
N   N121      1.0  0.37200  0.14280  0.55200  1.0000 -0.0686857758
C   C391      1.0  0.44710  0.26170  0.56190  1.0000 -0.0881865386
C   C392      1.0  0.41690  0.33300  0.54700  1.0000 0.0041466364
H   H649      1.0  0.37110  0.27220  0.56820  1.0000 0.1007798595
C   C393      1.0  0.25520  0.18280  0.57918  1.0000 0.027875408
C   C394      1.0  0.23500  0.04600  0.53490  1.0000 0.027875408
C   C395      1.0  0.20210  0.11680  0.52170  1.0000 -0.0804308695
H   H650      1.0  0.27750  0.11030  0.51400  1.0000 0.1103299505
H   H651      1.0  0.25200  0.23850  0.53920  1.0000 0.1103299505
C   C396      1.0  0.23220  0.18790  0.51490  1.0000 0.0096146532
C   C397      1.0  0.32170  0.30360  0.52250  1.0000 -0.0804308695
C   C398      1.0  0.33800  0.07640  0.55830  1.0000 -0.0463115656
C   C399      1.0  0.41370  0.18870  0.56700  1.0000 0.027875408
H   H652      1.0  0.40250  0.14510  0.54170  1.0000 0.1007798595
H   H653      1.0  0.47010  0.28920  0.57310  1.0000 0.040310148
H   H654      1.0  0.47860  0.27240  0.55130  1.0000 0.0599627315
C   C400      1.0  0.36470  0.34510  0.53900  1.0000 -0.0804308695
H   H655      1.0  0.44660  0.33670  0.53640  1.0000 0.0599627315
H   H656      1.0  0.44290  0.36770  0.55640  1.0000 0.0486432212
O   O51       1.0  0.28830  0.24000  0.58421  1.0000 -0.5016892986
C   C401      1.0  0.19750  0.13810  0.59105  1.0000 -0.0140314105
H   H657      1.0  0.20710  0.04010  0.54610  1.0000 0.0599627315
C   C402      1.0  0.29480  0.03850  0.54130  1.0000 -0.101100454
H   H658      1.0  0.20850  0.01160  0.52540  1.0000 0.027875408
H   H659      1.0  0.17370  0.10860  0.53300  1.0000 0.0599627315
H   H660      1.0  0.17590  0.08600  0.51130  1.0000 0.040310148
H   H661      1.0  0.19690  0.19800  0.51270  1.0000 0.040310148
H   H662      1.0  0.25480  0.19290  0.50250  1.0000 0.0486432212
H   H663      1.0  0.34950  0.30480  0.51180  1.0000 0.0599627315
H   H664      1.0  0.29430  0.32170  0.51800  1.0000 0.0599627315
H   H665      1.0  0.31100  0.07130  0.56980  1.0000 0.0599627315
H   H666      1.0  0.36890  0.06100  0.56150  1.0000 0.0599627315
H   H667      1.0  0.38660  0.18120  0.57850  1.0000 0.0599627315
H   H668      1.0  0.44800  0.17810  0.57030  1.0000 0.040310148
H   H669      1.0  0.38650  0.39130  0.53480  1.0000 0.0599627315
H   H670      1.0  0.33540  0.34070  0.54970  1.0000 0.0777011545
C   C403      1.0  0.15620  0.07410  0.58552  1.0000 -0.1482281308
C   C404      1.0  0.18020  0.15990  0.60758  1.0000 -0.1482281308
H   H671      1.0  0.27750  0.99150  0.54390  1.0000 0.0486432212
H   H672      1.0  0.32390  0.04960  0.53000  1.0000 0.0693294588
C   C405      1.0  0.10230  0.03210  0.59578  1.0000 -0.0881865386
H   H673      1.0  0.16590  0.05880  0.57410  1.0000 0.1103299505
C   C406      1.0  0.12360  0.11740  0.61777  1.0000 0.027875408
H   H674      1.0  0.20700  0.20360  0.61190  1.0000 0.1199420073
H   H675      1.0  0.07690  0.98810  0.59170  1.0000 0.1199420073
C   C407      1.0  0.10060  0.13540  0.63496  1.0000 0.1772400725
N   N122      1.0  0.04220  0.08660  0.64194  1.0000 -0.247256526
C   C408      1.0  0.13250  0.19520  0.64388  1.0000 -0.1823075057
N   N123      1.0  0.94790  0.03230  0.61180  1.0000 -0.2093651803
C   C409      1.0  0.01640  0.09870  0.65777  1.0000 0.040310148
H   H676      1.0  0.17310  0.22870  0.63900  1.0000 0.1332312332
C   C410      1.0  0.10600  0.20700  0.66007  1.0000 0.0096146532
C   C411      1.0  0.04760  0.15680  0.66702  1.0000 -0.1918009899
H   H677      1.0  0.97530  0.06540  0.66250  1.0000 0.1103299505
C   C412      1.0  0.14010  0.27250  0.66991  1.0000 -0.0018398883
H   H678      1.0  0.02920  0.16310  0.67840  1.0000 0.1199420073
O   O52       1.0  0.19120  0.31740  0.66270  1.0000 -0.5068227806
N   N124      1.0  0.46360  0.07760  0.36200  1.0000 -0.0686857758
H   H679      1.0  0.46260  0.10690  0.37210  1.0000 0.1007798595
N   N125      1.0  0.57200  0.06220  0.36470  1.0000 -0.0804308695
H   H680      1.0  0.57400  0.04110  0.35250  1.0000 0.1007798595
N   N126      1.0  0.49230  0.94120  0.38850  1.0000 -0.0686857758
H   H681      1.0  0.48360  0.90810  0.37830  1.0000 0.1103299505
N   N127      1.0  0.38380  0.95540  0.38480  1.0000 -0.0804308695
H   H682      1.0  0.38130  0.97850  0.39650  1.0000 0.1007798595
C   C413      1.0  0.51900  0.11560  0.34940  1.0000 -0.0610470701
H   H683      1.0  0.51320  0.09190  0.33720  1.0000 0.0599627315
H   H684      1.0  0.52240  0.15820  0.34650  1.0000 0.040310148
C   C414      1.0  0.58100  0.12640  0.35950  1.0000 0.027875408
H   H685      1.0  0.58880  0.15320  0.37120  1.0000 0.0693294588
H   H686      1.0  0.61920  0.14960  0.35090  1.0000 0.040310148
C   C415      1.0  0.62450  0.06750  0.37680  1.0000 -0.0804308695
H   H687      1.0  0.66540  0.08370  0.36940  1.0000 0.0599627315
H   H688      1.0  0.63240  0.09740  0.38770  1.0000 0.0777011545
C   C416      1.0  0.60000  0.99700  0.38390  1.0000 -0.0366537845
H   H689      1.0  0.64090  0.99940  0.38810  1.0000 0.0599627315
H   H690      1.0  0.58820  0.97230  0.37180  1.0000 0.0486432212
C   C417      1.0  0.55040  0.94840  0.39780  1.0000 -0.0153511054
H   H691      1.0  0.55590  0.96590  0.41090  1.0000 0.040310148
H   H692      1.0  0.55120  0.90670  0.39800  1.0000 0.01818332
C   C418      1.0  0.43700  0.90600  0.40150  1.0000 -0.0881865386
H   H693      1.0  0.43430  0.86440  0.40550  1.0000 0.0486432212
H   H694      1.0  0.44350  0.93250  0.41310  1.0000 0.0599627315
C   C419      1.0  0.36750  0.89000  0.39070  1.0000 0.0096146532
H   H695      1.0  0.33010  0.87070  0.39970  1.0000 0.040310148
H   H696      1.0  0.35770  0.86050  0.37960  1.0000 0.0599627315
C   C420      1.0  0.33120  0.94620  0.37240  1.0000 -0.0463115656
H   H697      1.0  0.32830  0.91790  0.36160  1.0000 0.0693294588
H   H698      1.0  0.28960  0.92350  0.37960  1.0000 0.0777011545
C   C421      1.0  0.34000  0.01100  0.36450  1.0000 -0.101100454
H   H699      1.0  0.34250  0.03900  0.37520  1.0000 0.0777011545
H   H700      1.0  0.30090  0.00110  0.35670  1.0000 0.0599627315
C   C422      1.0  0.40080  0.04480  0.35220  1.0000 0.027875408
H   H701      1.0  0.39750  0.07850  0.34440  1.0000 0.0599627315
H   H702      1.0  0.40090  0.01290  0.34320  1.0000 0.0599627315
O   O53       1.0  0.05687  0.55083  0.85180  1.0000 -0.4828358619
Ni  Ni14      1.0  0.99188  0.52248  0.87466  1.0000 0.2361303248
N   N128      1.0  0.05967  0.60393  0.88943  1.0000 -0.0686857758
O   O54       1.0  0.92917  0.49213  0.89779  1.0000 -0.4928275375
N   N129      1.0  0.92317  0.44333  0.85973  1.0000 -0.0686857758
N   N130      1.0  0.94637  0.56923  0.86213  1.0000 -0.0610470701
N   N131      1.0  0.03867  0.47613  0.88533  1.0000 -0.0686857758
C   C423      1.0  0.11377  0.59503  0.89523  1.0000 -0.0881865386
C   C424      1.0  0.08357  0.66633  0.88033  1.0000 0.0041466364
H   H703      1.0  0.03777  0.60553  0.90153  1.0000 0.1007798595
C   C425      1.0  0.92187  0.51613  0.91251  1.0000 0.027875408
C   C426      1.0  0.90167  0.37933  0.86823  1.0000 0.027875408
C   C427      1.0  0.86877  0.45013  0.85503  1.0000 -0.0804308695
H   H704      1.0  0.94417  0.44363  0.84733  1.0000 0.1103299505
H   H705      1.0  0.91867  0.57183  0.87253  1.0000 0.1103299505
C   C428      1.0  0.89887  0.52123  0.84823  1.0000 0.0096146532
C   C429      1.0  0.98837  0.63693  0.85583  1.0000 -0.0804308695
C   C430      1.0  0.00467  0.40973  0.89163  1.0000 -0.0463115656
C   C431      1.0  0.08037  0.52203  0.90033  1.0000 0.027875408
H   H706      1.0  0.06917  0.47843  0.87503  1.0000 0.1007798595
H   H707      1.0  0.13677  0.62253  0.90643  1.0000 0.040310148
H   H708      1.0  0.14527  0.60573  0.88463  1.0000 0.0599627315
C   C432      1.0  0.03137  0.67843  0.87233  1.0000 -0.0804308695
H   H709      1.0  0.11327  0.67003  0.86973  1.0000 0.0599627315
H   H710      1.0  0.10957  0.70103  0.88973  1.0000 0.0486432212
O   O55       1.0  0.95497  0.57333  0.91754  1.0000 -0.5068227806
C   C433      1.0  0.86417  0.47143  0.92438  1.0000 -0.0153511054
H   H711      1.0  0.87377  0.37343  0.87943  1.0000 0.0599627315
C   C434      1.0  0.96147  0.37183  0.87463  1.0000 -0.101100454
H   H712      1.0  0.87517  0.34493  0.85873  1.0000 0.027875408
H   H713      1.0  0.84037  0.44193  0.86633  1.0000 0.0599627315
H   H714      1.0  0.84257  0.41933  0.84463  1.0000 0.040310148
H   H715      1.0  0.86357  0.53133  0.84603  1.0000 0.040310148
H   H716      1.0  0.92147  0.52623  0.83583  1.0000 0.0486432212
H   H717      1.0  0.01617  0.63813  0.84513  1.0000 0.0599627315
H   H718      1.0  0.96097  0.65503  0.85133  1.0000 0.0599627315
H   H719      1.0  0.97767  0.40463  0.90313  1.0000 0.0599627315
H   H720      1.0  0.03557  0.39433  0.89483  1.0000 0.0599627315
H   H721      1.0  0.05327  0.51453  0.91183  1.0000 0.0599627315
H   H722      1.0  0.11467  0.51143  0.90363  1.0000 0.040310148
H   H723      1.0  0.05317  0.72463  0.86813  1.0000 0.0599627315
H   H724      1.0  0.00207  0.67403  0.88303  1.0000 0.0777011545
C   C435      1.0  0.82287  0.40743  0.91885  1.0000 -0.1482281308
C   C436      1.0  0.84687  0.49323  0.94091  1.0000 -0.1482281308
H   H725      1.0  0.94417  0.32483  0.87723  1.0000 0.0486432212
H   H726      1.0  0.99057  0.38293  0.86333  1.0000 0.0693294588
C   C437      1.0  0.76897  0.36543  0.92911  1.0000 -0.0881865386
H   H727      1.0  0.83257  0.39213  0.90743  1.0000 0.1103299505
C   C438      1.0  0.79027  0.45073  0.95110  1.0000 0.027875408
H   H728      1.0  0.87367  0.53693  0.94523  1.0000 0.1199420073
H   H729      1.0  0.74357  0.32143  0.92503  1.0000 0.1199420073
C   C439      1.0  0.76727  0.46873  0.96829  1.0000 0.1772400725
N   N132      1.0  0.70887  0.41993  0.97527  1.0000 -0.247256526
C   C440      1.0  0.79917  0.52853  0.97721  1.0000 -0.1823075057
N   N133      1.0  0.61457  0.36563  0.94513  1.0000 -0.2093651803
C   C441      1.0  0.68307  0.43203  0.99110  1.0000 0.040310148
H   H730      1.0  0.83977  0.56203  0.97233  1.0000 0.1332312332
C   C442      1.0  0.77267  0.54033  0.99340  1.0000 0.0096146532
C   C443      1.0  0.71427  0.49013  0.00035  1.0000 -0.1918009899
H   H731      1.0  0.64197  0.39873  0.99583  1.0000 0.1103299505
C   C444      1.0  0.80677  0.60583  0.00324  1.0000 0.0041466364
H   H732      1.0  0.69587  0.49643  0.01173  1.0000 0.1199420073
O   O56       1.0  0.85787  0.65073  0.99603  1.0000 -0.5068227806
N   N134      1.0  0.13027  0.41093  0.69533  1.0000 -0.0686857758
H   H733      1.0  0.12927  0.44023  0.70543  1.0000 0.1007798595
N   N135      1.0  0.23867  0.39553  0.69803  1.0000 -0.0804308695
H   H734      1.0  0.24067  0.37443  0.68583  1.0000 0.1007798595
N   N136      1.0  0.15897  0.27453  0.72183  1.0000 -0.0686857758
H   H735      1.0  0.15027  0.24143  0.71163  1.0000 0.1103299505
N   N137      1.0  0.05047  0.28873  0.71813  1.0000 -0.0804308695
H   H736      1.0  0.04797  0.31183  0.72983  1.0000 0.1007798595
C   C445      1.0  0.18567  0.44893  0.68273  1.0000 -0.0610470701
H   H737      1.0  0.17987  0.42523  0.67053  1.0000 0.0599627315
H   H738      1.0  0.18907  0.49153  0.67983  1.0000 0.040310148
C   C446      1.0  0.24767  0.45973  0.69283  1.0000 0.027875408
H   H739      1.0  0.25547  0.48653  0.70453  1.0000 0.0693294588
H   H740      1.0  0.28587  0.48293  0.68423  1.0000 0.040310148
C   C447      1.0  0.29117  0.40083  0.71013  1.0000 -0.0804308695
H   H741      1.0  0.33207  0.41703  0.70273  1.0000 0.0599627315
H   H742      1.0  0.29907  0.43073  0.72103  1.0000 0.0693294588
C   C448      1.0  0.26667  0.33033  0.71723  1.0000 -0.0366537845
H   H743      1.0  0.30757  0.33273  0.72143  1.0000 0.0599627315
H   H744      1.0  0.25487  0.30563  0.70513  1.0000 0.0486432212
C   C449      1.0  0.21707  0.28173  0.73113  1.0000 -0.0153511054
H   H745      1.0  0.22257  0.29923  0.74423  1.0000 0.040310148
H   H746      1.0  0.21787  0.24003  0.73133  1.0000 0.01818332
C   C450      1.0  0.10367  0.23933  0.73483  1.0000 -0.0881865386
H   H747      1.0  0.10097  0.19773  0.73883  1.0000 0.0486432212
H   H748      1.0  0.11017  0.26583  0.74643  1.0000 0.0599627315
C   C451      1.0  0.03417  0.22333  0.72403  1.0000 0.0096146532
H   H749      1.0  0.99677  0.20403  0.73303  1.0000 0.040310148
H   H750      1.0  0.02437  0.19383  0.71293  1.0000 0.0599627315
C   C452      1.0  0.99787  0.27953  0.70573  1.0000 -0.0463115656
H   H751      1.0  0.99497  0.25123  0.69493  1.0000 0.0693294588
H   H752      1.0  0.95627  0.25683  0.71293  1.0000 0.0777011545
C   C453      1.0  0.00667  0.34433  0.69783  1.0000 -0.101100454
H   H753      1.0  0.00917  0.37233  0.70853  1.0000 0.0777011545
H   H754      1.0  0.96757  0.33443  0.69003  1.0000 0.0599627315
C   C454      1.0  0.06747  0.37813  0.68553  1.0000 0.027875408
H   H755      1.0  0.06417  0.41183  0.67773  1.0000 0.0599627315
H   H756      1.0  0.06757  0.34623  0.67653  1.0000 0.0599627315
O   O57       1.0  0.72353  0.88417  0.18514  1.0000 -0.4828358619
Ni  Ni15      1.0  0.65854  0.85582  0.20800  1.0000 0.2342789186
N   N138      1.0  0.72633  0.93727  0.22277  1.0000 -0.0686857758
O   O58       1.0  0.59583  0.82547  0.23113  1.0000 -0.4928275375
N   N139      1.0  0.58983  0.77667  0.19307  1.0000 -0.0686857758
N   N140      1.0  0.61303  0.90257  0.19547  1.0000 -0.0686857758
N   N141      1.0  0.70533  0.80947  0.21867  1.0000 -0.0686857758
C   C455      1.0  0.78043  0.92837  0.22857  1.0000 -0.0881865386
C   C456      1.0  0.75023  0.99967  0.21367  1.0000 0.0041466364
H   H757      1.0  0.70443  0.93887  0.23487  1.0000 0.1007798595
C   C457      1.0  0.58853  0.84947  0.24585  1.0000 0.027875408
C   C458      1.0  0.56833  0.71267  0.20157  1.0000 0.027875408
C   C459      1.0  0.53543  0.78347  0.18837  1.0000 -0.0804308695
H   H758      1.0  0.61083  0.77697  0.18067  1.0000 0.1103299505
H   H759      1.0  0.58533  0.90517  0.20587  1.0000 0.1103299505
C   C460      1.0  0.56553  0.85457  0.18157  1.0000 0.0096146532
C   C461      1.0  0.65503  0.97027  0.18917  1.0000 -0.0804308695
C   C462      1.0  0.67133  0.74307  0.22497  1.0000 -0.0463115656
C   C463      1.0  0.74703  0.85537  0.23367  1.0000 0.027875408
H   H760      1.0  0.73583  0.81177  0.20837  1.0000 0.1007798595
H   H761      1.0  0.80343  0.95587  0.23977  1.0000 0.040310148
H   H762      1.0  0.81193  0.93907  0.21797  1.0000 0.0599627315
C   C464      1.0  0.69803  0.01177  0.20567  1.0000 -0.0804308695
H   H763      1.0  0.77993  0.00337  0.20307  1.0000 0.0599627315
H   H764      1.0  0.77623  0.03437  0.22307  1.0000 0.0486432212
O   O59       1.0  0.62163  0.90667  0.25088  1.0000 -0.5068227806
C   C465      1.0  0.53083  0.80477  0.25772  1.0000 -0.0153511054
H   H765      1.0  0.54043  0.70677  0.21277  1.0000 0.0599627315
C   C466      1.0  0.62813  0.70517  0.20797  1.0000 -0.101100454
H   H766      1.0  0.54183  0.67827  0.19207  1.0000 0.040310148
H   H767      1.0  0.50703  0.77527  0.19967  1.0000 0.0599627315
H   H768      1.0  0.50923  0.75267  0.17797  1.0000 0.040310148
H   H769      1.0  0.53023  0.86467  0.17937  1.0000 0.040310148
H   H770      1.0  0.58813  0.85957  0.16917  1.0000 0.0486432212
H   H771      1.0  0.68283  0.97147  0.17847  1.0000 0.0599627315
H   H772      1.0  0.62763  0.98837  0.18467  1.0000 0.0599627315
H   H773      1.0  0.64433  0.73797  0.23647  1.0000 0.0599627315
H   H774      1.0  0.70223  0.72767  0.22817  1.0000 0.0599627315
H   H775      1.0  0.71993  0.84787  0.24517  1.0000 0.0599627315
H   H776      1.0  0.78133  0.84477  0.23697  1.0000 0.040310148
H   H777      1.0  0.71983  0.05797  0.20147  1.0000 0.0599627315
H   H778      1.0  0.66873  0.00737  0.21637  1.0000 0.0777011545
C   C467      1.0  0.48953  0.74077  0.25219  1.0000 -0.1482281308
C   C468      1.0  0.51353  0.82657  0.27425  1.0000 -0.1482281308
H   H779      1.0  0.61083  0.65817  0.21057  1.0000 0.0486432212
H   H780      1.0  0.65723  0.71627  0.19667  1.0000 0.0693294588
C   C469      1.0  0.43563  0.69877  0.26245  1.0000 -0.0881865386
H   H781      1.0  0.49923  0.72547  0.24077  1.0000 0.1103299505
C   C470      1.0  0.45693  0.78407  0.28444  1.0000 0.027875408
H   H782      1.0  0.54033  0.87027  0.27857  1.0000 0.1199420073
H   H783      1.0  0.41023  0.65477  0.25837  1.0000 0.1199420073
C   C471      1.0  0.43393  0.80207  0.30163  1.0000 0.1772400725
N   N142      1.0  0.37553  0.75327  0.30861  1.0000 -0.247256526
C   C472      1.0  0.46583  0.86187  0.31055  1.0000 -0.1823075057
N   N143      1.0  0.28123  0.69897  0.27847  1.0000 -0.2093651803
C   C473      1.0  0.34973  0.76537  0.32444  1.0000 0.040310148
H   H784      1.0  0.50643  0.89537  0.30567  1.0000 0.1332312332
C   C474      1.0  0.43933  0.87367  0.32674  1.0000 0.0096146532
C   C475      1.0  0.38093  0.82347  0.33369  1.0000 -0.1918009899
H   H785      1.0  0.30863  0.73207  0.32917  1.0000 0.1103299505
C   C476      1.0  0.47343  0.93917  0.33658  1.0000 0.0041466364
H   H786      1.0  0.36253  0.82977  0.34507  1.0000 0.1199420073
O   O60       1.0  0.52453  0.98407  0.32937  1.0000 -0.5068227806
N   N144      1.0  0.79693  0.74427  0.02867  1.0000 -0.0686857758
H   H787      1.0  0.79593  0.77357  0.03877  1.0000 0.1007798595
N   N145      1.0  0.90533  0.72887  0.03137  1.0000 -0.0804308695
H   H788      1.0  0.90733  0.70777  0.01917  1.0000 0.1007798595
N   N146      1.0  0.82563  0.60787  0.05517  1.0000 -0.0686857758
H   H789      1.0  0.81693  0.57477  0.04497  1.0000 0.1103299505
N   N147      1.0  0.71713  0.62207  0.05147  1.0000 -0.0804308695
H   H790      1.0  0.71463  0.64517  0.06317  1.0000 0.1007798595
C   C477      1.0  0.85233  0.78227  0.01607  1.0000 -0.0610470701
H   H791      1.0  0.84653  0.75857  0.00387  1.0000 0.0599627315
H   H792      1.0  0.85573  0.82487  0.01317  1.0000 0.040310148
C   C478      1.0  0.91433  0.79307  0.02617  1.0000 0.027875408
H   H793      1.0  0.92213  0.81987  0.03787  1.0000 0.0693294588
H   H794      1.0  0.95253  0.81627  0.01757  1.0000 0.040310148
C   C479      1.0  0.95783  0.73417  0.04347  1.0000 -0.0804308695
H   H795      1.0  0.99873  0.75037  0.03607  1.0000 0.0599627315
H   H796      1.0  0.96573  0.76407  0.05437  1.0000 0.0693294588
C   C480      1.0  0.93333  0.66367  0.05057  1.0000 -0.0366537845
H   H797      1.0  0.97423  0.66607  0.05477  1.0000 0.0599627315
H   H798      1.0  0.92153  0.63897  0.03847  1.0000 0.0486432212
C   C481      1.0  0.88373  0.61507  0.06447  1.0000 -0.0153511054
H   H799      1.0  0.88923  0.63257  0.07757  1.0000 0.040310148
H   H800      1.0  0.88453  0.57337  0.06467  1.0000 0.01818332
C   C482      1.0  0.77033  0.57267  0.06817  1.0000 -0.0881865386
H   H801      1.0  0.76763  0.53107  0.07217  1.0000 0.0486432212
H   H802      1.0  0.77683  0.59917  0.07977  1.0000 0.0599627315
C   C483      1.0  0.70083  0.55667  0.05737  1.0000 0.0096146532
H   H803      1.0  0.66343  0.53737  0.06637  1.0000 0.040310148
H   H804      1.0  0.69103  0.52717  0.04627  1.0000 0.0599627315
C   C484      1.0  0.66453  0.61287  0.03907  1.0000 -0.0463115656
H   H805      1.0  0.66163  0.58457  0.02827  1.0000 0.0693294588
H   H806      1.0  0.62293  0.59017  0.04627  1.0000 0.0777011545
C   C485      1.0  0.67333  0.67767  0.03117  1.0000 -0.101100454
H   H807      1.0  0.67583  0.70567  0.04187  1.0000 0.0777011545
H   H808      1.0  0.63423  0.66777  0.02337  1.0000 0.0599627315
C   C486      1.0  0.73413  0.71147  0.01887  1.0000 0.027875408
H   H809      1.0  0.73083  0.74517  0.01107  1.0000 0.0599627315
H   H810      1.0  0.73423  0.67957  0.00987  1.0000 0.0599627315
O   O61       1.0  0.78250  0.17270  0.51847  1.0000 -0.4828358619
Ni  Ni16      1.0  0.81085  0.13606  0.54133  1.0000 0.2342789186
N   N148      1.0  0.72940  0.12240  0.55610  1.0000 -0.0686857758
O   O62       1.0  0.84120  0.10370  0.56446  1.0000 -0.4928275375
N   N149      1.0  0.89000  0.14650  0.52640  1.0000 -0.0610470701
N   N150      1.0  0.76410  0.04380  0.52880  1.0000 -0.0610470701
N   N151      1.0  0.85720  0.22920  0.55200  1.0000 -0.0686857758
C   C487      1.0  0.73830  0.18540  0.56190  1.0000 -0.0881865386
C   C488      1.0  0.66700  0.08390  0.54700  1.0000 0.0041466364
H   H811      1.0  0.72780  0.09890  0.56820  1.0000 0.1007798595
C   C489      1.0  0.81720  0.07240  0.57918  1.0000 0.027875408
C   C490      1.0  0.95400  0.18900  0.53490  1.0000 0.027875408
C   C491      1.0  0.88320  0.08530  0.52170  1.0000 -0.0804308695
H   H812      1.0  0.88970  0.16720  0.51400  1.0000 0.1103299505
H   H813      1.0  0.76150  0.01350  0.53920  1.0000 0.1103299505
C   C492      1.0  0.81210  0.04430  0.51490  1.0000 0.0096146532
C   C493      1.0  0.69640  0.01810  0.52250  1.0000 -0.0804308695
C   C494      1.0  0.92360  0.26160  0.55830  1.0000 -0.0463115656
C   C495      1.0  0.81130  0.22500  0.56700  1.0000 0.027875408
H   H814      1.0  0.85490  0.25740  0.54170  1.0000 0.1007798595
H   H815      1.0  0.71080  0.18090  0.57310  1.0000 0.040310148
H   H816      1.0  0.72760  0.20620  0.55130  1.0000 0.0599627315
C   C496      1.0  0.65490  0.01960  0.53900  1.0000 -0.0804308695
H   H817      1.0  0.66330  0.10990  0.53640  1.0000 0.0599627315
H   H818      1.0  0.63230  0.07520  0.55640  1.0000 0.0486432212
O   O63       1.0  0.76000  0.04830  0.58421  1.0000 -0.5016892986
C   C497      1.0  0.86190  0.05940  0.59105  1.0000 -0.0140314105
H   H819      1.0  0.95990  0.16700  0.54610  1.0000 0.0599627315
C   C498      1.0  0.96150  0.25630  0.54130  1.0000 -0.101100454
H   H820      1.0  0.98840  0.19690  0.52540  1.0000 0.027875408
H   H821      1.0  0.89140  0.06510  0.53300  1.0000 0.0599627315
H   H822      1.0  0.91400  0.08990  0.51130  1.0000 0.040310148
H   H823      1.0  0.80200  0.99890  0.51270  1.0000 0.040310148
H   H824      1.0  0.80710  0.06190  0.50250  1.0000 0.0486432212
H   H825      1.0  0.69520  0.04470  0.51180  1.0000 0.0599627315
H   H826      1.0  0.67830  0.97260  0.51800  1.0000 0.0599627315
H   H827      1.0  0.92870  0.23970  0.56980  1.0000 0.0599627315
H   H828      1.0  0.93900  0.30790  0.56150  1.0000 0.0599627315
H   H829      1.0  0.81880  0.20540  0.57850  1.0000 0.0599627315
H   H830      1.0  0.82190  0.26990  0.57030  1.0000 0.040310148
H   H831      1.0  0.60870  0.99520  0.53480  1.0000 0.0599627315
H   H832      1.0  0.65930  0.99470  0.54970  1.0000 0.0777011545
C   C499      1.0  0.92590  0.08210  0.58552  1.0000 -0.1482281308
C   C500      1.0  0.84010  0.02030  0.60758  1.0000 -0.1482281308
H   H833      1.0  0.00850  0.28600  0.54390  1.0000 0.0486432212
H   H834      1.0  0.95040  0.27430  0.53000  1.0000 0.0693294588
C   C501      1.0  0.96790  0.07020  0.59578  1.0000 -0.0881865386
H   H835      1.0  0.94120  0.10710  0.57410  1.0000 0.1103299505
C   C502      1.0  0.88260  0.00620  0.61777  1.0000 0.027875408
H   H836      1.0  0.79640  0.00340  0.61190  1.0000 0.1199420073
H   H837      1.0  0.01190  0.08880  0.59170  1.0000 0.1199420073
C   C503      1.0  0.86460  0.96520  0.63496  1.0000 0.1772400725
N   N152      1.0  0.91340  0.95560  0.64194  1.0000 -0.2412144577
C   C504      1.0  0.80480  0.93730  0.64388  1.0000 -0.1823075057
C   C505      1.0  0.90130  0.91770  0.65777  1.0000 0.040310148
H   H838      1.0  0.77130  0.94440  0.63900  1.0000 0.1332312332
C   C506      1.0  0.79300  0.89900  0.66007  1.0000 0.0096146532
C   C507      1.0  0.84320  0.89080  0.66702  1.0000 -0.1918009899
H   H839      1.0  0.93460  0.90990  0.66250  1.0000 0.1103299505
C   C508      1.0  0.72750  0.86760  0.66991  1.0000 -0.0018398883
H   H840      1.0  0.83690  0.86610  0.67840  1.0000 0.1199420073
O   O64       1.0  0.68260  0.87380  0.66270  1.0000 -0.5068227806
N   N153      1.0  0.92240  0.38600  0.36200  1.0000 -0.0686857758
H   H841      1.0  0.89310  0.35570  0.37210  1.0000 0.1007798595
N   N154      1.0  0.93780  0.50980  0.36470  1.0000 -0.0804308695
H   H842      1.0  0.95890  0.53290  0.35250  1.0000 0.1007798595
N   N155      1.0  0.05880  0.55110  0.38850  1.0000 -0.0686857758
H   H843      1.0  0.09190  0.57550  0.37830  1.0000 0.1103299505
N   N156      1.0  0.04460  0.42840  0.38480  1.0000 -0.0804308695
H   H844      1.0  0.02150  0.40280  0.39650  1.0000 0.1007798595
C   C509      1.0  0.88440  0.40340  0.34940  1.0000 -0.0610470701
H   H845      1.0  0.90810  0.42130  0.33720  1.0000 0.0599627315
H   H846      1.0  0.84180  0.36420  0.34650  1.0000 0.040310148
C   C510      1.0  0.87360  0.45460  0.35950  1.0000 0.027875408
H   H847      1.0  0.84680  0.43560  0.37120  1.0000 0.0693294588
H   H848      1.0  0.85040  0.46960  0.35090  1.0000 0.040310148
C   C511      1.0  0.93250  0.55700  0.37680  1.0000 -0.0804308695
H   H849      1.0  0.91630  0.58170  0.36940  1.0000 0.0599627315
H   H850      1.0  0.90260  0.53500  0.38770  1.0000 0.0693294588
C   C512      1.0  0.00300  0.60300  0.38390  1.0000 -0.0366537845
H   H851      1.0  0.00060  0.64150  0.38810  1.0000 0.0599627315
H   H852      1.0  0.02770  0.61590  0.37180  1.0000 0.0486432212
C   C513      1.0  0.05160  0.60200  0.39780  1.0000 -0.0153511054
H   H853      1.0  0.03410  0.59000  0.41090  1.0000 0.040310148
H   H854      1.0  0.09330  0.64450  0.39800  1.0000 0.01818332
C   C514      1.0  0.09400  0.53100  0.40150  1.0000 -0.0881865386
H   H855      1.0  0.13560  0.56990  0.40550  1.0000 0.0486432212
H   H856      1.0  0.06750  0.51100  0.41310  1.0000 0.0599627315
C   C515      1.0  0.11000  0.47750  0.39070  1.0000 0.0096146532
H   H857      1.0  0.12930  0.45940  0.39970  1.0000 0.040310148
H   H858      1.0  0.13950  0.49720  0.37960  1.0000 0.0599627315
C   C516      1.0  0.05380  0.38500  0.37240  1.0000 -0.0463115656
H   H859      1.0  0.08210  0.41040  0.36160  1.0000 0.0693294588
H   H860      1.0  0.07650  0.36610  0.37960  1.0000 0.0777011545
C   C517      1.0  0.98900  0.32900  0.36450  1.0000 -0.101100454
H   H861      1.0  0.96100  0.30350  0.37520  1.0000 0.0777011545
H   H862      1.0  0.99890  0.29980  0.35670  1.0000 0.0599627315
C   C518      1.0  0.95520  0.35600  0.35220  1.0000 0.027875408
H   H863      1.0  0.92150  0.31900  0.34440  1.0000 0.0599627315
H   H864      1.0  0.98710  0.38800  0.34320  1.0000 0.0599627315
O   O65       1.0  0.44917  0.50603  0.85180  1.0000 -0.4828358619
Ni  Ni17      1.0  0.47752  0.46939  0.87466  1.0000 0.2342789186
N   N157      1.0  0.39607  0.45573  0.88943  1.0000 -0.0610470701
O   O66       1.0  0.50787  0.43703  0.89779  1.0000 -0.4928275375
N   N158      1.0  0.55667  0.47983  0.85973  1.0000 -0.0686857758
N   N159      1.0  0.43077  0.37713  0.86213  1.0000 -0.0686857758
N   N160      1.0  0.52387  0.56253  0.88533  1.0000 -0.0686857758
C   C519      1.0  0.40497  0.51873  0.89523  1.0000 -0.0881865386
C   C520      1.0  0.33367  0.41723  0.88033  1.0000 0.0041466364
H   H865      1.0  0.39447  0.43223  0.90153  1.0000 0.1007798595
C   C521      1.0  0.48387  0.40573  0.91251  1.0000 0.027875408
C   C522      1.0  0.62067  0.52233  0.86823  1.0000 0.027875408
C   C523      1.0  0.54987  0.41863  0.85503  1.0000 -0.0804308695
H   H866      1.0  0.55637  0.50053  0.84733  1.0000 0.1103299505
H   H867      1.0  0.42817  0.34683  0.87253  1.0000 0.1103299505
C   C524      1.0  0.47877  0.37763  0.84823  1.0000 0.0096146532
C   C525      1.0  0.36307  0.35143  0.85583  1.0000 -0.0804308695
C   C526      1.0  0.59027  0.59493  0.89163  1.0000 -0.0463115656
C   C527      1.0  0.47797  0.55833  0.90033  1.0000 0.027875408
H   H868      1.0  0.52157  0.59073  0.87503  1.0000 0.1007798595
H   H869      1.0  0.37747  0.51423  0.90643  1.0000 0.040310148
H   H870      1.0  0.39427  0.53953  0.88463  1.0000 0.0599627315
C   C528      1.0  0.32157  0.35293  0.87233  1.0000 -0.0804308695
H   H871      1.0  0.32997  0.44323  0.86973  1.0000 0.0599627315
H   H872      1.0  0.29897  0.40853  0.88973  1.0000 0.0486432212
O   O67       1.0  0.42667  0.38163  0.91754  1.0000 -0.5068227806
C   C529      1.0  0.52857  0.39273  0.92438  1.0000 -0.0140314105
H   H873      1.0  0.62657  0.50033  0.87943  1.0000 0.0599627315
C   C530      1.0  0.62817  0.58963  0.87463  1.0000 -0.101100454
H   H874      1.0  0.65507  0.53023  0.85873  1.0000 0.027875408
H   H875      1.0  0.55807  0.39843  0.86633  1.0000 0.0599627315
H   H876      1.0  0.58067  0.42323  0.84463  1.0000 0.040310148
H   H877      1.0  0.46867  0.33223  0.84603  1.0000 0.040310148
H   H878      1.0  0.47377  0.39523  0.83583  1.0000 0.0486432212
H   H879      1.0  0.36187  0.37803  0.84513  1.0000 0.0599627315
H   H880      1.0  0.34497  0.30593  0.85133  1.0000 0.0599627315
H   H881      1.0  0.59537  0.57303  0.90313  1.0000 0.0599627315
H   H882      1.0  0.60567  0.64123  0.89483  1.0000 0.0599627315
H   H883      1.0  0.48547  0.53873  0.91183  1.0000 0.0599627315
H   H884      1.0  0.48857  0.60323  0.90363  1.0000 0.0486432212
H   H885      1.0  0.27537  0.32853  0.86813  1.0000 0.0599627315
H   H886      1.0  0.32597  0.32803  0.88303  1.0000 0.0777011545
C   C531      1.0  0.59257  0.41543  0.91885  1.0000 -0.1482281308
C   C532      1.0  0.50677  0.35363  0.94091  1.0000 -0.1482281308
H   H887      1.0  0.67517  0.61933  0.87723  1.0000 0.0486432212
H   H888      1.0  0.61707  0.60763  0.86333  1.0000 0.0693294588
C   C533      1.0  0.63457  0.40353  0.92911  1.0000 -0.0881865386
H   H889      1.0  0.60787  0.44043  0.90743  1.0000 0.1103299505
C   C534      1.0  0.54927  0.33953  0.95110  1.0000 0.027875408
H   H890      1.0  0.46307  0.33673  0.94523  1.0000 0.1199420073
H   H891      1.0  0.67857  0.42213  0.92503  1.0000 0.1199420073
C   C535      1.0  0.53127  0.29853  0.96829  1.0000 0.1772400725
N   N161      1.0  0.58007  0.28893  0.97527  1.0000 -0.2412144577
C   C536      1.0  0.47147  0.27063  0.97721  1.0000 -0.1823075057
C   C537      1.0  0.56797  0.25103  0.99110  1.0000 0.040310148
H   H892      1.0  0.43797  0.27773  0.97233  1.0000 0.1332312332
C   C538      1.0  0.45967  0.23233  0.99340  1.0000 0.0096146532
C   C539      1.0  0.50987  0.22413  0.00035  1.0000 -0.1918009899
H   H893      1.0  0.60127  0.24323  0.99583  1.0000 0.1103299505
C   C540      1.0  0.39417  0.20093  0.00324  1.0000 -0.0018398883
H   H894      1.0  0.50357  0.19943  0.01173  1.0000 0.1199420073
O   O68       1.0  0.34927  0.20713  0.99603  1.0000 -0.5068227806
N   N162      1.0  0.58907  0.71933  0.69533  1.0000 -0.0686857758
H   H895      1.0  0.55977  0.68903  0.70543  1.0000 0.1007798595
N   N163      1.0  0.60447  0.84313  0.69803  1.0000 -0.0804308695
H   H896      1.0  0.62557  0.86623  0.68583  1.0000 0.1007798595
N   N164      1.0  0.72547  0.88443  0.72183  1.0000 -0.0686857758
H   H897      1.0  0.75857  0.90883  0.71163  1.0000 0.1103299505
N   N165      1.0  0.71127  0.76173  0.71813  1.0000 -0.0804308695
H   H898      1.0  0.68817  0.73613  0.72983  1.0000 0.1007798595
C   C541      1.0  0.55107  0.73673  0.68273  1.0000 -0.0610470701
H   H899      1.0  0.57477  0.75463  0.67053  1.0000 0.0599627315
H   H900      1.0  0.50847  0.69753  0.67983  1.0000 0.040310148
C   C542      1.0  0.54027  0.78793  0.69283  1.0000 0.027875408
H   H901      1.0  0.51347  0.76893  0.70453  1.0000 0.0693294588
H   H902      1.0  0.51707  0.80293  0.68423  1.0000 0.040310148
C   C543      1.0  0.59917  0.89033  0.71013  1.0000 -0.0804308695
H   H903      1.0  0.58297  0.91503  0.70273  1.0000 0.0599627315
H   H904      1.0  0.56927  0.86833  0.72103  1.0000 0.0693294588
C   C544      1.0  0.66967  0.93633  0.71723  1.0000 -0.0366537845
H   H905      1.0  0.66727  0.97483  0.72143  1.0000 0.0599627315
H   H906      1.0  0.69437  0.94923  0.70513  1.0000 0.0486432212
C   C545      1.0  0.71827  0.93533  0.73113  1.0000 -0.0153511054
H   H907      1.0  0.70077  0.92333  0.74423  1.0000 0.040310148
H   H908      1.0  0.75997  0.97783  0.73133  1.0000 0.01818332
C   C546      1.0  0.76067  0.86433  0.73483  1.0000 -0.0881865386
H   H909      1.0  0.80227  0.90323  0.73883  1.0000 0.0486432212
H   H910      1.0  0.73417  0.84433  0.74643  1.0000 0.0599627315
C   C547      1.0  0.77667  0.81083  0.72403  1.0000 0.0096146532
H   H911      1.0  0.79597  0.79273  0.73303  1.0000 0.040310148
H   H912      1.0  0.80617  0.83053  0.71293  1.0000 0.0599627315
C   C548      1.0  0.72047  0.71833  0.70573  1.0000 -0.0463115656
H   H913      1.0  0.74877  0.74373  0.69493  1.0000 0.0693294588
H   H914      1.0  0.74317  0.69943  0.71293  1.0000 0.0777011545
C   C549      1.0  0.65567  0.66233  0.69783  1.0000 -0.101100454
H   H915      1.0  0.62767  0.63683  0.70853  1.0000 0.0777011545
H   H916      1.0  0.66557  0.63313  0.69003  1.0000 0.0599627315
C   C550      1.0  0.62187  0.68933  0.68553  1.0000 0.027875408
H   H917      1.0  0.58817  0.65233  0.67773  1.0000 0.0599627315
H   H918      1.0  0.65377  0.72133  0.67653  1.0000 0.0599627315
O   O69       1.0  0.11583  0.83937  0.18514  1.0000 -0.4828358619
Ni  Ni18      1.0  0.14418  0.80273  0.20800  1.0000 0.2342789186
N   N166      1.0  0.06273  0.78907  0.22277  1.0000 -0.0610470701
O   O70       1.0  0.17453  0.77037  0.23113  1.0000 -0.4928275375
N   N167      1.0  0.22333  0.81317  0.19307  1.0000 -0.0686857758
N   N168      1.0  0.09743  0.71047  0.19547  1.0000 -0.0686857758
N   N169      1.0  0.19053  0.89587  0.21867  1.0000 -0.0686857758
C   C551      1.0  0.07163  0.85207  0.22857  1.0000 -0.0881865386
C   C552      1.0  0.00033  0.75057  0.21367  1.0000 0.0041466364
H   H919      1.0  0.06113  0.76557  0.23487  1.0000 0.1007798595
C   C553      1.0  0.15053  0.73907  0.24585  1.0000 0.027875408
C   C554      1.0  0.28733  0.85567  0.20157  1.0000 0.027875408
C   C555      1.0  0.21653  0.75197  0.18837  1.0000 -0.0804308695
H   H920      1.0  0.22303  0.83387  0.18067  1.0000 0.1103299505
H   H921      1.0  0.09483  0.68017  0.20587  1.0000 0.1103299505
C   C556      1.0  0.14543  0.71097  0.18157  1.0000 0.0096146532
C   C557      1.0  0.02973  0.68477  0.18917  1.0000 -0.0804308695
C   C558      1.0  0.25693  0.92827  0.22497  1.0000 -0.0463115656
C   C559      1.0  0.14463  0.89167  0.23367  1.0000 0.027875408
H   H922      1.0  0.18823  0.92407  0.20837  1.0000 0.1007798595
H   H923      1.0  0.04413  0.84757  0.23977  1.0000 0.040310148
H   H924      1.0  0.06093  0.87287  0.21797  1.0000 0.0599627315
C   C560      1.0  0.98823  0.68627  0.20567  1.0000 -0.0804308695
H   H925      1.0  0.99663  0.77657  0.20307  1.0000 0.0599627315
H   H926      1.0  0.96563  0.74187  0.22307  1.0000 0.0486432212
O   O71       1.0  0.09333  0.71497  0.25088  1.0000 -0.5068227806
C   C561      1.0  0.19523  0.72607  0.25772  1.0000 -0.0153511054
H   H927      1.0  0.29323  0.83367  0.21277  1.0000 0.0599627315
C   C562      1.0  0.29483  0.92297  0.20797  1.0000 -0.101100454
H   H928      1.0  0.32173  0.86357  0.19207  1.0000 0.040310148
H   H929      1.0  0.22473  0.73177  0.19967  1.0000 0.0599627315
H   H930      1.0  0.24733  0.75657  0.17797  1.0000 0.040310148
H   H931      1.0  0.13533  0.66557  0.17937  1.0000 0.040310148
H   H932      1.0  0.14043  0.72857  0.16917  1.0000 0.0486432212
H   H933      1.0  0.02853  0.71137  0.17847  1.0000 0.0599627315
H   H934      1.0  0.01163  0.63927  0.18467  1.0000 0.0599627315
H   H935      1.0  0.26203  0.90637  0.23647  1.0000 0.0599627315
H   H936      1.0  0.27233  0.97457  0.22817  1.0000 0.0599627315
H   H937      1.0  0.15213  0.87207  0.24517  1.0000 0.0599627315
H   H938      1.0  0.15523  0.93657  0.23697  1.0000 0.040310148
H   H939      1.0  0.94203  0.66187  0.20147  1.0000 0.0599627315
H   H940      1.0  0.99263  0.66137  0.21637  1.0000 0.0777011545
C   C563      1.0  0.25923  0.74877  0.25219  1.0000 -0.1482281308
C   C564      1.0  0.17343  0.68697  0.27425  1.0000 -0.1482281308
H   H941      1.0  0.34183  0.95267  0.21057  1.0000 0.0486432212
H   H942      1.0  0.28373  0.94097  0.19667  1.0000 0.0693294588
C   C565      1.0  0.30123  0.73687  0.26245  1.0000 -0.0881865386
H   H943      1.0  0.27453  0.77377  0.24077  1.0000 0.1103299505
C   C566      1.0  0.21593  0.67287  0.28444  1.0000 0.027875408
H   H944      1.0  0.12973  0.67007  0.27857  1.0000 0.1199420073
H   H945      1.0  0.34523  0.75547  0.25837  1.0000 0.1199420073
C   C567      1.0  0.19793  0.63187  0.30163  1.0000 0.1772400725
N   N170      1.0  0.24673  0.62227  0.30861  1.0000 -0.247256526
C   C568      1.0  0.13813  0.60397  0.31055  1.0000 -0.1823075057
C   C569      1.0  0.23463  0.58437  0.32444  1.0000 0.040310148
H   H946      1.0  0.10463  0.61107  0.30567  1.0000 0.1332312332
C   C570      1.0  0.12633  0.56567  0.32674  1.0000 0.0096146532
C   C571      1.0  0.17653  0.55747  0.33369  1.0000 -0.1918009899
H   H947      1.0  0.26793  0.57657  0.32917  1.0000 0.1103299505
C   C572      1.0  0.06083  0.53427  0.33658  1.0000 -0.0018398883
H   H948      1.0  0.17023  0.53277  0.34507  1.0000 0.1199420073
O   O72       1.0  0.01593  0.54047  0.32937  1.0000 -0.5068227806
N   N171      1.0  0.25573  0.05267  0.02867  1.0000 -0.0686857758
H   H949      1.0  0.22643  0.02237  0.03877  1.0000 0.1007798595
N   N172      1.0  0.27113  0.17647  0.03137  1.0000 -0.0804308695
H   H950      1.0  0.29223  0.19957  0.01917  1.0000 0.1007798595
N   N173      1.0  0.39213  0.21777  0.05517  1.0000 -0.0686857758
H   H951      1.0  0.42523  0.24217  0.04497  1.0000 0.1103299505
N   N174      1.0  0.37793  0.09507  0.05147  1.0000 -0.0804308695
H   H952      1.0  0.35483  0.06947  0.06317  1.0000 0.1007798595
C   C573      1.0  0.21773  0.07007  0.01607  1.0000 -0.0610470701
H   H953      1.0  0.24143  0.08797  0.00387  1.0000 0.0599627315
H   H954      1.0  0.17513  0.03087  0.01317  1.0000 0.040310148
C   C574      1.0  0.20693  0.12127  0.02617  1.0000 0.027875408
H   H955      1.0  0.18013  0.10227  0.03787  1.0000 0.0693294588
H   H956      1.0  0.18373  0.13627  0.01757  1.0000 0.040310148
C   C575      1.0  0.26583  0.22367  0.04347  1.0000 -0.0804308695
H   H957      1.0  0.24963  0.24837  0.03607  1.0000 0.0599627315
H   H958      1.0  0.23593  0.20167  0.05437  1.0000 0.0693294588
C   C576      1.0  0.33633  0.26967  0.05057  1.0000 -0.0366537845
H   H959      1.0  0.33393  0.30817  0.05477  1.0000 0.0599627315
H   H960      1.0  0.36103  0.28257  0.03847  1.0000 0.0486432212
C   C577      1.0  0.38493  0.26867  0.06447  1.0000 -0.0153511054
H   H961      1.0  0.36743  0.25667  0.07757  1.0000 0.040310148
H   H962      1.0  0.42663  0.31117  0.06467  1.0000 0.01818332
C   C578      1.0  0.42733  0.19767  0.06817  1.0000 -0.0881865386
H   H963      1.0  0.46893  0.23657  0.07217  1.0000 0.0486432212
H   H964      1.0  0.40083  0.17767  0.07977  1.0000 0.0599627315
C   C579      1.0  0.44333  0.14417  0.05737  1.0000 0.0096146532
H   H965      1.0  0.46263  0.12607  0.06637  1.0000 0.040310148
H   H966      1.0  0.47283  0.16387  0.04627  1.0000 0.0599627315
C   C580      1.0  0.38713  0.05167  0.03907  1.0000 -0.0463115656
H   H967      1.0  0.41543  0.07707  0.02827  1.0000 0.0693294588
H   H968      1.0  0.40983  0.03277  0.04627  1.0000 0.0777011545
C   C581      1.0  0.32233  0.99567  0.03117  1.0000 -0.101100454
H   H969      1.0  0.29433  0.97017  0.04187  1.0000 0.0777011545
H   H970      1.0  0.33223  0.96647  0.02337  1.0000 0.0599627315
C   C582      1.0  0.28853  0.02267  0.01887  1.0000 0.027875408
H   H971      1.0  0.25483  0.98567  0.01107  1.0000 0.0599627315
H   H972      1.0  0.32043  0.05467  0.00987  1.0000 0.0599627315
Ir  Ir1       1.0  0.00000  0.00000  0.12701  1.0000 0.6392590863
Ir  Ir2       1.0  0.66667  0.33333  0.46034  1.0000 0.6392590863
Ir  Ir3       1.0  0.33333  0.66667  0.79368  1.0000 0.6392590863
Ir  Ir4       1.0  0.00000  0.00000  0.62701  1.0000 0.6392590863
Ir  Ir5       1.0  0.66667  0.33333  0.96034  1.0000 0.6392590863
Ir  Ir6       1.0  0.33333  0.66667  0.29368  1.0000 0.6392590863
O   O73       1.0  0.17270  0.39020  0.48153  1.0000 -0.4828358619
Ni  Ni19      1.0  0.13606  0.32521  0.45867  1.0000 0.2342789186
N   N175      1.0  0.12240  0.39300  0.44390  1.0000 -0.0686857758
O   O74       1.0  0.10370  0.26250  0.43554  1.0000 -0.4928275375
N   N176      1.0  0.14650  0.25650  0.47360  1.0000 -0.0686857758
N   N177      1.0  0.04380  0.27970  0.47120  1.0000 -0.0686857758
N   N178      1.0  0.22920  0.37200  0.44800  1.0000 -0.0686857758
C   C583      1.0  0.18540  0.44710  0.43810  1.0000 -0.0881865386
C   C584      1.0  0.08390  0.41690  0.45300  1.0000 0.0041466364
H   H973      1.0  0.09890  0.37110  0.43180  1.0000 0.1007798595
C   C585      1.0  0.07240  0.25520  0.42082  1.0000 0.027875408
C   C586      1.0  0.18900  0.23500  0.46510  1.0000 0.027875408
C   C587      1.0  0.08530  0.20210  0.47830  1.0000 -0.0804308695
H   H974      1.0  0.16720  0.27750  0.48600  1.0000 0.1103299505
H   H975      1.0  0.01350  0.25200  0.46080  1.0000 0.1103299505
C   C588      1.0  0.04430  0.23220  0.48510  1.0000 0.0096146532
C   C589      1.0  0.01810  0.32170  0.47750  1.0000 -0.0804308695
C   C590      1.0  0.26160  0.33800  0.44170  1.0000 -0.0463115656
C   C591      1.0  0.22500  0.41370  0.43300  1.0000 0.027875408
H   H976      1.0  0.25740  0.40250  0.45830  1.0000 0.1007798595
H   H977      1.0  0.18090  0.47010  0.42690  1.0000 0.040310148
H   H978      1.0  0.20620  0.47860  0.44870  1.0000 0.0599627315
C   C592      1.0  0.01960  0.36470  0.46100  1.0000 -0.0804308695
H   H979      1.0  0.10990  0.44660  0.46360  1.0000 0.0599627315
H   H980      1.0  0.07520  0.44290  0.44360  1.0000 0.0486432212
O   O75       1.0  0.04830  0.28830  0.41579  1.0000 -0.5068227806
C   C593      1.0  0.05940  0.19750  0.40895  1.0000 0.0096146532
H   H981      1.0  0.16700  0.20710  0.45390  1.0000 0.0599627315
C   C594      1.0  0.25630  0.29480  0.45870  1.0000 -0.101100454
H   H982      1.0  0.19690  0.20850  0.47460  1.0000 0.040310148
H   H983      1.0  0.06510  0.17370  0.46700  1.0000 0.0599627315
H   H984      1.0  0.08990  0.17590  0.48870  1.0000 0.040310148
H   H985      1.0  0.99890  0.19690  0.48730  1.0000 0.040310148
H   H986      1.0  0.06190  0.25480  0.49750  1.0000 0.0486432212
H   H987      1.0  0.04470  0.34950  0.48820  1.0000 0.0599627315
H   H988      1.0  0.97260  0.29430  0.48200  1.0000 0.0599627315
H   H989      1.0  0.23970  0.31100  0.43020  1.0000 0.0599627315
H   H990      1.0  0.30790  0.36890  0.43850  1.0000 0.0599627315
H   H991      1.0  0.20540  0.38660  0.42150  1.0000 0.0599627315
H   H992      1.0  0.26990  0.44800  0.42970  1.0000 0.040310148
H   H993      1.0  0.99520  0.38650  0.46520  1.0000 0.0599627315
H   H994      1.0  0.99470  0.33540  0.45030  1.0000 0.0777011545
C   C595      1.0  0.08210  0.15620  0.41448  1.0000 -0.1918009899
C   C596      1.0  0.02030  0.18020  0.39242  1.0000 -0.1918009899
H   H995      1.0  0.28600  0.27750  0.45610  1.0000 0.0486432212
H   H996      1.0  0.27430  0.32390  0.47000  1.0000 0.0693294588
C   C597      1.0  0.07020  0.10230  0.40422  1.0000 0.0599627315
H   H997      1.0  0.10710  0.16590  0.42590  1.0000 0.1199420073
C   C598      1.0  0.00620  0.12360  0.38223  1.0000 0.1422292007
H   H998      1.0  0.00340  0.20700  0.38810  1.0000 0.1332312332
C   C599      1.0  0.03240  0.08440  0.38820  1.0000 -0.2412144577
H   H999      1.0  0.08880  0.07690  0.40830  1.0000 0.1199420073
C   C600      1.0  0.96520  0.10060  0.36504  1.0000 0.1542727053
N   N179      1.0  0.95560  0.04220  0.35806  1.0000 -0.2412144577
C   C601      1.0  0.93730  0.13250  0.35612  1.0000 -0.1823075057
N   N180      1.0  0.91560  0.94790  0.38820  1.0000 -0.2028512544
C   C602      1.0  0.91770  0.01640  0.34223  1.0000 0.040310148
H   H1000     1.0  0.94440  0.17310  0.36100  1.0000 0.1332312332
C   C603      1.0  0.89900  0.10600  0.33993  1.0000 0.0096146532
C   C604      1.0  0.89080  0.04760  0.33298  1.0000 -0.1918009899
H   H1001     1.0  0.90990  0.97530  0.33750  1.0000 0.1103299505
C   C605      1.0  0.86760  0.14010  0.33009  1.0000 -0.0018398883
H   H1002     1.0  0.86610  0.02920  0.32160  1.0000 0.1199420073
O   O76       1.0  0.87380  0.19120  0.33730  1.0000 -0.5068227806
N   N181      1.0  0.38600  0.46360  0.63800  1.0000 -0.0686857758
H   H1003     1.0  0.35570  0.46260  0.62790  1.0000 0.1007798595
N   N182      1.0  0.50980  0.57200  0.63530  1.0000 -0.0804308695
H   H1004     1.0  0.53290  0.57400  0.64750  1.0000 0.1007798595
N   N183      1.0  0.55110  0.49230  0.61150  1.0000 -0.0686857758
H   H1005     1.0  0.57550  0.48360  0.62170  1.0000 0.1103299505
N   N184      1.0  0.42840  0.38380  0.61520  1.0000 -0.0804308695
H   H1006     1.0  0.40280  0.38130  0.60350  1.0000 0.1007798595
C   C606      1.0  0.40340  0.51900  0.65060  1.0000 -0.0610470701
H   H1007     1.0  0.42130  0.51320  0.66280  1.0000 0.0599627315
H   H1008     1.0  0.36420  0.52240  0.65350  1.0000 0.040310148
C   C607      1.0  0.45460  0.58100  0.64050  1.0000 0.027875408
H   H1009     1.0  0.43560  0.58880  0.62880  1.0000 0.0693294588
H   H1010     1.0  0.46960  0.61920  0.64910  1.0000 0.040310148
C   C608      1.0  0.55700  0.62450  0.62320  1.0000 -0.0804308695
H   H1011     1.0  0.58170  0.66540  0.63060  1.0000 0.0599627315
H   H1012     1.0  0.53500  0.63240  0.61230  1.0000 0.0693294588
C   C609      1.0  0.60300  0.60000  0.61610  1.0000 -0.0366537845
H   H1013     1.0  0.64150  0.64090  0.61190  1.0000 0.0599627315
H   H1014     1.0  0.61590  0.58820  0.62820  1.0000 0.0486432212
C   C610      1.0  0.60200  0.55040  0.60220  1.0000 -0.0153511054
H   H1015     1.0  0.59000  0.55590  0.58910  1.0000 0.040310148
H   H1016     1.0  0.64450  0.55120  0.60200  1.0000 0.01818332
C   C611      1.0  0.53100  0.43700  0.59850  1.0000 -0.0881865386
H   H1017     1.0  0.56990  0.43430  0.59450  1.0000 0.0486432212
H   H1018     1.0  0.51100  0.44350  0.58690  1.0000 0.0599627315
C   C612      1.0  0.47750  0.36750  0.60930  1.0000 0.0096146532
H   H1019     1.0  0.45940  0.33010  0.60030  1.0000 0.040310148
H   H1020     1.0  0.49720  0.35770  0.62040  1.0000 0.0599627315
C   C613      1.0  0.38500  0.33120  0.62760  1.0000 -0.0463115656
H   H1021     1.0  0.41040  0.32830  0.63840  1.0000 0.0693294588
H   H1022     1.0  0.36610  0.28960  0.62040  1.0000 0.0777011545
C   C614      1.0  0.32900  0.34000  0.63550  1.0000 -0.101100454
H   H1023     1.0  0.30350  0.34250  0.62480  1.0000 0.0777011545
H   H1024     1.0  0.29980  0.30090  0.64330  1.0000 0.0599627315
C   C615      1.0  0.35600  0.40080  0.64780  1.0000 0.027875408
H   H1025     1.0  0.31900  0.39750  0.65560  1.0000 0.0599627315
H   H1026     1.0  0.38800  0.40090  0.65680  1.0000 0.0599627315
O   O77       1.0  0.83937  0.72353  0.81486  1.0000 -0.4828358619
Ni  Ni20      1.0  0.80273  0.65854  0.79200  1.0000 0.2342789186
N   N185      1.0  0.78907  0.72633  0.77723  1.0000 -0.0610470701
O   O78       1.0  0.77037  0.59583  0.76887  1.0000 -0.4928275375
N   N186      1.0  0.81317  0.58983  0.80693  1.0000 -0.0610470701
N   N187      1.0  0.71047  0.61303  0.80453  1.0000 -0.0610470701
N   N188      1.0  0.89587  0.70533  0.78133  1.0000 -0.0686857758
C   C616      1.0  0.85207  0.78043  0.77143  1.0000 -0.0881865386
C   C617      1.0  0.75057  0.75023  0.78633  1.0000 0.0041466364
H   H1027     1.0  0.76557  0.70443  0.76513  1.0000 0.1007798595
C   C618      1.0  0.73907  0.58853  0.75415  1.0000 0.027875408
C   C619      1.0  0.85567  0.56833  0.79843  1.0000 0.027875408
C   C620      1.0  0.75197  0.53543  0.81163  1.0000 -0.0804308695
H   H1028     1.0  0.83387  0.61083  0.81933  1.0000 0.1103299505
H   H1029     1.0  0.68017  0.58533  0.79413  1.0000 0.1103299505
C   C621      1.0  0.71097  0.56553  0.81843  1.0000 0.0096146532
C   C622      1.0  0.68477  0.65503  0.81083  1.0000 -0.0804308695
C   C623      1.0  0.92827  0.67133  0.77503  1.0000 -0.0463115656
C   C624      1.0  0.89167  0.74703  0.76633  1.0000 0.027875408
H   H1030     1.0  0.92407  0.73583  0.79163  1.0000 0.1007798595
H   H1031     1.0  0.84757  0.80343  0.76023  1.0000 0.040310148
H   H1032     1.0  0.87287  0.81193  0.78203  1.0000 0.0599627315
C   C625      1.0  0.68627  0.69803  0.79433  1.0000 -0.0804308695
H   H1033     1.0  0.77657  0.77993  0.79693  1.0000 0.0599627315
H   H1034     1.0  0.74187  0.77623  0.77693  1.0000 0.0486432212
O   O79       1.0  0.71497  0.62163  0.74912  1.0000 -0.5016892986
C   C626      1.0  0.72607  0.53083  0.74228  1.0000 0.0096146532
H   H1035     1.0  0.83367  0.54043  0.78723  1.0000 0.0599627315
C   C627      1.0  0.92297  0.62813  0.79203  1.0000 -0.101100454
H   H1036     1.0  0.86357  0.54183  0.80793  1.0000 0.040310148
H   H1037     1.0  0.73177  0.50703  0.80033  1.0000 0.0599627315
H   H1038     1.0  0.75657  0.50923  0.82203  1.0000 0.040310148
H   H1039     1.0  0.66557  0.53023  0.82063  1.0000 0.040310148
H   H1040     1.0  0.72857  0.58813  0.83083  1.0000 0.0486432212
H   H1041     1.0  0.71137  0.68283  0.82153  1.0000 0.0599627315
H   H1042     1.0  0.63927  0.62763  0.81533  1.0000 0.0599627315
H   H1043     1.0  0.90637  0.64433  0.76353  1.0000 0.0599627315
H   H1044     1.0  0.97457  0.70223  0.77183  1.0000 0.0599627315
H   H1045     1.0  0.87207  0.71993  0.75483  1.0000 0.0599627315
H   H1046     1.0  0.93657  0.78133  0.76303  1.0000 0.040310148
H   H1047     1.0  0.66187  0.71983  0.79853  1.0000 0.0599627315
H   H1048     1.0  0.66137  0.66873  0.78363  1.0000 0.0777011545
C   C628      1.0  0.74877  0.48953  0.74781  1.0000 -0.1918009899
C   C629      1.0  0.68697  0.51353  0.72575  1.0000 -0.1918009899
H   H1049     1.0  0.95267  0.61083  0.78943  1.0000 0.0486432212
H   H1050     1.0  0.94097  0.65723  0.80333  1.0000 0.0693294588
C   C630      1.0  0.73687  0.43563  0.73755  1.0000 0.0599627315
H   H1051     1.0  0.77377  0.49923  0.75923  1.0000 0.1199420073
C   C631      1.0  0.67287  0.45693  0.71556  1.0000 0.1422292007
H   H1052     1.0  0.67007  0.54033  0.72143  1.0000 0.1332312332
C   C632      1.0  0.69907  0.41773  0.72153  1.0000 -0.2412144577
H   H1053     1.0  0.75547  0.41023  0.74163  1.0000 0.1199420073
C   C633      1.0  0.63187  0.43393  0.69837  1.0000 0.1542727053
N   N189      1.0  0.62227  0.37553  0.69139  1.0000 -0.2340381878
C   C634      1.0  0.60397  0.46583  0.68945  1.0000 -0.1823075057
N   N190      1.0  0.58227  0.28123  0.72153  1.0000 -0.2028512544
C   C635      1.0  0.58437  0.34973  0.67556  1.0000 0.040310148
H   H1054     1.0  0.61107  0.50643  0.69433  1.0000 0.1332312332
C   C636      1.0  0.56567  0.43933  0.67326  1.0000 0.0096146532
C   C637      1.0  0.55747  0.38093  0.66631  1.0000 -0.1918009899
H   H1055     1.0  0.57657  0.30863  0.67083  1.0000 0.1103299505
C   C638      1.0  0.53427  0.47343  0.66342  1.0000 -0.0018398883
H   H1056     1.0  0.53277  0.36253  0.65493  1.0000 0.1199420073
O   O80       1.0  0.54047  0.52453  0.67063  1.0000 -0.5068227806
N   N191      1.0  0.05267  0.79693  0.97133  1.0000 -0.0686857758
H   H1057     1.0  0.02237  0.79593  0.96123  1.0000 0.1007798595
N   N192      1.0  0.17647  0.90533  0.96863  1.0000 -0.0804308695
H   H1058     1.0  0.19957  0.90733  0.98083  1.0000 0.1007798595
N   N193      1.0  0.21777  0.82563  0.94483  1.0000 -0.0686857758
H   H1059     1.0  0.24217  0.81693  0.95503  1.0000 0.1103299505
N   N194      1.0  0.09507  0.71713  0.94853  1.0000 -0.0804308695
H   H1060     1.0  0.06947  0.71463  0.93683  1.0000 0.1007798595
C   C639      1.0  0.07007  0.85233  0.98393  1.0000 -0.0610470701
H   H1061     1.0  0.08797  0.84653  0.99613  1.0000 0.0599627315
H   H1062     1.0  0.03087  0.85573  0.98683  1.0000 0.040310148
C   C640      1.0  0.12127  0.91433  0.97383  1.0000 0.027875408
H   H1063     1.0  0.10227  0.92213  0.96213  1.0000 0.0693294588
H   H1064     1.0  0.13627  0.95253  0.98243  1.0000 0.040310148
C   C641      1.0  0.22367  0.95783  0.95653  1.0000 -0.0804308695
H   H1065     1.0  0.24837  0.99873  0.96393  1.0000 0.0599627315
H   H1066     1.0  0.20167  0.96573  0.94563  1.0000 0.0777011545
C   C642      1.0  0.26967  0.93333  0.94943  1.0000 -0.0366537845
H   H1067     1.0  0.30817  0.97423  0.94523  1.0000 0.0599627315
H   H1068     1.0  0.28257  0.92153  0.96153  1.0000 0.0486432212
C   C643      1.0  0.26867  0.88373  0.93553  1.0000 -0.0153511054
H   H1069     1.0  0.25667  0.88923  0.92243  1.0000 0.040310148
H   H1070     1.0  0.31117  0.88453  0.93533  1.0000 0.01818332
C   C644      1.0  0.19767  0.77033  0.93183  1.0000 -0.0881865386
H   H1071     1.0  0.23657  0.76763  0.92783  1.0000 0.0486432212
H   H1072     1.0  0.17767  0.77683  0.92023  1.0000 0.0599627315
C   C645      1.0  0.14417  0.70083  0.94263  1.0000 0.0096146532
H   H1073     1.0  0.12607  0.66343  0.93363  1.0000 0.040310148
H   H1074     1.0  0.16387  0.69103  0.95373  1.0000 0.0599627315
C   C646      1.0  0.05167  0.66453  0.96093  1.0000 -0.0463115656
H   H1075     1.0  0.07707  0.66163  0.97173  1.0000 0.0693294588
H   H1076     1.0  0.03277  0.62293  0.95373  1.0000 0.0777011545
C   C647      1.0  0.99567  0.67333  0.96883  1.0000 -0.101100454
H   H1077     1.0  0.97017  0.67583  0.95813  1.0000 0.0777011545
H   H1078     1.0  0.96647  0.63423  0.97663  1.0000 0.0599627315
C   C648      1.0  0.02267  0.73413  0.98113  1.0000 0.027875408
H   H1079     1.0  0.98567  0.73083  0.98893  1.0000 0.0599627315
H   H1080     1.0  0.05467  0.73423  0.99013  1.0000 0.0599627315
O   O81       1.0  0.50603  0.05687  0.14820  1.0000 -0.4828358619
Ni  Ni21      1.0  0.46939  0.99188  0.12534  1.0000 0.2342789186
N   N195      1.0  0.45573  0.05967  0.11057  1.0000 -0.0686857758
O   O82       1.0  0.43703  0.92917  0.10221  1.0000 -0.4928275375
N   N196      1.0  0.47983  0.92317  0.14027  1.0000 -0.0686857758
N   N197      1.0  0.37713  0.94637  0.13787  1.0000 -0.0686857758
N   N198      1.0  0.56253  0.03867  0.11467  1.0000 -0.0686857758
C   C649      1.0  0.51873  0.11377  0.10477  1.0000 -0.0881865386
C   C650      1.0  0.41723  0.08357  0.11967  1.0000 0.0041466364
H   H1081     1.0  0.43223  0.03777  0.09847  1.0000 0.1007798595
C   C651      1.0  0.40573  0.92187  0.08749  1.0000 0.027875408
C   C652      1.0  0.52233  0.90167  0.13177  1.0000 0.027875408
C   C653      1.0  0.41863  0.86877  0.14497  1.0000 -0.0804308695
H   H1082     1.0  0.50053  0.94417  0.15267  1.0000 0.1103299505
H   H1083     1.0  0.34683  0.91867  0.12747  1.0000 0.1103299505
C   C654      1.0  0.37763  0.89887  0.15177  1.0000 0.0096146532
C   C655      1.0  0.35143  0.98837  0.14417  1.0000 -0.0804308695
C   C656      1.0  0.59493  0.00467  0.10837  1.0000 -0.0463115656
C   C657      1.0  0.55833  0.08037  0.09967  1.0000 0.027875408
H   H1084     1.0  0.59073  0.06917  0.12497  1.0000 0.1007798595
H   H1085     1.0  0.51423  0.13677  0.09357  1.0000 0.040310148
H   H1086     1.0  0.53953  0.14527  0.11537  1.0000 0.0599627315
C   C658      1.0  0.35293  0.03137  0.12767  1.0000 -0.0804308695
H   H1087     1.0  0.44323  0.11327  0.13027  1.0000 0.0599627315
H   H1088     1.0  0.40853  0.10957  0.11027  1.0000 0.0486432212
O   O83       1.0  0.38163  0.95497  0.08246  1.0000 -0.5016892986
C   C659      1.0  0.39273  0.86417  0.07562  1.0000 0.0096146532
H   H1089     1.0  0.50033  0.87377  0.12057  1.0000 0.0599627315
C   C660      1.0  0.58963  0.96147  0.12537  1.0000 -0.101100454
H   H1090     1.0  0.53023  0.87517  0.14127  1.0000 0.027875408
H   H1091     1.0  0.39843  0.84037  0.13367  1.0000 0.0599627315
H   H1092     1.0  0.42323  0.84257  0.15537  1.0000 0.040310148
H   H1093     1.0  0.33223  0.86357  0.15397  1.0000 0.040310148
H   H1094     1.0  0.39523  0.92147  0.16417  1.0000 0.0486432212
H   H1095     1.0  0.37803  0.01617  0.15487  1.0000 0.0599627315
H   H1096     1.0  0.30593  0.96097  0.14867  1.0000 0.0599627315
H   H1097     1.0  0.57303  0.97767  0.09687  1.0000 0.0599627315
H   H1098     1.0  0.64123  0.03557  0.10517  1.0000 0.0599627315
H   H1099     1.0  0.53873  0.05327  0.08817  1.0000 0.0599627315
H   H1100     1.0  0.60323  0.11467  0.09637  1.0000 0.040310148
H   H1101     1.0  0.32853  0.05317  0.13187  1.0000 0.0599627315
H   H1102     1.0  0.32803  0.00207  0.11697  1.0000 0.0777011545
C   C661      1.0  0.41543  0.82287  0.08115  1.0000 -0.1918009899
C   C662      1.0  0.35363  0.84687  0.05909  1.0000 -0.1918009899
H   H1103     1.0  0.61933  0.94417  0.12277  1.0000 0.0486432212
H   H1104     1.0  0.60763  0.99057  0.13667  1.0000 0.0693294588
C   C663      1.0  0.40353  0.76897  0.07089  1.0000 0.0599627315
H   H1105     1.0  0.44043  0.83257  0.09257  1.0000 0.1199420073
C   C664      1.0  0.33953  0.79027  0.04890  1.0000 0.1422292007
H   H1106     1.0  0.33673  0.87367  0.05477  1.0000 0.1332312332
C   C665      1.0  0.36573  0.75107  0.05487  1.0000 -0.2412144577
H   H1107     1.0  0.42213  0.74357  0.07497  1.0000 0.1199420073
C   C666      1.0  0.29853  0.76727  0.03171  1.0000 0.1542727053
N   N199      1.0  0.28893  0.70887  0.02473  1.0000 -0.2412144577
C   C667      1.0  0.27063  0.79917  0.02279  1.0000 -0.1823075057
N   N200      1.0  0.24893  0.61457  0.05487  1.0000 -0.2028512544
C   C668      1.0  0.25103  0.68307  0.00890  1.0000 0.040310148
H   H1108     1.0  0.27773  0.83977  0.02767  1.0000 0.1332312332
C   C669      1.0  0.23233  0.77267  0.00660  1.0000 0.0096146532
C   C670      1.0  0.22413  0.71427  0.99965  1.0000 -0.1918009899
H   H1109     1.0  0.24323  0.64197  0.00417  1.0000 0.1103299505
C   C671      1.0  0.20093  0.80677  0.99676  1.0000 -0.0018398883
H   H1110     1.0  0.19943  0.69587  0.98827  1.0000 0.1199420073
O   O84       1.0  0.20713  0.85787  0.00397  1.0000 -0.5068227806
N   N201      1.0  0.71933  0.13027  0.30467  1.0000 -0.0686857758
H   H1111     1.0  0.68903  0.12927  0.29457  1.0000 0.1007798595
N   N202      1.0  0.84313  0.23867  0.30197  1.0000 -0.0804308695
H   H1112     1.0  0.86623  0.24067  0.31417  1.0000 0.1007798595
N   N203      1.0  0.88443  0.15897  0.27817  1.0000 -0.0686857758
H   H1113     1.0  0.90883  0.15027  0.28837  1.0000 0.1103299505
N   N204      1.0  0.76173  0.05047  0.28187  1.0000 -0.0804308695
H   H1114     1.0  0.73613  0.04797  0.27017  1.0000 0.1007798595
C   C672      1.0  0.73673  0.18567  0.31727  1.0000 -0.0610470701
H   H1115     1.0  0.75463  0.17987  0.32947  1.0000 0.0599627315
H   H1116     1.0  0.69753  0.18907  0.32017  1.0000 0.040310148
C   C673      1.0  0.78793  0.24767  0.30717  1.0000 0.027875408
H   H1117     1.0  0.76893  0.25547  0.29547  1.0000 0.0693294588
H   H1118     1.0  0.80293  0.28587  0.31577  1.0000 0.040310148
C   C674      1.0  0.89033  0.29117  0.28987  1.0000 -0.0804308695
H   H1119     1.0  0.91503  0.33207  0.29727  1.0000 0.0599627315
H   H1120     1.0  0.86833  0.29907  0.27897  1.0000 0.0693294588
C   C675      1.0  0.93633  0.26667  0.28277  1.0000 -0.0366537845
H   H1121     1.0  0.97483  0.30757  0.27857  1.0000 0.0599627315
H   H1122     1.0  0.94923  0.25487  0.29487  1.0000 0.0486432212
C   C676      1.0  0.93533  0.21707  0.26887  1.0000 -0.0140314105
H   H1123     1.0  0.92333  0.22257  0.25577  1.0000 0.040310148
H   H1124     1.0  0.97783  0.21787  0.26867  1.0000 0.01818332
C   C677      1.0  0.86433  0.10367  0.26517  1.0000 -0.0881865386
H   H1125     1.0  0.90323  0.10097  0.26117  1.0000 0.0486432212
H   H1126     1.0  0.84433  0.11017  0.25357  1.0000 0.0599627315
C   C678      1.0  0.81083  0.03417  0.27597  1.0000 0.0096146532
H   H1127     1.0  0.79273  0.99677  0.26697  1.0000 0.040310148
H   H1128     1.0  0.83053  0.02437  0.28707  1.0000 0.0599627315
C   C679      1.0  0.71833  0.99787  0.29427  1.0000 -0.0463115656
H   H1129     1.0  0.74373  0.99497  0.30507  1.0000 0.0693294588
H   H1130     1.0  0.69943  0.95627  0.28707  1.0000 0.0777011545
C   C680      1.0  0.66233  0.00667  0.30217  1.0000 -0.101100454
H   H1131     1.0  0.63683  0.00917  0.29147  1.0000 0.0777011545
H   H1132     1.0  0.63313  0.96757  0.30997  1.0000 0.0599627315
C   C681      1.0  0.68933  0.06747  0.31447  1.0000 0.027875408
H   H1133     1.0  0.65233  0.06417  0.32227  1.0000 0.0599627315
H   H1134     1.0  0.72133  0.06757  0.32347  1.0000 0.0599627315
O   O85       1.0  0.60980  0.78250  0.48153  1.0000 -0.4828358619
Ni  Ni22      1.0  0.67479  0.81085  0.45867  1.0000 0.2342789186
N   N205      1.0  0.60700  0.72940  0.44390  1.0000 -0.0686857758
O   O86       1.0  0.73750  0.84120  0.43554  1.0000 -0.4928275375
N   N206      1.0  0.74350  0.89000  0.47360  1.0000 -0.0686857758
N   N207      1.0  0.72030  0.76410  0.47120  1.0000 -0.0686857758
N   N208      1.0  0.62800  0.85720  0.44800  1.0000 -0.0686857758
C   C682      1.0  0.55290  0.73830  0.43810  1.0000 -0.0881865386
C   C683      1.0  0.58310  0.66700  0.45300  1.0000 0.0041466364
H   H1135     1.0  0.62890  0.72780  0.43180  1.0000 0.1007798595
C   C684      1.0  0.74480  0.81720  0.42082  1.0000 0.027875408
C   C685      1.0  0.76500  0.95400  0.46510  1.0000 0.027875408
C   C686      1.0  0.79790  0.88320  0.47830  1.0000 -0.0804308695
H   H1136     1.0  0.72250  0.88970  0.48600  1.0000 0.1103299505
H   H1137     1.0  0.74800  0.76150  0.46080  1.0000 0.1103299505
C   C687      1.0  0.76780  0.81210  0.48510  1.0000 0.0096146532
C   C688      1.0  0.67830  0.69640  0.47750  1.0000 -0.0804308695
C   C689      1.0  0.66200  0.92360  0.44170  1.0000 -0.0463115656
C   C690      1.0  0.58630  0.81130  0.43300  1.0000 0.027875408
H   H1138     1.0  0.59750  0.85490  0.45830  1.0000 0.1007798595
H   H1139     1.0  0.52990  0.71080  0.42690  1.0000 0.040310148
H   H1140     1.0  0.52140  0.72760  0.44870  1.0000 0.0599627315
C   C691      1.0  0.63530  0.65490  0.46100  1.0000 -0.0804308695
H   H1141     1.0  0.55340  0.66330  0.46360  1.0000 0.0599627315
H   H1142     1.0  0.55710  0.63230  0.44360  1.0000 0.0486432212
O   O87       1.0  0.71170  0.76000  0.41579  1.0000 -0.5016892986
C   C692      1.0  0.80250  0.86190  0.40895  1.0000 -0.0140314105
H   H1143     1.0  0.79290  0.95990  0.45390  1.0000 0.0599627315
C   C693      1.0  0.70520  0.96150  0.45870  1.0000 -0.101100454
H   H1144     1.0  0.79150  0.98840  0.47460  1.0000 0.027875408
H   H1145     1.0  0.82630  0.89140  0.46700  1.0000 0.0599627315
H   H1146     1.0  0.82410  0.91400  0.48870  1.0000 0.040310148
H   H1147     1.0  0.80310  0.80200  0.48730  1.0000 0.040310148
H   H1148     1.0  0.74520  0.80710  0.49750  1.0000 0.0486432212
H   H1149     1.0  0.65050  0.69520  0.48820  1.0000 0.0599627315
H   H1150     1.0  0.70570  0.67830  0.48200  1.0000 0.0599627315
H   H1151     1.0  0.68900  0.92870  0.43020  1.0000 0.0599627315
H   H1152     1.0  0.63110  0.93900  0.43850  1.0000 0.0599627315
H   H1153     1.0  0.61340  0.81880  0.42150  1.0000 0.0599627315
H   H1154     1.0  0.55200  0.82190  0.42970  1.0000 0.040310148
H   H1155     1.0  0.61350  0.60870  0.46520  1.0000 0.0599627315
H   H1156     1.0  0.66460  0.65930  0.45030  1.0000 0.0777011545
C   C694      1.0  0.84380  0.92590  0.41448  1.0000 -0.1482281308
C   C695      1.0  0.81980  0.84010  0.39242  1.0000 -0.1482281308
H   H1157     1.0  0.72250  0.00850  0.45610  1.0000 0.0486432212
H   H1158     1.0  0.67610  0.95040  0.47000  1.0000 0.0693294588
C   C696      1.0  0.89770  0.96790  0.40422  1.0000 -0.0881865386
H   H1159     1.0  0.83410  0.94120  0.42590  1.0000 0.1103299505
C   C697      1.0  0.87640  0.88260  0.38223  1.0000 0.027875408
H   H1160     1.0  0.79300  0.79640  0.38810  1.0000 0.1199420073
H   H1161     1.0  0.92310  0.01190  0.40830  1.0000 0.1199420073
C   C698      1.0  0.89940  0.86460  0.36504  1.0000 0.1772400725
N   N209      1.0  0.95780  0.91340  0.35806  1.0000 -0.2412144577
C   C699      1.0  0.86750  0.80480  0.35612  1.0000 -0.1823075057
N   N210      1.0  0.05210  0.96770  0.38820  1.0000 -0.2093651803
C   C700      1.0  0.98360  0.90130  0.34223  1.0000 0.040310148
H   H1162     1.0  0.82690  0.77130  0.36100  1.0000 0.1332312332
C   C701      1.0  0.89400  0.79300  0.33993  1.0000 0.0096146532
C   C702      1.0  0.95240  0.84320  0.33298  1.0000 -0.1918009899
H   H1163     1.0  0.02470  0.93460  0.33750  1.0000 0.1103299505
C   C703      1.0  0.85990  0.72750  0.33009  1.0000 -0.0018398883
H   H1164     1.0  0.97080  0.83690  0.32160  1.0000 0.1199420073
O   O88       1.0  0.80880  0.68260  0.33730  1.0000 -0.5068227806
N   N211      1.0  0.53640  0.92240  0.63800  1.0000 -0.0686857758
H   H1165     1.0  0.53740  0.89310  0.62790  1.0000 0.1007798595
N   N212      1.0  0.42800  0.93780  0.63530  1.0000 -0.0804308695
H   H1166     1.0  0.42600  0.95890  0.64750  1.0000 0.1007798595
N   N213      1.0  0.50770  0.05880  0.61150  1.0000 -0.0686857758
H   H1167     1.0  0.51640  0.09190  0.62170  1.0000 0.1103299505
N   N214      1.0  0.61620  0.04460  0.61520  1.0000 -0.0804308695
H   H1168     1.0  0.61870  0.02150  0.60350  1.0000 0.1007798595
C   C704      1.0  0.48100  0.88440  0.65060  1.0000 -0.0610470701
H   H1169     1.0  0.48680  0.90810  0.66280  1.0000 0.0599627315
H   H1170     1.0  0.47760  0.84180  0.65350  1.0000 0.040310148
C   C705      1.0  0.41900  0.87360  0.64050  1.0000 0.027875408
H   H1171     1.0  0.41120  0.84680  0.62880  1.0000 0.0693294588
H   H1172     1.0  0.38080  0.85040  0.64910  1.0000 0.040310148
C   C706      1.0  0.37550  0.93250  0.62320  1.0000 -0.0804308695
H   H1173     1.0  0.33460  0.91630  0.63060  1.0000 0.0599627315
H   H1174     1.0  0.36760  0.90260  0.61230  1.0000 0.0777011545
C   C707      1.0  0.40000  0.00300  0.61610  1.0000 -0.0366537845
H   H1175     1.0  0.35910  0.00060  0.61190  1.0000 0.0599627315
H   H1176     1.0  0.41180  0.02770  0.62820  1.0000 0.0486432212
C   C708      1.0  0.44960  0.05160  0.60220  1.0000 -0.0153511054
H   H1177     1.0  0.44410  0.03410  0.58910  1.0000 0.040310148
H   H1178     1.0  0.44880  0.09330  0.60200  1.0000 0.01818332
C   C709      1.0  0.56300  0.09400  0.59850  1.0000 -0.0881865386
H   H1179     1.0  0.56570  0.13560  0.59450  1.0000 0.0486432212
H   H1180     1.0  0.55650  0.06750  0.58690  1.0000 0.0599627315
C   C710      1.0  0.63250  0.11000  0.60930  1.0000 0.0096146532
H   H1181     1.0  0.66990  0.12930  0.60030  1.0000 0.040310148
H   H1182     1.0  0.64230  0.13950  0.62040  1.0000 0.0599627315
C   C711      1.0  0.66880  0.05380  0.62760  1.0000 -0.0463115656
H   H1183     1.0  0.67170  0.08210  0.63840  1.0000 0.0693294588
H   H1184     1.0  0.71040  0.07650  0.62040  1.0000 0.0777011545
C   C712      1.0  0.66000  0.98900  0.63550  1.0000 -0.101100454
H   H1185     1.0  0.65750  0.96100  0.62480  1.0000 0.0777011545
H   H1186     1.0  0.69910  0.99890  0.64330  1.0000 0.0599627315
C   C713      1.0  0.59920  0.95520  0.64780  1.0000 0.027875408
H   H1187     1.0  0.60250  0.92150  0.65560  1.0000 0.0599627315
H   H1188     1.0  0.59910  0.98710  0.65680  1.0000 0.0599627315
O   O89       1.0  0.27647  0.11583  0.81486  1.0000 -0.4828358619
Ni  Ni23      1.0  0.34146  0.14418  0.79200  1.0000 0.2342789186
N   N215      1.0  0.27367  0.06273  0.77723  1.0000 -0.0610470701
O   O90       1.0  0.40417  0.17453  0.76887  1.0000 -0.4928275375
N   N216      1.0  0.41017  0.22333  0.80693  1.0000 -0.0686857758
N   N217      1.0  0.38697  0.09743  0.80453  1.0000 -0.0610470701
N   N218      1.0  0.29467  0.19053  0.78133  1.0000 -0.0686857758
C   C714      1.0  0.21957  0.07163  0.77143  1.0000 -0.0881865386
C   C715      1.0  0.24977  0.00033  0.78633  1.0000 0.0041466364
H   H1189     1.0  0.29557  0.06113  0.76513  1.0000 0.1007798595
C   C716      1.0  0.41147  0.15053  0.75415  1.0000 0.027875408
C   C717      1.0  0.43167  0.28733  0.79843  1.0000 0.027875408
C   C718      1.0  0.46457  0.21653  0.81163  1.0000 -0.0804308695
H   H1190     1.0  0.38917  0.22303  0.81933  1.0000 0.1103299505
H   H1191     1.0  0.41467  0.09483  0.79413  1.0000 0.1103299505
C   C719      1.0  0.43447  0.14543  0.81843  1.0000 0.0096146532
C   C720      1.0  0.34497  0.02973  0.81083  1.0000 -0.0804308695
C   C721      1.0  0.32867  0.25693  0.77503  1.0000 -0.0463115656
C   C722      1.0  0.25297  0.14463  0.76633  1.0000 0.027875408
H   H1192     1.0  0.26417  0.18823  0.79163  1.0000 0.1007798595
H   H1193     1.0  0.19657  0.04413  0.76023  1.0000 0.040310148
H   H1194     1.0  0.18807  0.06093  0.78203  1.0000 0.0599627315
C   C723      1.0  0.30197  0.98823  0.79433  1.0000 -0.0804308695
H   H1195     1.0  0.22007  0.99663  0.79693  1.0000 0.0599627315
H   H1196     1.0  0.22377  0.96563  0.77693  1.0000 0.0486432212
O   O91       1.0  0.37837  0.09333  0.74912  1.0000 -0.5068227806
C   C724      1.0  0.46917  0.19523  0.74228  1.0000 -0.0153511054
H   H1197     1.0  0.45957  0.29323  0.78723  1.0000 0.0599627315
C   C725      1.0  0.37187  0.29483  0.79203  1.0000 -0.101100454
H   H1198     1.0  0.45817  0.32173  0.80793  1.0000 0.040310148
H   H1199     1.0  0.49297  0.22473  0.80033  1.0000 0.0599627315
H   H1200     1.0  0.49077  0.24733  0.82203  1.0000 0.040310148
H   H1201     1.0  0.46977  0.13533  0.82063  1.0000 0.040310148
H   H1202     1.0  0.41187  0.14043  0.83083  1.0000 0.0486432212
H   H1203     1.0  0.31717  0.02853  0.82153  1.0000 0.0599627315
H   H1204     1.0  0.37237  0.01163  0.81533  1.0000 0.0599627315
H   H1205     1.0  0.35567  0.26203  0.76353  1.0000 0.0599627315
H   H1206     1.0  0.29777  0.27233  0.77183  1.0000 0.0599627315
H   H1207     1.0  0.28007  0.15213  0.75483  1.0000 0.0599627315
H   H1208     1.0  0.21867  0.15523  0.76303  1.0000 0.040310148
H   H1209     1.0  0.28017  0.94203  0.79853  1.0000 0.0599627315
H   H1210     1.0  0.33127  0.99263  0.78363  1.0000 0.0777011545
C   C726      1.0  0.51047  0.25923  0.74781  1.0000 -0.1482281308
C   C727      1.0  0.48647  0.17343  0.72575  1.0000 -0.1482281308
H   H1211     1.0  0.38917  0.34183  0.78943  1.0000 0.0486432212
H   H1212     1.0  0.34277  0.28373  0.80333  1.0000 0.0693294588
C   C728      1.0  0.56437  0.30123  0.73755  1.0000 -0.0881865386
H   H1213     1.0  0.50077  0.27453  0.75923  1.0000 0.1103299505
C   C729      1.0  0.54307  0.21593  0.71556  1.0000 0.027875408
H   H1214     1.0  0.45967  0.12973  0.72143  1.0000 0.1199420073
H   H1215     1.0  0.58977  0.34523  0.74163  1.0000 0.1199420073
C   C730      1.0  0.56607  0.19793  0.69837  1.0000 0.1772400725
N   N219      1.0  0.62447  0.24673  0.69139  1.0000 -0.2412144577
C   C731      1.0  0.53417  0.13813  0.68945  1.0000 -0.1823075057
N   N220      1.0  0.71877  0.30103  0.72153  1.0000 -0.2093651803
C   C732      1.0  0.65027  0.23463  0.67556  1.0000 0.040310148
H   H1216     1.0  0.49357  0.10463  0.69433  1.0000 0.1332312332
C   C733      1.0  0.56067  0.12633  0.67326  1.0000 0.0096146532
C   C734      1.0  0.61907  0.17653  0.66631  1.0000 -0.1918009899
H   H1217     1.0  0.69137  0.26793  0.67083  1.0000 0.1103299505
C   C735      1.0  0.52657  0.06083  0.66342  1.0000 -0.0018398883
H   H1218     1.0  0.63747  0.17023  0.65493  1.0000 0.1199420073
O   O92       1.0  0.47547  0.01593  0.67063  1.0000 -0.5068227806
N   N221      1.0  0.20307  0.25573  0.97133  1.0000 -0.0686857758
H   H1219     1.0  0.20407  0.22643  0.96123  1.0000 0.1007798595
N   N222      1.0  0.09467  0.27113  0.96863  1.0000 -0.0804308695
H   H1220     1.0  0.09267  0.29223  0.98083  1.0000 0.1007798595
N   N223      1.0  0.17437  0.39213  0.94483  1.0000 -0.0686857758
H   H1221     1.0  0.18307  0.42523  0.95503  1.0000 0.1103299505
N   N224      1.0  0.28287  0.37793  0.94853  1.0000 -0.0804308695
H   H1222     1.0  0.28537  0.35483  0.93683  1.0000 0.1007798595
C   C736      1.0  0.14767  0.21773  0.98393  1.0000 -0.0610470701
H   H1223     1.0  0.15347  0.24143  0.99613  1.0000 0.0599627315
H   H1224     1.0  0.14427  0.17513  0.98683  1.0000 0.040310148
C   C737      1.0  0.08567  0.20693  0.97383  1.0000 0.027875408
H   H1225     1.0  0.07787  0.18013  0.96213  1.0000 0.0693294588
H   H1226     1.0  0.04747  0.18373  0.98243  1.0000 0.040310148
C   C738      1.0  0.04217  0.26583  0.95653  1.0000 -0.0804308695
H   H1227     1.0  0.00127  0.24963  0.96393  1.0000 0.0599627315
H   H1228     1.0  0.03427  0.23593  0.94563  1.0000 0.0777011545
C   C739      1.0  0.06667  0.33633  0.94943  1.0000 -0.0366537845
H   H1229     1.0  0.02577  0.33393  0.94523  1.0000 0.0599627315
H   H1230     1.0  0.07847  0.36103  0.96153  1.0000 0.0486432212
C   C740      1.0  0.11627  0.38493  0.93553  1.0000 -0.0153511054
H   H1231     1.0  0.11077  0.36743  0.92243  1.0000 0.040310148
H   H1232     1.0  0.11547  0.42663  0.93533  1.0000 0.01818332
C   C741      1.0  0.22967  0.42733  0.93183  1.0000 -0.0881865386
H   H1233     1.0  0.23237  0.46893  0.92783  1.0000 0.0486432212
H   H1234     1.0  0.22317  0.40083  0.92023  1.0000 0.0599627315
C   C742      1.0  0.29917  0.44333  0.94263  1.0000 0.0096146532
H   H1235     1.0  0.33657  0.46263  0.93363  1.0000 0.040310148
H   H1236     1.0  0.30897  0.47283  0.95373  1.0000 0.0599627315
C   C743      1.0  0.33547  0.38713  0.96093  1.0000 -0.0463115656
H   H1237     1.0  0.33837  0.41543  0.97173  1.0000 0.0693294588
H   H1238     1.0  0.37707  0.40983  0.95373  1.0000 0.0777011545
C   C744      1.0  0.32667  0.32233  0.96883  1.0000 -0.101100454
H   H1239     1.0  0.32417  0.29433  0.95813  1.0000 0.0777011545
H   H1240     1.0  0.36577  0.33223  0.97663  1.0000 0.0599627315
C   C745      1.0  0.26587  0.28853  0.98113  1.0000 0.027875408
H   H1241     1.0  0.26917  0.25483  0.98893  1.0000 0.0599627315
H   H1242     1.0  0.26577  0.32043  0.99013  1.0000 0.0599627315
O   O93       1.0  0.94313  0.44917  0.14820  1.0000 -0.4828358619
Ni  Ni24      1.0  0.00812  0.47752  0.12534  1.0000 0.2342789186
N   N225      1.0  0.94033  0.39607  0.11057  1.0000 -0.0610470701
O   O94       1.0  0.07083  0.50787  0.10221  1.0000 -0.4928275375
N   N226      1.0  0.07683  0.55667  0.14027  1.0000 -0.0686857758
N   N227      1.0  0.05363  0.43077  0.13787  1.0000 -0.0686857758
N   N228      1.0  0.96133  0.52387  0.11467  1.0000 -0.0686857758
C   C746      1.0  0.88623  0.40497  0.10477  1.0000 -0.0881865386
C   C747      1.0  0.91643  0.33367  0.11967  1.0000 0.0041466364
H   H1243     1.0  0.96223  0.39447  0.09847  1.0000 0.1007798595
C   C748      1.0  0.07813  0.48387  0.08749  1.0000 0.027875408
C   C749      1.0  0.09833  0.62067  0.13177  1.0000 0.027875408
C   C750      1.0  0.13123  0.54987  0.14497  1.0000 -0.0804308695
H   H1244     1.0  0.05583  0.55637  0.15267  1.0000 0.1103299505
H   H1245     1.0  0.08133  0.42817  0.12747  1.0000 0.1103299505
C   C751      1.0  0.10113  0.47877  0.15177  1.0000 0.0096146532
C   C752      1.0  0.01163  0.36307  0.14417  1.0000 -0.0804308695
C   C753      1.0  0.99533  0.59027  0.10837  1.0000 -0.0463115656
C   C754      1.0  0.91963  0.47797  0.09967  1.0000 0.027875408
H   H1246     1.0  0.93083  0.52157  0.12497  1.0000 0.1007798595
H   H1247     1.0  0.86323  0.37747  0.09357  1.0000 0.040310148
H   H1248     1.0  0.85473  0.39427  0.11537  1.0000 0.0599627315
C   C755      1.0  0.96863  0.32157  0.12767  1.0000 -0.0804308695
H   H1249     1.0  0.88673  0.32997  0.13027  1.0000 0.0599627315
H   H1250     1.0  0.89043  0.29897  0.11027  1.0000 0.0486432212
O   O95       1.0  0.04503  0.42667  0.08246  1.0000 -0.5016892986
C   C756      1.0  0.13583  0.52857  0.07562  1.0000 -0.0153511054
H   H1251     1.0  0.12623  0.62657  0.12057  1.0000 0.0599627315
C   C757      1.0  0.03853  0.62817  0.12537  1.0000 -0.101100454
H   H1252     1.0  0.12483  0.65507  0.14127  1.0000 0.040310148
H   H1253     1.0  0.15963  0.55807  0.13367  1.0000 0.0599627315
H   H1254     1.0  0.15743  0.58067  0.15537  1.0000 0.040310148
H   H1255     1.0  0.13643  0.46867  0.15397  1.0000 0.040310148
H   H1256     1.0  0.07853  0.47377  0.16417  1.0000 0.0486432212
H   H1257     1.0  0.98383  0.36187  0.15487  1.0000 0.0599627315
H   H1258     1.0  0.03903  0.34497  0.14867  1.0000 0.0599627315
H   H1259     1.0  0.02233  0.59537  0.09687  1.0000 0.0599627315
H   H1260     1.0  0.96443  0.60567  0.10517  1.0000 0.0599627315
H   H1261     1.0  0.94673  0.48547  0.08817  1.0000 0.0599627315
H   H1262     1.0  0.88533  0.48857  0.09637  1.0000 0.040310148
H   H1263     1.0  0.94683  0.27537  0.13187  1.0000 0.0599627315
H   H1264     1.0  0.99793  0.32597  0.11697  1.0000 0.0777011545
C   C758      1.0  0.17713  0.59257  0.08115  1.0000 -0.1482281308
C   C759      1.0  0.15313  0.50677  0.05909  1.0000 -0.1482281308
H   H1265     1.0  0.05583  0.67517  0.12277  1.0000 0.0486432212
H   H1266     1.0  0.00943  0.61707  0.13667  1.0000 0.0693294588
C   C760      1.0  0.23103  0.63457  0.07089  1.0000 -0.0881865386
H   H1267     1.0  0.16743  0.60787  0.09257  1.0000 0.1103299505
C   C761      1.0  0.20973  0.54927  0.04890  1.0000 0.027875408
H   H1268     1.0  0.12633  0.46307  0.05477  1.0000 0.1199420073
H   H1269     1.0  0.25643  0.67857  0.07497  1.0000 0.1199420073
C   C762      1.0  0.23273  0.53127  0.03171  1.0000 0.1772400725
N   N229      1.0  0.29113  0.58007  0.02473  1.0000 -0.247256526
C   C763      1.0  0.20083  0.47147  0.02279  1.0000 -0.1823075057
N   N230      1.0  0.38543  0.63437  0.05487  1.0000 -0.2093651803
C   C764      1.0  0.31693  0.56797  0.00890  1.0000 0.040310148
H   H1270     1.0  0.16023  0.43797  0.02767  1.0000 0.1332312332
C   C765      1.0  0.22733  0.45967  0.00660  1.0000 0.0096146532
C   C766      1.0  0.28573  0.50987  0.99965  1.0000 -0.1918009899
H   H1271     1.0  0.35803  0.60127  0.00417  1.0000 0.1103299505
C   C767      1.0  0.19323  0.39417  0.99676  1.0000 -0.0018398883
H   H1272     1.0  0.30413  0.50357  0.98827  1.0000 0.1199420073
O   O96       1.0  0.14213  0.34927  0.00397  1.0000 -0.5068227806
N   N231      1.0  0.86973  0.58907  0.30467  1.0000 -0.0686857758
H   H1273     1.0  0.87073  0.55977  0.29457  1.0000 0.1007798595
N   N232      1.0  0.76133  0.60447  0.30197  1.0000 -0.0804308695
H   H1274     1.0  0.75933  0.62557  0.31417  1.0000 0.1007798595
N   N233      1.0  0.84103  0.72547  0.27817  1.0000 -0.0686857758
H   H1275     1.0  0.84973  0.75857  0.28837  1.0000 0.1103299505
N   N234      1.0  0.94953  0.71127  0.28187  1.0000 -0.0804308695
H   H1276     1.0  0.95203  0.68817  0.27017  1.0000 0.1007798595
C   C768      1.0  0.81433  0.55107  0.31727  1.0000 -0.0610470701
H   H1277     1.0  0.82013  0.57477  0.32947  1.0000 0.0599627315
H   H1278     1.0  0.81093  0.50847  0.32017  1.0000 0.040310148
C   C769      1.0  0.75233  0.54027  0.30717  1.0000 0.027875408
H   H1279     1.0  0.74453  0.51347  0.29547  1.0000 0.0693294588
H   H1280     1.0  0.71413  0.51707  0.31577  1.0000 0.040310148
C   C770      1.0  0.70883  0.59917  0.28987  1.0000 -0.0804308695
H   H1281     1.0  0.66793  0.58297  0.29727  1.0000 0.0599627315
H   H1282     1.0  0.70093  0.56927  0.27897  1.0000 0.0777011545
C   C771      1.0  0.73333  0.66967  0.28277  1.0000 -0.0366537845
H   H1283     1.0  0.69243  0.66727  0.27857  1.0000 0.0599627315
H   H1284     1.0  0.74513  0.69437  0.29487  1.0000 0.0486432212
C   C772      1.0  0.78293  0.71827  0.26887  1.0000 -0.0153511054
H   H1285     1.0  0.77743  0.70077  0.25577  1.0000 0.040310148
H   H1286     1.0  0.78213  0.75997  0.26867  1.0000 0.01818332
C   C773      1.0  0.89633  0.76067  0.26517  1.0000 -0.0881865386
H   H1287     1.0  0.89903  0.80227  0.26117  1.0000 0.0486432212
H   H1288     1.0  0.88983  0.73417  0.25357  1.0000 0.0599627315
C   C774      1.0  0.96583  0.77667  0.27597  1.0000 0.0096146532
H   H1289     1.0  0.00323  0.79597  0.26697  1.0000 0.040310148
H   H1290     1.0  0.97563  0.80617  0.28707  1.0000 0.0599627315
C   C775      1.0  0.00213  0.72047  0.29427  1.0000 -0.0463115656
H   H1291     1.0  0.00503  0.74877  0.30507  1.0000 0.0693294588
H   H1292     1.0  0.04373  0.74317  0.28707  1.0000 0.0777011545
C   C776      1.0  0.99333  0.65567  0.30217  1.0000 -0.101100454
H   H1293     1.0  0.99083  0.62767  0.29147  1.0000 0.0777011545
H   H1294     1.0  0.03243  0.66557  0.30997  1.0000 0.0599627315
C   C777      1.0  0.93253  0.62187  0.31447  1.0000 0.027875408
H   H1295     1.0  0.93583  0.58817  0.32227  1.0000 0.0599627315
H   H1296     1.0  0.93243  0.65377  0.32347  1.0000 0.0599627315
O   O97       1.0  0.21750  0.82730  0.48153  1.0000 -0.4828358619
Ni  Ni25      1.0  0.18915  0.86394  0.45867  1.0000 0.2342789186
N   N235      1.0  0.27060  0.87760  0.44390  1.0000 -0.0686857758
O   O98       1.0  0.15880  0.89630  0.43554  1.0000 -0.5016892986
N   N236      1.0  0.11000  0.85350  0.47360  1.0000 -0.0686857758
N   N237      1.0  0.23590  0.95620  0.47120  1.0000 -0.0686857758
N   N238      1.0  0.14280  0.77080  0.44800  1.0000 -0.0686857758
C   C778      1.0  0.26170  0.81460  0.43810  1.0000 -0.0881865386
C   C779      1.0  0.33300  0.91610  0.45300  1.0000 0.0041466364
H   H1297     1.0  0.27220  0.90110  0.43180  1.0000 0.1007798595
C   C780      1.0  0.18280  0.92760  0.42082  1.0000 0.027875408
C   C781      1.0  0.04600  0.81100  0.46510  1.0000 0.027875408
C   C782      1.0  0.11680  0.91470  0.47830  1.0000 -0.0804308695
H   H1298     1.0  0.11030  0.83280  0.48600  1.0000 0.1103299505
H   H1299     1.0  0.23850  0.98650  0.46080  1.0000 0.1103299505
C   C783      1.0  0.18790  0.95570  0.48510  1.0000 0.0096146532
C   C784      1.0  0.30360  0.98190  0.47750  1.0000 -0.0804308695
C   C785      1.0  0.07640  0.73840  0.44170  1.0000 -0.0463115656
C   C786      1.0  0.18870  0.77500  0.43300  1.0000 0.027875408
H   H1300     1.0  0.14510  0.74260  0.45830  1.0000 0.1007798595
H   H1301     1.0  0.28920  0.81910  0.42690  1.0000 0.040310148
H   H1302     1.0  0.27240  0.79380  0.44870  1.0000 0.0599627315
C   C787      1.0  0.34510  0.98040  0.46100  1.0000 -0.0804308695
H   H1303     1.0  0.33670  0.89010  0.46360  1.0000 0.0599627315
H   H1304     1.0  0.36770  0.92480  0.44360  1.0000 0.0486432212
O   O99       1.0  0.24000  0.95170  0.41579  1.0000 -0.5068227806
C   C788      1.0  0.13810  0.94060  0.40895  1.0000 -0.0153511054
H   H1305     1.0  0.04010  0.83300  0.45390  1.0000 0.0599627315
C   C789      1.0  0.03850  0.74370  0.45870  1.0000 -0.101100454
H   H1306     1.0  0.01160  0.80310  0.47460  1.0000 0.040310148
H   H1307     1.0  0.10860  0.93490  0.46700  1.0000 0.0599627315
H   H1308     1.0  0.08600  0.91010  0.48870  1.0000 0.040310148
H   H1309     1.0  0.19800  0.00110  0.48730  1.0000 0.040310148
H   H1310     1.0  0.19290  0.93810  0.49750  1.0000 0.0486432212
H   H1311     1.0  0.30480  0.95530  0.48820  1.0000 0.0599627315
H   H1312     1.0  0.32170  0.02740  0.48200  1.0000 0.0599627315
H   H1313     1.0  0.07130  0.76030  0.43020  1.0000 0.0599627315
H   H1314     1.0  0.06100  0.69210  0.43850  1.0000 0.0599627315
H   H1315     1.0  0.18120  0.79460  0.42150  1.0000 0.0599627315
H   H1316     1.0  0.17810  0.73010  0.42970  1.0000 0.040310148
H   H1317     1.0  0.39130  0.00480  0.46520  1.0000 0.0599627315
H   H1318     1.0  0.34070  0.00530  0.45030  1.0000 0.0777011545
C   C790      1.0  0.07410  0.91790  0.41448  1.0000 -0.1482281308
C   C791      1.0  0.15990  0.97970  0.39242  1.0000 -0.1482281308
H   H1319     1.0  0.99150  0.71400  0.45610  1.0000 0.0486432212
H   H1320     1.0  0.04960  0.72570  0.47000  1.0000 0.0693294588
C   C792      1.0  0.03210  0.92980  0.40422  1.0000 -0.0881865386
H   H1321     1.0  0.05880  0.89290  0.42590  1.0000 0.1103299505
C   C793      1.0  0.11740  0.99380  0.38223  1.0000 0.027875408
H   H1322     1.0  0.20360  0.99660  0.38810  1.0000 0.1199420073
H   H1323     1.0  0.98810  0.91120  0.40830  1.0000 0.1199420073
C   C794      1.0  0.13540  0.03480  0.36504  1.0000 0.1772400725
N   N239      1.0  0.08660  0.04440  0.35806  1.0000 -0.2412144577
C   C795      1.0  0.19520  0.06270  0.35612  1.0000 -0.1823075057
C   C796      1.0  0.09870  0.08230  0.34223  1.0000 0.040310148
H   H1324     1.0  0.22870  0.05560  0.36100  1.0000 0.1332312332
C   C797      1.0  0.20700  0.10100  0.33993  1.0000 0.0096146532
C   C798      1.0  0.15680  0.10920  0.33298  1.0000 -0.1918009899
H   H1325     1.0  0.06540  0.09010  0.33750  1.0000 0.1103299505
C   C799      1.0  0.27250  0.13240  0.33009  1.0000 -0.0018398883
H   H1326     1.0  0.16310  0.13390  0.32160  1.0000 0.1199420073
O   O100      1.0  0.31740  0.12620  0.33730  1.0000 -0.5068227806
N   N240      1.0  0.07760  0.61400  0.63800  1.0000 -0.0686857758
H   H1327     1.0  0.10690  0.64430  0.62790  1.0000 0.1007798595
N   N241      1.0  0.06220  0.49020  0.63530  1.0000 -0.0804308695
H   H1328     1.0  0.04110  0.46710  0.64750  1.0000 0.1007798595
N   N242      1.0  0.94120  0.44890  0.61150  1.0000 -0.0686857758
H   H1329     1.0  0.90810  0.42450  0.62170  1.0000 0.1103299505
N   N243      1.0  0.95540  0.57160  0.61520  1.0000 -0.0804308695
H   H1330     1.0  0.97850  0.59720  0.60350  1.0000 0.1007798595
C   C800      1.0  0.11560  0.59660  0.65060  1.0000 -0.0610470701
H   H1331     1.0  0.09190  0.57870  0.66280  1.0000 0.0599627315
H   H1332     1.0  0.15820  0.63580  0.65350  1.0000 0.040310148
C   C801      1.0  0.12640  0.54540  0.64050  1.0000 0.027875408
H   H1333     1.0  0.15320  0.56440  0.62880  1.0000 0.0693294588
H   H1334     1.0  0.14960  0.53040  0.64910  1.0000 0.040310148
C   C802      1.0  0.06750  0.44300  0.62320  1.0000 -0.0804308695
H   H1335     1.0  0.08370  0.41830  0.63060  1.0000 0.0599627315
H   H1336     1.0  0.09740  0.46500  0.61230  1.0000 0.0693294588
C   C803      1.0  0.99700  0.39700  0.61610  1.0000 -0.0366537845
H   H1337     1.0  0.99940  0.35850  0.61190  1.0000 0.0599627315
H   H1338     1.0  0.97230  0.38410  0.62820  1.0000 0.0486432212
C   C804      1.0  0.94840  0.39800  0.60220  1.0000 -0.0153511054
H   H1339     1.0  0.96590  0.41000  0.58910  1.0000 0.040310148
H   H1340     1.0  0.90670  0.35550  0.60200  1.0000 0.01818332
C   C805      1.0  0.90600  0.46900  0.59850  1.0000 -0.0881865386
H   H1341     1.0  0.86440  0.43010  0.59450  1.0000 0.0486432212
H   H1342     1.0  0.93250  0.48900  0.58690  1.0000 0.0599627315
C   C806      1.0  0.89000  0.52250  0.60930  1.0000 0.0096146532
H   H1343     1.0  0.87070  0.54060  0.60030  1.0000 0.040310148
H   H1344     1.0  0.86050  0.50280  0.62040  1.0000 0.0599627315
C   C807      1.0  0.94620  0.61500  0.62760  1.0000 -0.0463115656
H   H1345     1.0  0.91790  0.58960  0.63840  1.0000 0.0693294588
H   H1346     1.0  0.92350  0.63390  0.62040  1.0000 0.0777011545
C   C808      1.0  0.01100  0.67100  0.63550  1.0000 -0.101100454
H   H1347     1.0  0.03900  0.69650  0.62480  1.0000 0.0777011545
H   H1348     1.0  0.00110  0.70020  0.64330  1.0000 0.0599627315
C   C809      1.0  0.04480  0.64400  0.64780  1.0000 0.027875408
H   H1349     1.0  0.07850  0.68100  0.65560  1.0000 0.0599627315
H   H1350     1.0  0.01290  0.61200  0.65680  1.0000 0.0599627315
O   O101      1.0  0.88417  0.16063  0.81486  1.0000 -0.4828358619
Ni  Ni26      1.0  0.85582  0.19727  0.79200  1.0000 0.2342789186
N   N244      1.0  0.93727  0.21093  0.77723  1.0000 -0.0610470701
O   O102      1.0  0.82547  0.22963  0.76887  1.0000 -0.4928275375
N   N245      1.0  0.77667  0.18683  0.80693  1.0000 -0.0686857758
N   N246      1.0  0.90257  0.28953  0.80453  1.0000 -0.0610470701
N   N247      1.0  0.80947  0.10413  0.78133  1.0000 -0.0686857758
C   C810      1.0  0.92837  0.14793  0.77143  1.0000 -0.0881865386
C   C811      1.0  0.99967  0.24943  0.78633  1.0000 0.0041466364
H   H1351     1.0  0.93887  0.23443  0.76513  1.0000 0.1007798595
C   C812      1.0  0.84947  0.26093  0.75415  1.0000 0.027875408
C   C813      1.0  0.71267  0.14433  0.79843  1.0000 0.027875408
C   C814      1.0  0.78347  0.24803  0.81163  1.0000 -0.0804308695
H   H1352     1.0  0.77697  0.16613  0.81933  1.0000 0.1103299505
H   H1353     1.0  0.90517  0.31983  0.79413  1.0000 0.1103299505
C   C815      1.0  0.85457  0.28903  0.81843  1.0000 0.0096146532
C   C816      1.0  0.97027  0.31523  0.81083  1.0000 -0.0804308695
C   C817      1.0  0.74307  0.07173  0.77503  1.0000 -0.0463115656
C   C818      1.0  0.85537  0.10833  0.76633  1.0000 0.027875408
H   H1354     1.0  0.81177  0.07593  0.79163  1.0000 0.1007798595
H   H1355     1.0  0.95587  0.15243  0.76023  1.0000 0.040310148
H   H1356     1.0  0.93907  0.12713  0.78203  1.0000 0.0599627315
C   C819      1.0  0.01177  0.31373  0.79433  1.0000 -0.0804308695
H   H1357     1.0  0.00337  0.22343  0.79693  1.0000 0.0599627315
H   H1358     1.0  0.03437  0.25813  0.77693  1.0000 0.0486432212
O   O103      1.0  0.90667  0.28503  0.74912  1.0000 -0.5016892986
C   C820      1.0  0.80477  0.27393  0.74228  1.0000 -0.0153511054
H   H1359     1.0  0.70677  0.16633  0.78723  1.0000 0.0599627315
C   C821      1.0  0.70517  0.07703  0.79203  1.0000 -0.101100454
H   H1360     1.0  0.67827  0.13643  0.80793  1.0000 0.040310148
H   H1361     1.0  0.77527  0.26823  0.80033  1.0000 0.0599627315
H   H1362     1.0  0.75267  0.24343  0.82203  1.0000 0.040310148
H   H1363     1.0  0.86467  0.33443  0.82063  1.0000 0.040310148
H   H1364     1.0  0.85957  0.27143  0.83083  1.0000 0.0486432212
H   H1365     1.0  0.97147  0.28863  0.82153  1.0000 0.0599627315
H   H1366     1.0  0.98837  0.36073  0.81533  1.0000 0.0599627315
H   H1367     1.0  0.73797  0.09363  0.76353  1.0000 0.0599627315
H   H1368     1.0  0.72767  0.02543  0.77183  1.0000 0.0599627315
H   H1369     1.0  0.84787  0.12793  0.75483  1.0000 0.0599627315
H   H1370     1.0  0.84477  0.06343  0.76303  1.0000 0.040310148
H   H1371     1.0  0.05797  0.33813  0.79853  1.0000 0.0599627315
H   H1372     1.0  0.00737  0.33863  0.78363  1.0000 0.0777011545
C   C822      1.0  0.74077  0.25123  0.74781  1.0000 -0.1482281308
C   C823      1.0  0.82657  0.31303  0.72575  1.0000 -0.1482281308
H   H1373     1.0  0.65817  0.04733  0.78943  1.0000 0.0486432212
H   H1374     1.0  0.71627  0.05903  0.80333  1.0000 0.0693294588
C   C824      1.0  0.69877  0.26313  0.73755  1.0000 -0.0881865386
H   H1375     1.0  0.72547  0.22623  0.75923  1.0000 0.1103299505
C   C825      1.0  0.78407  0.32713  0.71556  1.0000 0.027875408
H   H1376     1.0  0.87027  0.32993  0.72143  1.0000 0.1199420073
H   H1377     1.0  0.65477  0.24453  0.74163  1.0000 0.1199420073
C   C826      1.0  0.80207  0.36813  0.69837  1.0000 0.1772400725
N   N248      1.0  0.75327  0.37773  0.69139  1.0000 -0.247256526
C   C827      1.0  0.86187  0.39603  0.68945  1.0000 -0.1823075057
C   C828      1.0  0.76537  0.41563  0.67556  1.0000 0.040310148
H   H1378     1.0  0.89537  0.38893  0.69433  1.0000 0.1332312332
C   C829      1.0  0.87367  0.43433  0.67326  1.0000 0.0096146532
C   C830      1.0  0.82347  0.44253  0.66631  1.0000 -0.1918009899
H   H1379     1.0  0.73207  0.42343  0.67083  1.0000 0.1103299505
C   C831      1.0  0.93917  0.46573  0.66342  1.0000 -0.0018398883
H   H1380     1.0  0.82977  0.46723  0.65493  1.0000 0.1199420073
O   O104      1.0  0.98407  0.45953  0.67063  1.0000 -0.5068227806
N   N249      1.0  0.74427  0.94733  0.97133  1.0000 -0.0686857758
H   H1381     1.0  0.77357  0.97763  0.96123  1.0000 0.1007798595
N   N250      1.0  0.72887  0.82353  0.96863  1.0000 -0.0804308695
H   H1382     1.0  0.70777  0.80043  0.98083  1.0000 0.1007798595
N   N251      1.0  0.60787  0.78223  0.94483  1.0000 -0.0686857758
H   H1383     1.0  0.57477  0.75783  0.95503  1.0000 0.1103299505
N   N252      1.0  0.62207  0.90493  0.94853  1.0000 -0.0804308695
H   H1384     1.0  0.64517  0.93053  0.93683  1.0000 0.1007798595
C   C832      1.0  0.78227  0.92993  0.98393  1.0000 -0.0610470701
H   H1385     1.0  0.75857  0.91203  0.99613  1.0000 0.0599627315
H   H1386     1.0  0.82487  0.96913  0.98683  1.0000 0.040310148
C   C833      1.0  0.79307  0.87873  0.97383  1.0000 0.027875408
H   H1387     1.0  0.81987  0.89773  0.96213  1.0000 0.0693294588
H   H1388     1.0  0.81627  0.86373  0.98243  1.0000 0.040310148
C   C834      1.0  0.73417  0.77633  0.95653  1.0000 -0.0804308695
H   H1389     1.0  0.75037  0.75163  0.96393  1.0000 0.0599627315
H   H1390     1.0  0.76407  0.79833  0.94563  1.0000 0.0777011545
C   C835      1.0  0.66367  0.73033  0.94943  1.0000 -0.0366537845
H   H1391     1.0  0.66607  0.69183  0.94523  1.0000 0.0599627315
H   H1392     1.0  0.63897  0.71743  0.96153  1.0000 0.0486432212
C   C836      1.0  0.61507  0.73133  0.93553  1.0000 -0.0153511054
H   H1393     1.0  0.63257  0.74333  0.92243  1.0000 0.040310148
H   H1394     1.0  0.57337  0.68883  0.93533  1.0000 0.01818332
C   C837      1.0  0.57267  0.80233  0.93183  1.0000 -0.0881865386
H   H1395     1.0  0.53107  0.76343  0.92783  1.0000 0.0486432212
H   H1396     1.0  0.59917  0.82233  0.92023  1.0000 0.0599627315
C   C838      1.0  0.55667  0.85583  0.94263  1.0000 0.0096146532
H   H1397     1.0  0.53737  0.87393  0.93363  1.0000 0.040310148
H   H1398     1.0  0.52717  0.83613  0.95373  1.0000 0.0599627315
C   C839      1.0  0.61287  0.94833  0.96093  1.0000 -0.0463115656
H   H1399     1.0  0.58457  0.92293  0.97173  1.0000 0.0693294588
H   H1400     1.0  0.59017  0.96723  0.95373  1.0000 0.0777011545
C   C840      1.0  0.67767  0.00433  0.96883  1.0000 -0.101100454
H   H1401     1.0  0.70567  0.02983  0.95813  1.0000 0.0777011545
H   H1402     1.0  0.66777  0.03353  0.97663  1.0000 0.0599627315
C   C841      1.0  0.71147  0.97733  0.98113  1.0000 0.027875408
H   H1403     1.0  0.74517  0.01433  0.98893  1.0000 0.0599627315
H   H1404     1.0  0.67957  0.94533  0.99013  1.0000 0.0599627315
O   O105      1.0  0.55083  0.49397  0.14820  1.0000 -0.4828358619
Ni  Ni27      1.0  0.52248  0.53061  0.12534  1.0000 0.2342789186
N   N253      1.0  0.60393  0.54427  0.11057  1.0000 -0.0610470701
O   O106      1.0  0.49213  0.56297  0.10221  1.0000 -0.4928275375
N   N254      1.0  0.44333  0.52017  0.14027  1.0000 -0.0686857758
N   N255      1.0  0.56923  0.62287  0.13787  1.0000 -0.0610470701
N   N256      1.0  0.47613  0.43747  0.11467  1.0000 -0.0686857758
C   C842      1.0  0.59503  0.48127  0.10477  1.0000 -0.0881865386
C   C843      1.0  0.66633  0.58277  0.11967  1.0000 0.0041466364
H   H1405     1.0  0.60553  0.56777  0.09847  1.0000 0.1007798595
C   C844      1.0  0.51613  0.59427  0.08749  1.0000 0.027875408
C   C845      1.0  0.37933  0.47767  0.13177  1.0000 0.027875408
C   C846      1.0  0.45013  0.58137  0.14497  1.0000 -0.0804308695
H   H1406     1.0  0.44363  0.49947  0.15267  1.0000 0.1103299505
H   H1407     1.0  0.57183  0.65317  0.12747  1.0000 0.1103299505
C   C847      1.0  0.52123  0.62237  0.15177  1.0000 0.0096146532
C   C848      1.0  0.63693  0.64857  0.14417  1.0000 -0.0804308695
C   C849      1.0  0.40973  0.40507  0.10837  1.0000 -0.0463115656
C   C850      1.0  0.52203  0.44167  0.09967  1.0000 0.027875408
H   H1408     1.0  0.47843  0.40927  0.12497  1.0000 0.1007798595
H   H1409     1.0  0.62253  0.48577  0.09357  1.0000 0.040310148
H   H1410     1.0  0.60573  0.46047  0.11537  1.0000 0.0599627315
C   C851      1.0  0.67843  0.64707  0.12767  1.0000 -0.0804308695
H   H1411     1.0  0.67003  0.55677  0.13027  1.0000 0.0599627315
H   H1412     1.0  0.70103  0.59147  0.11027  1.0000 0.0486432212
O   O107      1.0  0.57333  0.61837  0.08246  1.0000 -0.5016892986
C   C852      1.0  0.47143  0.60727  0.07562  1.0000 -0.0153511054
H   H1413     1.0  0.37343  0.49967  0.12057  1.0000 0.0599627315
C   C853      1.0  0.37183  0.41037  0.12537  1.0000 -0.101100454
H   H1414     1.0  0.34493  0.46977  0.14127  1.0000 0.027875408
H   H1415     1.0  0.44193  0.60157  0.13367  1.0000 0.0599627315
H   H1416     1.0  0.41933  0.57677  0.15537  1.0000 0.040310148
H   H1417     1.0  0.53133  0.66777  0.15397  1.0000 0.040310148
H   H1418     1.0  0.52623  0.60477  0.16417  1.0000 0.0486432212
H   H1419     1.0  0.63813  0.62197  0.15487  1.0000 0.0599627315
H   H1420     1.0  0.65503  0.69407  0.14867  1.0000 0.0599627315
H   H1421     1.0  0.40463  0.42697  0.09687  1.0000 0.0599627315
H   H1422     1.0  0.39433  0.35877  0.10517  1.0000 0.0599627315
H   H1423     1.0  0.51453  0.46127  0.08817  1.0000 0.0599627315
H   H1424     1.0  0.51143  0.39677  0.09637  1.0000 0.040310148
H   H1425     1.0  0.72463  0.67147  0.13187  1.0000 0.0599627315
H   H1426     1.0  0.67403  0.67197  0.11697  1.0000 0.0777011545
C   C854      1.0  0.40743  0.58457  0.08115  1.0000 -0.1482281308
C   C855      1.0  0.49323  0.64637  0.05909  1.0000 -0.1482281308
H   H1427     1.0  0.32483  0.38067  0.12277  1.0000 0.0486432212
H   H1428     1.0  0.38293  0.39237  0.13667  1.0000 0.0693294588
C   C856      1.0  0.36543  0.59647  0.07089  1.0000 -0.0881865386
H   H1429     1.0  0.39213  0.55957  0.09257  1.0000 0.1103299505
C   C857      1.0  0.45073  0.66047  0.04890  1.0000 0.027875408
H   H1430     1.0  0.53693  0.66327  0.05477  1.0000 0.1199420073
H   H1431     1.0  0.32143  0.57787  0.07497  1.0000 0.1199420073
C   C858      1.0  0.46873  0.70147  0.03171  1.0000 0.1772400725
N   N257      1.0  0.41993  0.71107  0.02473  1.0000 -0.247256526
C   C859      1.0  0.52853  0.72937  0.02279  1.0000 -0.1823075057
C   C860      1.0  0.43203  0.74897  0.00890  1.0000 0.040310148
H   H1432     1.0  0.56203  0.72227  0.02767  1.0000 0.1332312332
C   C861      1.0  0.54033  0.76767  0.00660  1.0000 0.0096146532
C   C862      1.0  0.49013  0.77587  0.99965  1.0000 -0.1918009899
H   H1433     1.0  0.39873  0.75677  0.00417  1.0000 0.1103299505
C   C863      1.0  0.60583  0.79907  0.99676  1.0000 0.0041466364
H   H1434     1.0  0.49643  0.80057  0.98827  1.0000 0.1199420073
O   O108      1.0  0.65073  0.79287  0.00397  1.0000 -0.5068227806
N   N258      1.0  0.41093  0.28067  0.30467  1.0000 -0.0686857758
H   H1435     1.0  0.44023  0.31097  0.29457  1.0000 0.1007798595
N   N259      1.0  0.39553  0.15687  0.30197  1.0000 -0.0804308695
H   H1436     1.0  0.37443  0.13377  0.31417  1.0000 0.1007798595
N   N260      1.0  0.27453  0.11557  0.27817  1.0000 -0.0686857758
H   H1437     1.0  0.24143  0.09117  0.28837  1.0000 0.1103299505
N   N261      1.0  0.28873  0.23827  0.28187  1.0000 -0.0804308695
H   H1438     1.0  0.31183  0.26387  0.27017  1.0000 0.1007798595
C   C864      1.0  0.44893  0.26327  0.31727  1.0000 -0.0610470701
H   H1439     1.0  0.42523  0.24537  0.32947  1.0000 0.0599627315
H   H1440     1.0  0.49153  0.30247  0.32017  1.0000 0.040310148
C   C865      1.0  0.45973  0.21207  0.30717  1.0000 0.027875408
H   H1441     1.0  0.48653  0.23107  0.29547  1.0000 0.0693294588
H   H1442     1.0  0.48293  0.19707  0.31577  1.0000 0.040310148
C   C866      1.0  0.40083  0.10967  0.28987  1.0000 -0.0804308695
H   H1443     1.0  0.41703  0.08497  0.29727  1.0000 0.0599627315
H   H1444     1.0  0.43073  0.13167  0.27897  1.0000 0.0693294588
C   C867      1.0  0.33033  0.06367  0.28277  1.0000 -0.0366537845
H   H1445     1.0  0.33273  0.02517  0.27857  1.0000 0.0599627315
H   H1446     1.0  0.30563  0.05077  0.29487  1.0000 0.0486432212
C   C868      1.0  0.28173  0.06467  0.26887  1.0000 -0.0153511054
H   H1447     1.0  0.29923  0.07667  0.25577  1.0000 0.040310148
H   H1448     1.0  0.24003  0.02217  0.26867  1.0000 0.01818332
C   C869      1.0  0.23933  0.13567  0.26517  1.0000 -0.0881865386
H   H1449     1.0  0.19773  0.09677  0.26117  1.0000 0.0486432212
H   H1450     1.0  0.26583  0.15567  0.25357  1.0000 0.0599627315
C   C870      1.0  0.22333  0.18917  0.27597  1.0000 0.0096146532
H   H1451     1.0  0.20403  0.20727  0.26697  1.0000 0.040310148
H   H1452     1.0  0.19383  0.16947  0.28707  1.0000 0.0599627315
C   C871      1.0  0.27953  0.28167  0.29427  1.0000 -0.0463115656
H   H1453     1.0  0.25123  0.25627  0.30507  1.0000 0.0693294588
H   H1454     1.0  0.25683  0.30057  0.28707  1.0000 0.0777011545
C   C872      1.0  0.34433  0.33767  0.30217  1.0000 -0.101100454
H   H1455     1.0  0.37233  0.36317  0.29147  1.0000 0.0777011545
H   H1456     1.0  0.33443  0.36687  0.30997  1.0000 0.0599627315
C   C873      1.0  0.37813  0.31067  0.31447  1.0000 0.027875408
H   H1457     1.0  0.41183  0.34767  0.32227  1.0000 0.0599627315
H   H1458     1.0  0.34623  0.27867  0.32347  1.0000 0.0599627315
O   O109      1.0  0.60980  0.82730  0.98153  1.0000 -0.4828358619
Ni  Ni28      1.0  0.67479  0.86394  0.95867  1.0000 0.2361303248
N   N262      1.0  0.60700  0.87760  0.94390  1.0000 -0.0610470701
O   O110      1.0  0.73750  0.89630  0.93554  1.0000 -0.4928275375
N   N263      1.0  0.74350  0.85350  0.97360  1.0000 -0.0686857758
N   N264      1.0  0.72030  0.95620  0.97120  1.0000 -0.0610470701
N   N265      1.0  0.62800  0.77080  0.94800  1.0000 -0.0686857758
C   C874      1.0  0.55290  0.81460  0.93810  1.0000 -0.0881865386
C   C875      1.0  0.58310  0.91610  0.95300  1.0000 0.0041466364
H   H1459     1.0  0.62890  0.90110  0.93180  1.0000 0.1007798595
C   C876      1.0  0.74480  0.92760  0.92082  1.0000 0.027875408
C   C877      1.0  0.76500  0.81100  0.96510  1.0000 0.027875408
C   C878      1.0  0.79790  0.91470  0.97830  1.0000 -0.0804308695
H   H1460     1.0  0.72250  0.83280  0.98600  1.0000 0.1103299505
H   H1461     1.0  0.74800  0.98650  0.96080  1.0000 0.1103299505
C   C879      1.0  0.76780  0.95570  0.98510  1.0000 0.0096146532
C   C880      1.0  0.67830  0.98190  0.97750  1.0000 -0.0804308695
C   C881      1.0  0.66200  0.73840  0.94170  1.0000 -0.0463115656
C   C882      1.0  0.58630  0.77500  0.93300  1.0000 0.027875408
H   H1462     1.0  0.59750  0.74260  0.95830  1.0000 0.1007798595
H   H1463     1.0  0.52990  0.81910  0.92690  1.0000 0.040310148
H   H1464     1.0  0.52140  0.79380  0.94870  1.0000 0.0599627315
C   C883      1.0  0.63530  0.98040  0.96100  1.0000 -0.0804308695
H   H1465     1.0  0.55340  0.89010  0.96360  1.0000 0.0599627315
H   H1466     1.0  0.55710  0.92480  0.94360  1.0000 0.0486432212
O   O111      1.0  0.71170  0.95170  0.91579  1.0000 -0.5068227806
C   C884      1.0  0.80250  0.94060  0.90895  1.0000 0.0096146532
H   H1467     1.0  0.79290  0.83300  0.95390  1.0000 0.0599627315
C   C885      1.0  0.70520  0.74370  0.95870  1.0000 -0.101100454
H   H1468     1.0  0.79150  0.80310  0.97460  1.0000 0.040310148
H   H1469     1.0  0.82630  0.93490  0.96700  1.0000 0.0599627315
H   H1470     1.0  0.82410  0.91010  0.98870  1.0000 0.040310148
H   H1471     1.0  0.80310  0.00110  0.98730  1.0000 0.040310148
H   H1472     1.0  0.74520  0.93810  0.99750  1.0000 0.0486432212
H   H1473     1.0  0.65050  0.95530  0.98820  1.0000 0.0599627315
H   H1474     1.0  0.70570  0.02740  0.98200  1.0000 0.0599627315
H   H1475     1.0  0.68900  0.76030  0.93020  1.0000 0.0599627315
H   H1476     1.0  0.63110  0.69210  0.93850  1.0000 0.0599627315
H   H1477     1.0  0.61340  0.79460  0.92150  1.0000 0.0599627315
H   H1478     1.0  0.55200  0.73010  0.92970  1.0000 0.040310148
H   H1479     1.0  0.61350  0.00480  0.96520  1.0000 0.0599627315
H   H1480     1.0  0.66460  0.00530  0.95030  1.0000 0.0777011545
C   C886      1.0  0.84380  0.91790  0.91448  1.0000 -0.1918009899
C   C887      1.0  0.81980  0.97970  0.89242  1.0000 -0.1918009899
H   H1481     1.0  0.72250  0.71400  0.95610  1.0000 0.0486432212
H   H1482     1.0  0.67610  0.72570  0.97000  1.0000 0.0693294588
C   C888      1.0  0.89770  0.92980  0.90422  1.0000 0.0599627315
H   H1483     1.0  0.83410  0.89290  0.92590  1.0000 0.1199420073
C   C889      1.0  0.87640  0.99380  0.88223  1.0000 0.1422292007
H   H1484     1.0  0.79300  0.99660  0.88810  1.0000 0.1332312332
C   C890      1.0  0.91560  0.96760  0.88820  1.0000 -0.2412144577
H   H1485     1.0  0.92310  0.91120  0.90830  1.0000 0.1199420073
C   C891      1.0  0.89940  0.03480  0.86504  1.0000 0.1542727053
N   N266      1.0  0.95780  0.04440  0.85806  1.0000 -0.2412144577
C   C892      1.0  0.86750  0.06270  0.85612  1.0000 -0.1823075057
N   N267      1.0  0.05210  0.08440  0.88820  1.0000 -0.2028512544
C   C893      1.0  0.98360  0.08230  0.84223  1.0000 0.040310148
H   H1486     1.0  0.82690  0.05560  0.86100  1.0000 0.1332312332
C   C894      1.0  0.89400  0.10100  0.83993  1.0000 0.0096146532
C   C895      1.0  0.95240  0.10920  0.83298  1.0000 -0.1918009899
H   H1487     1.0  0.02470  0.09010  0.83750  1.0000 0.1103299505
C   C896      1.0  0.85990  0.13240  0.83009  1.0000 -0.0018398883
H   H1488     1.0  0.97080  0.13390  0.82160  1.0000 0.1199420073
O   O112      1.0  0.80880  0.12620  0.83730  1.0000 -0.5068227806
N   N268      1.0  0.53640  0.61400  0.13800  1.0000 -0.0686857758
H   H1489     1.0  0.53740  0.64430  0.12790  1.0000 0.1007798595
N   N269      1.0  0.42800  0.49020  0.13530  1.0000 -0.0804308695
H   H1490     1.0  0.42600  0.46710  0.14750  1.0000 0.1007798595
N   N270      1.0  0.50770  0.44890  0.11150  1.0000 -0.0686857758
H   H1491     1.0  0.51640  0.42450  0.12170  1.0000 0.1103299505
N   N271      1.0  0.61620  0.57160  0.11520  1.0000 -0.0804308695
H   H1492     1.0  0.61870  0.59720  0.10350  1.0000 0.1007798595
C   C897      1.0  0.48100  0.59660  0.15060  1.0000 -0.0610470701
H   H1493     1.0  0.48680  0.57870  0.16280  1.0000 0.0599627315
H   H1494     1.0  0.47760  0.63580  0.15350  1.0000 0.040310148
C   C898      1.0  0.41900  0.54540  0.14050  1.0000 0.027875408
H   H1495     1.0  0.41120  0.56440  0.12880  1.0000 0.0693294588
H   H1496     1.0  0.38080  0.53040  0.14910  1.0000 0.040310148
C   C899      1.0  0.37550  0.44300  0.12320  1.0000 -0.0804308695
H   H1497     1.0  0.33460  0.41830  0.13060  1.0000 0.0599627315
H   H1498     1.0  0.36760  0.46500  0.11230  1.0000 0.0777011545
C   C900      1.0  0.40000  0.39700  0.11610  1.0000 -0.0366537845
H   H1499     1.0  0.35910  0.35850  0.11190  1.0000 0.0599627315
H   H1500     1.0  0.41180  0.38410  0.12820  1.0000 0.0486432212
C   C901      1.0  0.44960  0.39800  0.10220  1.0000 -0.0153511054
H   H1501     1.0  0.44410  0.41000  0.08910  1.0000 0.040310148
H   H1502     1.0  0.44880  0.35550  0.10200  1.0000 0.01818332
C   C902      1.0  0.56300  0.46900  0.09850  1.0000 -0.0881865386
H   H1503     1.0  0.56570  0.43010  0.09450  1.0000 0.0486432212
H   H1504     1.0  0.55650  0.48900  0.08690  1.0000 0.0599627315
C   C903      1.0  0.63250  0.52250  0.10930  1.0000 0.0096146532
H   H1505     1.0  0.66990  0.54060  0.10030  1.0000 0.040310148
H   H1506     1.0  0.64230  0.50280  0.12040  1.0000 0.0599627315
C   C904      1.0  0.66880  0.61500  0.12760  1.0000 -0.0463115656
H   H1507     1.0  0.67170  0.58960  0.13840  1.0000 0.0693294588
H   H1508     1.0  0.71040  0.63390  0.12040  1.0000 0.0777011545
C   C905      1.0  0.66000  0.67100  0.13550  1.0000 -0.101100454
H   H1509     1.0  0.65750  0.69650  0.12480  1.0000 0.0777011545
H   H1510     1.0  0.69910  0.70020  0.14330  1.0000 0.0599627315
C   C906      1.0  0.59920  0.64400  0.14780  1.0000 0.027875408
H   H1511     1.0  0.60250  0.68100  0.15560  1.0000 0.0599627315
H   H1512     1.0  0.59910  0.61200  0.15680  1.0000 0.0599627315
O   O113      1.0  0.27647  0.16063  0.31486  1.0000 -0.4828358619
Ni  Ni29      1.0  0.34146  0.19727  0.29200  1.0000 0.2342789186
N   N272      1.0  0.27367  0.21093  0.27723  1.0000 -0.0610470701
O   O114      1.0  0.40417  0.22963  0.26887  1.0000 -0.4928275375
N   N273      1.0  0.41017  0.18683  0.30693  1.0000 -0.0686857758
N   N274      1.0  0.38697  0.28953  0.30453  1.0000 -0.0686857758
N   N275      1.0  0.29467  0.10413  0.28133  1.0000 -0.0686857758
C   C907      1.0  0.21957  0.14793  0.27143  1.0000 -0.0881865386
C   C908      1.0  0.24977  0.24943  0.28633  1.0000 0.0041466364
H   H1513     1.0  0.29557  0.23443  0.26513  1.0000 0.1007798595
C   C909      1.0  0.41147  0.26093  0.25415  1.0000 0.027875408
C   C910      1.0  0.43167  0.14433  0.29843  1.0000 0.027875408
C   C911      1.0  0.46457  0.24803  0.31163  1.0000 -0.0804308695
H   H1514     1.0  0.38917  0.16613  0.31933  1.0000 0.1103299505
H   H1515     1.0  0.41467  0.31983  0.29413  1.0000 0.1103299505
C   C912      1.0  0.43447  0.28903  0.31843  1.0000 0.0096146532
C   C913      1.0  0.34497  0.31523  0.31083  1.0000 -0.0804308695
C   C914      1.0  0.32867  0.07173  0.27503  1.0000 -0.0463115656
C   C915      1.0  0.25297  0.10833  0.26633  1.0000 0.027875408
H   H1516     1.0  0.26417  0.07593  0.29163  1.0000 0.1007798595
H   H1517     1.0  0.19657  0.15243  0.26023  1.0000 0.040310148
H   H1518     1.0  0.18807  0.12713  0.28203  1.0000 0.0599627315
C   C916      1.0  0.30197  0.31373  0.29433  1.0000 -0.0804308695
H   H1519     1.0  0.22007  0.22343  0.29693  1.0000 0.0599627315
H   H1520     1.0  0.22377  0.25813  0.27693  1.0000 0.0486432212
O   O115      1.0  0.37837  0.28503  0.24912  1.0000 -0.5068227806
C   C917      1.0  0.46917  0.27393  0.24228  1.0000 0.0096146532
H   H1521     1.0  0.45957  0.16633  0.28723  1.0000 0.0599627315
C   C918      1.0  0.37187  0.07703  0.29203  1.0000 -0.101100454
H   H1522     1.0  0.45817  0.13643  0.30793  1.0000 0.040310148
H   H1523     1.0  0.49297  0.26823  0.30033  1.0000 0.0599627315
H   H1524     1.0  0.49077  0.24343  0.32203  1.0000 0.040310148
H   H1525     1.0  0.46977  0.33443  0.32063  1.0000 0.040310148
H   H1526     1.0  0.41187  0.27143  0.33083  1.0000 0.0486432212
H   H1527     1.0  0.31717  0.28863  0.32153  1.0000 0.0599627315
H   H1528     1.0  0.37237  0.36073  0.31533  1.0000 0.0599627315
H   H1529     1.0  0.35567  0.09363  0.26353  1.0000 0.0599627315
H   H1530     1.0  0.29777  0.02543  0.27183  1.0000 0.0599627315
H   H1531     1.0  0.28007  0.12793  0.25483  1.0000 0.0599627315
H   H1532     1.0  0.21867  0.06343  0.26303  1.0000 0.040310148
H   H1533     1.0  0.28017  0.33813  0.29853  1.0000 0.0599627315
H   H1534     1.0  0.33127  0.33863  0.28363  1.0000 0.0777011545
C   C919      1.0  0.51047  0.25123  0.24781  1.0000 -0.1918009899
C   C920      1.0  0.48647  0.31303  0.22575  1.0000 -0.1918009899
H   H1535     1.0  0.38917  0.04733  0.28943  1.0000 0.0486432212
H   H1536     1.0  0.34277  0.05903  0.30333  1.0000 0.0693294588
C   C921      1.0  0.56437  0.26313  0.23755  1.0000 0.0599627315
H   H1537     1.0  0.50077  0.22623  0.25923  1.0000 0.1199420073
C   C922      1.0  0.54307  0.32713  0.21556  1.0000 0.1422292007
H   H1538     1.0  0.45967  0.32993  0.22143  1.0000 0.1332312332
C   C923      1.0  0.58227  0.30093  0.22153  1.0000 -0.2412144577
H   H1539     1.0  0.58977  0.24453  0.24163  1.0000 0.1199420073
C   C924      1.0  0.56607  0.36813  0.19837  1.0000 0.1542727053
N   N276      1.0  0.62447  0.37773  0.19139  1.0000 -0.2340381878
C   C925      1.0  0.53417  0.39603  0.18945  1.0000 -0.1823075057
N   N277      1.0  0.71877  0.41773  0.22153  1.0000 -0.2028512544
C   C926      1.0  0.65027  0.41563  0.17556  1.0000 0.040310148
H   H1540     1.0  0.49357  0.38893  0.19433  1.0000 0.1332312332
C   C927      1.0  0.56067  0.43433  0.17326  1.0000 0.0096146532
C   C928      1.0  0.61907  0.44253  0.16631  1.0000 -0.1918009899
H   H1541     1.0  0.69137  0.42343  0.17083  1.0000 0.1103299505
C   C929      1.0  0.52657  0.46573  0.16342  1.0000 -0.0018398883
H   H1542     1.0  0.63747  0.46723  0.15493  1.0000 0.1199420073
O   O116      1.0  0.47547  0.45953  0.17063  1.0000 -0.5068227806
N   N278      1.0  0.20307  0.94733  0.47133  1.0000 -0.0686857758
H   H1543     1.0  0.20407  0.97763  0.46123  1.0000 0.1007798595
N   N279      1.0  0.09467  0.82353  0.46863  1.0000 -0.0804308695
H   H1544     1.0  0.09267  0.80043  0.48083  1.0000 0.1007798595
N   N280      1.0  0.17437  0.78223  0.44483  1.0000 -0.0686857758
H   H1545     1.0  0.18307  0.75783  0.45503  1.0000 0.1103299505
N   N281      1.0  0.28287  0.90493  0.44853  1.0000 -0.0804308695
H   H1546     1.0  0.28537  0.93053  0.43683  1.0000 0.1007798595
C   C930      1.0  0.14767  0.92993  0.48393  1.0000 -0.0610470701
H   H1547     1.0  0.15347  0.91203  0.49613  1.0000 0.0599627315
H   H1548     1.0  0.14427  0.96913  0.48683  1.0000 0.040310148
C   C931      1.0  0.08567  0.87873  0.47383  1.0000 0.027875408
H   H1549     1.0  0.07787  0.89773  0.46213  1.0000 0.0693294588
H   H1550     1.0  0.04747  0.86373  0.48243  1.0000 0.040310148
C   C932      1.0  0.04217  0.77633  0.45653  1.0000 -0.0804308695
H   H1551     1.0  0.00127  0.75163  0.46393  1.0000 0.0599627315
H   H1552     1.0  0.03427  0.79833  0.44563  1.0000 0.0693294588
C   C933      1.0  0.06667  0.73033  0.44943  1.0000 -0.0366537845
H   H1553     1.0  0.02577  0.69183  0.44523  1.0000 0.0599627315
H   H1554     1.0  0.07847  0.71743  0.46153  1.0000 0.0486432212
C   C934      1.0  0.11627  0.73133  0.43553  1.0000 -0.0153511054
H   H1555     1.0  0.11077  0.74333  0.42243  1.0000 0.040310148
H   H1556     1.0  0.11547  0.68883  0.43533  1.0000 0.01818332
C   C935      1.0  0.22967  0.80233  0.43183  1.0000 -0.0881865386
H   H1557     1.0  0.23237  0.76343  0.42783  1.0000 0.0486432212
H   H1558     1.0  0.22317  0.82233  0.42023  1.0000 0.0599627315
C   C936      1.0  0.29917  0.85583  0.44263  1.0000 0.0096146532
H   H1559     1.0  0.33657  0.87393  0.43363  1.0000 0.040310148
H   H1560     1.0  0.30897  0.83613  0.45373  1.0000 0.0599627315
C   C937      1.0  0.33547  0.94833  0.46093  1.0000 -0.0463115656
H   H1561     1.0  0.33837  0.92293  0.47173  1.0000 0.0693294588
H   H1562     1.0  0.37707  0.96723  0.45373  1.0000 0.0777011545
C   C938      1.0  0.32667  0.00433  0.46883  1.0000 -0.101100454
H   H1563     1.0  0.32417  0.02983  0.45813  1.0000 0.0777011545
H   H1564     1.0  0.36577  0.03353  0.47663  1.0000 0.0599627315
C   C939      1.0  0.26587  0.97733  0.48113  1.0000 0.027875408
H   H1565     1.0  0.26917  0.01433  0.48893  1.0000 0.0599627315
H   H1566     1.0  0.26577  0.94533  0.49013  1.0000 0.0599627315
O   O117      1.0  0.94313  0.49397  0.64820  1.0000 -0.4828358619
Ni  Ni30      1.0  0.00812  0.53061  0.62534  1.0000 0.2361303248
N   N282      1.0  0.94033  0.54427  0.61057  1.0000 -0.0610470701
O   O118      1.0  0.07083  0.56297  0.60221  1.0000 -0.4928275375
N   N283      1.0  0.07683  0.52017  0.64027  1.0000 -0.0686857758
N   N284      1.0  0.05363  0.62287  0.63787  1.0000 -0.0686857758
N   N285      1.0  0.96133  0.43747  0.61467  1.0000 -0.0686857758
C   C940      1.0  0.88623  0.48127  0.60477  1.0000 -0.0881865386
C   C941      1.0  0.91643  0.58277  0.61967  1.0000 0.0096146532
H   H1567     1.0  0.96223  0.56777  0.59847  1.0000 0.1007798595
C   C942      1.0  0.07813  0.59427  0.58749  1.0000 0.027875408
C   C943      1.0  0.09833  0.47767  0.63177  1.0000 0.027875408
C   C944      1.0  0.13123  0.58137  0.64497  1.0000 -0.0804308695
H   H1568     1.0  0.05583  0.49947  0.65267  1.0000 0.1103299505
H   H1569     1.0  0.08133  0.65317  0.62747  1.0000 0.1103299505
C   C945      1.0  0.10113  0.62237  0.65177  1.0000 0.0096146532
C   C946      1.0  0.01163  0.64857  0.64417  1.0000 -0.0804308695
C   C947      1.0  0.99533  0.40507  0.60837  1.0000 -0.0463115656
C   C948      1.0  0.91963  0.44167  0.59967  1.0000 0.027875408
H   H1570     1.0  0.93083  0.40927  0.62497  1.0000 0.1007798595
H   H1571     1.0  0.86323  0.48577  0.59357  1.0000 0.040310148
H   H1572     1.0  0.85473  0.46047  0.61537  1.0000 0.0599627315
C   C949      1.0  0.96863  0.64707  0.62767  1.0000 -0.0804308695
H   H1573     1.0  0.88673  0.55677  0.63027  1.0000 0.0599627315
H   H1574     1.0  0.89043  0.59147  0.61027  1.0000 0.0486432212
O   O119      1.0  0.04503  0.61837  0.58246  1.0000 -0.5016892986
C   C950      1.0  0.13583  0.60727  0.57562  1.0000 0.0096146532
H   H1575     1.0  0.12623  0.49967  0.62057  1.0000 0.0599627315
C   C951      1.0  0.03853  0.41037  0.62537  1.0000 -0.101100454
H   H1576     1.0  0.12483  0.46977  0.64127  1.0000 0.040310148
H   H1577     1.0  0.15963  0.60157  0.63367  1.0000 0.0599627315
H   H1578     1.0  0.15743  0.57677  0.65537  1.0000 0.040310148
H   H1579     1.0  0.13643  0.66777  0.65397  1.0000 0.040310148
H   H1580     1.0  0.07853  0.60477  0.66417  1.0000 0.0486432212
H   H1581     1.0  0.98383  0.62197  0.65487  1.0000 0.0599627315
H   H1582     1.0  0.03903  0.69407  0.64867  1.0000 0.0599627315
H   H1583     1.0  0.02233  0.42697  0.59687  1.0000 0.0599627315
H   H1584     1.0  0.96443  0.35877  0.60517  1.0000 0.0599627315
H   H1585     1.0  0.94673  0.46127  0.58817  1.0000 0.0599627315
H   H1586     1.0  0.88533  0.39677  0.59637  1.0000 0.040310148
H   H1587     1.0  0.94683  0.67147  0.63187  1.0000 0.0599627315
H   H1588     1.0  0.99793  0.67197  0.61697  1.0000 0.0777011545
C   C952      1.0  0.17713  0.58457  0.58115  1.0000 -0.1918009899
C   C953      1.0  0.15313  0.64637  0.55909  1.0000 -0.1918009899
H   H1589     1.0  0.05583  0.38067  0.62277  1.0000 0.0486432212
H   H1590     1.0  0.00943  0.39237  0.63667  1.0000 0.0693294588
C   C954      1.0  0.23103  0.59647  0.57089  1.0000 0.0599627315
H   H1591     1.0  0.16743  0.55957  0.59257  1.0000 0.1199420073
C   C955      1.0  0.20973  0.66047  0.54890  1.0000 0.1422292007
H   H1592     1.0  0.12633  0.66327  0.55477  1.0000 0.1332312332
C   C956      1.0  0.24893  0.63427  0.55487  1.0000 -0.2412144577
H   H1593     1.0  0.25643  0.57787  0.57497  1.0000 0.1199420073
C   C957      1.0  0.23273  0.70147  0.53171  1.0000 0.1542727053
N   N286      1.0  0.29113  0.71107  0.52473  1.0000 -0.2412144577
C   C958      1.0  0.20083  0.72937  0.52279  1.0000 -0.1823075057
N   N287      1.0  0.38543  0.75107  0.55487  1.0000 -0.2028512544
C   C959      1.0  0.31693  0.74897  0.50890  1.0000 0.040310148
H   H1594     1.0  0.16023  0.72227  0.52767  1.0000 0.1332312332
C   C960      1.0  0.22733  0.76767  0.50660  1.0000 0.0096146532
C   C961      1.0  0.28573  0.77587  0.49965  1.0000 -0.1918009899
H   H1595     1.0  0.35803  0.75677  0.50417  1.0000 0.1103299505
C   C962      1.0  0.19323  0.79907  0.49676  1.0000 -0.0018398883
H   H1596     1.0  0.30413  0.80057  0.48827  1.0000 0.1199420073
O   O120      1.0  0.14213  0.79287  0.50397  1.0000 -0.5068227806
N   N288      1.0  0.86973  0.28067  0.80467  1.0000 -0.0686857758
H   H1597     1.0  0.87073  0.31097  0.79457  1.0000 0.1007798595
N   N289      1.0  0.76133  0.15687  0.80197  1.0000 -0.0804308695
H   H1598     1.0  0.75933  0.13377  0.81417  1.0000 0.1007798595
N   N290      1.0  0.84103  0.11557  0.77817  1.0000 -0.0686857758
H   H1599     1.0  0.84973  0.09117  0.78837  1.0000 0.1103299505
N   N291      1.0  0.94953  0.23827  0.78187  1.0000 -0.0804308695
H   H1600     1.0  0.95203  0.26387  0.77017  1.0000 0.1007798595
C   C963      1.0  0.81433  0.26327  0.81727  1.0000 -0.0610470701
H   H1601     1.0  0.82013  0.24537  0.82947  1.0000 0.0599627315
H   H1602     1.0  0.81093  0.30247  0.82017  1.0000 0.040310148
C   C964      1.0  0.75233  0.21207  0.80717  1.0000 0.027875408
H   H1603     1.0  0.74453  0.23107  0.79547  1.0000 0.0693294588
H   H1604     1.0  0.71413  0.19707  0.81577  1.0000 0.040310148
C   C965      1.0  0.70883  0.10967  0.78987  1.0000 -0.0804308695
H   H1605     1.0  0.66793  0.08497  0.79727  1.0000 0.0599627315
H   H1606     1.0  0.70093  0.13167  0.77897  1.0000 0.0777011545
C   C966      1.0  0.73333  0.06367  0.78277  1.0000 -0.0366537845
H   H1607     1.0  0.69243  0.02517  0.77857  1.0000 0.0599627315
H   H1608     1.0  0.74513  0.05077  0.79487  1.0000 0.0486432212
C   C967      1.0  0.78293  0.06467  0.76887  1.0000 -0.0153511054
H   H1609     1.0  0.77743  0.07667  0.75577  1.0000 0.040310148
H   H1610     1.0  0.78213  0.02217  0.76867  1.0000 0.01818332
C   C968      1.0  0.89633  0.13567  0.76517  1.0000 -0.0881865386
H   H1611     1.0  0.89903  0.09677  0.76117  1.0000 0.0486432212
H   H1612     1.0  0.88983  0.15567  0.75357  1.0000 0.0599627315
C   C969      1.0  0.96583  0.18917  0.77597  1.0000 0.0096146532
H   H1613     1.0  0.00323  0.20727  0.76697  1.0000 0.040310148
H   H1614     1.0  0.97563  0.16947  0.78707  1.0000 0.0599627315
C   C970      1.0  0.00213  0.28167  0.79427  1.0000 -0.0463115656
H   H1615     1.0  0.00503  0.25627  0.80507  1.0000 0.0693294588
H   H1616     1.0  0.04373  0.30057  0.78707  1.0000 0.0777011545
C   C971      1.0  0.99333  0.33767  0.80217  1.0000 -0.101100454
H   H1617     1.0  0.99083  0.36317  0.79147  1.0000 0.0777011545
H   H1618     1.0  0.03243  0.36687  0.80997  1.0000 0.0599627315
C   C972      1.0  0.93253  0.31067  0.81447  1.0000 0.027875408
H   H1619     1.0  0.93583  0.34767  0.82227  1.0000 0.0599627315
H   H1620     1.0  0.93243  0.27867  0.82347  1.0000 0.0599627315
O   O121      1.0  0.21750  0.39020  0.98153  1.0000 -0.4828358619
Ni  Ni31      1.0  0.18915  0.32521  0.95867  1.0000 0.2342789186
N   N292      1.0  0.27060  0.39300  0.94390  1.0000 -0.0610470701
O   O122      1.0  0.15880  0.26250  0.93554  1.0000 -0.5016892986
N   N293      1.0  0.11000  0.25650  0.97360  1.0000 -0.0686857758
N   N294      1.0  0.23590  0.27970  0.97120  1.0000 -0.0610470701
N   N295      1.0  0.14280  0.37200  0.94800  1.0000 -0.0686857758
C   C973      1.0  0.26170  0.44710  0.93810  1.0000 -0.0881865386
C   C974      1.0  0.33300  0.41690  0.95300  1.0000 0.0041466364
H   H1621     1.0  0.27220  0.37110  0.93180  1.0000 0.1007798595
C   C975      1.0  0.18280  0.25520  0.92082  1.0000 0.027875408
C   C976      1.0  0.04600  0.23500  0.96510  1.0000 0.027875408
C   C977      1.0  0.11680  0.20210  0.97830  1.0000 -0.0804308695
H   H1622     1.0  0.11030  0.27750  0.98600  1.0000 0.1103299505
H   H1623     1.0  0.23850  0.25200  0.96080  1.0000 0.1103299505
C   C978      1.0  0.18790  0.23220  0.98510  1.0000 0.0096146532
C   C979      1.0  0.30360  0.32170  0.97750  1.0000 -0.0804308695
C   C980      1.0  0.07640  0.33800  0.94170  1.0000 -0.0463115656
C   C981      1.0  0.18870  0.41370  0.93300  1.0000 0.027875408
H   H1624     1.0  0.14510  0.40250  0.95830  1.0000 0.1007798595
H   H1625     1.0  0.28920  0.47010  0.92690  1.0000 0.040310148
H   H1626     1.0  0.27240  0.47860  0.94870  1.0000 0.0599627315
C   C982      1.0  0.34510  0.36470  0.96100  1.0000 -0.0804308695
H   H1627     1.0  0.33670  0.44660  0.96360  1.0000 0.0599627315
H   H1628     1.0  0.36770  0.44290  0.94360  1.0000 0.0486432212
O   O123      1.0  0.24000  0.28830  0.91579  1.0000 -0.5068227806
C   C983      1.0  0.13810  0.19750  0.90895  1.0000 -0.0153511054
H   H1629     1.0  0.04010  0.20710  0.95390  1.0000 0.0599627315
C   C984      1.0  0.03850  0.29480  0.95870  1.0000 -0.101100454
H   H1630     1.0  0.01160  0.20850  0.97460  1.0000 0.027875408
H   H1631     1.0  0.10860  0.17370  0.96700  1.0000 0.0599627315
H   H1632     1.0  0.08600  0.17590  0.98870  1.0000 0.040310148
H   H1633     1.0  0.19800  0.19690  0.98730  1.0000 0.040310148
H   H1634     1.0  0.19290  0.25480  0.99750  1.0000 0.0486432212
H   H1635     1.0  0.30480  0.34950  0.98820  1.0000 0.0599627315
H   H1636     1.0  0.32170  0.29430  0.98200  1.0000 0.0599627315
H   H1637     1.0  0.07130  0.31100  0.93020  1.0000 0.0599627315
H   H1638     1.0  0.06100  0.36890  0.93850  1.0000 0.0599627315
H   H1639     1.0  0.18120  0.38660  0.92150  1.0000 0.0599627315
H   H1640     1.0  0.17810  0.44800  0.92970  1.0000 0.040310148
H   H1641     1.0  0.39130  0.38650  0.96520  1.0000 0.0599627315
H   H1642     1.0  0.34070  0.33540  0.95030  1.0000 0.0777011545
C   C985      1.0  0.07410  0.15620  0.91448  1.0000 -0.1482281308
C   C986      1.0  0.15990  0.18020  0.89242  1.0000 -0.1482281308
H   H1643     1.0  0.99150  0.27750  0.95610  1.0000 0.0486432212
H   H1644     1.0  0.04960  0.32390  0.97000  1.0000 0.0693294588
C   C987      1.0  0.03210  0.10230  0.90422  1.0000 -0.0881865386
H   H1645     1.0  0.05880  0.16590  0.92590  1.0000 0.1103299505
C   C988      1.0  0.11740  0.12360  0.88223  1.0000 0.027875408
H   H1646     1.0  0.20360  0.20700  0.88810  1.0000 0.1199420073
H   H1647     1.0  0.98810  0.07690  0.90830  1.0000 0.1199420073
C   C989      1.0  0.13540  0.10060  0.86504  1.0000 0.1772400725
N   N296      1.0  0.08660  0.04220  0.85806  1.0000 -0.247256526
C   C990      1.0  0.19520  0.13250  0.85612  1.0000 -0.1823075057
N   N297      1.0  0.03230  0.94790  0.88820  1.0000 -0.2093651803
C   C991      1.0  0.09870  0.01640  0.84223  1.0000 0.040310148
H   H1648     1.0  0.22870  0.17310  0.86100  1.0000 0.1332312332
C   C992      1.0  0.20700  0.10600  0.83993  1.0000 0.0096146532
C   C993      1.0  0.15680  0.04760  0.83298  1.0000 -0.1918009899
H   H1649     1.0  0.06540  0.97530  0.83750  1.0000 0.1103299505
C   C994      1.0  0.27250  0.14010  0.83009  1.0000 -0.0018398883
H   H1650     1.0  0.16310  0.02920  0.82160  1.0000 0.1199420073
O   O124      1.0  0.31740  0.19120  0.83730  1.0000 -0.5068227806
N   N298      1.0  0.07760  0.46360  0.13800  1.0000 -0.0686857758
H   H1651     1.0  0.10690  0.46260  0.12790  1.0000 0.1007798595
N   N299      1.0  0.06220  0.57200  0.13530  1.0000 -0.0804308695
H   H1652     1.0  0.04110  0.57400  0.14750  1.0000 0.1007798595
N   N300      1.0  0.94120  0.49230  0.11150  1.0000 -0.0686857758
H   H1653     1.0  0.90810  0.48360  0.12170  1.0000 0.1103299505
N   N301      1.0  0.95540  0.38380  0.11520  1.0000 -0.0804308695
H   H1654     1.0  0.97850  0.38130  0.10350  1.0000 0.1007798595
C   C995      1.0  0.11560  0.51900  0.15060  1.0000 -0.0610470701
H   H1655     1.0  0.09190  0.51320  0.16280  1.0000 0.0599627315
H   H1656     1.0  0.15820  0.52240  0.15350  1.0000 0.040310148
C   C996      1.0  0.12640  0.58100  0.14050  1.0000 0.027875408
H   H1657     1.0  0.15320  0.58880  0.12880  1.0000 0.0693294588
H   H1658     1.0  0.14960  0.61920  0.14910  1.0000 0.040310148
C   C997      1.0  0.06750  0.62450  0.12320  1.0000 -0.0804308695
H   H1659     1.0  0.08370  0.66540  0.13060  1.0000 0.0599627315
H   H1660     1.0  0.09740  0.63240  0.11230  1.0000 0.0777011545
C   C998      1.0  0.99700  0.60000  0.11610  1.0000 -0.0366537845
H   H1661     1.0  0.99940  0.64090  0.11190  1.0000 0.0599627315
H   H1662     1.0  0.97230  0.58820  0.12820  1.0000 0.0486432212
C   C999      1.0  0.94840  0.55040  0.10220  1.0000 -0.0140314105
H   H1663     1.0  0.96590  0.55590  0.08910  1.0000 0.040310148
H   H1664     1.0  0.90670  0.55120  0.10200  1.0000 0.01818332
C   C1000     1.0  0.90600  0.43700  0.09850  1.0000 -0.0881865386
H   H1665     1.0  0.86440  0.43430  0.09450  1.0000 0.0486432212
H   H1666     1.0  0.93250  0.44350  0.08690  1.0000 0.0599627315
C   C1001     1.0  0.89000  0.36750  0.10930  1.0000 0.0096146532
H   H1667     1.0  0.87070  0.33010  0.10030  1.0000 0.040310148
H   H1668     1.0  0.86050  0.35770  0.12040  1.0000 0.0599627315
C   C1002     1.0  0.94620  0.33120  0.12760  1.0000 -0.0366537845
H   H1669     1.0  0.91790  0.32830  0.13840  1.0000 0.0693294588
H   H1670     1.0  0.92350  0.28960  0.12040  1.0000 0.0777011545
C   C1003     1.0  0.01100  0.34000  0.13550  1.0000 -0.101100454
H   H1671     1.0  0.03900  0.34250  0.12480  1.0000 0.0777011545
H   H1672     1.0  0.00110  0.30090  0.14330  1.0000 0.0599627315
C   C1004     1.0  0.04480  0.40080  0.14780  1.0000 0.027875408
H   H1673     1.0  0.07850  0.39750  0.15560  1.0000 0.0599627315
H   H1674     1.0  0.01290  0.40090  0.15680  1.0000 0.0599627315
O   O125      1.0  0.88417  0.72353  0.31486  1.0000 -0.4828358619
Ni  Ni32      1.0  0.85582  0.65854  0.29200  1.0000 0.2342789186
N   N302      1.0  0.93727  0.72633  0.27723  1.0000 -0.0610470701
O   O126      1.0  0.82547  0.59583  0.26887  1.0000 -0.4928275375
N   N303      1.0  0.77667  0.58983  0.30693  1.0000 -0.0686857758
N   N304      1.0  0.90257  0.61303  0.30453  1.0000 -0.0610470701
N   N305      1.0  0.80947  0.70533  0.28133  1.0000 -0.0686857758
C   C1005     1.0  0.92837  0.78043  0.27143  1.0000 -0.0881865386
C   C1006     1.0  0.99967  0.75023  0.28633  1.0000 0.0041466364
H   H1675     1.0  0.93887  0.70443  0.26513  1.0000 0.1007798595
C   C1007     1.0  0.84947  0.58853  0.25415  1.0000 0.027875408
C   C1008     1.0  0.71267  0.56833  0.29843  1.0000 0.027875408
C   C1009     1.0  0.78347  0.53543  0.31163  1.0000 -0.0804308695
H   H1676     1.0  0.77697  0.61083  0.31933  1.0000 0.1103299505
H   H1677     1.0  0.90517  0.58533  0.29413  1.0000 0.1103299505
C   C1010     1.0  0.85457  0.56553  0.31843  1.0000 0.0096146532
C   C1011     1.0  0.97027  0.65503  0.31083  1.0000 -0.0804308695
C   C1012     1.0  0.74307  0.67133  0.27503  1.0000 -0.0463115656
C   C1013     1.0  0.85537  0.74703  0.26633  1.0000 0.027875408
H   H1678     1.0  0.81177  0.73583  0.29163  1.0000 0.1007798595
H   H1679     1.0  0.95587  0.80343  0.26023  1.0000 0.040310148
H   H1680     1.0  0.93907  0.81193  0.28203  1.0000 0.0599627315
C   C1014     1.0  0.01177  0.69803  0.29433  1.0000 -0.0804308695
H   H1681     1.0  0.00337  0.77993  0.29693  1.0000 0.0599627315
H   H1682     1.0  0.03437  0.77623  0.27693  1.0000 0.0486432212
O   O127      1.0  0.90667  0.62163  0.24912  1.0000 -0.5016892986
C   C1015     1.0  0.80477  0.53083  0.24228  1.0000 -0.0140314105
H   H1683     1.0  0.70677  0.54043  0.28723  1.0000 0.0599627315
C   C1016     1.0  0.70517  0.62813  0.29203  1.0000 -0.101100454
H   H1684     1.0  0.67827  0.54183  0.30793  1.0000 0.040310148
H   H1685     1.0  0.77527  0.50703  0.30033  1.0000 0.0599627315
H   H1686     1.0  0.75267  0.50923  0.32203  1.0000 0.040310148
H   H1687     1.0  0.86467  0.53023  0.32063  1.0000 0.040310148
H   H1688     1.0  0.85957  0.58813  0.33083  1.0000 0.0486432212
H   H1689     1.0  0.97147  0.68283  0.32153  1.0000 0.0599627315
H   H1690     1.0  0.98837  0.62763  0.31533  1.0000 0.0599627315
H   H1691     1.0  0.73797  0.64433  0.26353  1.0000 0.0599627315
H   H1692     1.0  0.72767  0.70223  0.27183  1.0000 0.0599627315
H   H1693     1.0  0.84787  0.71993  0.25483  1.0000 0.0599627315
H   H1694     1.0  0.84477  0.78133  0.26303  1.0000 0.040310148
H   H1695     1.0  0.05797  0.71983  0.29853  1.0000 0.0599627315
H   H1696     1.0  0.00737  0.66873  0.28363  1.0000 0.0777011545
C   C1017     1.0  0.74077  0.48953  0.24781  1.0000 -0.1482281308
C   C1018     1.0  0.82657  0.51353  0.22575  1.0000 -0.1482281308
H   H1697     1.0  0.65817  0.61083  0.28943  1.0000 0.0486432212
H   H1698     1.0  0.71627  0.65723  0.30333  1.0000 0.0693294588
C   C1019     1.0  0.69877  0.43563  0.23755  1.0000 -0.0881865386
H   H1699     1.0  0.72547  0.49923  0.25923  1.0000 0.1103299505
C   C1020     1.0  0.78407  0.45693  0.21556  1.0000 0.027875408
H   H1700     1.0  0.87027  0.54033  0.22143  1.0000 0.1199420073
H   H1701     1.0  0.65477  0.41023  0.24163  1.0000 0.1199420073
C   C1021     1.0  0.80207  0.43393  0.19837  1.0000 0.1772400725
N   N306      1.0  0.75327  0.37553  0.19139  1.0000 -0.2412144577
C   C1022     1.0  0.86187  0.46583  0.18945  1.0000 -0.1823075057
N   N307      1.0  0.69897  0.28123  0.22153  1.0000 -0.2093651803
C   C1023     1.0  0.76537  0.34973  0.17556  1.0000 0.040310148
H   H1702     1.0  0.89537  0.50643  0.19433  1.0000 0.1332312332
C   C1024     1.0  0.87367  0.43933  0.17326  1.0000 0.0096146532
C   C1025     1.0  0.82347  0.38093  0.16631  1.0000 -0.1918009899
H   H1703     1.0  0.73207  0.30863  0.17083  1.0000 0.1103299505
C   C1026     1.0  0.93917  0.47343  0.16342  1.0000 -0.0018398883
H   H1704     1.0  0.82977  0.36253  0.15493  1.0000 0.1199420073
O   O128      1.0  0.98407  0.52453  0.17063  1.0000 -0.5068227806
N   N308      1.0  0.74427  0.79693  0.47133  1.0000 -0.0686857758
H   H1705     1.0  0.77357  0.79593  0.46123  1.0000 0.1007798595
N   N309      1.0  0.72887  0.90533  0.46863  1.0000 -0.0804308695
H   H1706     1.0  0.70777  0.90733  0.48083  1.0000 0.1007798595
N   N310      1.0  0.60787  0.82563  0.44483  1.0000 -0.0686857758
H   H1707     1.0  0.57477  0.81693  0.45503  1.0000 0.1103299505
N   N311      1.0  0.62207  0.71713  0.44853  1.0000 -0.0804308695
H   H1708     1.0  0.64517  0.71463  0.43683  1.0000 0.1007798595
C   C1027     1.0  0.78227  0.85233  0.48393  1.0000 -0.0610470701
H   H1709     1.0  0.75857  0.84653  0.49613  1.0000 0.0599627315
H   H1710     1.0  0.82487  0.85573  0.48683  1.0000 0.040310148
C   C1028     1.0  0.79307  0.91433  0.47383  1.0000 0.027875408
H   H1711     1.0  0.81987  0.92213  0.46213  1.0000 0.0693294588
H   H1712     1.0  0.81627  0.95253  0.48243  1.0000 0.040310148
C   C1029     1.0  0.73417  0.95783  0.45653  1.0000 -0.0804308695
H   H1713     1.0  0.75037  0.99873  0.46393  1.0000 0.0599627315
H   H1714     1.0  0.76407  0.96573  0.44563  1.0000 0.0777011545
C   C1030     1.0  0.66367  0.93333  0.44943  1.0000 -0.0366537845
H   H1715     1.0  0.66607  0.97423  0.44523  1.0000 0.0599627315
H   H1716     1.0  0.63897  0.92153  0.46153  1.0000 0.0486432212
C   C1031     1.0  0.61507  0.88373  0.43553  1.0000 -0.0153511054
H   H1717     1.0  0.63257  0.88923  0.42243  1.0000 0.040310148
H   H1718     1.0  0.57337  0.88453  0.43533  1.0000 0.01818332
C   C1032     1.0  0.57267  0.77033  0.43183  1.0000 -0.0881865386
H   H1719     1.0  0.53107  0.76763  0.42783  1.0000 0.0486432212
H   H1720     1.0  0.59917  0.77683  0.42023  1.0000 0.0599627315
C   C1033     1.0  0.55667  0.70083  0.44263  1.0000 0.0096146532
H   H1721     1.0  0.53737  0.66343  0.43363  1.0000 0.040310148
H   H1722     1.0  0.52717  0.69103  0.45373  1.0000 0.0599627315
C   C1034     1.0  0.61287  0.66453  0.46093  1.0000 -0.0463115656
H   H1723     1.0  0.58457  0.66163  0.47173  1.0000 0.0693294588
H   H1724     1.0  0.59017  0.62293  0.45373  1.0000 0.0777011545
C   C1035     1.0  0.67767  0.67333  0.46883  1.0000 -0.101100454
H   H1725     1.0  0.70567  0.67583  0.45813  1.0000 0.0777011545
H   H1726     1.0  0.66777  0.63423  0.47663  1.0000 0.0599627315
C   C1036     1.0  0.71147  0.73413  0.48113  1.0000 0.027875408
H   H1727     1.0  0.74517  0.73083  0.48893  1.0000 0.0599627315
H   H1728     1.0  0.67957  0.73423  0.49013  1.0000 0.0599627315
O   O129      1.0  0.55083  0.05687  0.64820  1.0000 -0.4828358619
Ni  Ni33      1.0  0.52248  0.99188  0.62534  1.0000 0.2342789186
N   N312      1.0  0.60393  0.05967  0.61057  1.0000 -0.0686857758
O   O130      1.0  0.49213  0.92917  0.60221  1.0000 -0.5016892986
N   N313      1.0  0.44333  0.92317  0.64027  1.0000 -0.0686857758
N   N314      1.0  0.56923  0.94637  0.63787  1.0000 -0.0686857758
N   N315      1.0  0.47613  0.03867  0.61467  1.0000 -0.0686857758
C   C1037     1.0  0.59503  0.11377  0.60477  1.0000 -0.0881865386
C   C1038     1.0  0.66633  0.08357  0.61967  1.0000 0.0041466364
H   H1729     1.0  0.60553  0.03777  0.59847  1.0000 0.1007798595
C   C1039     1.0  0.51613  0.92187  0.58749  1.0000 0.027875408
C   C1040     1.0  0.37933  0.90167  0.63177  1.0000 0.027875408
C   C1041     1.0  0.45013  0.86877  0.64497  1.0000 -0.0804308695
H   H1730     1.0  0.44363  0.94417  0.65267  1.0000 0.1103299505
H   H1731     1.0  0.57183  0.91867  0.62747  1.0000 0.1103299505
C   C1042     1.0  0.52123  0.89887  0.65177  1.0000 0.0096146532
C   C1043     1.0  0.63693  0.98837  0.64417  1.0000 -0.0804308695
C   C1044     1.0  0.40973  0.00467  0.60837  1.0000 -0.0463115656
C   C1045     1.0  0.52203  0.08037  0.59967  1.0000 0.027875408
H   H1732     1.0  0.47843  0.06917  0.62497  1.0000 0.1007798595
H   H1733     1.0  0.62253  0.13677  0.59357  1.0000 0.040310148
H   H1734     1.0  0.60573  0.14527  0.61537  1.0000 0.0599627315
C   C1046     1.0  0.67843  0.03137  0.62767  1.0000 -0.0804308695
H   H1735     1.0  0.67003  0.11327  0.63027  1.0000 0.0599627315
H   H1736     1.0  0.70103  0.10957  0.61027  1.0000 0.0486432212
O   O131      1.0  0.57333  0.95497  0.58246  1.0000 -0.5016892986
C   C1047     1.0  0.47143  0.86417  0.57562  1.0000 -0.0153511054
H   H1737     1.0  0.37343  0.87377  0.62057  1.0000 0.0599627315
C   C1048     1.0  0.37183  0.96147  0.62537  1.0000 -0.101100454
H   H1738     1.0  0.34493  0.87517  0.64127  1.0000 0.027875408
H   H1739     1.0  0.44193  0.84037  0.63367  1.0000 0.0599627315
H   H1740     1.0  0.41933  0.84257  0.65537  1.0000 0.040310148
H   H1741     1.0  0.53133  0.86357  0.65397  1.0000 0.040310148
H   H1742     1.0  0.52623  0.92147  0.66417  1.0000 0.0486432212
H   H1743     1.0  0.63813  0.01617  0.65487  1.0000 0.0599627315
H   H1744     1.0  0.65503  0.96097  0.64867  1.0000 0.0599627315
H   H1745     1.0  0.40463  0.97767  0.59687  1.0000 0.0599627315
H   H1746     1.0  0.39433  0.03557  0.60517  1.0000 0.0599627315
H   H1747     1.0  0.51453  0.05327  0.58817  1.0000 0.0599627315
H   H1748     1.0  0.51143  0.11467  0.59637  1.0000 0.040310148
H   H1749     1.0  0.72463  0.05317  0.63187  1.0000 0.0599627315
H   H1750     1.0  0.67403  0.00207  0.61697  1.0000 0.0777011545
C   C1049     1.0  0.40743  0.82287  0.58115  1.0000 -0.1482281308
C   C1050     1.0  0.49323  0.84687  0.55909  1.0000 -0.1482281308
H   H1751     1.0  0.32483  0.94417  0.62277  1.0000 0.0486432212
H   H1752     1.0  0.38293  0.99057  0.63667  1.0000 0.0693294588
C   C1051     1.0  0.36543  0.76897  0.57089  1.0000 -0.0881865386
H   H1753     1.0  0.39213  0.83257  0.59257  1.0000 0.1103299505
C   C1052     1.0  0.45073  0.79027  0.54890  1.0000 0.027875408
H   H1754     1.0  0.53693  0.87367  0.55477  1.0000 0.1199420073
H   H1755     1.0  0.32143  0.74357  0.57497  1.0000 0.1199420073
C   C1053     1.0  0.46873  0.76727  0.53171  1.0000 0.1772400725
N   N316      1.0  0.41993  0.70887  0.52473  1.0000 -0.247256526
C   C1054     1.0  0.52853  0.79917  0.52279  1.0000 -0.1823075057
N   N317      1.0  0.36563  0.61457  0.55487  1.0000 -0.2093651803
C   C1055     1.0  0.43203  0.68307  0.50890  1.0000 0.040310148
H   H1756     1.0  0.56203  0.83977  0.52767  1.0000 0.1332312332
C   C1056     1.0  0.54033  0.77267  0.50660  1.0000 0.0096146532
C   C1057     1.0  0.49013  0.71427  0.49965  1.0000 -0.1918009899
H   H1757     1.0  0.39873  0.64197  0.50417  1.0000 0.1103299505
C   C1058     1.0  0.60583  0.80677  0.49676  1.0000 -0.0018398883
H   H1758     1.0  0.49643  0.69587  0.48827  1.0000 0.1199420073
O   O132      1.0  0.65073  0.85787  0.50397  1.0000 -0.5068227806
N   N318      1.0  0.41093  0.13027  0.80467  1.0000 -0.0686857758
H   H1759     1.0  0.44023  0.12927  0.79457  1.0000 0.1007798595
N   N319      1.0  0.39553  0.23867  0.80197  1.0000 -0.0804308695
H   H1760     1.0  0.37443  0.24067  0.81417  1.0000 0.1007798595
N   N320      1.0  0.27453  0.15897  0.77817  1.0000 -0.0686857758
H   H1761     1.0  0.24143  0.15027  0.78837  1.0000 0.1103299505
N   N321      1.0  0.28873  0.05047  0.78187  1.0000 -0.0804308695
H   H1762     1.0  0.31183  0.04797  0.77017  1.0000 0.1007798595
C   C1059     1.0  0.44893  0.18567  0.81727  1.0000 -0.0610470701
H   H1763     1.0  0.42523  0.17987  0.82947  1.0000 0.0599627315
H   H1764     1.0  0.49153  0.18907  0.82017  1.0000 0.040310148
C   C1060     1.0  0.45973  0.24767  0.80717  1.0000 0.027875408
H   H1765     1.0  0.48653  0.25547  0.79547  1.0000 0.0693294588
H   H1766     1.0  0.48293  0.28587  0.81577  1.0000 0.040310148
C   C1061     1.0  0.40083  0.29117  0.78987  1.0000 -0.0804308695
H   H1767     1.0  0.41703  0.33207  0.79727  1.0000 0.0599627315
H   H1768     1.0  0.43073  0.29907  0.77897  1.0000 0.0777011545
C   C1062     1.0  0.33033  0.26667  0.78277  1.0000 -0.0366537845
H   H1769     1.0  0.33273  0.30757  0.77857  1.0000 0.0599627315
H   H1770     1.0  0.30563  0.25487  0.79487  1.0000 0.0486432212
C   C1063     1.0  0.28173  0.21707  0.76887  1.0000 -0.0153511054
H   H1771     1.0  0.29923  0.22257  0.75577  1.0000 0.040310148
H   H1772     1.0  0.24003  0.21787  0.76867  1.0000 0.01818332
C   C1064     1.0  0.23933  0.10367  0.76517  1.0000 -0.0881865386
H   H1773     1.0  0.19773  0.10097  0.76117  1.0000 0.0486432212
H   H1774     1.0  0.26583  0.11017  0.75357  1.0000 0.0599627315
C   C1065     1.0  0.22333  0.03417  0.77597  1.0000 0.0096146532
H   H1775     1.0  0.20403  0.99677  0.76697  1.0000 0.040310148
H   H1776     1.0  0.19383  0.02437  0.78707  1.0000 0.0599627315
C   C1066     1.0  0.27953  0.99787  0.79427  1.0000 -0.0463115656
H   H1777     1.0  0.25123  0.99497  0.80507  1.0000 0.0693294588
H   H1778     1.0  0.25683  0.95627  0.78707  1.0000 0.0777011545
C   C1067     1.0  0.34433  0.00667  0.80217  1.0000 -0.101100454
H   H1779     1.0  0.37233  0.00917  0.79147  1.0000 0.0777011545
H   H1780     1.0  0.33443  0.96757  0.80997  1.0000 0.0599627315
C   C1068     1.0  0.37813  0.06747  0.81447  1.0000 0.027875408
H   H1781     1.0  0.41183  0.06417  0.82227  1.0000 0.0599627315
H   H1782     1.0  0.34623  0.06757  0.82347  1.0000 0.0599627315
O   O133      1.0  0.17270  0.78250  0.98153  1.0000 -0.4828358619
Ni  Ni34      1.0  0.13606  0.81085  0.95867  1.0000 0.2342789186
N   N322      1.0  0.12240  0.72940  0.94390  1.0000 -0.0610470701
O   O134      1.0  0.10370  0.84120  0.93554  1.0000 -0.5016892986
N   N323      1.0  0.14650  0.89000  0.97360  1.0000 -0.0686857758
N   N324      1.0  0.04380  0.76410  0.97120  1.0000 -0.0610470701
N   N325      1.0  0.22920  0.85720  0.94800  1.0000 -0.0686857758
C   C1069     1.0  0.18540  0.73830  0.93810  1.0000 -0.0881865386
C   C1070     1.0  0.08390  0.66700  0.95300  1.0000 0.0041466364
H   H1783     1.0  0.09890  0.72780  0.93180  1.0000 0.1007798595
C   C1071     1.0  0.07240  0.81720  0.92082  1.0000 0.027875408
C   C1072     1.0  0.18900  0.95400  0.96510  1.0000 0.027875408
C   C1073     1.0  0.08530  0.88320  0.97830  1.0000 -0.0804308695
H   H1784     1.0  0.16720  0.88970  0.98600  1.0000 0.1103299505
H   H1785     1.0  0.01350  0.76150  0.96080  1.0000 0.1103299505
C   C1074     1.0  0.04430  0.81210  0.98510  1.0000 0.0096146532
C   C1075     1.0  0.01810  0.69640  0.97750  1.0000 -0.0804308695
C   C1076     1.0  0.26160  0.92360  0.94170  1.0000 -0.0463115656
C   C1077     1.0  0.22500  0.81130  0.93300  1.0000 0.027875408
H   H1786     1.0  0.25740  0.85490  0.95830  1.0000 0.1007798595
H   H1787     1.0  0.18090  0.71080  0.92690  1.0000 0.040310148
H   H1788     1.0  0.20620  0.72760  0.94870  1.0000 0.0599627315
C   C1078     1.0  0.01960  0.65490  0.96100  1.0000 -0.0804308695
H   H1789     1.0  0.10990  0.66330  0.96360  1.0000 0.0599627315
H   H1790     1.0  0.07520  0.63230  0.94360  1.0000 0.0486432212
O   O135      1.0  0.04830  0.76000  0.91579  1.0000 -0.5068227806
C   C1079     1.0  0.05940  0.86190  0.90895  1.0000 -0.0140314105
H   H1791     1.0  0.16700  0.95990  0.95390  1.0000 0.0599627315
C   C1080     1.0  0.25630  0.96150  0.95870  1.0000 -0.101100454
H   H1792     1.0  0.19690  0.98840  0.97460  1.0000 0.040310148
H   H1793     1.0  0.06510  0.89140  0.96700  1.0000 0.0599627315
H   H1794     1.0  0.08990  0.91400  0.98870  1.0000 0.040310148
H   H1795     1.0  0.99890  0.80200  0.98730  1.0000 0.040310148
H   H1796     1.0  0.06190  0.80710  0.99750  1.0000 0.0486432212
H   H1797     1.0  0.04470  0.69520  0.98820  1.0000 0.0599627315
H   H1798     1.0  0.97260  0.67830  0.98200  1.0000 0.0599627315
H   H1799     1.0  0.23970  0.92870  0.93020  1.0000 0.0599627315
H   H1800     1.0  0.30790  0.93900  0.93850  1.0000 0.0599627315
H   H1801     1.0  0.20540  0.81880  0.92150  1.0000 0.0599627315
H   H1802     1.0  0.26990  0.82190  0.92970  1.0000 0.040310148
H   H1803     1.0  0.99520  0.60870  0.96520  1.0000 0.0599627315
H   H1804     1.0  0.99470  0.65930  0.95030  1.0000 0.0777011545
C   C1081     1.0  0.08210  0.92590  0.91448  1.0000 -0.1482281308
C   C1082     1.0  0.02030  0.84010  0.89242  1.0000 -0.1482281308
H   H1805     1.0  0.28600  0.00850  0.95610  1.0000 0.0486432212
H   H1806     1.0  0.27430  0.95040  0.97000  1.0000 0.0693294588
C   C1083     1.0  0.07020  0.96790  0.90422  1.0000 -0.0881865386
H   H1807     1.0  0.10710  0.94120  0.92590  1.0000 0.1103299505
C   C1084     1.0  0.00620  0.88260  0.88223  1.0000 0.027875408
H   H1808     1.0  0.00340  0.79640  0.88810  1.0000 0.1199420073
H   H1809     1.0  0.08880  0.01190  0.90830  1.0000 0.1199420073
C   C1085     1.0  0.96520  0.86460  0.86504  1.0000 0.1772400725
N   N326      1.0  0.95560  0.91340  0.85806  1.0000 -0.2412144577
C   C1086     1.0  0.93730  0.80480  0.85612  1.0000 -0.1823075057
C   C1087     1.0  0.91770  0.90130  0.84223  1.0000 0.027875408
H   H1810     1.0  0.94440  0.77130  0.86100  1.0000 0.1332312332
C   C1088     1.0  0.89900  0.79300  0.83993  1.0000 0.0096146532
C   C1089     1.0  0.89080  0.84320  0.83298  1.0000 -0.1918009899
H   H1811     1.0  0.90990  0.93460  0.83750  1.0000 0.1103299505
C   C1090     1.0  0.86760  0.72750  0.83009  1.0000 -0.0018398883
H   H1812     1.0  0.86610  0.83690  0.82160  1.0000 0.1199420073
O   O136      1.0  0.87380  0.68260  0.83730  1.0000 -0.5068227806
N   N327      1.0  0.38600  0.92240  0.13800  1.0000 -0.0686857758
H   H1813     1.0  0.35570  0.89310  0.12790  1.0000 0.1007798595
N   N328      1.0  0.50980  0.93780  0.13530  1.0000 -0.0804308695
H   H1814     1.0  0.53290  0.95890  0.14750  1.0000 0.1007798595
N   N329      1.0  0.55110  0.05880  0.11150  1.0000 -0.0686857758
H   H1815     1.0  0.57550  0.09190  0.12170  1.0000 0.1103299505
N   N330      1.0  0.42840  0.04460  0.11520  1.0000 -0.0804308695
H   H1816     1.0  0.40280  0.02150  0.10350  1.0000 0.1007798595
C   C1091     1.0  0.40340  0.88440  0.15060  1.0000 -0.0610470701
H   H1817     1.0  0.42130  0.90810  0.16280  1.0000 0.0599627315
H   H1818     1.0  0.36420  0.84180  0.15350  1.0000 0.040310148
C   C1092     1.0  0.45460  0.87360  0.14050  1.0000 0.027875408
H   H1819     1.0  0.43560  0.84680  0.12880  1.0000 0.0693294588
H   H1820     1.0  0.46960  0.85040  0.14910  1.0000 0.040310148
C   C1093     1.0  0.55700  0.93250  0.12320  1.0000 -0.0804308695
H   H1821     1.0  0.58170  0.91630  0.13060  1.0000 0.0599627315
H   H1822     1.0  0.53500  0.90260  0.11230  1.0000 0.0693294588
C   C1094     1.0  0.60300  0.00300  0.11610  1.0000 -0.0366537845
H   H1823     1.0  0.64150  0.00060  0.11190  1.0000 0.0599627315
H   H1824     1.0  0.61590  0.02770  0.12820  1.0000 0.0486432212
C   C1095     1.0  0.60200  0.05160  0.10220  1.0000 -0.0140314105
H   H1825     1.0  0.59000  0.03410  0.08910  1.0000 0.040310148
H   H1826     1.0  0.64450  0.09330  0.10200  1.0000 0.01818332
C   C1096     1.0  0.53100  0.09400  0.09850  1.0000 -0.0881865386
H   H1827     1.0  0.56990  0.13560  0.09450  1.0000 0.0486432212
H   H1828     1.0  0.51100  0.06750  0.08690  1.0000 0.0599627315
C   C1097     1.0  0.47750  0.11000  0.10930  1.0000 0.0096146532
H   H1829     1.0  0.45940  0.12930  0.10030  1.0000 0.040310148
H   H1830     1.0  0.49720  0.13950  0.12040  1.0000 0.0599627315
C   C1098     1.0  0.38500  0.05380  0.12760  1.0000 -0.0463115656
H   H1831     1.0  0.41040  0.08210  0.13840  1.0000 0.0693294588
H   H1832     1.0  0.36610  0.07650  0.12040  1.0000 0.0777011545
C   C1099     1.0  0.32900  0.98900  0.13550  1.0000 -0.101100454
H   H1833     1.0  0.30350  0.96100  0.12480  1.0000 0.0777011545
H   H1834     1.0  0.29980  0.99890  0.14330  1.0000 0.0599627315
C   C1100     1.0  0.35600  0.95520  0.14780  1.0000 0.027875408
H   H1835     1.0  0.31900  0.92150  0.15560  1.0000 0.0599627315
H   H1836     1.0  0.38800  0.98710  0.15680  1.0000 0.0599627315
O   O137      1.0  0.83937  0.11583  0.31486  1.0000 -0.4828358619
Ni  Ni35      1.0  0.80273  0.14418  0.29200  1.0000 0.2361303248
N   N331      1.0  0.78907  0.06273  0.27723  1.0000 -0.0610470701
O   O138      1.0  0.77037  0.17453  0.26887  1.0000 -0.5016892986
N   N332      1.0  0.81317  0.22333  0.30693  1.0000 -0.0686857758
N   N333      1.0  0.71047  0.09743  0.30453  1.0000 -0.0610470701
N   N334      1.0  0.89587  0.19053  0.28133  1.0000 -0.0686857758
C   C1101     1.0  0.85207  0.07163  0.27143  1.0000 -0.0881865386
C   C1102     1.0  0.75057  0.00033  0.28633  1.0000 0.0041466364
H   H1837     1.0  0.76557  0.06113  0.26513  1.0000 0.1007798595
C   C1103     1.0  0.73907  0.15053  0.25415  1.0000 0.027875408
C   C1104     1.0  0.85567  0.28733  0.29843  1.0000 0.027875408
C   C1105     1.0  0.75197  0.21653  0.31163  1.0000 -0.0804308695
H   H1838     1.0  0.83387  0.22303  0.31933  1.0000 0.1103299505
H   H1839     1.0  0.68017  0.09483  0.29413  1.0000 0.1103299505
C   C1106     1.0  0.71097  0.14543  0.31843  1.0000 0.0096146532
C   C1107     1.0  0.68477  0.02973  0.31083  1.0000 -0.0804308695
C   C1108     1.0  0.92827  0.25693  0.27503  1.0000 -0.0463115656
C   C1109     1.0  0.89167  0.14463  0.26633  1.0000 0.027875408
H   H1840     1.0  0.92407  0.18823  0.29163  1.0000 0.1007798595
H   H1841     1.0  0.84757  0.04413  0.26023  1.0000 0.040310148
H   H1842     1.0  0.87287  0.06093  0.28203  1.0000 0.0599627315
C   C1110     1.0  0.68627  0.98823  0.29433  1.0000 -0.0804308695
H   H1843     1.0  0.77657  0.99663  0.29693  1.0000 0.0599627315
H   H1844     1.0  0.74187  0.96563  0.27693  1.0000 0.0486432212
O   O139      1.0  0.71497  0.09333  0.24912  1.0000 -0.5016892986
C   C1111     1.0  0.72607  0.19523  0.24228  1.0000 -0.0153511054
H   H1845     1.0  0.83367  0.29323  0.28723  1.0000 0.0599627315
C   C1112     1.0  0.92297  0.29483  0.29203  1.0000 -0.101100454
H   H1846     1.0  0.86357  0.32173  0.30793  1.0000 0.040310148
H   H1847     1.0  0.73177  0.22473  0.30033  1.0000 0.0599627315
H   H1848     1.0  0.75657  0.24733  0.32203  1.0000 0.040310148
H   H1849     1.0  0.66557  0.13533  0.32063  1.0000 0.040310148
H   H1850     1.0  0.72857  0.14043  0.33083  1.0000 0.0486432212
H   H1851     1.0  0.71137  0.02853  0.32153  1.0000 0.0599627315
H   H1852     1.0  0.63927  0.01163  0.31533  1.0000 0.0599627315
H   H1853     1.0  0.90637  0.26203  0.26353  1.0000 0.0599627315
H   H1854     1.0  0.97457  0.27233  0.27183  1.0000 0.0599627315
H   H1855     1.0  0.87207  0.15213  0.25483  1.0000 0.0599627315
H   H1856     1.0  0.93657  0.15523  0.26303  1.0000 0.040310148
H   H1857     1.0  0.66187  0.94203  0.29853  1.0000 0.0599627315
H   H1858     1.0  0.66137  0.99263  0.28363  1.0000 0.0777011545
C   C1113     1.0  0.74877  0.25923  0.24781  1.0000 -0.1482281308
C   C1114     1.0  0.68697  0.17343  0.22575  1.0000 -0.1482281308
H   H1859     1.0  0.95267  0.34183  0.28943  1.0000 0.0486432212
H   H1860     1.0  0.94097  0.28373  0.30333  1.0000 0.0693294588
C   C1115     1.0  0.73687  0.30123  0.23755  1.0000 -0.0881865386
H   H1861     1.0  0.77377  0.27453  0.25923  1.0000 0.1103299505
C   C1116     1.0  0.67287  0.21593  0.21556  1.0000 0.027875408
H   H1862     1.0  0.67007  0.12973  0.22143  1.0000 0.1199420073
H   H1863     1.0  0.75547  0.34523  0.24163  1.0000 0.1199420073
C   C1117     1.0  0.63187  0.19793  0.19837  1.0000 0.1772400725
N   N335      1.0  0.62227  0.24673  0.19139  1.0000 -0.247256526
C   C1118     1.0  0.60397  0.13813  0.18945  1.0000 -0.1823075057
C   C1119     1.0  0.58437  0.23463  0.17556  1.0000 0.027875408
H   H1864     1.0  0.61107  0.10463  0.19433  1.0000 0.1332312332
C   C1120     1.0  0.56567  0.12633  0.17326  1.0000 0.0096146532
C   C1121     1.0  0.55747  0.17653  0.16631  1.0000 -0.1918009899
H   H1865     1.0  0.57657  0.26793  0.17083  1.0000 0.1103299505
C   C1122     1.0  0.53427  0.06083  0.16342  1.0000 0.0041466364
H   H1866     1.0  0.53277  0.17023  0.15493  1.0000 0.1199420073
O   O140      1.0  0.54047  0.01593  0.17063  1.0000 -0.5068227806
N   N336      1.0  0.05267  0.25573  0.47133  1.0000 -0.0686857758
H   H1867     1.0  0.02237  0.22643  0.46123  1.0000 0.1007798595
N   N337      1.0  0.17647  0.27113  0.46863  1.0000 -0.0804308695
H   H1868     1.0  0.19957  0.29223  0.48083  1.0000 0.1007798595
N   N338      1.0  0.21777  0.39213  0.44483  1.0000 -0.0686857758
H   H1869     1.0  0.24217  0.42523  0.45503  1.0000 0.1103299505
N   N339      1.0  0.09507  0.37793  0.44853  1.0000 -0.0804308695
H   H1870     1.0  0.06947  0.35483  0.43683  1.0000 0.1007798595
C   C1123     1.0  0.07007  0.21773  0.48393  1.0000 -0.0610470701
H   H1871     1.0  0.08797  0.24143  0.49613  1.0000 0.0599627315
H   H1872     1.0  0.03087  0.17513  0.48683  1.0000 0.040310148
C   C1124     1.0  0.12127  0.20693  0.47383  1.0000 0.027875408
H   H1873     1.0  0.10227  0.18013  0.46213  1.0000 0.0693294588
H   H1874     1.0  0.13627  0.18373  0.48243  1.0000 0.040310148
C   C1125     1.0  0.22367  0.26583  0.45653  1.0000 -0.0804308695
H   H1875     1.0  0.24837  0.24963  0.46393  1.0000 0.0599627315
H   H1876     1.0  0.20167  0.23593  0.44563  1.0000 0.0693294588
C   C1126     1.0  0.26967  0.33633  0.44943  1.0000 -0.0366537845
H   H1877     1.0  0.30817  0.33393  0.44523  1.0000 0.0599627315
H   H1878     1.0  0.28257  0.36103  0.46153  1.0000 0.0486432212
C   C1127     1.0  0.26867  0.38493  0.43553  1.0000 -0.0153511054
H   H1879     1.0  0.25667  0.36743  0.42243  1.0000 0.040310148
H   H1880     1.0  0.31117  0.42663  0.43533  1.0000 0.01818332
C   C1128     1.0  0.19767  0.42733  0.43183  1.0000 -0.0881865386
H   H1881     1.0  0.23657  0.46893  0.42783  1.0000 0.0486432212
H   H1882     1.0  0.17767  0.40083  0.42023  1.0000 0.0599627315
C   C1129     1.0  0.14417  0.44333  0.44263  1.0000 0.0096146532
H   H1883     1.0  0.12607  0.46263  0.43363  1.0000 0.040310148
H   H1884     1.0  0.16387  0.47283  0.45373  1.0000 0.0599627315
C   C1130     1.0  0.05167  0.38713  0.46093  1.0000 -0.0463115656
H   H1885     1.0  0.07707  0.41543  0.47173  1.0000 0.0693294588
H   H1886     1.0  0.03277  0.40983  0.45373  1.0000 0.0777011545
C   C1131     1.0  0.99567  0.32233  0.46883  1.0000 -0.101100454
H   H1887     1.0  0.97017  0.29433  0.45813  1.0000 0.0777011545
H   H1888     1.0  0.96647  0.33223  0.47663  1.0000 0.0599627315
C   C1132     1.0  0.02267  0.28853  0.48113  1.0000 0.027875408
H   H1889     1.0  0.98567  0.25483  0.48893  1.0000 0.0599627315
H   H1890     1.0  0.05467  0.32043  0.49013  1.0000 0.0599627315
O   O141      1.0  0.50603  0.44917  0.64820  1.0000 -0.4828358619
Ni  Ni36      1.0  0.46939  0.47752  0.62534  1.0000 0.2361303248
N   N340      1.0  0.45573  0.39607  0.61057  1.0000 -0.0686857758
O   O142      1.0  0.43703  0.50787  0.60221  1.0000 -0.4928275375
N   N341      1.0  0.47983  0.55667  0.64027  1.0000 -0.0686857758
N   N342      1.0  0.37713  0.43077  0.63787  1.0000 -0.0686857758
N   N343      1.0  0.56253  0.52387  0.61467  1.0000 -0.0686857758
C   C1133     1.0  0.51873  0.40497  0.60477  1.0000 -0.0881865386
C   C1134     1.0  0.41723  0.33367  0.61967  1.0000 0.0041466364
H   H1891     1.0  0.43223  0.39447  0.59847  1.0000 0.1007798595
C   C1135     1.0  0.40573  0.48387  0.58749  1.0000 0.027875408
C   C1136     1.0  0.52233  0.62067  0.63177  1.0000 0.027875408
C   C1137     1.0  0.41863  0.54987  0.64497  1.0000 -0.0804308695
H   H1892     1.0  0.50053  0.55637  0.65267  1.0000 0.1103299505
H   H1893     1.0  0.34683  0.42817  0.62747  1.0000 0.1103299505
C   C1138     1.0  0.37763  0.47877  0.65177  1.0000 0.0096146532
C   C1139     1.0  0.35143  0.36307  0.64417  1.0000 -0.0804308695
C   C1140     1.0  0.59493  0.59027  0.60837  1.0000 -0.0463115656
C   C1141     1.0  0.55833  0.47797  0.59967  1.0000 0.027875408
H   H1894     1.0  0.59073  0.52157  0.62497  1.0000 0.1007798595
H   H1895     1.0  0.51423  0.37747  0.59357  1.0000 0.040310148
H   H1896     1.0  0.53953  0.39427  0.61537  1.0000 0.0599627315
C   C1142     1.0  0.35293  0.32157  0.62767  1.0000 -0.0804308695
H   H1897     1.0  0.44323  0.32997  0.63027  1.0000 0.0599627315
H   H1898     1.0  0.40853  0.29897  0.61027  1.0000 0.0486432212
O   O143      1.0  0.38163  0.42667  0.58246  1.0000 -0.5068227806
C   C1143     1.0  0.39273  0.52857  0.57562  1.0000 -0.0140314105
H   H1899     1.0  0.50033  0.62657  0.62057  1.0000 0.0599627315
C   C1144     1.0  0.58963  0.62817  0.62537  1.0000 -0.101100454
H   H1900     1.0  0.53023  0.65507  0.64127  1.0000 0.040310148
H   H1901     1.0  0.39843  0.55807  0.63367  1.0000 0.0599627315
H   H1902     1.0  0.42323  0.58067  0.65537  1.0000 0.040310148
H   H1903     1.0  0.33223  0.46867  0.65397  1.0000 0.040310148
H   H1904     1.0  0.39523  0.47377  0.66417  1.0000 0.0486432212
H   H1905     1.0  0.37803  0.36187  0.65487  1.0000 0.0599627315
H   H1906     1.0  0.30593  0.34497  0.64867  1.0000 0.0599627315
H   H1907     1.0  0.57303  0.59537  0.59687  1.0000 0.0599627315
H   H1908     1.0  0.64123  0.60567  0.60517  1.0000 0.0599627315
H   H1909     1.0  0.53873  0.48547  0.58817  1.0000 0.0599627315
H   H1910     1.0  0.60323  0.48857  0.59637  1.0000 0.040310148
H   H1911     1.0  0.32853  0.27537  0.63187  1.0000 0.0599627315
H   H1912     1.0  0.32803  0.32597  0.61697  1.0000 0.0777011545
C   C1145     1.0  0.41543  0.59257  0.58115  1.0000 -0.1482281308
C   C1146     1.0  0.35363  0.50677  0.55909  1.0000 -0.1482281308
H   H1913     1.0  0.61933  0.67517  0.62277  1.0000 0.0486432212
H   H1914     1.0  0.60763  0.61707  0.63667  1.0000 0.0693294588
C   C1147     1.0  0.40353  0.63457  0.57089  1.0000 -0.0881865386
H   H1915     1.0  0.44043  0.60787  0.59257  1.0000 0.1103299505
C   C1148     1.0  0.33953  0.54927  0.54890  1.0000 0.027875408
H   H1916     1.0  0.33673  0.46307  0.55477  1.0000 0.1199420073
H   H1917     1.0  0.42213  0.67857  0.57497  1.0000 0.1199420073
C   C1149     1.0  0.29853  0.53127  0.53171  1.0000 0.1772400725
N   N344      1.0  0.28893  0.58007  0.52473  1.0000 -0.247256526
C   C1150     1.0  0.27063  0.47147  0.52279  1.0000 -0.1823075057
C   C1151     1.0  0.25103  0.56797  0.50890  1.0000 0.040310148
H   H1918     1.0  0.27773  0.43797  0.52767  1.0000 0.1332312332
C   C1152     1.0  0.23233  0.45967  0.50660  1.0000 0.0096146532
C   C1153     1.0  0.22413  0.50987  0.49965  1.0000 -0.1918009899
H   H1919     1.0  0.24323  0.60127  0.50417  1.0000 0.1103299505
C   C1154     1.0  0.20093  0.39417  0.49676  1.0000 -0.0018398883
H   H1920     1.0  0.19943  0.50357  0.48827  1.0000 0.1199420073
O   O144      1.0  0.20713  0.34927  0.50397  1.0000 -0.5068227806
N   N345      1.0  0.71933  0.58907  0.80467  1.0000 -0.0686857758
H   H1921     1.0  0.68903  0.55977  0.79457  1.0000 0.1007798595
N   N346      1.0  0.84313  0.60447  0.80197  1.0000 -0.0804308695
H   H1922     1.0  0.86623  0.62557  0.81417  1.0000 0.1007798595
N   N347      1.0  0.88443  0.72547  0.77817  1.0000 -0.0686857758
H   H1923     1.0  0.90883  0.75857  0.78837  1.0000 0.1103299505
N   N348      1.0  0.76173  0.71127  0.78187  1.0000 -0.0804308695
H   H1924     1.0  0.73613  0.68817  0.77017  1.0000 0.1007798595
C   C1155     1.0  0.73673  0.55107  0.81727  1.0000 -0.0610470701
H   H1925     1.0  0.75463  0.57477  0.82947  1.0000 0.0599627315
H   H1926     1.0  0.69753  0.50847  0.82017  1.0000 0.040310148
C   C1156     1.0  0.78793  0.54027  0.80717  1.0000 0.027875408
H   H1927     1.0  0.76893  0.51347  0.79547  1.0000 0.0693294588
H   H1928     1.0  0.80293  0.51707  0.81577  1.0000 0.040310148
C   C1157     1.0  0.89033  0.59917  0.78987  1.0000 -0.0804308695
H   H1929     1.0  0.91503  0.58297  0.79727  1.0000 0.0599627315
H   H1930     1.0  0.86833  0.56927  0.77897  1.0000 0.0693294588
C   C1158     1.0  0.93633  0.66967  0.78277  1.0000 -0.0366537845
H   H1931     1.0  0.97483  0.66727  0.77857  1.0000 0.0599627315
H   H1932     1.0  0.94923  0.69437  0.79487  1.0000 0.0486432212
C   C1159     1.0  0.93533  0.71827  0.76887  1.0000 -0.0153511054
H   H1933     1.0  0.92333  0.70077  0.75577  1.0000 0.040310148
H   H1934     1.0  0.97783  0.75997  0.76867  1.0000 0.01818332
C   C1160     1.0  0.86433  0.76067  0.76517  1.0000 -0.0881865386
H   H1935     1.0  0.90323  0.80227  0.76117  1.0000 0.0486432212
H   H1936     1.0  0.84433  0.73417  0.75357  1.0000 0.0599627315
C   C1161     1.0  0.81083  0.77667  0.77597  1.0000 0.0096146532
H   H1937     1.0  0.79273  0.79597  0.76697  1.0000 0.040310148
H   H1938     1.0  0.83053  0.80617  0.78707  1.0000 0.0599627315
C   C1162     1.0  0.71833  0.72047  0.79427  1.0000 -0.0463115656
H   H1939     1.0  0.74373  0.74877  0.80507  1.0000 0.0693294588
H   H1940     1.0  0.69943  0.74317  0.78707  1.0000 0.0777011545
C   C1163     1.0  0.66233  0.65567  0.80217  1.0000 -0.101100454
H   H1941     1.0  0.63683  0.62767  0.79147  1.0000 0.0777011545
H   H1942     1.0  0.63313  0.66557  0.80997  1.0000 0.0599627315
C   C1164     1.0  0.68933  0.62187  0.81447  1.0000 0.027875408
H   H1943     1.0  0.65233  0.58817  0.82227  1.0000 0.0599627315
H   H1944     1.0  0.72133  0.65377  0.82347  1.0000 0.0599627315
Ir  Ir7       1.0  0.00000  0.00000  0.37299  1.0000 0.6392590863
Ir  Ir8       1.0  0.66667  0.33333  0.70632  1.0000 0.6392590863
Ir  Ir9       1.0  0.33333  0.66667  0.03966  1.0000 0.6392590863
Ir  Ir10      1.0  0.00000  0.00000  0.87299  1.0000 0.6392590863
Ir  Ir11      1.0  0.66667  0.33333  0.20632  1.0000 0.6392590863
Ir  Ir12      1.0  0.33333  0.66667  0.53966  1.0000 0.6392590863
  N   N349      1.0  0.08440  0.03240  0.11180  1.0000
  C   C1165     1.0  0.94790  0.91560  0.11180  1.0000
  N   N350      1.0  0.75107  0.36573  0.44513  1.0000
  C   C1166     1.0  0.61457  0.24893  0.44513  1.0000
  N   N351      1.0  0.41773  0.69907  0.77847  1.0000
  C   C1167     1.0  0.28123  0.58227  0.77847  1.0000
  C   C1168     1.0  0.96770  0.05210  0.11180  1.0000
  C   C1169     1.0  0.63437  0.38543  0.44513  1.0000
  C   C1170     1.0  0.30103  0.71877  0.77847  1.0000
  N   N352      1.0  0.96760  0.91560  0.61180  1.0000
  C   C1171     1.0  0.08440  0.05210  0.61180  1.0000
  N   N353      1.0  0.63427  0.24893  0.94513  1.0000
  C   C1172     1.0  0.75107  0.38543  0.94513  1.0000
  N   N354      1.0  0.30093  0.58227  0.27847  1.0000
  C   C1173     1.0  0.41773  0.71877  0.27847  1.0000
  C   C1174     1.0  0.94790  0.03230  0.61180  1.0000
  C   C1175     1.0  0.61457  0.36563  0.94513  1.0000
  C   C1176     1.0  0.28123  0.69897  0.27847  1.0000
  N   N355      1.0  0.03240  0.08440  0.38820  1.0000
  C   C1177     1.0  0.91560  0.94790  0.38820  1.0000
  N   N356      1.0  0.69907  0.41773  0.72153  1.0000
  C   C1178     1.0  0.58227  0.28123  0.72153  1.0000
  N   N357      1.0  0.36573  0.75107  0.05487  1.0000
  C   C1179     1.0  0.24893  0.61457  0.05487  1.0000
  C   C1180     1.0  0.05210  0.96770  0.38820  1.0000
  C   C1181     1.0  0.71877  0.30103  0.72153  1.0000
  C   C1182     1.0  0.38543  0.63437  0.05487  1.0000
  N   N358      1.0  0.91560  0.96760  0.88820  1.0000
  C   C1183     1.0  0.05210  0.08440  0.88820  1.0000
  N   N359      1.0  0.58227  0.30093  0.22153  1.0000
  C   C1184     1.0  0.71877  0.41773  0.22153  1.0000
  N   N360      1.0  0.24893  0.63427  0.55487  1.0000
  C   C1185     1.0  0.38543  0.75107  0.55487  1.0000
  C   C1186     1.0  0.03230  0.94790  0.88820  1.0000
  C   C1187     1.0  0.69897  0.28123  0.22153  1.0000
  C   C1188     1.0  0.36563  0.61457  0.55487  1.0000
