# DDEC6 charges by PACMAN v1.1 (https://github.com/mtap-research/PACMAN-charge/)
data_TEMPAE_FSR_pacman
_symmetry_space_group_name_H-M   'P 1'
_cell_length_a   25.13540000
_cell_length_b   25.13540000
_cell_length_c   25.13540000
_cell_angle_alpha   53.77510000
_cell_angle_beta   53.77510000
_cell_angle_gamma   53.77510000
_symmetry_Int_Tables_number   1
_chemical_formula_structural   Zn4H48C63N3O16
_chemical_formula_sum   'Zn16 H192 C252 N12 O64'
_cell_volume   9595.01770707
_cell_formula_units_Z   4
loop_
 _symmetry_equiv_pos_site_id
 _symmetry_equiv_pos_as_xyz
  1  'x, y, z'
loop_
 _atom_site_type_symbol
 _atom_site_label
 _atom_site_symmetry_multiplicity
 _atom_site_fract_x
 _atom_site_fract_y
 _atom_site_fract_z
 _atom_site_occupancy
 _atom_site_charge
Zn  Zn1  1  0.45147000  0.45147000  0.45147000  1.0 0.9432711691
Zn  Zn2  1  0.95147000  0.95147000  0.95147000  1.0 0.9432711691
Zn  Zn3  1  0.47274000  0.31972000  0.44468000  1.0 0.9725901773
Zn  Zn4  1  0.44468000  0.47274000  0.31972000  1.0 0.9725901773
Zn  Zn5  1  0.31972000  0.44468000  0.47274000  1.0 0.9725901773
Zn  Zn6  1  0.97274000  0.94468000  0.81972000  1.0 0.9725901773
Zn  Zn7  1  0.94468000  0.81972000  0.97274000  1.0 0.9725901773
Zn  Zn8  1  0.81972000  0.97274000  0.94468000  1.0 0.9725901773
Zn  Zn9  1  0.04853000  0.04853000  0.04853000  1.0 0.9432711691
Zn  Zn10  1  0.54853000  0.54853000  0.54853000  1.0 0.9432711691
Zn  Zn11  1  0.02726000  0.05532000  0.18028000  1.0 0.9725901773
Zn  Zn12  1  0.05532000  0.18028000  0.02726000  1.0 0.9725901773
Zn  Zn13  1  0.18028000  0.02726000  0.05532000  1.0 0.9725901773
Zn  Zn14  1  0.52726000  0.68028000  0.55532000  1.0 0.9725901773
Zn  Zn15  1  0.55532000  0.52726000  0.68028000  1.0 0.9725901773
Zn  Zn16  1  0.68028000  0.55532000  0.52726000  1.0 0.9725901773
H  H1  1  0.62140000  0.17690000  0.55140000  1.0 0.1329911274
H  H2  1  0.55140000  0.62140000  0.17690000  1.0 0.1329911274
H  H3  1  0.17690000  0.55140000  0.62140000  1.0 0.1329911274
H  H4  1  0.12140000  0.05140000  0.67690000  1.0 0.1329911274
H  H5  1  0.05140000  0.67690000  0.12140000  1.0 0.1329911274
H  H6  1  0.67690000  0.12140000  0.05140000  1.0 0.1329911274
H  H7  1  0.61760000  0.35860000  0.51150000  1.0 0.1402942255
H  H8  1  0.51150000  0.61760000  0.35860000  1.0 0.1402942255
H  H9  1  0.35860000  0.51150000  0.61760000  1.0 0.1402942255
H  H10  1  0.11760000  0.01150000  0.85860000  1.0 0.1402942255
H  H11  1  0.01150000  0.85860000  0.11760000  1.0 0.1402942255
H  H12  1  0.85860000  0.11760000  0.01150000  1.0 0.1402942255
H  H13  1  0.74720000  0.06270000  0.63190000  1.0 0.1329911274
H  H14  1  0.63190000  0.74720000  0.06270000  1.0 0.1329911274
H  H15  1  0.06270000  0.63190000  0.74720000  1.0 0.1329911274
H  H16  1  0.24720000  0.13190000  0.56270000  1.0 0.1329911274
H  H17  1  0.13190000  0.56270000  0.24720000  1.0 0.1329911274
H  H18  1  0.56270000  0.24720000  0.13190000  1.0 0.1329911274
H  H19  1  0.66790000  0.06850000  0.67660000  1.0 0.1402942255
H  H20  1  0.67660000  0.66790000  0.06850000  1.0 0.1402942255
H  H21  1  0.06850000  0.67660000  0.66790000  1.0 0.1402942255
H  H22  1  0.16790000  0.17660000  0.56850000  1.0 0.1402942255
H  H23  1  0.17660000  0.56850000  0.16790000  1.0 0.1402942255
H  H24  1  0.56850000  0.16790000  0.17660000  1.0 0.1402942255
H  H25  1  0.70640000  0.06480000  0.60130000  1.0 0.1402942255
H  H26  1  0.60130000  0.70640000  0.06480000  1.0 0.1402942255
H  H27  1  0.06480000  0.60130000  0.70640000  1.0 0.1402942255
H  H28  1  0.20640000  0.10130000  0.56480000  1.0 0.1402942255
H  H29  1  0.10130000  0.56480000  0.20640000  1.0 0.1402942255
H  H30  1  0.56480000  0.20640000  0.10130000  1.0 0.1402942255
H  H31  1  0.66370000  0.35960000  0.57180000  1.0 0.1487021243
H  H32  1  0.57180000  0.66370000  0.35960000  1.0 0.1487021243
H  H33  1  0.35960000  0.57180000  0.66370000  1.0 0.1487021243
H  H34  1  0.16370000  0.07180000  0.85960000  1.0 0.1487021243
H  H35  1  0.07180000  0.85960000  0.16370000  1.0 0.1487021243
H  H36  1  0.85960000  0.16370000  0.07180000  1.0 0.1487021243
H  H37  1  0.70330000  0.28830000  0.62090000  1.0 0.1402942255
H  H38  1  0.62090000  0.70330000  0.28830000  1.0 0.1402942255
H  H39  1  0.28830000  0.62090000  0.70330000  1.0 0.1402942255
H  H40  1  0.20330000  0.12090000  0.78830000  1.0 0.1402942255
H  H41  1  0.12090000  0.78830000  0.20330000  1.0 0.1402942255
H  H42  1  0.78830000  0.20330000  0.12090000  1.0 0.1402942255
H  H43  1  0.74370000  0.31490000  0.53830000  1.0 0.1487021243
H  H44  1  0.53830000  0.74370000  0.31490000  1.0 0.1487021243
H  H45  1  0.31490000  0.53830000  0.74370000  1.0 0.1487021243
H  H46  1  0.24370000  0.03830000  0.81490000  1.0 0.1487021243
H  H47  1  0.03830000  0.81490000  0.24370000  1.0 0.1487021243
H  H48  1  0.81490000  0.24370000  0.03830000  1.0 0.1487021243
H  H49  1  0.70540000  0.10390000  0.81610000  1.0 0.1329911274
H  H50  1  0.81610000  0.70540000  0.10390000  1.0 0.1329911274
H  H51  1  0.10390000  0.81610000  0.70540000  1.0 0.1329911274
H  H52  1  0.20540000  0.31610000  0.60390000  1.0 0.1329911274
H  H53  1  0.31610000  0.60390000  0.20540000  1.0 0.1329911274
H  H54  1  0.60390000  0.20540000  0.31610000  1.0 0.1329911274
H  H55  1  0.89480000  0.07540000  0.65550000  1.0 0.1329911274
H  H56  1  0.65550000  0.89480000  0.07540000  1.0 0.1329911274
H  H57  1  0.07540000  0.65550000  0.89480000  1.0 0.1329911274
H  H58  1  0.39480000  0.15550000  0.57540000  1.0 0.1329911274
H  H59  1  0.15550000  0.57540000  0.39480000  1.0 0.1329911274
H  H60  1  0.57540000  0.39480000  0.15550000  1.0 0.1329911274
H  H61  1  0.59980000  0.15500000  0.74910000  1.0 0.1402942255
H  H62  1  0.74910000  0.59980000  0.15500000  1.0 0.1402942255
H  H63  1  0.15500000  0.74910000  0.59980000  1.0 0.1402942255
H  H64  1  0.09980000  0.24910000  0.65500000  1.0 0.1402942255
H  H65  1  0.24910000  0.65500000  0.09980000  1.0 0.1402942255
H  H66  1  0.65500000  0.09980000  0.24910000  1.0 0.1402942255
H  H67  1  0.59940000  0.22870000  0.72470000  1.0 0.1402942255
H  H68  1  0.72470000  0.59940000  0.22870000  1.0 0.1402942255
H  H69  1  0.22870000  0.72470000  0.59940000  1.0 0.1402942255
H  H70  1  0.09940000  0.22470000  0.72870000  1.0 0.1402942255
H  H71  1  0.22470000  0.72870000  0.09940000  1.0 0.1402942255
H  H72  1  0.72870000  0.09940000  0.22470000  1.0 0.1402942255
H  H73  1  0.59840000  0.17190000  0.80080000  1.0 0.1487021243
H  H74  1  0.80080000  0.59840000  0.17190000  1.0 0.1487021243
H  H75  1  0.17190000  0.80080000  0.59840000  1.0 0.1487021243
H  H76  1  0.09840000  0.30080000  0.67190000  1.0 0.1487021243
H  H77  1  0.30080000  0.67190000  0.09840000  1.0 0.1487021243
H  H78  1  0.67190000  0.09840000  0.30080000  1.0 0.1487021243
H  H79  1  0.86750000  0.10460000  0.53750000  1.0 0.1487021243
H  H80  1  0.53750000  0.86750000  0.10460000  1.0 0.1487021243
H  H81  1  0.10460000  0.53750000  0.86750000  1.0 0.1487021243
H  H82  1  0.36750000  0.03750000  0.60460000  1.0 0.1487021243
H  H83  1  0.03750000  0.60460000  0.36750000  1.0 0.1487021243
H  H84  1  0.60460000  0.36750000  0.03750000  1.0 0.1487021243
H  H85  1  0.89670000  0.14740000  0.53420000  1.0 0.1487021243
H  H86  1  0.53420000  0.89670000  0.14740000  1.0 0.1487021243
H  H87  1  0.14740000  0.53420000  0.89670000  1.0 0.1487021243
H  H88  1  0.39670000  0.03420000  0.64740000  1.0 0.1487021243
H  H89  1  0.03420000  0.64740000  0.39670000  1.0 0.1487021243
H  H90  1  0.64740000  0.39670000  0.03420000  1.0 0.1487021243
H  H91  1  0.82740000  0.18670000  0.51920000  1.0 0.1329911274
H  H92  1  0.51920000  0.82740000  0.18670000  1.0 0.1329911274
H  H93  1  0.18670000  0.51920000  0.82740000  1.0 0.1329911274
H  H94  1  0.32740000  0.01920000  0.68670000  1.0 0.1329911274
H  H95  1  0.01920000  0.68670000  0.32740000  1.0 0.1329911274
H  H96  1  0.68670000  0.32740000  0.01920000  1.0 0.1329911274
H  H97  1  0.87860000  0.94860000  0.32310000  1.0 0.1329911274
H  H98  1  0.94860000  0.32310000  0.87860000  1.0 0.1329911274
H  H99  1  0.32310000  0.87860000  0.94860000  1.0 0.1329911274
H  H100  1  0.37860000  0.82310000  0.44860000  1.0 0.1329911274
H  H101  1  0.44860000  0.37860000  0.82310000  1.0 0.1329911274
H  H102  1  0.82310000  0.44860000  0.37860000  1.0 0.1329911274
H  H103  1  0.88240000  0.98850000  0.14140000  1.0 0.1402942255
H  H104  1  0.98850000  0.14140000  0.88240000  1.0 0.1402942255
H  H105  1  0.14140000  0.88240000  0.98850000  1.0 0.1402942255
H  H106  1  0.38240000  0.64140000  0.48850000  1.0 0.1402942255
H  H107  1  0.48850000  0.38240000  0.64140000  1.0 0.1402942255
H  H108  1  0.64140000  0.48850000  0.38240000  1.0 0.1402942255
H  H109  1  0.75280000  0.86810000  0.43730000  1.0 0.1329911274
H  H110  1  0.86810000  0.43730000  0.75280000  1.0 0.1329911274
H  H111  1  0.43730000  0.75280000  0.86810000  1.0 0.1329911274
H  H112  1  0.25280000  0.93730000  0.36810000  1.0 0.1329911274
H  H113  1  0.36810000  0.25280000  0.93730000  1.0 0.1329911274
H  H114  1  0.93730000  0.36810000  0.25280000  1.0 0.1329911274
H  H115  1  0.83210000  0.82340000  0.43150000  1.0 0.1402942255
H  H116  1  0.82340000  0.43150000  0.83210000  1.0 0.1402942255
H  H117  1  0.43150000  0.83210000  0.82340000  1.0 0.1402942255
H  H118  1  0.33210000  0.93150000  0.32340000  1.0 0.1402942255
H  H119  1  0.32340000  0.33210000  0.93150000  1.0 0.1402942255
H  H120  1  0.93150000  0.32340000  0.33210000  1.0 0.1402942255
H  H121  1  0.79360000  0.89870000  0.43520000  1.0 0.1402942255
H  H122  1  0.89870000  0.43520000  0.79360000  1.0 0.1402942255
H  H123  1  0.43520000  0.79360000  0.89870000  1.0 0.1402942255
H  H124  1  0.29360000  0.93520000  0.39870000  1.0 0.1402942255
H  H125  1  0.39870000  0.29360000  0.93520000  1.0 0.1402942255
H  H126  1  0.93520000  0.39870000  0.29360000  1.0 0.1402942255
H  H127  1  0.83630000  0.92820000  0.14040000  1.0 0.1487021243
H  H128  1  0.92820000  0.14040000  0.83630000  1.0 0.1487021243
H  H129  1  0.14040000  0.83630000  0.92820000  1.0 0.1487021243
H  H130  1  0.33630000  0.64040000  0.42820000  1.0 0.1487021243
H  H131  1  0.42820000  0.33630000  0.64040000  1.0 0.1487021243
H  H132  1  0.64040000  0.42820000  0.33630000  1.0 0.1487021243
H  H133  1  0.79670000  0.87910000  0.21170000  1.0 0.1402942255
H  H134  1  0.87910000  0.21170000  0.79670000  1.0 0.1402942255
H  H135  1  0.21170000  0.79670000  0.87910000  1.0 0.1402942255
H  H136  1  0.29670000  0.71170000  0.37910000  1.0 0.1402942255
H  H137  1  0.37910000  0.29670000  0.71170000  1.0 0.1402942255
H  H138  1  0.71170000  0.37910000  0.29670000  1.0 0.1402942255
H  H139  1  0.75630000  0.96170000  0.18510000  1.0 0.1487021243
H  H140  1  0.96170000  0.18510000  0.75630000  1.0 0.1487021243
H  H141  1  0.18510000  0.75630000  0.96170000  1.0 0.1487021243
H  H142  1  0.25630000  0.68510000  0.46170000  1.0 0.1487021243
H  H143  1  0.46170000  0.25630000  0.68510000  1.0 0.1487021243
H  H144  1  0.68510000  0.46170000  0.25630000  1.0 0.1487021243
H  H145  1  0.79460000  0.68390000  0.39610000  1.0 0.1329911274
H  H146  1  0.68390000  0.39610000  0.79460000  1.0 0.1329911274
H  H147  1  0.39610000  0.79460000  0.68390000  1.0 0.1329911274
H  H148  1  0.29460000  0.89610000  0.18390000  1.0 0.1329911274
H  H149  1  0.18390000  0.29460000  0.89610000  1.0 0.1329911274
H  H150  1  0.89610000  0.18390000  0.29460000  1.0 0.1329911274
H  H151  1  0.60520000  0.84450000  0.42460000  1.0 0.1329911274
H  H152  1  0.84450000  0.42460000  0.60520000  1.0 0.1329911274
H  H153  1  0.42460000  0.60520000  0.84450000  1.0 0.1329911274
H  H154  1  0.10520000  0.92460000  0.34450000  1.0 0.1329911274
H  H155  1  0.34450000  0.10520000  0.92460000  1.0 0.1329911274
H  H156  1  0.92460000  0.34450000  0.10520000  1.0 0.1329911274
H  H157  1  0.90020000  0.75090000  0.34500000  1.0 0.1402942255
H  H158  1  0.75090000  0.34500000  0.90020000  1.0 0.1402942255
H  H159  1  0.34500000  0.90020000  0.75090000  1.0 0.1402942255
H  H160  1  0.40020000  0.84500000  0.25090000  1.0 0.1402942255
H  H161  1  0.25090000  0.40020000  0.84500000  1.0 0.1402942255
H  H162  1  0.84500000  0.25090000  0.40020000  1.0 0.1402942255
H  H163  1  0.90060000  0.77530000  0.27130000  1.0 0.1402942255
H  H164  1  0.77530000  0.27130000  0.90060000  1.0 0.1402942255
H  H165  1  0.27130000  0.90060000  0.77530000  1.0 0.1402942255
H  H166  1  0.40060000  0.77130000  0.27530000  1.0 0.1402942255
H  H167  1  0.27530000  0.40060000  0.77130000  1.0 0.1402942255
H  H168  1  0.77130000  0.27530000  0.40060000  1.0 0.1402942255
H  H169  1  0.90160000  0.69920000  0.32810000  1.0 0.1487021243
H  H170  1  0.69920000  0.32810000  0.90160000  1.0 0.1487021243
H  H171  1  0.32810000  0.90160000  0.69920000  1.0 0.1487021243
H  H172  1  0.40160000  0.82810000  0.19920000  1.0 0.1487021243
H  H173  1  0.19920000  0.40160000  0.82810000  1.0 0.1487021243
H  H174  1  0.82810000  0.19920000  0.40160000  1.0 0.1487021243
H  H175  1  0.63250000  0.96250000  0.39540000  1.0 0.1487021243
H  H176  1  0.96250000  0.39540000  0.63250000  1.0 0.1487021243
H  H177  1  0.39540000  0.63250000  0.96250000  1.0 0.1487021243
H  H178  1  0.13250000  0.89540000  0.46250000  1.0 0.1487021243
H  H179  1  0.46250000  0.13250000  0.89540000  1.0 0.1487021243
H  H180  1  0.89540000  0.46250000  0.13250000  1.0 0.1487021243
H  H181  1  0.60330000  0.96580000  0.35260000  1.0 0.1487021243
H  H182  1  0.96580000  0.35260000  0.60330000  1.0 0.1487021243
H  H183  1  0.35260000  0.60330000  0.96580000  1.0 0.1487021243
H  H184  1  0.10330000  0.85260000  0.46580000  1.0 0.1487021243
H  H185  1  0.46580000  0.10330000  0.85260000  1.0 0.1487021243
H  H186  1  0.85260000  0.46580000  0.10330000  1.0 0.1487021243
H  H187  1  0.67260000  0.98080000  0.31330000  1.0 0.1329911274
H  H188  1  0.98080000  0.31330000  0.67260000  1.0 0.1329911274
H  H189  1  0.31330000  0.67260000  0.98080000  1.0 0.1329911274
H  H190  1  0.17260000  0.81330000  0.48080000  1.0 0.1329911274
H  H191  1  0.48080000  0.17260000  0.81330000  1.0 0.1329911274
H  H192  1  0.81330000  0.48080000  0.17260000  1.0 0.1329911274
C  C1  1  0.55926000  0.31546000  0.49226000  1.0 0.5983493417
C  C2  1  0.49226000  0.55926000  0.31546000  1.0 0.5983493417
C  C3  1  0.31546000  0.49226000  0.55926000  1.0 0.5983493417
C  C4  1  0.05926000  0.99226000  0.81546000  1.0 0.5983493417
C  C5  1  0.99226000  0.81546000  0.05926000  1.0 0.5983493417
C  C6  1  0.81546000  0.05926000  0.99226000  1.0 0.5983493417
C  C7  1  0.61095000  0.27455000  0.52705000  1.0 -0.0304380777
C  C8  1  0.52705000  0.61095000  0.27455000  1.0 -0.0304380777
C  C9  1  0.27455000  0.52705000  0.61095000  1.0 -0.0304380777
C  C10  1  0.11095000  0.02705000  0.77455000  1.0 -0.0304380777
C  C11  1  0.02705000  0.77455000  0.11095000  1.0 -0.0304380777
C  C12  1  0.77455000  0.11095000  0.02705000  1.0 -0.0304380777
C  C13  1  0.63420000  0.20080000  0.55700000  1.0 -0.1774993133
C  C14  1  0.55700000  0.63420000  0.20080000  1.0 -0.1774993133
C  C15  1  0.20080000  0.55700000  0.63420000  1.0 -0.1774993133
C  C16  1  0.13420000  0.05700000  0.70080000  1.0 -0.1774993133
C  C17  1  0.05700000  0.70080000  0.13420000  1.0 -0.1774993133
C  C18  1  0.70080000  0.13420000  0.05700000  1.0 -0.1774993133
C  C19  1  0.67705000  0.16335000  0.59555000  1.0 0.1201652036
C  C20  1  0.59555000  0.67705000  0.16335000  1.0 0.1201652036
C  C21  1  0.16335000  0.59555000  0.67705000  1.0 0.1201652036
C  C22  1  0.17705000  0.09555000  0.66335000  1.0 0.1201652036
C  C23  1  0.09555000  0.66335000  0.17705000  1.0 0.1201652036
C  C24  1  0.66335000  0.17705000  0.09555000  1.0 0.1201652036
C  C25  1  0.69720000  0.19780000  0.60320000  1.0 -0.0304380777
C  C26  1  0.60320000  0.69720000  0.19780000  1.0 -0.0304380777
C  C27  1  0.19780000  0.60320000  0.69720000  1.0 -0.0304380777
C  C28  1  0.19720000  0.10320000  0.69780000  1.0 -0.0304380777
C  C29  1  0.10320000  0.69780000  0.19720000  1.0 -0.0304380777
C  C30  1  0.69780000  0.19720000  0.10320000  1.0 -0.0304380777
C  C31  1  0.67612000  0.27232000  0.57052000  1.0 0.1402942255
C  C32  1  0.57052000  0.67612000  0.27232000  1.0 0.1402942255
C  C33  1  0.27232000  0.57052000  0.67612000  1.0 0.1402942255
C  C34  1  0.17612000  0.07052000  0.77232000  1.0 0.1402942255
C  C35  1  0.07052000  0.77232000  0.17612000  1.0 0.1402942255
C  C36  1  0.77232000  0.17612000  0.07052000  1.0 0.1402942255
C  C37  1  0.63252000  0.30942000  0.53292000  1.0 -0.169489602
C  C38  1  0.53292000  0.63252000  0.30942000  1.0 -0.169489602
C  C39  1  0.30942000  0.53292000  0.63252000  1.0 -0.169489602
C  C40  1  0.13252000  0.03292000  0.80942000  1.0 -0.169489602
C  C41  1  0.03292000  0.80942000  0.13252000  1.0 -0.169489602
C  C42  1  0.80942000  0.13252000  0.03292000  1.0 -0.169489602
C  C43  1  0.70204000  0.08224000  0.62944000  1.0 -0.4170752078
C  C44  1  0.62944000  0.70204000  0.08224000  1.0 -0.4170752078
C  C45  1  0.08224000  0.62944000  0.70204000  1.0 -0.4170752078
C  C46  1  0.20204000  0.12944000  0.58224000  1.0 -0.4170752078
C  C47  1  0.12944000  0.58224000  0.20204000  1.0 -0.4170752078
C  C48  1  0.58224000  0.20204000  0.12944000  1.0 -0.4170752078
C  C49  1  0.69880000  0.31240000  0.57580000  1.0 -0.4502138307
C  C50  1  0.57580000  0.69880000  0.31240000  1.0 -0.4502138307
C  C51  1  0.31240000  0.57580000  0.69880000  1.0 -0.4502138307
C  C52  1  0.19880000  0.07580000  0.81240000  1.0 -0.4502138307
C  C53  1  0.07580000  0.81240000  0.19880000  1.0 -0.4502138307
C  C54  1  0.81240000  0.19880000  0.07580000  1.0 -0.4502138307
C  C55  1  0.84230000  0.04430000  0.79460000  1.0 0.6086438984
C  C56  1  0.79460000  0.84230000  0.04430000  1.0 0.6086438984
C  C57  1  0.04430000  0.79460000  0.84230000  1.0 0.6086438984
C  C58  1  0.34230000  0.29460000  0.54430000  1.0 0.6086438984
C  C59  1  0.29460000  0.54430000  0.34230000  1.0 0.6086438984
C  C60  1  0.54430000  0.34230000  0.29460000  1.0 0.6086438984
C  C61  1  0.80431000  0.08551000  0.74401000  1.0 -0.0304380777
C  C62  1  0.74401000  0.80431000  0.08551000  1.0 -0.0304380777
C  C63  1  0.08551000  0.74401000  0.80431000  1.0 -0.0304380777
C  C64  1  0.30431000  0.24401000  0.58551000  1.0 -0.0304380777
C  C65  1  0.24401000  0.58551000  0.30431000  1.0 -0.0304380777
C  C66  1  0.58551000  0.30431000  0.24401000  1.0 -0.0304380777
C  C67  1  0.73169000  0.11159000  0.76799000  1.0 -0.1580732338
C  C68  1  0.76799000  0.73169000  0.11159000  1.0 -0.1580732338
C  C69  1  0.11159000  0.76799000  0.73169000  1.0 -0.1580732338
C  C70  1  0.23169000  0.26799000  0.61159000  1.0 -0.1580732338
C  C71  1  0.26799000  0.61159000  0.23169000  1.0 -0.1580732338
C  C72  1  0.61159000  0.23169000  0.26799000  1.0 -0.1580732338
C  C73  1  0.69714000  0.14864000  0.72304000  1.0 0.1201652036
C  C74  1  0.72304000  0.69714000  0.14864000  1.0 0.1201652036
C  C75  1  0.14864000  0.72304000  0.69714000  1.0 0.1201652036
C  C76  1  0.19714000  0.22304000  0.64864000  1.0 0.1201652036
C  C77  1  0.22304000  0.64864000  0.19714000  1.0 0.1201652036
C  C78  1  0.64864000  0.19714000  0.22304000  1.0 0.1201652036
C  C79  1  0.73523000  0.15823000  0.65253000  1.0 -0.0304380777
C  C80  1  0.65253000  0.73523000  0.15823000  1.0 -0.0304380777
C  C81  1  0.15823000  0.65253000  0.73523000  1.0 -0.0304380777
C  C82  1  0.23523000  0.15253000  0.65823000  1.0 -0.0304380777
C  C83  1  0.15253000  0.65823000  0.23523000  1.0 -0.0304380777
C  C84  1  0.65823000  0.23523000  0.15253000  1.0 -0.0304380777
C  C85  1  0.80971000  0.13031000  0.62631000  1.0 0.1402942255
C  C86  1  0.62631000  0.80971000  0.13031000  1.0 0.1402942255
C  C87  1  0.13031000  0.62631000  0.80971000  1.0 0.1402942255
C  C88  1  0.30971000  0.12631000  0.63031000  1.0 0.1402942255
C  C89  1  0.12631000  0.63031000  0.30971000  1.0 0.1402942255
C  C90  1  0.63031000  0.30971000  0.12631000  1.0 0.1402942255
C  C91  1  0.84547000  0.09367000  0.67207000  1.0 -0.1774993133
C  C92  1  0.67207000  0.84547000  0.09367000  1.0 -0.1774993133
C  C93  1  0.09367000  0.67207000  0.84547000  1.0 -0.1774993133
C  C94  1  0.34547000  0.17207000  0.59367000  1.0 -0.1774993133
C  C95  1  0.17207000  0.59367000  0.34547000  1.0 -0.1774993133
C  C96  1  0.59367000  0.34547000  0.17207000  1.0 -0.1774993133
C  C97  1  0.61619000  0.17879000  0.75209000  1.0 -0.4329419285
C  C98  1  0.75209000  0.61619000  0.17879000  1.0 -0.4359531015
C  C99  1  0.17879000  0.75209000  0.61619000  1.0 -0.4329419285
C  C100  1  0.11619000  0.25209000  0.67879000  1.0 -0.4329419285
C  C101  1  0.25209000  0.67879000  0.11619000  1.0 -0.4329419285
C  C102  1  0.67879000  0.11619000  0.25209000  1.0 -0.4329419285
C  C103  1  0.85453000  0.14343000  0.54683000  1.0 -0.4329419285
C  C104  1  0.54683000  0.85453000  0.14343000  1.0 -0.4329419285
C  C105  1  0.14343000  0.54683000  0.85453000  1.0 -0.4329419285
C  C106  1  0.35453000  0.04683000  0.64343000  1.0 -0.4329419285
C  C107  1  0.04683000  0.64343000  0.35453000  1.0 -0.4329419285
C  C108  1  0.64343000  0.35453000  0.04683000  1.0 -0.4329419285
C  C109  1  0.54640000  0.15620000  0.49230000  1.0 0.2709781783
C  C110  1  0.49230000  0.54640000  0.15620000  1.0 0.2709781783
C  C111  1  0.15620000  0.49230000  0.54640000  1.0 0.2807748606
C  C112  1  0.04640000  0.99230000  0.65620000  1.0 0.2709781783
C  C113  1  0.99230000  0.65620000  0.04640000  1.0 0.2709781783
C  C114  1  0.65620000  0.04640000  0.99230000  1.0 0.2709781783
C  C115  1  0.54750000  0.08040000  0.46350000  1.0 -0.0822156909
C  C116  1  0.46350000  0.54750000  0.08040000  1.0 -0.0822156909
C  C117  1  0.08040000  0.46350000  0.54750000  1.0 -0.0892193675
C  C118  1  0.04750000  0.96350000  0.58040000  1.0 -0.0822156909
C  C119  1  0.96350000  0.58040000  0.04750000  1.0 -0.0822156909
C  C120  1  0.58040000  0.04750000  0.96350000  1.0 -0.0822156909
C  C121  1  0.57260000  0.00960000  0.54850000  1.0 -0.1317613721
C  C122  1  0.54850000  0.57260000  0.00960000  1.0 -0.1117259528
C  C123  1  0.00960000  0.54850000  0.57260000  1.0 -0.1117259528
C  C124  1  0.07260000  0.04850000  0.50960000  1.0 -0.1317613721
C  C125  1  0.04850000  0.50960000  0.07260000  1.0 -0.1187275906
C  C126  1  0.50960000  0.07260000  0.04850000  1.0 -0.1317613721
C  C127  1  0.94074000  0.00774000  0.18454000  1.0 0.5983493417
C  C128  1  0.00774000  0.18454000  0.94074000  1.0 0.5983493417
C  C129  1  0.18454000  0.94074000  0.00774000  1.0 0.5983493417
C  C130  1  0.44074000  0.68454000  0.50774000  1.0 0.5983493417
C  C131  1  0.50774000  0.44074000  0.68454000  1.0 0.5983493417
C  C132  1  0.68454000  0.50774000  0.44074000  1.0 0.5983493417
C  C133  1  0.88905000  0.97295000  0.22545000  1.0 -0.0304380777
C  C134  1  0.97295000  0.22545000  0.88905000  1.0 -0.0304380777
C  C135  1  0.22545000  0.88905000  0.97295000  1.0 -0.0304380777
C  C136  1  0.38905000  0.72545000  0.47295000  1.0 -0.0304380777
C  C137  1  0.47295000  0.38905000  0.72545000  1.0 -0.0304380777
C  C138  1  0.72545000  0.47295000  0.38905000  1.0 -0.0304380777
C  C139  1  0.86580000  0.94300000  0.29920000  1.0 -0.1774993133
C  C140  1  0.94300000  0.29920000  0.86580000  1.0 -0.1774993133
C  C141  1  0.29920000  0.86580000  0.94300000  1.0 -0.1774993133
C  C142  1  0.36580000  0.79920000  0.44300000  1.0 -0.1774993133
C  C143  1  0.44300000  0.36580000  0.79920000  1.0 -0.1774993133
C  C144  1  0.79920000  0.44300000  0.36580000  1.0 -0.1774993133
C  C145  1  0.82295000  0.90445000  0.33665000  1.0 0.1201652036
C  C146  1  0.90445000  0.33665000  0.82295000  1.0 0.1201652036
C  C147  1  0.33665000  0.82295000  0.90445000  1.0 0.1201652036
C  C148  1  0.32295000  0.83665000  0.40445000  1.0 0.1201652036
C  C149  1  0.40445000  0.32295000  0.83665000  1.0 0.1201652036
C  C150  1  0.83665000  0.40445000  0.32295000  1.0 0.1201652036
C  C151  1  0.80280000  0.89680000  0.30220000  1.0 -0.0304380777
C  C152  1  0.89680000  0.30220000  0.80280000  1.0 -0.0304380777
C  C153  1  0.30220000  0.80280000  0.89680000  1.0 -0.0304380777
C  C154  1  0.30280000  0.80220000  0.39680000  1.0 -0.0304380777
C  C155  1  0.39680000  0.30280000  0.80220000  1.0 -0.0304380777
C  C156  1  0.80220000  0.39680000  0.30280000  1.0 -0.0304380777
C  C157  1  0.82388000  0.92948000  0.22768000  1.0 0.1402942255
C  C158  1  0.92948000  0.22768000  0.82388000  1.0 0.1402942255
C  C159  1  0.22768000  0.82388000  0.92948000  1.0 0.1402942255
C  C160  1  0.32388000  0.72768000  0.42948000  1.0 0.1402942255
C  C161  1  0.42948000  0.32388000  0.72768000  1.0 0.1402942255
C  C162  1  0.72768000  0.42948000  0.32388000  1.0 0.1402942255
C  C163  1  0.86748000  0.96708000  0.19058000  1.0 -0.169489602
C  C164  1  0.96708000  0.19058000  0.86748000  1.0 -0.169489602
C  C165  1  0.19058000  0.86748000  0.96708000  1.0 -0.169489602
C  C166  1  0.36748000  0.69058000  0.46708000  1.0 -0.169489602
C  C167  1  0.46708000  0.36748000  0.69058000  1.0 -0.169489602
C  C168  1  0.69058000  0.46708000  0.36748000  1.0 -0.169489602
C  C169  1  0.79796000  0.87056000  0.41776000  1.0 -0.4170752078
C  C170  1  0.87056000  0.41776000  0.79796000  1.0 -0.4170752078
C  C171  1  0.41776000  0.79796000  0.87056000  1.0 -0.4170752078
C  C172  1  0.29796000  0.91776000  0.37056000  1.0 -0.4170752078
C  C173  1  0.37056000  0.29796000  0.91776000  1.0 -0.4170752078
C  C174  1  0.91776000  0.37056000  0.29796000  1.0 -0.4170752078
C  C175  1  0.80120000  0.92420000  0.18760000  1.0 -0.4502138307
C  C176  1  0.92420000  0.18760000  0.80120000  1.0 -0.4502138307
C  C177  1  0.18760000  0.80120000  0.92420000  1.0 -0.4502138307
C  C178  1  0.30120000  0.68760000  0.42420000  1.0 -0.4502138307
C  C179  1  0.42420000  0.30120000  0.68760000  1.0 -0.4502138307
C  C180  1  0.68760000  0.42420000  0.30120000  1.0 -0.4502138307
C  C181  1  0.65770000  0.70540000  0.45570000  1.0 0.6086438984
C  C182  1  0.70540000  0.45570000  0.65770000  1.0 0.6086438984
C  C183  1  0.45570000  0.65770000  0.70540000  1.0 0.6086438984
C  C184  1  0.15770000  0.95570000  0.20540000  1.0 0.6086438984
C  C185  1  0.20540000  0.15770000  0.95570000  1.0 0.6086438984
C  C186  1  0.95570000  0.20540000  0.15770000  1.0 0.6086438984
C  C187  1  0.69569000  0.75599000  0.41449000  1.0 -0.0304380777
C  C188  1  0.75599000  0.41449000  0.69569000  1.0 -0.0304380777
C  C189  1  0.41449000  0.69569000  0.75599000  1.0 -0.0304380777
C  C190  1  0.19569000  0.91449000  0.25599000  1.0 -0.0304380777
C  C191  1  0.25599000  0.19569000  0.91449000  1.0 -0.0304380777
C  C192  1  0.91449000  0.25599000  0.19569000  1.0 -0.0304380777
C  C193  1  0.76831000  0.73201000  0.38841000  1.0 -0.1580732338
C  C194  1  0.73201000  0.38841000  0.76831000  1.0 -0.1580732338
C  C195  1  0.38841000  0.76831000  0.73201000  1.0 -0.1580732338
C  C196  1  0.26831000  0.88841000  0.23201000  1.0 -0.1580732338
C  C197  1  0.23201000  0.26831000  0.88841000  1.0 -0.1580732338
C  C198  1  0.88841000  0.23201000  0.26831000  1.0 -0.1580732338
C  C199  1  0.80286000  0.77696000  0.35136000  1.0 0.1201652036
C  C200  1  0.77696000  0.35136000  0.80286000  1.0 0.1201652036
C  C201  1  0.35136000  0.80286000  0.77696000  1.0 0.1201652036
C  C202  1  0.30286000  0.85136000  0.27696000  1.0 0.1201652036
C  C203  1  0.27696000  0.30286000  0.85136000  1.0 0.1201652036
C  C204  1  0.85136000  0.27696000  0.30286000  1.0 0.1201652036
C  C205  1  0.76477000  0.84747000  0.34177000  1.0 -0.0304380777
C  C206  1  0.84747000  0.34177000  0.76477000  1.0 -0.0304380777
C  C207  1  0.34177000  0.76477000  0.84747000  1.0 -0.0304380777
C  C208  1  0.26477000  0.84177000  0.34747000  1.0 -0.0304380777
C  C209  1  0.34747000  0.26477000  0.84177000  1.0 -0.0304380777
C  C210  1  0.84177000  0.34747000  0.26477000  1.0 -0.0304380777
C  C211  1  0.69029000  0.87369000  0.36969000  1.0 0.1402942255
C  C212  1  0.87369000  0.36969000  0.69029000  1.0 0.1402942255
C  C213  1  0.36969000  0.69029000  0.87369000  1.0 0.1402942255
C  C214  1  0.19029000  0.86969000  0.37369000  1.0 0.1402942255
C  C215  1  0.37369000  0.19029000  0.86969000  1.0 0.1402942255
C  C216  1  0.86969000  0.37369000  0.19029000  1.0 0.1402942255
C  C217  1  0.65453000  0.82793000  0.40633000  1.0 -0.1774993133
C  C218  1  0.82793000  0.40633000  0.65453000  1.0 -0.1774993133
C  C219  1  0.40633000  0.65453000  0.82793000  1.0 -0.1774993133
C  C220  1  0.15453000  0.90633000  0.32793000  1.0 -0.1774993133
C  C221  1  0.32793000  0.15453000  0.90633000  1.0 -0.1774993133
C  C222  1  0.90633000  0.32793000  0.15453000  1.0 -0.1774993133
C  C223  1  0.88381000  0.74791000  0.32121000  1.0 -0.4359531015
C  C224  1  0.74791000  0.32121000  0.88381000  1.0 -0.4329419285
C  C225  1  0.32121000  0.88381000  0.74791000  1.0 -0.4329419285
C  C226  1  0.38381000  0.82121000  0.24791000  1.0 -0.4359531015
C  C227  1  0.24791000  0.38381000  0.82121000  1.0 -0.4329419285
C  C228  1  0.82121000  0.24791000  0.38381000  1.0 -0.4359531015
C  C229  1  0.64547000  0.95317000  0.35657000  1.0 -0.4329419285
C  C230  1  0.95317000  0.35657000  0.64547000  1.0 -0.4329419285
C  C231  1  0.35657000  0.64547000  0.95317000  1.0 -0.4329419285
C  C232  1  0.14547000  0.85657000  0.45317000  1.0 -0.4329419285
C  C233  1  0.45317000  0.14547000  0.85657000  1.0 -0.4329419285
C  C234  1  0.85657000  0.45317000  0.14547000  1.0 -0.4329419285
C  C235  1  0.95360000  0.00770000  0.34380000  1.0 0.2709781783
C  C236  1  0.00770000  0.34380000  0.95360000  1.0 0.2807748606
C  C237  1  0.34380000  0.95360000  0.00770000  1.0 0.2709781783
C  C238  1  0.45360000  0.84380000  0.50770000  1.0 0.2709781783
C  C239  1  0.50770000  0.45360000  0.84380000  1.0 0.2709781783
C  C240  1  0.84380000  0.50770000  0.45360000  1.0 0.2807748606
C  C241  1  0.95250000  0.03650000  0.41960000  1.0 -0.0822156909
C  C242  1  0.03650000  0.41960000  0.95250000  1.0 -0.0822156909
C  C243  1  0.41960000  0.95250000  0.03650000  1.0 -0.0822156909
C  C244  1  0.45250000  0.91960000  0.53650000  1.0 -0.0892193675
C  C245  1  0.53650000  0.45250000  0.91960000  1.0 -0.0822156909
C  C246  1  0.91960000  0.53650000  0.45250000  1.0 -0.0892193675
C  C247  1  0.92740000  0.95150000  0.49040000  1.0 -0.1187275906
C  C248  1  0.95150000  0.49040000  0.92740000  1.0 -0.1117259528
C  C249  1  0.49040000  0.92740000  0.95150000  1.0 -0.1117259528
C  C250  1  0.42740000  0.99040000  0.45150000  1.0 -0.1317613721
C  C251  1  0.45150000  0.42740000  0.99040000  1.0 -0.1317613721
C  C252  1  0.99040000  0.45150000  0.42740000  1.0 -0.1187275906
N  N1  1  0.56480000  0.08610000  0.50710000  1.0 -0.023585851
N  N2  1  0.50710000  0.56480000  0.08610000  1.0 -0.023585851
N  N3  1  0.08610000  0.50710000  0.56480000  1.0 -0.0304380777
N  N4  1  0.06480000  0.00710000  0.58610000  1.0 -0.023585851
N  N5  1  0.00710000  0.58610000  0.06480000  1.0 -0.0304380777
N  N6  1  0.58610000  0.06480000  0.00710000  1.0 -0.023585851
N  N7  1  0.93520000  0.99290000  0.41390000  1.0 -0.023585851
N  N8  1  0.99290000  0.41390000  0.93520000  1.0 -0.0304380777
N  N9  1  0.41390000  0.93520000  0.99290000  1.0 -0.0304380777
N  N10  1  0.43520000  0.91390000  0.49290000  1.0 -0.023585851
N  N11  1  0.49290000  0.43520000  0.91390000  1.0 -0.023585851
N  N12  1  0.91390000  0.49290000  0.43520000  1.0 -0.023585851
O  O1  1  0.53719000  0.28305000  0.49022000  1.0 -0.5516282727
O  O2  1  0.49022000  0.53719000  0.28305000  1.0 -0.5516282727
O  O3  1  0.28305000  0.49022000  0.53719000  1.0 -0.5516282727
O  O4  1  0.03719000  0.99022000  0.78305000  1.0 -0.5516282727
O  O5  1  0.99022000  0.78305000  0.03719000  1.0 -0.5516282727
O  O6  1  0.78305000  0.03719000  0.99022000  1.0 -0.5516282727
O  O7  1  0.53891000  0.38289000  0.46759000  1.0 -0.535122639
O  O8  1  0.46759000  0.53891000  0.38289000  1.0 -0.535122639
O  O9  1  0.38289000  0.46759000  0.53891000  1.0 -0.535122639
O  O10  1  0.03891000  0.96759000  0.88289000  1.0 -0.535122639
O  O11  1  0.96759000  0.88289000  0.03891000  1.0 -0.535122639
O  O12  1  0.88289000  0.03891000  0.96759000  1.0 -0.535122639
O  O13  1  0.91049000  0.01569000  0.76789000  1.0 -0.5118622343
O  O14  1  0.76789000  0.91049000  0.01569000  1.0 -0.5118622343
O  O15  1  0.01569000  0.76789000  0.91049000  1.0 -0.5118622343
O  O16  1  0.41049000  0.26789000  0.51569000  1.0 -0.5118622343
O  O17  1  0.26789000  0.51569000  0.41049000  1.0 -0.5118622343
O  O18  1  0.51569000  0.41049000  0.26789000  1.0 -0.5118622343
O  O19  1  0.79963000  0.03543000  0.86093000  1.0 -0.4688795194
O  O20  1  0.86093000  0.79963000  0.03543000  1.0 -0.4688795194
O  O21  1  0.03543000  0.86093000  0.79963000  1.0 -0.4688795194
O  O22  1  0.29963000  0.36093000  0.53543000  1.0 -0.4688795194
O  O23  1  0.36093000  0.53543000  0.29963000  1.0 -0.4688795194
O  O24  1  0.53543000  0.29963000  0.36093000  1.0 -0.4688795194
O  O25  1  0.42159000  0.42159000  0.42159000  1.0 -1.0328240305
O  O26  1  0.92159000  0.92159000  0.92159000  1.0 -1.0328240305
O  O27  1  0.51319000  0.21079000  0.45019000  1.0 -0.3570119411
O  O28  1  0.45019000  0.51319000  0.21079000  1.0 -0.3570119411
O  O29  1  0.21079000  0.45019000  0.51319000  1.0 -0.3570119411
O  O30  1  0.01319000  0.95019000  0.71079000  1.0 -0.3570119411
O  O31  1  0.95019000  0.71079000  0.01319000  1.0 -0.3570119411
O  O32  1  0.71079000  0.01319000  0.95019000  1.0 -0.3549376935
O  O33  1  0.96281000  0.00978000  0.21695000  1.0 -0.5516282727
O  O34  1  0.00978000  0.21695000  0.96281000  1.0 -0.5516282727
O  O35  1  0.21695000  0.96281000  0.00978000  1.0 -0.5516282727
O  O36  1  0.46281000  0.71695000  0.50978000  1.0 -0.5516282727
O  O37  1  0.50978000  0.46281000  0.71695000  1.0 -0.5516282727
O  O38  1  0.71695000  0.50978000  0.46281000  1.0 -0.5516282727
O  O39  1  0.96109000  0.03241000  0.11711000  1.0 -0.535122639
O  O40  1  0.03241000  0.11711000  0.96109000  1.0 -0.535122639
O  O41  1  0.11711000  0.96109000  0.03241000  1.0 -0.535122639
O  O42  1  0.46109000  0.61711000  0.53241000  1.0 -0.535122639
O  O43  1  0.53241000  0.46109000  0.61711000  1.0 -0.535122639
O  O44  1  0.61711000  0.53241000  0.46109000  1.0 -0.535122639
O  O45  1  0.58951000  0.73211000  0.48431000  1.0 -0.5118622343
O  O46  1  0.73211000  0.48431000  0.58951000  1.0 -0.5118622343
O  O47  1  0.48431000  0.58951000  0.73211000  1.0 -0.5118622343
O  O48  1  0.08951000  0.98431000  0.23211000  1.0 -0.5118622343
O  O49  1  0.23211000  0.08951000  0.98431000  1.0 -0.5118622343
O  O50  1  0.98431000  0.23211000  0.08951000  1.0 -0.5118622343
O  O51  1  0.70037000  0.63907000  0.46457000  1.0 -0.4688795194
O  O52  1  0.63907000  0.46457000  0.70037000  1.0 -0.4688795194
O  O53  1  0.46457000  0.70037000  0.63907000  1.0 -0.4688795194
O  O54  1  0.20037000  0.96457000  0.13907000  1.0 -0.4688795194
O  O55  1  0.13907000  0.20037000  0.96457000  1.0 -0.4688795194
O  O56  1  0.96457000  0.13907000  0.20037000  1.0 -0.4688795194
O  O57  1  0.07841000  0.07841000  0.07841000  1.0 -1.0328240305
O  O58  1  0.57841000  0.57841000  0.57841000  1.0 -1.0328240305
O  O59  1  0.98681000  0.04981000  0.28921000  1.0 -0.3570119411
O  O60  1  0.04981000  0.28921000  0.98681000  1.0 -0.3570119411
O  O61  1  0.28921000  0.98681000  0.04981000  1.0 -0.3570119411
O  O62  1  0.48681000  0.78921000  0.54981000  1.0 -0.3570119411
O  O63  1  0.54981000  0.48681000  0.78921000  1.0 -0.3549376935
O  O64  1  0.78921000  0.54981000  0.48681000  1.0 -0.3570119411
