# DDEC6 charges by PACMAN v1.1 (https://github.com/mtap-research/PACMAN-charge/)
data_TEPMIN_ASR_pacman
_symmetry_space_group_name_H-M   'P 1'
_cell_length_a   20.88720000
_cell_length_b   20.88720000
_cell_length_c   30.05700000
_cell_angle_alpha   51.43660000
_cell_angle_beta   128.56300000
_cell_angle_gamma   153.43700000
_symmetry_Int_Tables_number   1
_chemical_formula_structural   MnZnH12C25(NO3)2
_chemical_formula_sum   'Mn4 Zn4 H48 C100 N8 O24'
_cell_volume   4503.22072282
_cell_formula_units_Z   4
loop_
 _symmetry_equiv_pos_site_id
 _symmetry_equiv_pos_as_xyz
  1  'x, y, z'
loop_
 _atom_site_type_symbol
 _atom_site_label
 _atom_site_symmetry_multiplicity
 _atom_site_fract_x
 _atom_site_fract_y
 _atom_site_fract_z
 _atom_site_occupancy
 _atom_site_charge
Mn  Mn1  1  0.59732000  0.63846000  0.51129000  1.0 0.99572227
Mn  Mn2  1  0.63846000  0.59732000  0.98871000  1.0 0.99572227
Mn  Mn3  1  0.40268000  0.36154000  0.48871000  1.0 0.99572227
Mn  Mn4  1  0.36154000  0.40268000  0.01129000  1.0 0.99572227
Zn  Zn1  1  0.96636000  0.46618000  0.50379000  1.0 0.3532132565
Zn  Zn2  1  0.46618000  0.96636000  0.99621000  1.0 0.3532132565
Zn  Zn3  1  0.03364000  0.53382000  0.49621000  1.0 0.3532132565
Zn  Zn4  1  0.53382000  0.03364000  0.00379000  1.0 0.3532132565
H  H1  1  0.65720000  0.86260000  0.54020000  1.0 0.3532132565
H  H2  1  0.02030000  0.09290000  0.51420000  1.0 0.1427203401
H  H3  1  0.23050000  0.45490000  0.50750000  1.0 0.1269790887
H  H4  1  0.88750000  0.27090000  0.40050000  1.0 0.1269790887
H  H5  1  0.87230000  0.69810000  0.37690000  1.0 0.1269790887
H  H6  1  0.47740000  0.32380000  0.20190000  1.0 0.1269790887
H  H7  1  0.94450000  0.60390000  0.26590000  1.0 0.1141385234
H  H8  1  0.79960000  0.33940000  0.32360000  1.0 0.1217564199
H  H9  1  0.57770000  0.32570000  0.30080000  1.0 0.1141385234
H  H10  1  0.80730000  0.06450000  0.52030000  1.0 0.1001088138
H  H11  1  0.84200000  0.59780000  0.16790000  1.0 0.1269790887
H  H12  1  0.79980000  0.60780000  0.30870000  1.0 0.1217564199
H  H13  1  0.86260000  0.65720000  0.95980000  1.0 0.3532132565
H  H14  1  0.09290000  0.02030000  0.98580000  1.0 0.1427203401
H  H15  1  0.45490000  0.23050000  0.99250000  1.0 0.1269790887
H  H16  1  0.27090000  0.88750000  0.09950000  1.0 0.1269790887
H  H17  1  0.69810000  0.87230000  0.12310000  1.0 0.1269790887
H  H18  1  0.32380000  0.47740000  0.29810000  1.0 0.1269790887
H  H19  1  0.60390000  0.94450000  0.23410000  1.0 0.1141385234
H  H20  1  0.33940000  0.79960000  0.17640000  1.0 0.1217564199
H  H21  1  0.32570000  0.57770000  0.19920000  1.0 0.1141385234
H  H22  1  0.06450000  0.80730000  0.97970000  1.0 0.1001088138
H  H23  1  0.59780000  0.84200000  0.33210000  1.0 0.1269790887
H  H24  1  0.60780000  0.79980000  0.19130000  1.0 0.1217564199
H  H25  1  0.34280000  0.13740000  0.45980000  1.0 0.3532132565
H  H26  1  0.97970000  0.90710000  0.48580000  1.0 0.1427203401
H  H27  1  0.76950000  0.54510000  0.49250000  1.0 0.1269790887
H  H28  1  0.11250000  0.72910000  0.59950000  1.0 0.1269790887
H  H29  1  0.12770000  0.30190000  0.62310000  1.0 0.1269790887
H  H30  1  0.52260000  0.67620000  0.79810000  1.0 0.1269790887
H  H31  1  0.05550000  0.39610000  0.73410000  1.0 0.1141385234
H  H32  1  0.20040000  0.66060000  0.67640000  1.0 0.1217564199
H  H33  1  0.42230000  0.67430000  0.69920000  1.0 0.1141385234
H  H34  1  0.19270000  0.93550000  0.47970000  1.0 0.1001088138
H  H35  1  0.15800000  0.40220000  0.83210000  1.0 0.1269790887
H  H36  1  0.20020000  0.39220000  0.69130000  1.0 0.1217564199
H  H37  1  0.13740000  0.34280000  0.04020000  1.0 0.3532132565
H  H38  1  0.90710000  0.97970000  0.01420000  1.0 0.1427203401
H  H39  1  0.54510000  0.76950000  0.00750000  1.0 0.1269790887
H  H40  1  0.72910000  0.11250000  0.90050000  1.0 0.1269790887
H  H41  1  0.30190000  0.12770000  0.87690000  1.0 0.1269790887
H  H42  1  0.67620000  0.52260000  0.70190000  1.0 0.1269790887
H  H43  1  0.39610000  0.05550000  0.76590000  1.0 0.1141385234
H  H44  1  0.66060000  0.20040000  0.82360000  1.0 0.1217564199
H  H45  1  0.67430000  0.42230000  0.80080000  1.0 0.1141385234
H  H46  1  0.93550000  0.19270000  0.02030000  1.0 0.1001088138
H  H47  1  0.40220000  0.15800000  0.66790000  1.0 0.1269790887
H  H48  1  0.39220000  0.20020000  0.80870000  1.0 0.1217564199
C  C1  1  0.14622000  0.28578000  0.51149000  1.0 -0.0218053941
C  C2  1  0.02036000  0.13744000  0.51520000  1.0 -0.0898803084
C  C3  1  0.95277000  0.36063000  0.45610000  1.0 0.1488651245
C  C4  1  0.01728000  0.26932000  0.51260000  1.0 0.0785830816
C  C5  1  0.93347000  0.62293000  0.44100000  1.0 0.1427203401
C  C6  1  0.14424000  0.35236000  0.51012000  1.0 -0.1318328173
C  C7  1  0.77242000  0.46718000  0.29360000  1.0 0.0785830816
C  C8  1  0.01229000  0.33991000  0.50840000  1.0 -0.0801394746
C  C9  1  0.87432000  0.42208000  0.38650000  1.0 0.1579617321
C  C10  1  0.65186000  0.46314000  0.17550000  1.0 -0.0368339789
C  C11  1  0.89225000  0.31715000  0.40410000  1.0 -0.1811204245
C  C12  1  0.83945000  0.47555000  0.35590000  1.0 -0.0801394746
C  C13  1  0.86530000  0.53810000  0.37990000  1.0 0.1488651245
C  C14  1  0.87878000  0.65162000  0.38550000  1.0 -0.1811204245
C  C15  1  0.28325000  0.37555000  0.50860000  1.0 0.5746858477
C  C16  1  0.58951000  0.46649000  0.11220000  1.0 0.5783183336
C  C17  1  0.57291000  0.38129000  0.21500000  1.0 -0.0898803084
C  C18  1  0.84943000  0.54697000  0.25310000  1.0 -0.14942071
C  C19  1  0.84478000  0.35462000  0.36230000  1.0 -0.1855243981
C  C20  1  0.63303000  0.38297000  0.27390000  1.0 -0.14942071
C  C21  1  0.89379000  0.12081000  0.51810000  1.0 -0.1670448647
C  C22  1  0.78873000  0.54387000  0.19480000  1.0 -0.0898803084
C  C23  1  0.83900000  0.60220000  0.34880000  1.0 -0.1811204245
C  C24  1  0.89201000  0.05039000  0.52040000  1.0 -0.1058427223
C  C25  1  0.76280000  0.89500000  0.52630000  1.0 0.5544559121
C  C26  1  0.28578000  0.14622000  0.98851000  1.0 -0.0218053941
C  C27  1  0.13744000  0.02036000  0.98480000  1.0 -0.0898803084
C  C28  1  0.36063000  0.95277000  0.04390000  1.0 0.1488651245
C  C29  1  0.26932000  0.01728000  0.98740000  1.0 0.0785830816
C  C30  1  0.62293000  0.93347000  0.05900000  1.0 0.1427203401
C  C31  1  0.35236000  0.14424000  0.98988000  1.0 -0.1318328173
C  C32  1  0.46718000  0.77242000  0.20640000  1.0 0.0785830816
C  C33  1  0.33991000  0.01229000  0.99160000  1.0 -0.0801394746
C  C34  1  0.42208000  0.87432000  0.11350000  1.0 0.1579617321
C  C35  1  0.46314000  0.65186000  0.32450000  1.0 -0.0368339789
C  C36  1  0.31715000  0.89225000  0.09590000  1.0 -0.1811204245
C  C37  1  0.47555000  0.83945000  0.14410000  1.0 -0.0801394746
C  C38  1  0.53810000  0.86530000  0.12010000  1.0 0.1488651245
C  C39  1  0.65162000  0.87878000  0.11450000  1.0 -0.1811204245
C  C40  1  0.37555000  0.28325000  0.99140000  1.0 0.5746858477
C  C41  1  0.46649000  0.58951000  0.38780000  1.0 0.5783183336
C  C42  1  0.38129000  0.57291000  0.28500000  1.0 -0.0898803084
C  C43  1  0.54697000  0.84943000  0.24690000  1.0 -0.14942071
C  C44  1  0.35462000  0.84478000  0.13770000  1.0 -0.1855243981
C  C45  1  0.38297000  0.63303000  0.22610000  1.0 -0.14942071
C  C46  1  0.12081000  0.89379000  0.98190000  1.0 -0.1670448647
C  C47  1  0.54387000  0.78873000  0.30520000  1.0 -0.0898803084
C  C48  1  0.60220000  0.83900000  0.15120000  1.0 -0.1811204245
C  C49  1  0.05039000  0.89201000  0.97960000  1.0 -0.1058427223
C  C50  1  0.89500000  0.76280000  0.97370000  1.0 0.5544559121
C  C51  1  0.85378000  0.71422000  0.48851000  1.0 -0.0218053941
C  C52  1  0.97964000  0.86256000  0.48480000  1.0 -0.0898803084
C  C53  1  0.04723000  0.63937000  0.54390000  1.0 0.1488651245
C  C54  1  0.98272000  0.73068000  0.48740000  1.0 0.0785830816
C  C55  1  0.06653000  0.37707000  0.55900000  1.0 0.1427203401
C  C56  1  0.85576000  0.64764000  0.48988000  1.0 -0.1318328173
C  C57  1  0.22758000  0.53282000  0.70640000  1.0 0.0785830816
C  C58  1  0.98771000  0.66009000  0.49160000  1.0 -0.0801394746
C  C59  1  0.12568000  0.57792000  0.61350000  1.0 0.1579617321
C  C60  1  0.34814000  0.53686000  0.82450000  1.0 -0.0368339789
C  C61  1  0.10775000  0.68285000  0.59590000  1.0 -0.1811204245
C  C62  1  0.16055000  0.52445000  0.64410000  1.0 -0.0801394746
C  C63  1  0.13470000  0.46190000  0.62010000  1.0 0.1488651245
C  C64  1  0.12122000  0.34838000  0.61450000  1.0 -0.1811204245
C  C65  1  0.71675000  0.62445000  0.49140000  1.0 0.5746858477
C  C66  1  0.41049000  0.53351000  0.88780000  1.0 0.5783183336
C  C67  1  0.42709000  0.61871000  0.78500000  1.0 -0.0898803084
C  C68  1  0.15057000  0.45303000  0.74690000  1.0 -0.14942071
C  C69  1  0.15522000  0.64538000  0.63770000  1.0 -0.1855243981
C  C70  1  0.36697000  0.61703000  0.72610000  1.0 -0.14942071
C  C71  1  0.10621000  0.87919000  0.48190000  1.0 -0.1670448647
C  C72  1  0.21127000  0.45613000  0.80520000  1.0 -0.0898803084
C  C73  1  0.16100000  0.39780000  0.65120000  1.0 -0.1811204245
C  C74  1  0.10799000  0.94961000  0.47960000  1.0 -0.1058427223
C  C75  1  0.23720000  0.10500000  0.47370000  1.0 0.5544559121
C  C76  1  0.71422000  0.85378000  0.01149000  1.0 -0.0218053941
C  C77  1  0.86256000  0.97964000  0.01520000  1.0 -0.0898803084
C  C78  1  0.63937000  0.04723000  0.95610000  1.0 0.1488651245
C  C79  1  0.73068000  0.98272000  0.01260000  1.0 0.0785830816
C  C80  1  0.37707000  0.06653000  0.94100000  1.0 0.1427203401
C  C81  1  0.64764000  0.85576000  0.01012000  1.0 -0.1318328173
C  C82  1  0.53282000  0.22758000  0.79360000  1.0 0.0785830816
C  C83  1  0.66009000  0.98771000  0.00840000  1.0 -0.0801394746
C  C84  1  0.57792000  0.12568000  0.88650000  1.0 0.1579617321
C  C85  1  0.53686000  0.34814000  0.67550000  1.0 -0.0368339789
C  C86  1  0.68285000  0.10775000  0.90410000  1.0 -0.1811204245
C  C87  1  0.52445000  0.16055000  0.85590000  1.0 -0.0801394746
C  C88  1  0.46190000  0.13470000  0.87990000  1.0 0.1488651245
C  C89  1  0.34838000  0.12122000  0.88550000  1.0 -0.1811204245
C  C90  1  0.62445000  0.71675000  0.00860000  1.0 0.5746858477
C  C91  1  0.53351000  0.41049000  0.61220000  1.0 0.5783183336
C  C92  1  0.61871000  0.42709000  0.71500000  1.0 -0.0898803084
C  C93  1  0.45303000  0.15057000  0.75310000  1.0 -0.14942071
C  C94  1  0.64538000  0.15522000  0.86230000  1.0 -0.1855243981
C  C95  1  0.61703000  0.36697000  0.77390000  1.0 -0.14942071
C  C96  1  0.87919000  0.10621000  0.01810000  1.0 -0.1670448647
C  C97  1  0.45613000  0.21127000  0.69480000  1.0 -0.0898803084
C  C98  1  0.39780000  0.16100000  0.84880000  1.0 -0.1811204245
C  C99  1  0.94961000  0.10799000  0.02040000  1.0 -0.1058427223
C  C100  1  0.10500000  0.23720000  0.02630000  1.0 0.5544559121
N  N1  1  0.94039000  0.42541000  0.44304000  1.0 -0.2935644031
N  N2  1  0.92478000  0.55402000  0.43614000  1.0 -0.3015197307
N  N3  1  0.42541000  0.94039000  0.05696000  1.0 -0.2935644031
N  N4  1  0.55402000  0.92478000  0.06386000  1.0 -0.3015197307
N  N5  1  0.05961000  0.57459000  0.55696000  1.0 -0.2935644031
N  N6  1  0.07522000  0.44598000  0.56386000  1.0 -0.3015197307
N  N7  1  0.57459000  0.05961000  0.94304000  1.0 -0.2935644031
N  N8  1  0.44598000  0.07522000  0.93614000  1.0 -0.3015197307
O  O1  1  0.39637000  0.50323000  0.51418000  1.0 -0.5253200174
O  O2  1  0.66019000  0.53021000  0.07970000  1.0 -0.5513817311
O  O3  1  0.47142000  0.40378000  0.09668000  1.0 -0.542747283
O  O4  1  0.26826000  0.31134000  0.49924000  1.0 -0.5585185528
O  O5  1  0.76205000  0.83875000  0.52420000  1.0 -0.4290893764
O  O6  1  0.65400000  0.81580000  0.53840000  1.0 -0.391642207
O  O7  1  0.50323000  0.39637000  0.98582000  1.0 -0.5249672175
O  O8  1  0.53021000  0.66019000  0.42030000  1.0 -0.5513817311
O  O9  1  0.40378000  0.47142000  0.40332000  1.0 -0.542747283
O  O10  1  0.31134000  0.26826000  0.00076000  1.0 -0.5585185528
O  O11  1  0.83875000  0.76205000  0.97580000  1.0 -0.4290893764
O  O12  1  0.81580000  0.65400000  0.96160000  1.0 -0.391642207
O  O13  1  0.60363000  0.49677000  0.48582000  1.0 -0.5253200174
O  O14  1  0.33981000  0.46979000  0.92030000  1.0 -0.5513817311
O  O15  1  0.52858000  0.59622000  0.90332000  1.0 -0.542747283
O  O16  1  0.73174000  0.68866000  0.50076000  1.0 -0.5585185528
O  O17  1  0.23795000  0.16125000  0.47580000  1.0 -0.4290893764
O  O18  1  0.34600000  0.18420000  0.46160000  1.0 -0.391642207
O  O19  1  0.49677000  0.60363000  0.01418000  1.0 -0.5253200174
O  O20  1  0.46979000  0.33981000  0.57970000  1.0 -0.5513817311
O  O21  1  0.59622000  0.52858000  0.59668000  1.0 -0.542747283
O  O22  1  0.68866000  0.73174000  0.99924000  1.0 -0.5585185528
O  O23  1  0.16125000  0.23795000  0.02420000  1.0 -0.4290893764
O  O24  1  0.18420000  0.34600000  0.03840000  1.0 -0.391642207
