# DDEC6 charges by PACMAN v1.1 (https://github.com/mtap-research/PACMAN-charge/)
data_TEPNUA_ASR_pacman
_symmetry_space_group_name_H-M   'P 1'
_cell_length_a   18.11190000
_cell_length_b   18.11190000
_cell_length_c   16.83610000
_cell_angle_alpha   72.19580000
_cell_angle_beta   107.80400000
_cell_angle_gamma   122.30800000
_symmetry_Int_Tables_number   1
_chemical_formula_structural   Yb2Zn2H22C50N4O13
_chemical_formula_sum   'Yb4 Zn4 H44 C100 N8 O26'
_cell_volume   4374.27022245
_cell_formula_units_Z   2
loop_
 _symmetry_equiv_pos_site_id
 _symmetry_equiv_pos_as_xyz
  1  'x, y, z'
loop_
 _atom_site_type_symbol
 _atom_site_label
 _atom_site_symmetry_multiplicity
 _atom_site_fract_x
 _atom_site_fract_y
 _atom_site_fract_z
 _atom_site_occupancy
 _atom_site_charge
Yb  Yb1  1  0.35487000  0.29091000  0.87335000  1.0 2.0780038923
Yb  Yb2  1  0.29091000  0.35487000  0.62665000  1.0 2.0780038923
Yb  Yb3  1  0.64513000  0.70909000  0.12665000  1.0 2.0780038923
Yb  Yb4  1  0.70909000  0.64513000  0.37335000  1.0 2.0780038923
Zn  Zn1  1  0.50020000  0.98804000  0.48356000  1.0 0.3826224446
Zn  Zn2  1  0.98804000  0.50020000  0.01644000  1.0 0.3826224446
Zn  Zn3  1  0.49980000  0.01196000  0.51644000  1.0 0.3826224446
Zn  Zn4  1  0.01196000  0.49980000  0.98356000  1.0 0.3826224446
H  H1  1  0.45890000  0.54510000  0.89790000  1.0 0.1497734577
H  H2  1  0.40300000  0.64720000  0.65230000  1.0 0.1289784426
H  H3  1  0.65510000  0.84230000  0.73660000  1.0 0.1289784426
H  H4  1  0.54200000  0.80800000  0.82810000  1.0 0.1289784426
H  H5  1  0.83530000  0.04470000  0.53230000  1.0 0.1215941846
H  H6  1  0.00070000  0.31510000  0.62880000  1.0 0.1289784426
H  H7  1  0.84540000  0.24360000  0.60390000  1.0 0.1215941846
H  H8  1  0.77880000  0.98220000  0.67970000  1.0 0.1215941846
H  H9  1  0.99100000  0.11740000  0.55440000  1.0 0.1215941846
H  H10  1  0.19660000  0.74800000  0.57100000  1.0 0.1289784426
H  H11  1  0.30180000  0.70300000  0.67570000  1.0 0.1289784426
H  H12  1  0.54510000  0.45890000  0.60210000  1.0 0.1497734577
H  H13  1  0.64720000  0.40300000  0.84770000  1.0 0.1289784426
H  H14  1  0.84230000  0.65510000  0.76340000  1.0 0.1289784426
H  H15  1  0.80800000  0.54200000  0.67190000  1.0 0.1289784426
H  H16  1  0.04470000  0.83530000  0.96770000  1.0 0.1215941846
H  H17  1  0.31510000  0.00070000  0.87120000  1.0 0.1289784426
H  H18  1  0.24360000  0.84540000  0.89610000  1.0 0.1215941846
H  H19  1  0.98220000  0.77880000  0.82030000  1.0 0.1215941846
H  H20  1  0.11740000  0.99100000  0.94560000  1.0 0.1215941846
H  H21  1  0.74800000  0.19660000  0.92900000  1.0 0.1289784426
H  H22  1  0.70300000  0.30180000  0.82430000  1.0 0.1289784426
H  H23  1  0.54110000  0.45490000  0.10210000  1.0 0.1497734577
H  H24  1  0.59700000  0.35280000  0.34770000  1.0 0.1289784426
H  H25  1  0.34490000  0.15770000  0.26340000  1.0 0.1289784426
H  H26  1  0.45800000  0.19200000  0.17190000  1.0 0.1289784426
H  H27  1  0.16470000  0.95530000  0.46770000  1.0 0.1215941846
H  H28  1  0.99930000  0.68490000  0.37120000  1.0 0.1289784426
H  H29  1  0.15460000  0.75640000  0.39610000  1.0 0.1215941846
H  H30  1  0.22120000  0.01780000  0.32030000  1.0 0.1215941846
H  H31  1  0.00900000  0.88260000  0.44560000  1.0 0.1215941846
H  H32  1  0.80340000  0.25200000  0.42900000  1.0 0.1289784426
H  H33  1  0.69820000  0.29700000  0.32430000  1.0 0.1289784426
H  H34  1  0.45490000  0.54110000  0.39790000  1.0 0.1497734577
H  H35  1  0.35280000  0.59700000  0.15230000  1.0 0.1289784426
H  H36  1  0.15770000  0.34490000  0.23660000  1.0 0.1289784426
H  H37  1  0.19200000  0.45800000  0.32810000  1.0 0.1289784426
H  H38  1  0.95530000  0.16470000  0.03230000  1.0 0.1215941846
H  H39  1  0.68490000  0.99930000  0.12880000  1.0 0.1289784426
H  H40  1  0.75640000  0.15460000  0.10390000  1.0 0.1215941846
H  H41  1  0.01780000  0.22120000  0.17970000  1.0 0.1215941846
H  H42  1  0.88260000  0.00900000  0.05440000  1.0 0.1215941846
H  H43  1  0.25200000  0.80340000  0.07100000  1.0 0.1289784426
H  H44  1  0.29700000  0.69820000  0.17570000  1.0 0.1289784426
C  C1  1  0.56794000  0.88686000  0.64580000  1.0 0.1603022766
C  C2  1  0.46242000  0.59458000  0.85490000  1.0 -0.1053350255
C  C3  1  0.48348000  0.82012000  0.65980000  1.0 -0.079532361
C  C4  1  0.42998000  0.65562000  0.70920000  1.0 -0.1401188433
C  C5  1  0.50580000  0.67800000  0.87560000  1.0 0.0061526995
C  C6  1  0.42401000  0.58259000  0.77190000  1.0 -0.0016004676
C  C7  1  0.47507000  0.74133000  0.72820000  1.0 0.0717280913
C  C8  1  0.10970000  0.26990000  0.60560000  1.0 0.5489688009
C  C9  1  0.64977000  0.88743000  0.69220000  1.0 -0.1734664661
C  C10  1  0.54790000  0.68770000  0.96680000  1.0 0.5382077187
C  C11  1  0.51222000  0.75098000  0.81320000  1.0 -0.1468955934
C  C12  1  0.40400000  0.82000000  0.61440000  1.0 0.1603022766
C  C13  1  0.67890000  0.01170000  0.59440000  1.0 0.1497734577
C  C14  1  0.37740000  0.49100000  0.75080000  1.0 0.6393833846
C  C15  1  0.01021000  0.22359000  0.59240000  1.0 0.0061526995
C  C16  1  0.82530000  0.13770000  0.56400000  1.0 0.0717280913
C  C17  1  0.86870000  0.10030000  0.55080000  1.0 -0.1468955934
C  C18  1  0.96730000  0.26070000  0.60810000  1.0 -0.0878107673
C  C19  1  0.87480000  0.21780000  0.59360000  1.0 -0.1401188433
C  C20  1  0.71730000  0.96370000  0.66110000  1.0 -0.1734664661
C  C21  1  0.96170000  0.14330000  0.56440000  1.0 -0.0878107673
C  C22  1  0.25910000  0.77830000  0.57490000  1.0 -0.1734664661
C  C23  1  0.72640000  0.09440000  0.54510000  1.0 -0.0688511044
C  C24  1  0.68980000  0.14140000  0.47910000  1.0 0.1603022766
C  C25  1  0.31630000  0.75390000  0.63220000  1.0 -0.1761323459
C  C26  1  0.88686000  0.56794000  0.85420000  1.0 0.1603022766
C  C27  1  0.59458000  0.46242000  0.64510000  1.0 -0.1053350255
C  C28  1  0.82012000  0.48348000  0.84020000  1.0 -0.079532361
C  C29  1  0.65562000  0.42998000  0.79080000  1.0 -0.1401188433
C  C30  1  0.67800000  0.50580000  0.62440000  1.0 0.0061526995
C  C31  1  0.58259000  0.42401000  0.72810000  1.0 -0.0016004676
C  C32  1  0.74133000  0.47507000  0.77180000  1.0 0.0717280913
C  C33  1  0.26990000  0.10970000  0.89440000  1.0 0.5489688009
C  C34  1  0.88743000  0.64977000  0.80780000  1.0 -0.1734664661
C  C35  1  0.68770000  0.54790000  0.53320000  1.0 0.5382077187
C  C36  1  0.75098000  0.51222000  0.68680000  1.0 -0.1468955934
C  C37  1  0.82000000  0.40400000  0.88560000  1.0 0.1603022766
C  C38  1  0.01170000  0.67890000  0.90560000  1.0 0.1497734577
C  C39  1  0.49100000  0.37740000  0.74920000  1.0 0.6393833846
C  C40  1  0.22359000  0.01021000  0.90760000  1.0 0.0061526995
C  C41  1  0.13770000  0.82530000  0.93600000  1.0 0.0717280913
C  C42  1  0.10030000  0.86870000  0.94920000  1.0 -0.1468955934
C  C43  1  0.26070000  0.96730000  0.89190000  1.0 -0.0878107673
C  C44  1  0.21780000  0.87480000  0.90640000  1.0 -0.1468955934
C  C45  1  0.96370000  0.71730000  0.83890000  1.0 -0.1734664661
C  C46  1  0.14330000  0.96170000  0.93560000  1.0 -0.0878107673
C  C47  1  0.77830000  0.25910000  0.92510000  1.0 -0.1734664661
C  C48  1  0.09440000  0.72640000  0.95490000  1.0 -0.0688511044
C  C49  1  0.14140000  0.68980000  0.02090000  1.0 0.1603022766
C  C50  1  0.75390000  0.31630000  0.86780000  1.0 -0.1761323459
C  C51  1  0.43206000  0.11314000  0.35420000  1.0 0.1603022766
C  C52  1  0.53758000  0.40542000  0.14510000  1.0 -0.1053350255
C  C53  1  0.51652000  0.17988000  0.34020000  1.0 -0.079532361
C  C54  1  0.57002000  0.34438000  0.29080000  1.0 -0.1401188433
C  C55  1  0.49420000  0.32200000  0.12440000  1.0 0.0061526995
C  C56  1  0.57599000  0.41741000  0.22810000  1.0 -0.0016004676
C  C57  1  0.52493000  0.25867000  0.27180000  1.0 0.0717280913
C  C58  1  0.89030000  0.73010000  0.39440000  1.0 0.5489688009
C  C59  1  0.35023000  0.11257000  0.30780000  1.0 -0.1734664661
C  C60  1  0.45210000  0.31230000  0.03320000  1.0 0.5382077187
C  C61  1  0.48778000  0.24902000  0.18680000  1.0 -0.1468955934
C  C62  1  0.59600000  0.18000000  0.38560000  1.0 0.1603022766
C  C63  1  0.32110000  0.98830000  0.40560000  1.0 0.1497734577
C  C64  1  0.62260000  0.50900000  0.24920000  1.0 0.6393833846
C  C65  1  0.98979000  0.77641000  0.40760000  1.0 0.0061526995
C  C66  1  0.17470000  0.86230000  0.43600000  1.0 0.0717280913
C  C67  1  0.13130000  0.89970000  0.44920000  1.0 -0.1468955934
C  C68  1  0.03270000  0.73930000  0.39190000  1.0 -0.0878107673
C  C69  1  0.12520000  0.78220000  0.40640000  1.0 -0.1401188433
C  C70  1  0.28270000  0.03630000  0.33890000  1.0 -0.1734664661
C  C71  1  0.03830000  0.85670000  0.43560000  1.0 -0.0878107673
C  C72  1  0.74090000  0.22170000  0.42510000  1.0 -0.1734664661
C  C73  1  0.27360000  0.90560000  0.45490000  1.0 -0.0688511044
C  C74  1  0.31020000  0.85860000  0.52090000  1.0 0.1603022766
C  C75  1  0.68370000  0.24610000  0.36780000  1.0 -0.1761323459
C  C76  1  0.11314000  0.43206000  0.14580000  1.0 0.1603022766
C  C77  1  0.40542000  0.53758000  0.35490000  1.0 -0.1053350255
C  C78  1  0.17988000  0.51652000  0.15980000  1.0 -0.079532361
C  C79  1  0.34438000  0.57002000  0.20920000  1.0 -0.1401188433
C  C80  1  0.32200000  0.49420000  0.37560000  1.0 0.0061526995
C  C81  1  0.41741000  0.57599000  0.27190000  1.0 -0.0016004676
C  C82  1  0.25867000  0.52493000  0.22820000  1.0 0.0717280913
C  C83  1  0.73010000  0.89030000  0.10560000  1.0 0.5489688009
C  C84  1  0.11257000  0.35023000  0.19220000  1.0 -0.1734664661
C  C85  1  0.31230000  0.45210000  0.46680000  1.0 0.5382077187
C  C86  1  0.24902000  0.48778000  0.31320000  1.0 -0.1468955934
C  C87  1  0.18000000  0.59600000  0.11440000  1.0 0.1603022766
C  C88  1  0.98830000  0.32110000  0.09440000  1.0 0.1497734577
C  C89  1  0.50900000  0.62260000  0.25080000  1.0 0.6393833846
C  C90  1  0.77641000  0.98979000  0.09240000  1.0 0.0061526995
C  C91  1  0.86230000  0.17470000  0.06400000  1.0 0.0717280913
C  C92  1  0.89970000  0.13130000  0.05080000  1.0 -0.1468955934
C  C93  1  0.73930000  0.03270000  0.10810000  1.0 -0.0878107673
C  C94  1  0.78220000  0.12520000  0.09360000  1.0 -0.1401188433
C  C95  1  0.03630000  0.28270000  0.16110000  1.0 -0.1734664661
C  C96  1  0.85670000  0.03830000  0.06440000  1.0 -0.0878107673
C  C97  1  0.22170000  0.74090000  0.07490000  1.0 -0.1734664661
C  C98  1  0.90560000  0.27360000  0.04510000  1.0 -0.0688511044
C  C99  1  0.85860000  0.31020000  0.97910000  1.0 0.1603022766
C  C100  1  0.24610000  0.68370000  0.13220000  1.0 -0.1761323459
N  N1  1  0.58775000  0.96365000  0.58620000  1.0 -0.3110166959
N  N2  1  0.39821000  0.88359000  0.54620000  1.0 -0.3110166959
N  N3  1  0.96365000  0.58775000  0.91380000  1.0 -0.3110166959
N  N4  1  0.88359000  0.39821000  0.95380000  1.0 -0.3110166959
N  N5  1  0.41225000  0.03635000  0.41380000  1.0 -0.3110166959
N  N6  1  0.60179000  0.11641000  0.45380000  1.0 -0.3110166959
N  N7  1  0.03635000  0.41225000  0.08620000  1.0 -0.3110166959
N  N8  1  0.11641000  0.60179000  0.04620000  1.0 -0.3110166959
O  O1  1  0.15440000  0.34360000  0.63160000  1.0 -0.5620593637
O  O2  1  0.34040000  0.48100000  0.67530000  1.0 -0.6098406822
O  O3  1  0.14676000  0.23524000  0.59040000  1.0 -0.5537362307
O  O4  1  0.38041000  0.43079000  0.81160000  1.0 -0.6332588703
O  O5  1  0.53654000  0.62206000  0.02250000  1.0 -0.5620593637
O  O6  1  0.59481000  0.76439000  0.98470000  1.0 -0.5931484014
O  O7  1  0.34360000  0.15440000  0.86840000  1.0 -0.5620593637
O  O8  1  0.48100000  0.34040000  0.82470000  1.0 -0.6098406822
O  O9  1  0.23524000  0.14676000  0.90960000  1.0 -0.5537362307
O  O10  1  0.43079000  0.38041000  0.68840000  1.0 -0.6332588703
O  O11  1  0.62206000  0.53654000  0.47750000  1.0 -0.5620593637
O  O12  1  0.76439000  0.59481000  0.51530000  1.0 -0.5931484014
O  O13  1  0.84560000  0.65640000  0.36840000  1.0 -0.5620593637
O  O14  1  0.65960000  0.51900000  0.32470000  1.0 -0.6098406822
O  O15  1  0.85324000  0.76476000  0.40960000  1.0 -0.5537362307
O  O16  1  0.61959000  0.56921000  0.18840000  1.0 -0.6332588703
O  O17  1  0.46346000  0.37794000  0.97750000  1.0 -0.5620593637
O  O18  1  0.40519000  0.23561000  0.01530000  1.0 -0.5931484014
O  O19  1  0.65640000  0.84560000  0.13160000  1.0 -0.5620593637
O  O20  1  0.51900000  0.65960000  0.17530000  1.0 -0.6098406822
O  O21  1  0.76476000  0.85324000  0.09040000  1.0 -0.5537362307
O  O22  1  0.56921000  0.61959000  0.31160000  1.0 -0.6332588703
O  O23  1  0.37794000  0.46346000  0.52250000  1.0 -0.5620593637
O  O24  1  0.23561000  0.40519000  0.48470000  1.0 -0.5931484014
O  O25  1  0.26720000  0.26720000  0.75000000  1.0 -1.0886347205
O  O26  1  0.73280000  0.73280000  0.25000000  1.0 -1.0886347205
