# DDEC6 charges by PACMAN v1.1 (https://github.com/mtap-research/PACMAN-charge/)
data_TEPNEK_ASR_pacman
_symmetry_space_group_name_H-M   'P 1'
_cell_length_a   15.61410000
_cell_length_b   17.03380000
_cell_length_c   16.31280000
_cell_angle_alpha   90.00000000
_cell_angle_beta   115.82400000
_cell_angle_gamma   90.00000000
_symmetry_Int_Tables_number   1
_chemical_formula_structural   ZnH11PbC25(NO3)2
_chemical_formula_sum   'Zn4 H44 Pb4 C100 N8 O24'
_cell_volume   3905.39825556
_cell_formula_units_Z   4
loop_
 _symmetry_equiv_pos_site_id
 _symmetry_equiv_pos_as_xyz
  1  'x, y, z'
loop_
 _atom_site_type_symbol
 _atom_site_label
 _atom_site_symmetry_multiplicity
 _atom_site_fract_x
 _atom_site_fract_y
 _atom_site_fract_z
 _atom_site_occupancy
 _atom_site_charge
Zn  Zn1  1  0.49940000  0.51680000  0.74050000  1.0 0.3915020417
Zn  Zn2  1  0.50830000  0.52250000  0.69720000  1.0 0.3613725494
Zn  Zn3  1  0.50060000  0.01680000  0.25950000  1.0 0.3915020417
Zn  Zn4  1  0.49170000  0.02250000  0.30280000  1.0 0.3613725494
H  H1  1  0.99590000  0.25310000  0.38290000  1.0 0.1310213514
H  H2  1  0.83480000  0.39670000  0.88790000  1.0 0.1387364346
H  H3  1  0.22090000  0.27960000  0.63470000  1.0 0.1310213514
H  H4  1  0.79360000  0.60620000  0.03780000  1.0 0.1220106746
H  H5  1  0.86240000  0.53580000  0.92480000  1.0 0.1387364346
H  H6  1  0.99110000  0.78050000  0.10320000  1.0 0.1310213514
H  H7  1  0.79330000  0.75800000  0.84500000  1.0 0.1310213514
H  H8  1  0.13960000  0.49700000  0.54530000  1.0 0.1310213514
H  H9  1  0.18760000  0.42490000  0.43080000  1.0 0.1220106746
H  H10  1  0.32100000  0.76930000  0.78910000  1.0 0.1220106746
H  H11  1  0.36100000  0.24660000  0.59850000  1.0 0.1310213514
H  H12  1  0.16580000  0.63740000  0.58960000  1.0 0.1387364346
H  H13  1  0.13910000  0.86130000  0.50020000  1.0 0.1310213514
H  H14  1  0.22350000  0.87780000  0.76920000  1.0 0.1310213514
H  H15  1  0.53240000  0.21990000  0.69080000  1.0 0.1310213514
H  H16  1  0.24590000  0.75290000  0.52730000  1.0 0.1220106746
H  H17  1  0.64340000  0.78970000  0.86650000  1.0 0.1310213514
H  H18  1  0.47050000  0.81620000  0.76870000  1.0 0.1310213514
H  H19  1  0.84520000  0.17430000  0.97210000  1.0 0.1387364346
H  H20  1  0.70680000  0.26780000  0.68040000  1.0 0.1310213514
H  H21  1  0.82100000  0.17100000  0.72670000  1.0 0.1310213514
H  H22  1  0.73470000  0.27620000  0.93820000  1.0 0.1310213514
H  H23  1  0.00410000  0.75310000  0.61710000  1.0 0.1310213514
H  H24  1  0.16520000  0.89670000  0.11210000  1.0 0.1387364346
H  H25  1  0.77910000  0.77960000  0.36530000  1.0 0.1310213514
H  H26  1  0.20640000  0.10620000  0.96220000  1.0 0.1220106746
H  H27  1  0.13760000  0.03580000  0.07520000  1.0 0.1387364346
H  H28  1  0.00890000  0.28050000  0.89680000  1.0 0.1310213514
H  H29  1  0.20670000  0.25800000  0.15500000  1.0 0.1310213514
H  H30  1  0.86040000  0.99700000  0.45470000  1.0 0.1310213514
H  H31  1  0.81240000  0.92490000  0.56920000  1.0 0.1220106746
H  H32  1  0.67900000  0.26930000  0.21090000  1.0 0.1220106746
H  H33  1  0.63900000  0.74660000  0.40150000  1.0 0.1310213514
H  H34  1  0.83420000  0.13740000  0.41040000  1.0 0.1387364346
H  H35  1  0.86090000  0.36130000  0.49980000  1.0 0.1310213514
H  H36  1  0.77650000  0.37780000  0.23080000  1.0 0.1310213514
H  H37  1  0.46760000  0.71990000  0.30920000  1.0 0.1310213514
H  H38  1  0.75410000  0.25290000  0.47270000  1.0 0.1220106746
H  H39  1  0.35660000  0.28970000  0.13350000  1.0 0.1310213514
H  H40  1  0.52950000  0.31620000  0.23130000  1.0 0.1310213514
H  H41  1  0.15480000  0.67430000  0.02790000  1.0 0.1387364346
H  H42  1  0.29320000  0.76780000  0.31960000  1.0 0.1310213514
H  H43  1  0.17900000  0.67100000  0.27330000  1.0 0.1310213514
H  H44  1  0.26530000  0.77620000  0.06180000  1.0 0.1310213514
Pb  Pb1  1  0.02743000  0.96194000  0.87490000  1.0 0.9803914319
Pb  Pb2  1  0.99425000  0.07690000  0.64283000  1.0 1.022517253
Pb  Pb3  1  0.97257000  0.46194000  0.12510000  1.0 0.9803914319
Pb  Pb4  1  0.00575000  0.57690000  0.35717000  1.0 1.022517253
C  C1  1  0.05140000  0.27970000  0.42420000  1.0 -0.1000049609
C  C2  1  0.89690000  0.69070000  0.09150000  1.0 -0.0387723257
C  C3  1  0.10490000  0.25240000  0.51790000  1.0 -0.0291786843
C  C4  1  0.10980000  0.95080000  0.61810000  1.0 0.5510735999
C  C5  1  0.78760000  0.43650000  0.87070000  1.0 -0.1695349065
C  C6  1  0.18640000  0.29520000  0.57300000  1.0 -0.1398055886
C  C7  1  0.06880000  0.18850000  0.55160000  1.0 0.5217838774
C  C8  1  0.81940000  0.65090000  0.02180000  1.0 -0.1577499643
C  C9  1  0.94410000  0.66160000  0.18440000  1.0 0.5298956226
C  C10  1  0.89790000  0.77760000  0.97300000  1.0 0.0115426502
C  C11  1  0.08300000  0.34240000  0.39920000  1.0 -0.0128371914
C  C12  1  0.94210000  0.84780000  0.94570000  1.0 0.5298956226
C  C13  1  0.39190000  0.36610000  0.64440000  1.0 0.1597871771
C  C14  1  0.80250000  0.51130000  0.89110000  1.0 -0.1863142659
C  C15  1  0.21890000  0.35810000  0.54270000  1.0 0.0818481349
C  C16  1  0.93620000  0.75420000  0.06040000  1.0 -0.1000049609
C  C17  1  0.77930000  0.67490000  0.93000000  1.0 0.0818481349
C  C18  1  0.28990000  0.48410000  0.60890000  1.0 0.1709326993
C  C19  1  0.81960000  0.74000000  0.90620000  1.0 -0.1512670477
C  C20  1  0.19960000  0.52170000  0.57750000  1.0 -0.1695349065
C  C21  1  0.03530000  0.36960000  0.30210000  1.0 0.5689769278
C  C22  1  0.71080000  0.54950000  0.85280000  1.0 0.1814759687
C  C23  1  0.17400000  0.88240000  0.63050000  1.0 -0.0159371791
C  C24  1  0.16680000  0.38180000  0.45430000  1.0 -0.1512670477
C  C25  1  0.61130000  0.66870000  0.81550000  1.0 0.1597871771
C  C26  1  0.54780000  0.34280000  0.72780000  1.0 0.1597871771
C  C27  1  0.70680000  0.28380000  0.80230000  1.0 0.1005959402
C  C28  1  0.89170000  0.08320000  0.87000000  1.0 0.5217838774
C  C29  1  0.69720000  0.63110000  0.86240000  1.0 -0.0724986357
C  C30  1  0.30640000  0.40730000  0.60440000  1.0 -0.0724986357
C  C31  1  0.28580000  0.78930000  0.72930000  1.0 -0.1398055886
C  C32  1  0.40790000  0.28370000  0.63410000  1.0 -0.1512670477
C  C33  1  0.21350000  0.59880000  0.60110000  1.0 -0.1577499643
C  C34  1  0.82630000  0.15210000  0.84450000  1.0 -0.0128371914
C  C35  1  0.68570000  0.42540000  0.81710000  1.0 0.1814759687
C  C36  1  0.17810000  0.84480000  0.56080000  1.0 -0.0724986357
C  C37  1  0.29550000  0.75400000  0.66120000  1.0 0.0818481349
C  C38  1  0.64240000  0.35480000  0.77850000  1.0 -0.0892241333
C  C39  1  0.22720000  0.85380000  0.71820000  1.0 -0.0724986357
C  C40  1  0.50180000  0.26930000  0.68460000  1.0 -0.1577499643
C  C41  1  0.24220000  0.77870000  0.57730000  1.0 -0.1303713977
C  C42  1  0.45660000  0.69390000  0.73490000  1.0 0.1891186724
C  C43  1  0.31540000  0.61050000  0.64720000  1.0 0.1814759687
C  C44  1  0.59680000  0.75310000  0.82930000  1.0 -0.1398055886
C  C45  1  0.50150000  0.76690000  0.77650000  1.0 -0.1752113883
C  C46  1  0.81130000  0.19100000  0.91070000  1.0 -0.1000049609
C  C47  1  0.36140000  0.68340000  0.68270000  1.0 -0.0724986357
C  C48  1  0.73280000  0.24950000  0.74150000  1.0 -0.1303713977
C  C49  1  0.79690000  0.18790000  0.76820000  1.0 -0.0892241333
C  C50  1  0.74870000  0.25400000  0.89210000  1.0 -0.1303713977
C  C51  1  0.94860000  0.77970000  0.57580000  1.0 -0.1000049609
C  C52  1  0.10310000  0.19070000  0.90850000  1.0 -0.0387723257
C  C53  1  0.89510000  0.75240000  0.48210000  1.0 -0.0291786843
C  C54  1  0.89020000  0.45080000  0.38190000  1.0 0.5510735999
C  C55  1  0.21240000  0.93650000  0.12930000  1.0 -0.1695349065
C  C56  1  0.81360000  0.79520000  0.42700000  1.0 -0.1398055886
C  C57  1  0.93120000  0.68850000  0.44840000  1.0 0.5217838774
C  C58  1  0.18060000  0.15090000  0.97820000  1.0 -0.1577499643
C  C59  1  0.05590000  0.16160000  0.81560000  1.0 0.5298956226
C  C60  1  0.10210000  0.27760000  0.02700000  1.0 0.0115426502
C  C61  1  0.91700000  0.84240000  0.60080000  1.0 -0.0128371914
C  C62  1  0.05790000  0.34780000  0.05430000  1.0 0.5298956226
C  C63  1  0.60810000  0.86610000  0.35560000  1.0 0.1597871771
C  C64  1  0.19750000  0.01130000  0.10890000  1.0 -0.1863142659
C  C65  1  0.78110000  0.85810000  0.45730000  1.0 0.0818481349
C  C66  1  0.06380000  0.25420000  0.93960000  1.0 -0.1000049609
C  C67  1  0.22070000  0.17490000  0.07000000  1.0 0.0818481349
C  C68  1  0.71010000  0.98410000  0.39110000  1.0 0.1709326993
C  C69  1  0.18040000  0.24000000  0.09380000  1.0 -0.1512670477
C  C70  1  0.80040000  0.02170000  0.42250000  1.0 -0.1695349065
C  C71  1  0.96470000  0.86960000  0.69790000  1.0 0.5689769278
C  C72  1  0.28920000  0.04950000  0.14720000  1.0 0.1814759687
C  C73  1  0.82600000  0.38240000  0.36950000  1.0 -0.0128371914
C  C74  1  0.83320000  0.88180000  0.54570000  1.0 -0.1512670477
C  C75  1  0.38870000  0.16870000  0.18450000  1.0 0.1597871771
C  C76  1  0.45220000  0.84280000  0.27220000  1.0 0.1597871771
C  C77  1  0.29320000  0.78380000  0.19770000  1.0 0.1005959402
C  C78  1  0.10830000  0.58320000  0.13000000  1.0 0.5217838774
C  C79  1  0.30280000  0.13110000  0.13760000  1.0 -0.0724986357
C  C80  1  0.69360000  0.90730000  0.39560000  1.0 -0.0724986357
C  C81  1  0.71420000  0.28930000  0.27070000  1.0 -0.1398055886
C  C82  1  0.59210000  0.78370000  0.36590000  1.0 -0.1512670477
C  C83  1  0.78650000  0.09880000  0.39890000  1.0 -0.1577499643
C  C84  1  0.17370000  0.65210000  0.15550000  1.0 -0.0128371914
C  C85  1  0.31430000  0.92540000  0.18290000  1.0 0.1814759687
C  C86  1  0.82190000  0.34480000  0.43920000  1.0 -0.0724986357
C  C87  1  0.70450000  0.25400000  0.33880000  1.0 0.0818481349
C  C88  1  0.35760000  0.85480000  0.22150000  1.0 -0.0892241333
C  C89  1  0.77280000  0.35380000  0.28180000  1.0 -0.0724986357
C  C90  1  0.49820000  0.76930000  0.31540000  1.0 -0.1577499643
C  C91  1  0.75780000  0.27870000  0.42270000  1.0 -0.1303713977
C  C92  1  0.54340000  0.19390000  0.26510000  1.0 0.1891186724
C  C93  1  0.68460000  0.11050000  0.35280000  1.0 0.1814759687
C  C94  1  0.40320000  0.25310000  0.17070000  1.0 -0.1398055886
C  C95  1  0.49850000  0.26690000  0.22350000  1.0 -0.1752113883
C  C96  1  0.18870000  0.69100000  0.08930000  1.0 -0.1000049609
C  C97  1  0.63860000  0.18340000  0.31730000  1.0 -0.0724986357
C  C98  1  0.26720000  0.74950000  0.25850000  1.0 -0.1303713977
C  C99  1  0.20310000  0.68790000  0.23180000  1.0 -0.0892241333
C  C100  1  0.25130000  0.75400000  0.10790000  1.0 -0.1303713977
N  N1  1  0.52220000  0.63570000  0.75880000  1.0 -0.3060843085
N  N2  1  0.35950000  0.53930000  0.65340000  1.0 -0.315000843
N  N3  1  0.64440000  0.49600000  0.80670000  1.0 -0.2966172506
N  N4  1  0.47940000  0.40310000  0.70250000  1.0 -0.3060843085
N  N5  1  0.47780000  0.13570000  0.24120000  1.0 -0.3060843085
N  N6  1  0.64050000  0.03930000  0.34660000  1.0 -0.315000843
N  N7  1  0.35560000  0.99600000  0.19330000  1.0 -0.2966172506
N  N8  1  0.52060000  0.90310000  0.29750000  1.0 -0.3060843085
O  O1  1  0.00140000  0.70280000  0.24640000  1.0 -0.5066529025
O  O2  1  0.91170000  0.59530000  0.19920000  1.0 -0.5531426628
O  O3  1  0.04080000  0.96230000  0.54040000  1.0 -0.5318508853
O  O4  1  0.00310000  0.88630000  0.00820000  1.0 -0.5151036491
O  O5  1  0.05120000  0.43950000  0.28550000  1.0 -0.5531426628
O  O6  1  0.91240000  0.86470000  0.86480000  1.0 -0.4718741287
O  O7  1  0.99870000  0.14750000  0.49740000  1.0 -0.5318508853
O  O8  1  0.12480000  0.99690000  0.68580000  1.0 -0.4908888449
O  O9  1  0.10800000  0.17060000  0.63810000  1.0 -0.5066529025
O  O10  1  0.96680000  0.32910000  0.24210000  1.0 -0.5405237784
O  O11  1  0.90250000  0.05000000  0.81090000  1.0 -0.3777349551
O  O12  1  0.94380000  0.06810000  0.94700000  1.0 -0.4076526274
O  O13  1  0.99860000  0.20280000  0.75360000  1.0 -0.5066529025
O  O14  1  0.08830000  0.09530000  0.80080000  1.0 -0.5531426628
O  O15  1  0.95920000  0.46230000  0.45960000  1.0 -0.5318508853
O  O16  1  0.99690000  0.38630000  0.99180000  1.0 -0.5151036491
O  O17  1  0.94880000  0.93950000  0.71450000  1.0 -0.5531426628
O  O18  1  0.08760000  0.36470000  0.13520000  1.0 -0.4718741287
O  O19  1  0.00130000  0.64750000  0.50260000  1.0 -0.5318508853
O  O20  1  0.87520000  0.49690000  0.31420000  1.0 -0.4908888449
O  O21  1  0.89200000  0.67060000  0.36190000  1.0 -0.5066529025
O  O22  1  0.03320000  0.82910000  0.75790000  1.0 -0.5405237784
O  O23  1  0.09750000  0.55000000  0.18910000  1.0 -0.3777349551
O  O24  1  0.05620000  0.56810000  0.05300000  1.0 -0.4076526274
