# DDEC6 charges by PACMAN v1.1 (https://github.com/mtap-research/PACMAN-charge/)
data_TERFED_FSR_pacman
_symmetry_space_group_name_H-M   'P 1'
_cell_length_a   16.49000000
_cell_length_b   16.49000000
_cell_length_c   14.05000000
_cell_angle_alpha   90.00000000
_cell_angle_beta   90.00000000
_cell_angle_gamma   120.00000000
_symmetry_Int_Tables_number   1
_chemical_formula_structural   Zn3H24C49(NO4)6
_chemical_formula_sum   'Zn6 H48 C98 N12 O48'
_cell_volume   3308.63048731
_cell_formula_units_Z   2
loop_
 _symmetry_equiv_pos_site_id
 _symmetry_equiv_pos_as_xyz
  1  'x, y, z'
loop_
 _atom_site_type_symbol
 _atom_site_label
 _atom_site_symmetry_multiplicity
 _atom_site_fract_x
 _atom_site_fract_y
 _atom_site_fract_z
 _atom_site_occupancy
 _atom_site_charge
Zn  Zn1  1  0.33333333  0.66666667  0.25000000  1.0 1.0089933246
Zn  Zn2  1  0.33333333  0.66666667  0.99769000  1.0 0.8328033655
Zn  Zn3  1  0.33333333  0.66666667  0.50231000  1.0 0.8328033655
Zn  Zn4  1  0.66666667  0.33333333  0.75000000  1.0 1.0089933246
Zn  Zn5  1  0.66666667  0.33333333  0.00231000  1.0 0.8328033655
Zn  Zn6  1  0.66666667  0.33333333  0.49769000  1.0 0.8328033655
H  H1  1  0.00700000  0.75840000  0.26810000  1.0 0.1385846108
H  H2  1  0.24160000  0.24860000  0.26810000  1.0 0.1385846108
H  H3  1  0.75140000  0.99300000  0.26810000  1.0 0.1385846108
H  H4  1  0.24160000  0.99300000  0.23190000  1.0 0.1385846108
H  H5  1  0.00700000  0.24860000  0.23190000  1.0 0.1385846108
H  H6  1  0.75140000  0.75840000  0.23190000  1.0 0.1385846108
H  H7  1  0.03110000  0.81540000  0.98700000  1.0 0.1289922662
H  H8  1  0.18460000  0.21570000  0.98700000  1.0 0.1289922662
H  H9  1  0.78430000  0.96890000  0.98700000  1.0 0.1289922662
H  H10  1  0.18460000  0.96890000  0.51300000  1.0 0.1289922662
H  H11  1  0.03110000  0.21570000  0.51300000  1.0 0.1289922662
H  H12  1  0.78430000  0.81540000  0.51300000  1.0 0.1289922662
H  H13  1  0.10920000  0.69760000  0.24860000  1.0 0.1289922662
H  H14  1  0.30240000  0.41160000  0.24860000  1.0 0.1289922662
H  H15  1  0.58840000  0.89080000  0.24860000  1.0 0.1289922662
H  H16  1  0.30240000  0.89080000  0.25140000  1.0 0.1289922662
H  H17  1  0.10920000  0.41160000  0.25140000  1.0 0.1289922662
H  H18  1  0.58840000  0.69760000  0.25140000  1.0 0.1289922662
H  H19  1  0.13790000  0.76270000  0.97290000  1.0 0.1141280139
H  H20  1  0.23730000  0.37520000  0.97290000  1.0 0.1141280139
H  H21  1  0.62480000  0.86210000  0.97290000  1.0 0.1141280139
H  H22  1  0.23730000  0.86210000  0.52710000  1.0 0.1141280139
H  H23  1  0.13790000  0.37520000  0.52710000  1.0 0.1141280139
H  H24  1  0.62480000  0.76270000  0.52710000  1.0 0.1141280139
H  H25  1  0.99300000  0.24160000  0.73190000  1.0 0.1385846108
H  H26  1  0.75840000  0.75140000  0.73190000  1.0 0.1385846108
H  H27  1  0.24860000  0.00700000  0.73190000  1.0 0.1385846108
H  H28  1  0.75840000  0.00700000  0.76810000  1.0 0.1385846108
H  H29  1  0.99300000  0.75140000  0.76810000  1.0 0.1385846108
H  H30  1  0.24860000  0.24160000  0.76810000  1.0 0.1385846108
H  H31  1  0.96890000  0.18460000  0.01300000  1.0 0.1289922662
H  H32  1  0.81540000  0.78430000  0.01300000  1.0 0.1289922662
H  H33  1  0.21570000  0.03110000  0.01300000  1.0 0.1289922662
H  H34  1  0.81540000  0.03110000  0.48700000  1.0 0.1289922662
H  H35  1  0.96890000  0.78430000  0.48700000  1.0 0.1289922662
H  H36  1  0.21570000  0.18460000  0.48700000  1.0 0.1289922662
H  H37  1  0.89080000  0.30240000  0.75140000  1.0 0.1289922662
H  H38  1  0.69760000  0.58840000  0.75140000  1.0 0.1289922662
H  H39  1  0.41160000  0.10920000  0.75140000  1.0 0.1289922662
H  H40  1  0.69760000  0.10920000  0.74860000  1.0 0.1289922662
H  H41  1  0.89080000  0.58840000  0.74860000  1.0 0.1289922662
H  H42  1  0.41160000  0.30240000  0.74860000  1.0 0.1289922662
H  H43  1  0.86210000  0.23730000  0.02710000  1.0 0.1141280139
H  H44  1  0.76270000  0.62480000  0.02710000  1.0 0.1141280139
H  H45  1  0.37520000  0.13790000  0.02710000  1.0 0.1141280139
H  H46  1  0.76270000  0.13790000  0.47290000  1.0 0.1141280139
H  H47  1  0.86210000  0.62480000  0.47290000  1.0 0.1141280139
H  H48  1  0.37520000  0.23730000  0.47290000  1.0 0.1141280139
C  C1  1  0.33333333  0.66666667  0.75000000  1.0 -0.0357282481
C  C2  1  0.03270000  0.75860000  0.20920000  1.0 -0.1979945271
C  C3  1  0.24140000  0.27410000  0.20920000  1.0 -0.1979945271
C  C4  1  0.72590000  0.96730000  0.20920000  1.0 -0.1979945271
C  C5  1  0.24140000  0.96730000  0.29080000  1.0 -0.1979945271
C  C6  1  0.03270000  0.27410000  0.29080000  1.0 -0.1979945271
C  C7  1  0.72590000  0.75860000  0.29080000  1.0 -0.1979945271
C  C8  1  0.04850000  0.79370000  0.03990000  1.0 -0.1945481331
C  C9  1  0.20630000  0.25480000  0.03990000  1.0 -0.1979945271
C  C10  1  0.74520000  0.95150000  0.03990000  1.0 -0.1945481331
C  C11  1  0.20630000  0.95150000  0.46010000  1.0 -0.1979945271
C  C12  1  0.04850000  0.25480000  0.46010000  1.0 -0.1979945271
C  C13  1  0.74520000  0.79370000  0.46010000  1.0 -0.1945481331
C  C14  1  0.97620000  0.91420000  0.13370000  1.0 0.5375626355
C  C15  1  0.08580000  0.06200000  0.13370000  1.0 0.5375626355
C  C16  1  0.93800000  0.02380000  0.13370000  1.0 0.5375626355
C  C17  1  0.08580000  0.02380000  0.36630000  1.0 0.5375626355
C  C18  1  0.97620000  0.06200000  0.36630000  1.0 0.5375626355
C  C19  1  0.93800000  0.91420000  0.36630000  1.0 0.5375626355
C  C20  1  0.09540000  0.72400000  0.19710000  1.0 -0.0820047557
C  C21  1  0.27600000  0.37140000  0.19710000  1.0 -0.0820047557
C  C22  1  0.62860000  0.90460000  0.19710000  1.0 -0.0820047557
C  C23  1  0.27600000  0.90460000  0.30290000  1.0 -0.0820047557
C  C24  1  0.09540000  0.37140000  0.30290000  1.0 -0.0820047557
C  C25  1  0.62860000  0.72400000  0.30290000  1.0 -0.0820047557
C  C26  1  0.20780000  0.69860000  0.10440000  1.0 0.5888332247
C  C27  1  0.30140000  0.50920000  0.10440000  1.0 0.5888332247
C  C28  1  0.49080000  0.79220000  0.10440000  1.0 0.5888332247
C  C29  1  0.30140000  0.79220000  0.39560000  1.0 0.5888332247
C  C30  1  0.20780000  0.50920000  0.39560000  1.0 0.5888332247
C  C31  1  0.49080000  0.69860000  0.39560000  1.0 0.5888332247
C  C32  1  0.13550000  0.72880000  0.11150000  1.0 -0.0357282481
C  C33  1  0.27120000  0.40670000  0.11150000  1.0 -0.0357282481
C  C34  1  0.59330000  0.86450000  0.11150000  1.0 -0.0357282481
C  C35  1  0.27120000  0.86450000  0.38850000  1.0 -0.0357282481
C  C36  1  0.13550000  0.40670000  0.38850000  1.0 -0.0357282481
C  C37  1  0.59330000  0.72880000  0.38850000  1.0 -0.0357282481
C  C38  1  0.01210000  0.79240000  0.12840000  1.0 0.2577824811
C  C39  1  0.20760000  0.21970000  0.12840000  1.0 0.2577824811
C  C40  1  0.78030000  0.98790000  0.12840000  1.0 0.2577824811
C  C41  1  0.20760000  0.98790000  0.37160000  1.0 0.2577824811
C  C42  1  0.01210000  0.21970000  0.37160000  1.0 0.2577824811
C  C43  1  0.78030000  0.79240000  0.37160000  1.0 0.2577824811
C  C44  1  0.11160000  0.76190000  0.03170000  1.0 -0.0977405172
C  C45  1  0.23810000  0.34970000  0.03170000  1.0 -0.0977405172
C  C46  1  0.65030000  0.88840000  0.03170000  1.0 -0.0977405172
C  C47  1  0.23810000  0.88840000  0.46830000  1.0 -0.0977405172
C  C48  1  0.11160000  0.34970000  0.46830000  1.0 -0.0977405172
C  C49  1  0.65030000  0.76190000  0.46830000  1.0 -0.0977405172
C  C50  1  0.66666667  0.33333333  0.25000000  1.0 -0.0455349528
C  C51  1  0.96730000  0.24140000  0.79080000  1.0 -0.1979945271
C  C52  1  0.75860000  0.72590000  0.79080000  1.0 -0.1979945271
C  C53  1  0.27410000  0.03270000  0.79080000  1.0 -0.1979945271
C  C54  1  0.75860000  0.03270000  0.70920000  1.0 -0.1979945271
C  C55  1  0.96730000  0.72590000  0.70920000  1.0 -0.1979945271
C  C56  1  0.27410000  0.24140000  0.70920000  1.0 -0.1979945271
C  C57  1  0.95150000  0.20630000  0.96010000  1.0 -0.1979945271
C  C58  1  0.79370000  0.74520000  0.96010000  1.0 -0.1945481331
C  C59  1  0.25480000  0.04850000  0.96010000  1.0 -0.1945481331
C  C60  1  0.79370000  0.04850000  0.53990000  1.0 -0.1945481331
C  C61  1  0.95150000  0.74520000  0.53990000  1.0 -0.1945481331
C  C62  1  0.25480000  0.20630000  0.53990000  1.0 -0.1979945271
C  C63  1  0.02380000  0.08580000  0.86630000  1.0 0.5375626355
C  C64  1  0.91420000  0.93800000  0.86630000  1.0 0.5375626355
C  C65  1  0.06200000  0.97620000  0.86630000  1.0 0.5375626355
C  C66  1  0.91420000  0.97620000  0.63370000  1.0 0.5375626355
C  C67  1  0.02380000  0.93800000  0.63370000  1.0 0.5375626355
C  C68  1  0.06200000  0.08580000  0.63370000  1.0 0.5375626355
C  C69  1  0.90460000  0.27600000  0.80290000  1.0 -0.0820047557
C  C70  1  0.72400000  0.62860000  0.80290000  1.0 -0.0820047557
C  C71  1  0.37140000  0.09540000  0.80290000  1.0 -0.0820047557
C  C72  1  0.72400000  0.09540000  0.69710000  1.0 -0.0820047557
C  C73  1  0.90460000  0.62860000  0.69710000  1.0 -0.0820047557
C  C74  1  0.37140000  0.27600000  0.69710000  1.0 -0.0820047557
C  C75  1  0.79220000  0.30140000  0.89560000  1.0 0.5888332247
C  C76  1  0.69860000  0.49080000  0.89560000  1.0 0.5888332247
C  C77  1  0.50920000  0.20780000  0.89560000  1.0 0.5888332247
C  C78  1  0.69860000  0.20780000  0.60440000  1.0 0.5888332247
C  C79  1  0.79220000  0.49080000  0.60440000  1.0 0.5888332247
C  C80  1  0.50920000  0.30140000  0.60440000  1.0 0.5888332247
C  C81  1  0.86450000  0.27120000  0.88850000  1.0 -0.0357282481
C  C82  1  0.72880000  0.59330000  0.88850000  1.0 -0.0357282481
C  C83  1  0.40670000  0.13550000  0.88850000  1.0 -0.0357282481
C  C84  1  0.72880000  0.13550000  0.61150000  1.0 -0.0357282481
C  C85  1  0.86450000  0.59330000  0.61150000  1.0 -0.0357282481
C  C86  1  0.40670000  0.27120000  0.61150000  1.0 -0.0357282481
C  C87  1  0.98790000  0.20760000  0.87160000  1.0 0.2577824811
C  C88  1  0.79240000  0.78030000  0.87160000  1.0 0.2577824811
C  C89  1  0.21970000  0.01210000  0.87160000  1.0 0.2577824811
C  C90  1  0.79240000  0.01210000  0.62840000  1.0 0.2577824811
C  C91  1  0.98790000  0.78030000  0.62840000  1.0 0.2577824811
C  C92  1  0.21970000  0.20760000  0.62840000  1.0 0.2577824811
C  C93  1  0.88840000  0.23810000  0.96830000  1.0 -0.0977405172
C  C94  1  0.76190000  0.65030000  0.96830000  1.0 -0.0977405172
C  C95  1  0.34970000  0.11160000  0.96830000  1.0 -0.0977405172
C  C96  1  0.76190000  0.11160000  0.53170000  1.0 -0.0977405172
C  C97  1  0.88840000  0.65030000  0.53170000  1.0 -0.0977405172
C  C98  1  0.34970000  0.23810000  0.53170000  1.0 -0.0977405172
N  N1  1  0.06730000  0.97400000  0.13320000  1.0 -0.4874613465
N  N2  1  0.02600000  0.09330000  0.13320000  1.0 -0.4874613465
N  N3  1  0.90670000  0.93270000  0.13320000  1.0 -0.4874613465
N  N4  1  0.02600000  0.93270000  0.36680000  1.0 -0.4874613465
N  N5  1  0.06730000  0.09330000  0.36680000  1.0 -0.4874613465
N  N6  1  0.90670000  0.97400000  0.36680000  1.0 -0.4874613465
N  N7  1  0.93270000  0.02600000  0.86680000  1.0 -0.4874613465
N  N8  1  0.97400000  0.90670000  0.86680000  1.0 -0.4874613465
N  N9  1  0.09330000  0.06730000  0.86680000  1.0 -0.4874613465
N  N10  1  0.97400000  0.06730000  0.63320000  1.0 -0.4874613465
N  N11  1  0.93270000  0.90670000  0.63320000  1.0 -0.4874613465
N  N12  1  0.09330000  0.02600000  0.63320000  1.0 -0.4874613465
O  O1  1  0.94580000  0.82130000  0.13730000  1.0 -0.2264715351
O  O2  1  0.17870000  0.12450000  0.13730000  1.0 -0.2264715351
O  O3  1  0.87550000  0.05420000  0.13730000  1.0 -0.2264715351
O  O4  1  0.17870000  0.05420000  0.36270000  1.0 -0.2264715351
O  O5  1  0.94580000  0.12450000  0.36270000  1.0 -0.2264715351
O  O6  1  0.87550000  0.82130000  0.36270000  1.0 -0.2264715351
O  O7  1  0.22570000  0.66430000  0.16990000  1.0 -0.4984635592
O  O8  1  0.33570000  0.56140000  0.16990000  1.0 -0.4984635592
O  O9  1  0.43860000  0.77430000  0.16990000  1.0 -0.4984635592
O  O10  1  0.33570000  0.77430000  0.33010000  1.0 -0.4984635592
O  O11  1  0.22570000  0.56140000  0.33010000  1.0 -0.4984635592
O  O12  1  0.43860000  0.66430000  0.33010000  1.0 -0.4984635592
O  O13  1  0.24510000  0.70820000  0.01960000  1.0 -0.6328417143
O  O14  1  0.29180000  0.53690000  0.01960000  1.0 -0.6328417143
O  O15  1  0.46310000  0.75490000  0.01960000  1.0 -0.6328417143
O  O16  1  0.29180000  0.75490000  0.48040000  1.0 -0.6328417143
O  O17  1  0.24510000  0.53690000  0.48040000  1.0 -0.6328417143
O  O18  1  0.46310000  0.70820000  0.48040000  1.0 -0.6328417143
O  O19  1  0.37000000  0.67000000  0.85720000  1.0 0.122557421
O  O20  1  0.33000000  0.70000000  0.85720000  1.0 0.122557421
O  O21  1  0.30000000  0.63000000  0.85720000  1.0 0.122557421
O  O22  1  0.33000000  0.63000000  0.64280000  1.0 0.122557421
O  O23  1  0.37000000  0.70000000  0.64280000  1.0 0.122557421
O  O24  1  0.30000000  0.67000000  0.64280000  1.0 0.122557421
O  O25  1  0.05420000  0.17870000  0.86270000  1.0 -0.2264715351
O  O26  1  0.82130000  0.87550000  0.86270000  1.0 -0.2264715351
O  O27  1  0.12450000  0.94580000  0.86270000  1.0 -0.2264715351
O  O28  1  0.82130000  0.94580000  0.63730000  1.0 -0.2264715351
O  O29  1  0.05420000  0.87550000  0.63730000  1.0 -0.2264715351
O  O30  1  0.12450000  0.17870000  0.63730000  1.0 -0.2264715351
O  O31  1  0.77430000  0.33570000  0.83010000  1.0 -0.4984635592
O  O32  1  0.66430000  0.43860000  0.83010000  1.0 -0.4984635592
O  O33  1  0.56140000  0.22570000  0.83010000  1.0 -0.4984635592
O  O34  1  0.66430000  0.22570000  0.66990000  1.0 -0.4984635592
O  O35  1  0.77430000  0.43860000  0.66990000  1.0 -0.4984635592
O  O36  1  0.56140000  0.33570000  0.66990000  1.0 -0.4984635592
O  O37  1  0.75490000  0.29180000  0.98040000  1.0 -0.6328417143
O  O38  1  0.70820000  0.46310000  0.98040000  1.0 -0.6328417143
O  O39  1  0.53690000  0.24510000  0.98040000  1.0 -0.6328417143
O  O40  1  0.70820000  0.24510000  0.51960000  1.0 -0.6328417143
O  O41  1  0.75490000  0.46310000  0.51960000  1.0 -0.6328417143
O  O42  1  0.53690000  0.29180000  0.51960000  1.0 -0.6328417143
O  O43  1  0.63000000  0.33000000  0.14280000  1.0 0.1141280139
O  O44  1  0.67000000  0.30000000  0.14280000  1.0 0.1141280139
O  O45  1  0.70000000  0.37000000  0.14280000  1.0 0.1289922662
O  O46  1  0.67000000  0.37000000  0.35720000  1.0 0.1141280139
O  O47  1  0.63000000  0.30000000  0.35720000  1.0 0.1141280139
O  O48  1  0.70000000  0.33000000  0.35720000  1.0 0.1289922662
