# DDEC6 charges by PACMAN v1.1 (https://github.com/mtap-research/PACMAN-charge/)
data_TETWOG_ASR_pacman
_symmetry_space_group_name_H-M   'P 1'
_cell_length_a   9.12380000
_cell_length_b   9.62010000
_cell_length_c   12.64750000
_cell_angle_alpha   94.47500000
_cell_angle_beta   104.72200000
_cell_angle_gamma   114.43700000
_symmetry_Int_Tables_number   1
_chemical_formula_structural   Co2H11C15NO8
_chemical_formula_sum   'Co4 H22 C30 N2 O16'
_cell_volume   956.08966501
_cell_formula_units_Z   2
loop_
 _symmetry_equiv_pos_site_id
 _symmetry_equiv_pos_as_xyz
  1  'x, y, z'
loop_
 _atom_site_type_symbol
 _atom_site_label
 _atom_site_symmetry_multiplicity
 _atom_site_fract_x
 _atom_site_fract_y
 _atom_site_fract_z
 _atom_site_occupancy
 _atom_site_charge
Co  Co1  1  0.12792000  0.48609000  0.29804000  1.0 0.8667878285
Co  Co2  1  0.87208000  0.51391000  0.70196000  1.0 0.8667878285
Co  Co3  1  0.50000000  0.50000000  0.50000000  1.0 1.0748264864
Co  Co4  1  0.00000000  0.00000000  0.50000000  1.0 0.8563216999
H  H1  1  0.63770000  0.12490000  0.40220000  1.0 0.1197725559
H  H2  1  0.36230000  0.87510000  0.59780000  1.0 0.1197725559
H  H3  1  0.27270000  0.11830000  0.18350000  1.0 0.1070724241
H  H4  1  0.72730000  0.88170000  0.81650000  1.0 0.1070724241
H  H5  1  0.48700000  0.28380000  0.13520000  1.0 0.0979631133
H  H6  1  0.51300000  0.71620000  0.86480000  1.0 0.0979631133
H  H7  1  0.55480000  0.41230000  0.24460000  1.0 0.1197725559
H  H8  1  0.44520000  0.58770000  0.75540000  1.0 0.1197725559
H  H9  1  0.60290000  0.14170000  0.22250000  1.0 0.0846516639
H  H10  1  0.39710000  0.85830000  0.77750000  1.0 0.0846516639
H  H11  1  0.36330000  0.02700000  0.32020000  1.0 0.1070724241
H  H12  1  0.63670000  0.97300000  0.67980000  1.0 0.1070724241
H  H13  1  0.57700000  0.86370000  0.16520000  1.0 0.140360184
H  H14  1  0.42300000  0.13630000  0.83480000  1.0 0.140360184
H  H15  1  0.00720000  0.60590000  0.09710000  1.0 0.1197725559
H  H16  1  0.99280000  0.39410000  0.90290000  1.0 0.1197725559
H  H17  1  0.10520000  0.77430000  0.98600000  1.0 0.1508110017
H  H18  1  0.89480000  0.22570000  0.01400000  1.0 0.1508110017
H  H19  1  0.46310000  0.69360000  0.27090000  1.0 0.1280820593
H  H20  1  0.53690000  0.30640000  0.72910000  1.0 0.1280820593
H  H21  1  0.31500000  0.96700000  0.92900000  1.0 0.0979631133
H  H22  1  0.68500000  0.03300000  0.07100000  1.0 0.0979631133
C  C1  1  0.32970000  0.15130000  0.44100000  1.0 0.6011343077
C  C2  1  0.67030000  0.84870000  0.55900000  1.0 0.6011343077
C  C3  1  0.26050000  0.30490000  0.25890000  1.0 0.5888543204
C  C4  1  0.73950000  0.69510000  0.74110000  1.0 0.5888543204
C  C5  1  0.70320000  0.35010000  0.47560000  1.0 0.6127642468
C  C6  1  0.29680000  0.64990000  0.52440000  1.0 0.6127642468
C  C7  1  0.60460000  0.20630000  0.38170000  1.0 -0.1332274898
C  C8  1  0.39540000  0.79370000  0.61830000  1.0 -0.1332274898
C  C9  1  0.34920000  0.20670000  0.24610000  1.0 -0.1197674336
C  C10  1  0.65080000  0.79330000  0.75390000  1.0 -0.1197674336
C  C11  1  0.51060000  0.30150000  0.21560000  1.0 -0.1960562765
C  C12  1  0.48940000  0.69850000  0.78440000  1.0 -0.1960562765
C  C13  1  0.63630000  0.24200000  0.27010000  1.0 -0.1197674336
C  C14  1  0.36370000  0.75800000  0.72990000  1.0 -0.1197674336
C  C15  1  0.81880000  0.34420000  0.28030000  1.0 0.5701916292
C  C16  1  0.18120000  0.65580000  0.71970000  1.0 0.5701916292
C  C17  1  0.41900000  0.95870000  0.99610000  1.0 -0.1197674336
C  C18  1  0.58100000  0.04130000  0.00390000  1.0 -0.1197674336
C  C19  1  0.40810000  0.13900000  0.34900000  1.0 -0.1421423107
C  C20  1  0.59190000  0.86100000  0.65100000  1.0 -0.1421423107
C  C21  1  0.35530000  0.84500000  0.06410000  1.0 0.1606679633
C  C22  1  0.64470000  0.15500000  0.93590000  1.0 0.1606679633
C  C23  1  0.46000000  0.81420000  0.15030000  1.0 -0.1897061542
C  C24  1  0.54000000  0.18580000  0.84970000  1.0 -0.1897061542
C  C25  1  0.12380000  0.65980000  0.11130000  1.0 0.089329401
C  C26  1  0.87620000  0.34020000  0.88870000  1.0 0.089329401
C  C27  1  0.18150000  0.76150000  0.04410000  1.0 -0.1831564233
C  C28  1  0.81850000  0.23850000  0.95590000  1.0 -0.1831564233
C  C29  1  0.39060000  0.71090000  0.21300000  1.0 0.089329401
C  C30  1  0.60940000  0.28910000  0.78700000  1.0 0.089329401
N  N1  1  0.22310000  0.63360000  0.19480000  1.0 -0.239541851
N  N2  1  0.77690000  0.36640000  0.80520000  1.0 -0.239541851
O  O1  1  0.12010000  0.27460000  0.19220000  1.0 -0.527354233
O  O2  1  0.87990000  0.72540000  0.80780000  1.0 -0.527354233
O  O3  1  0.40060000  0.27070000  0.51860000  1.0 -0.5690580979
O  O4  1  0.59940000  0.72930000  0.48140000  1.0 -0.5690580979
O  O5  1  0.32990000  0.42540000  0.33880000  1.0 -0.5809129402
O  O6  1  0.67010000  0.57460000  0.66120000  1.0 -0.5809129402
O  O7  1  0.79220000  0.34100000  0.56530000  1.0 -0.5187864229
O  O8  1  0.20780000  0.65900000  0.43470000  1.0 -0.5187864229
O  O9  1  0.69310000  0.47440000  0.45680000  1.0 -0.5690580979
O  O10  1  0.30690000  0.52560000  0.54320000  1.0 -0.5690580979
O  O11  1  0.19120000  0.03760000  0.42970000  1.0 -0.558537595
O  O12  1  0.80880000  0.96240000  0.57030000  1.0 -0.558537595
O  O13  1  0.93220000  0.31680000  0.34210000  1.0 -0.51123368
O  O14  1  0.06780000  0.68320000  0.65790000  1.0 -0.51123368
O  O15  1  0.86010000  0.45160000  0.22770000  1.0 -0.5398529693
O  O16  1  0.13990000  0.54840000  0.77230000  1.0 -0.5398529693
