# DDEC6 charges by PACMAN v1.1 (https://github.com/mtap-research/PACMAN-charge/)
data_TEVHEJ_ASR_pacman
_symmetry_space_group_name_H-M   'P 1'
_cell_length_a   29.84270000
_cell_length_b   29.84270000
_cell_length_c   29.84270000
_cell_angle_alpha   90.00000000
_cell_angle_beta   90.00000000
_cell_angle_gamma   90.00000000
_symmetry_Int_Tables_number   1
_chemical_formula_structural   Ni4H20C48N4O21
_chemical_formula_sum   'Ni48 H240 C576 N48 O252'
_cell_volume   26577.51300398
_cell_formula_units_Z   12
loop_
 _symmetry_equiv_pos_site_id
 _symmetry_equiv_pos_as_xyz
  1  'x, y, z'
loop_
 _atom_site_type_symbol
 _atom_site_label
 _atom_site_symmetry_multiplicity
 _atom_site_fract_x
 _atom_site_fract_y
 _atom_site_fract_z
 _atom_site_occupancy
 _atom_site_charge
Ni  Ni1  1  0.05843000  0.31764000  0.31764000  1.0 0.8952279218
Ni  Ni2  1  0.94157000  0.68236000  0.31764000  1.0 0.8952279218
Ni  Ni3  1  0.94157000  0.31764000  0.68236000  1.0 0.8944241531
Ni  Ni4  1  0.05843000  0.68236000  0.68236000  1.0 0.8944241531
Ni  Ni5  1  0.31764000  0.05843000  0.31764000  1.0 0.8952279218
Ni  Ni6  1  0.31764000  0.94157000  0.68236000  1.0 0.8944241531
Ni  Ni7  1  0.68236000  0.94157000  0.31764000  1.0 0.8952279218
Ni  Ni8  1  0.68236000  0.05843000  0.68236000  1.0 0.8952279218
Ni  Ni9  1  0.31764000  0.31764000  0.05843000  1.0 0.8952279218
Ni  Ni10  1  0.68236000  0.31764000  0.94157000  1.0 0.8944241531
Ni  Ni11  1  0.31764000  0.68236000  0.94157000  1.0 0.8944241531
Ni  Ni12  1  0.68236000  0.68236000  0.05843000  1.0 0.8952279218
Ni  Ni13  1  0.94157000  0.68236000  0.68236000  1.0 0.8952279218
Ni  Ni14  1  0.05843000  0.31764000  0.68236000  1.0 0.8944241531
Ni  Ni15  1  0.05843000  0.68236000  0.31764000  1.0 0.8952279218
Ni  Ni16  1  0.94157000  0.31764000  0.31764000  1.0 0.8952279218
Ni  Ni17  1  0.68236000  0.94157000  0.68236000  1.0 0.8944241531
Ni  Ni18  1  0.68236000  0.05843000  0.31764000  1.0 0.8952279218
Ni  Ni19  1  0.31764000  0.05843000  0.68236000  1.0 0.8944241531
Ni  Ni20  1  0.31764000  0.94157000  0.31764000  1.0 0.8944241531
Ni  Ni21  1  0.68236000  0.68236000  0.94157000  1.0 0.8944241531
Ni  Ni22  1  0.31764000  0.68236000  0.05843000  1.0 0.8952279218
Ni  Ni23  1  0.68236000  0.31764000  0.05843000  1.0 0.8952279218
Ni  Ni24  1  0.31764000  0.31764000  0.94157000  1.0 0.8944241531
Ni  Ni25  1  0.00000000  0.24760000  0.24761000  1.0 1.1027853913
Ni  Ni26  1  0.00000000  0.75240000  0.24761000  1.0 1.1027853913
Ni  Ni27  1  0.00000000  0.24760000  0.75239000  1.0 1.1027853913
Ni  Ni28  1  0.00000000  0.75240000  0.75239000  1.0 1.1027853913
Ni  Ni29  1  0.24761000  0.00000000  0.24760000  1.0 1.1027853913
Ni  Ni30  1  0.24761000  0.00000000  0.75240000  1.0 1.1027853913
Ni  Ni31  1  0.75239000  0.00000000  0.24760000  1.0 1.1027853913
Ni  Ni32  1  0.75239000  0.00000000  0.75240000  1.0 1.1027853913
Ni  Ni33  1  0.24760000  0.24761000  0.00000000  1.0 1.1027853913
Ni  Ni34  1  0.75240000  0.24761000  0.00000000  1.0 1.1027853913
Ni  Ni35  1  0.24760000  0.75239000  0.00000000  1.0 1.1027853913
Ni  Ni36  1  0.75240000  0.75239000  0.00000000  1.0 1.1027853913
Ni  Ni37  1  0.26428000  0.50000000  0.26432000  1.0 0.9411811806
Ni  Ni38  1  0.73572000  0.50000000  0.26432000  1.0 0.9411811806
Ni  Ni39  1  0.73572000  0.50000000  0.73568000  1.0 0.9411811806
Ni  Ni40  1  0.26428000  0.50000000  0.73568000  1.0 0.9411811806
Ni  Ni41  1  0.26432000  0.26428000  0.50000000  1.0 0.9411811806
Ni  Ni42  1  0.26432000  0.73572000  0.50000000  1.0 0.9411811806
Ni  Ni43  1  0.73568000  0.73572000  0.50000000  1.0 0.9411811806
Ni  Ni44  1  0.73568000  0.26428000  0.50000000  1.0 0.9411811806
Ni  Ni45  1  0.50000000  0.26432000  0.26428000  1.0 0.9411811806
Ni  Ni46  1  0.50000000  0.26432000  0.73572000  1.0 0.9411811806
Ni  Ni47  1  0.50000000  0.73568000  0.73572000  1.0 0.9411811806
Ni  Ni48  1  0.50000000  0.73568000  0.26428000  1.0 0.9411811806
H  H1  1  0.11740000  0.39080000  0.29180000  1.0 0.1100547208
H  H2  1  0.88260000  0.60920000  0.29180000  1.0 0.1100547208
H  H3  1  0.88260000  0.39080000  0.70820000  1.0 0.1100547208
H  H4  1  0.11740000  0.60920000  0.70820000  1.0 0.1100547208
H  H5  1  0.29180000  0.11740000  0.39080000  1.0 0.1100547208
H  H6  1  0.29180000  0.88260000  0.60920000  1.0 0.1100547208
H  H7  1  0.70820000  0.88260000  0.39080000  1.0 0.1100547208
H  H8  1  0.70820000  0.11740000  0.60920000  1.0 0.1100547208
H  H9  1  0.39080000  0.29180000  0.11740000  1.0 0.1100547208
H  H10  1  0.60920000  0.29180000  0.88260000  1.0 0.1100547208
H  H11  1  0.39080000  0.70820000  0.88260000  1.0 0.1100547208
H  H12  1  0.60920000  0.70820000  0.11740000  1.0 0.1100547208
H  H13  1  0.88260000  0.60920000  0.70820000  1.0 0.1100547208
H  H14  1  0.11740000  0.39080000  0.70820000  1.0 0.1100547208
H  H15  1  0.11740000  0.60920000  0.29180000  1.0 0.1100547208
H  H16  1  0.88260000  0.39080000  0.29180000  1.0 0.1100547208
H  H17  1  0.70820000  0.88260000  0.60920000  1.0 0.1100547208
H  H18  1  0.70820000  0.11740000  0.39080000  1.0 0.1100547208
H  H19  1  0.29180000  0.11740000  0.60920000  1.0 0.1100547208
H  H20  1  0.29180000  0.88260000  0.39080000  1.0 0.1100547208
H  H21  1  0.60920000  0.70820000  0.88260000  1.0 0.1100547208
H  H22  1  0.39080000  0.70820000  0.11740000  1.0 0.1100547208
H  H23  1  0.60920000  0.29180000  0.11740000  1.0 0.1100547208
H  H24  1  0.39080000  0.29180000  0.88260000  1.0 0.1100547208
H  H25  1  0.14330000  0.29450000  0.37500000  1.0 0.1229918078
H  H26  1  0.85670000  0.70550000  0.37500000  1.0 0.1229918078
H  H27  1  0.85670000  0.29450000  0.62500000  1.0 0.1229918078
H  H28  1  0.14330000  0.70550000  0.62500000  1.0 0.1229918078
H  H29  1  0.37500000  0.14330000  0.29450000  1.0 0.1229918078
H  H30  1  0.37500000  0.85670000  0.70550000  1.0 0.1229918078
H  H31  1  0.62500000  0.85670000  0.29450000  1.0 0.1229918078
H  H32  1  0.62500000  0.14330000  0.70550000  1.0 0.1229918078
H  H33  1  0.29450000  0.37500000  0.14330000  1.0 0.1229918078
H  H34  1  0.70550000  0.37500000  0.85670000  1.0 0.1229918078
H  H35  1  0.29450000  0.62500000  0.85670000  1.0 0.1229918078
H  H36  1  0.70550000  0.62500000  0.14330000  1.0 0.1229918078
H  H37  1  0.85670000  0.70550000  0.62500000  1.0 0.1229918078
H  H38  1  0.14330000  0.29450000  0.62500000  1.0 0.1229918078
H  H39  1  0.14330000  0.70550000  0.37500000  1.0 0.1229918078
H  H40  1  0.85670000  0.29450000  0.37500000  1.0 0.1229918078
H  H41  1  0.62500000  0.85670000  0.70550000  1.0 0.1229918078
H  H42  1  0.62500000  0.14330000  0.29450000  1.0 0.1229918078
H  H43  1  0.37500000  0.14330000  0.70550000  1.0 0.1229918078
H  H44  1  0.37500000  0.85670000  0.29450000  1.0 0.1229918078
H  H45  1  0.70550000  0.62500000  0.85670000  1.0 0.1229918078
H  H46  1  0.29450000  0.62500000  0.14330000  1.0 0.1229918078
H  H47  1  0.70550000  0.37500000  0.14330000  1.0 0.1229918078
H  H48  1  0.29450000  0.37500000  0.85670000  1.0 0.1229918078
H  H49  1  0.20910000  0.32820000  0.39350000  1.0 0.1372914789
H  H50  1  0.79090000  0.67180000  0.39350000  1.0 0.1372914789
H  H51  1  0.79090000  0.32820000  0.60650000  1.0 0.1372914789
H  H52  1  0.20910000  0.67180000  0.60650000  1.0 0.1372914789
H  H53  1  0.39350000  0.20910000  0.32820000  1.0 0.1372914789
H  H54  1  0.39350000  0.79090000  0.67180000  1.0 0.1372914789
H  H55  1  0.60650000  0.79090000  0.32820000  1.0 0.1372914789
H  H56  1  0.60650000  0.20910000  0.67180000  1.0 0.1372914789
H  H57  1  0.32820000  0.39350000  0.20910000  1.0 0.1372914789
H  H58  1  0.67180000  0.39350000  0.79090000  1.0 0.1372914789
H  H59  1  0.32820000  0.60650000  0.79090000  1.0 0.1372914789
H  H60  1  0.67180000  0.60650000  0.20910000  1.0 0.1372914789
H  H61  1  0.79090000  0.67180000  0.60650000  1.0 0.1372914789
H  H62  1  0.20910000  0.32820000  0.60650000  1.0 0.1372914789
H  H63  1  0.20910000  0.67180000  0.39350000  1.0 0.1372914789
H  H64  1  0.79090000  0.32820000  0.39350000  1.0 0.1372914789
H  H65  1  0.60650000  0.79090000  0.67180000  1.0 0.1372914789
H  H66  1  0.60650000  0.20910000  0.32820000  1.0 0.1372914789
H  H67  1  0.39350000  0.20910000  0.67180000  1.0 0.1372914789
H  H68  1  0.39350000  0.79090000  0.32820000  1.0 0.1372914789
H  H69  1  0.67180000  0.60650000  0.79090000  1.0 0.1372914789
H  H70  1  0.32820000  0.60650000  0.20910000  1.0 0.1372914789
H  H71  1  0.67180000  0.39350000  0.20910000  1.0 0.1372914789
H  H72  1  0.32820000  0.39350000  0.79090000  1.0 0.1372914789
H  H73  1  0.16190000  0.21590000  0.34070000  1.0 0.1328707776
H  H74  1  0.83810000  0.78410000  0.34070000  1.0 0.1328707776
H  H75  1  0.83810000  0.21590000  0.65930000  1.0 0.1328707776
H  H76  1  0.16190000  0.78410000  0.65930000  1.0 0.1328707776
H  H77  1  0.34070000  0.16190000  0.21590000  1.0 0.1328707776
H  H78  1  0.34070000  0.83810000  0.78410000  1.0 0.1328707776
H  H79  1  0.65930000  0.83810000  0.21590000  1.0 0.1328707776
H  H80  1  0.65930000  0.16190000  0.78410000  1.0 0.1328707776
H  H81  1  0.21590000  0.34070000  0.16190000  1.0 0.1328707776
H  H82  1  0.78410000  0.34070000  0.83810000  1.0 0.1328707776
H  H83  1  0.21590000  0.65930000  0.83810000  1.0 0.1328707776
H  H84  1  0.78410000  0.65930000  0.16190000  1.0 0.1328707776
H  H85  1  0.83810000  0.78410000  0.65930000  1.0 0.1328707776
H  H86  1  0.16190000  0.21590000  0.65930000  1.0 0.1328707776
H  H87  1  0.16190000  0.78410000  0.34070000  1.0 0.1328707776
H  H88  1  0.83810000  0.21590000  0.34070000  1.0 0.1328707776
H  H89  1  0.65930000  0.83810000  0.78410000  1.0 0.1328707776
H  H90  1  0.65930000  0.16190000  0.21590000  1.0 0.1328707776
H  H91  1  0.34070000  0.16190000  0.78410000  1.0 0.1328707776
H  H92  1  0.34070000  0.83810000  0.21590000  1.0 0.1328707776
H  H93  1  0.78410000  0.65930000  0.83810000  1.0 0.1328707776
H  H94  1  0.21590000  0.65930000  0.16190000  1.0 0.1328707776
H  H95  1  0.78410000  0.34070000  0.16190000  1.0 0.1328707776
H  H96  1  0.21590000  0.34070000  0.83810000  1.0 0.1328707776
H  H97  1  0.08380000  0.13750000  0.26790000  1.0 0.1372914789
H  H98  1  0.91620000  0.86250000  0.26790000  1.0 0.1372914789
H  H99  1  0.91620000  0.13750000  0.73210000  1.0 0.1372914789
H  H100  1  0.08380000  0.86250000  0.73210000  1.0 0.1372914789
H  H101  1  0.26790000  0.08380000  0.13750000  1.0 0.1372914789
H  H102  1  0.26790000  0.91620000  0.86250000  1.0 0.1372914789
H  H103  1  0.73210000  0.91620000  0.13750000  1.0 0.1372914789
H  H104  1  0.73210000  0.08380000  0.86250000  1.0 0.1372914789
H  H105  1  0.13750000  0.26790000  0.08380000  1.0 0.1372914789
H  H106  1  0.86250000  0.26790000  0.91620000  1.0 0.1372914789
H  H107  1  0.13750000  0.73210000  0.91620000  1.0 0.1372914789
H  H108  1  0.86250000  0.73210000  0.08380000  1.0 0.1372914789
H  H109  1  0.91620000  0.86250000  0.73210000  1.0 0.1372914789
H  H110  1  0.08380000  0.13750000  0.73210000  1.0 0.1372914789
H  H111  1  0.08380000  0.86250000  0.26790000  1.0 0.1372914789
H  H112  1  0.91620000  0.13750000  0.26790000  1.0 0.1372914789
H  H113  1  0.73210000  0.91620000  0.86250000  1.0 0.1372914789
H  H114  1  0.73210000  0.08380000  0.13750000  1.0 0.1372914789
H  H115  1  0.26790000  0.08380000  0.86250000  1.0 0.1372914789
H  H116  1  0.26790000  0.91620000  0.13750000  1.0 0.1372914789
H  H117  1  0.86250000  0.73210000  0.91620000  1.0 0.1372914789
H  H118  1  0.13750000  0.73210000  0.08380000  1.0 0.1372914789
H  H119  1  0.86250000  0.26790000  0.08380000  1.0 0.1372914789
H  H120  1  0.13750000  0.26790000  0.91620000  1.0 0.1372914789
H  H121  1  0.06620000  0.46150000  0.31320000  1.0 0.1328707776
H  H122  1  0.93380000  0.53850000  0.31320000  1.0 0.1328707776
H  H123  1  0.93380000  0.46150000  0.68680000  1.0 0.1328707776
H  H124  1  0.06620000  0.53850000  0.68680000  1.0 0.1328707776
H  H125  1  0.31320000  0.06620000  0.46150000  1.0 0.1328707776
H  H126  1  0.31320000  0.93380000  0.53850000  1.0 0.1328707776
H  H127  1  0.68680000  0.93380000  0.46150000  1.0 0.1328707776
H  H128  1  0.68680000  0.06620000  0.53850000  1.0 0.1328707776
H  H129  1  0.46150000  0.31320000  0.06620000  1.0 0.1328707776
H  H130  1  0.53850000  0.31320000  0.93380000  1.0 0.1328707776
H  H131  1  0.46150000  0.68680000  0.93380000  1.0 0.1328707776
H  H132  1  0.53850000  0.68680000  0.06620000  1.0 0.1328707776
H  H133  1  0.93380000  0.53850000  0.68680000  1.0 0.1328707776
H  H134  1  0.06620000  0.46150000  0.68680000  1.0 0.1328707776
H  H135  1  0.06620000  0.53850000  0.31320000  1.0 0.1328707776
H  H136  1  0.93380000  0.46150000  0.31320000  1.0 0.1328707776
H  H137  1  0.68680000  0.93380000  0.53850000  1.0 0.1328707776
H  H138  1  0.68680000  0.06620000  0.46150000  1.0 0.1328707776
H  H139  1  0.31320000  0.06620000  0.53850000  1.0 0.1328707776
H  H140  1  0.31320000  0.93380000  0.46150000  1.0 0.1328707776
H  H141  1  0.53850000  0.68680000  0.93380000  1.0 0.1328707776
H  H142  1  0.46150000  0.68680000  0.06620000  1.0 0.1328707776
H  H143  1  0.53850000  0.31320000  0.06620000  1.0 0.1328707776
H  H144  1  0.46150000  0.31320000  0.93380000  1.0 0.1328707776
H  H145  1  0.06630000  0.31230000  0.46160000  1.0 0.1328707776
H  H146  1  0.93370000  0.68770000  0.46160000  1.0 0.1328707776
H  H147  1  0.93370000  0.31230000  0.53840000  1.0 0.1328707776
H  H148  1  0.06630000  0.68770000  0.53840000  1.0 0.1328707776
H  H149  1  0.46160000  0.06630000  0.31230000  1.0 0.1328707776
H  H150  1  0.46160000  0.93370000  0.68770000  1.0 0.1328707776
H  H151  1  0.53840000  0.93370000  0.31230000  1.0 0.1328707776
H  H152  1  0.53840000  0.06630000  0.68770000  1.0 0.1328707776
H  H153  1  0.31230000  0.46160000  0.06630000  1.0 0.1328707776
H  H154  1  0.68770000  0.46160000  0.93370000  1.0 0.1328707776
H  H155  1  0.31230000  0.53840000  0.93370000  1.0 0.1328707776
H  H156  1  0.68770000  0.53840000  0.06630000  1.0 0.1328707776
H  H157  1  0.93370000  0.68770000  0.53840000  1.0 0.1328707776
H  H158  1  0.06630000  0.31230000  0.53840000  1.0 0.1328707776
H  H159  1  0.06630000  0.68770000  0.46160000  1.0 0.1328707776
H  H160  1  0.93370000  0.31230000  0.46160000  1.0 0.1328707776
H  H161  1  0.53840000  0.93370000  0.68770000  1.0 0.1328707776
H  H162  1  0.53840000  0.06630000  0.31230000  1.0 0.1328707776
H  H163  1  0.46160000  0.06630000  0.68770000  1.0 0.1328707776
H  H164  1  0.46160000  0.93370000  0.31230000  1.0 0.1328707776
H  H165  1  0.68770000  0.53840000  0.93370000  1.0 0.1328707776
H  H166  1  0.31230000  0.53840000  0.06630000  1.0 0.1328707776
H  H167  1  0.68770000  0.46160000  0.06630000  1.0 0.1328707776
H  H168  1  0.31230000  0.46160000  0.93370000  1.0 0.1328707776
H  H169  1  0.22640000  0.39520000  0.36410000  1.0 0.1328707776
H  H170  1  0.77360000  0.60480000  0.36410000  1.0 0.1328707776
H  H171  1  0.77360000  0.39520000  0.63590000  1.0 0.1328707776
H  H172  1  0.22640000  0.60480000  0.63590000  1.0 0.1328707776
H  H173  1  0.36410000  0.22640000  0.39520000  1.0 0.1328707776
H  H174  1  0.36410000  0.77360000  0.60480000  1.0 0.1328707776
H  H175  1  0.63590000  0.77360000  0.39520000  1.0 0.1328707776
H  H176  1  0.63590000  0.22640000  0.60480000  1.0 0.1328707776
H  H177  1  0.39520000  0.36410000  0.22640000  1.0 0.1328707776
H  H178  1  0.60480000  0.36410000  0.77360000  1.0 0.1328707776
H  H179  1  0.39520000  0.63590000  0.77360000  1.0 0.1328707776
H  H180  1  0.60480000  0.63590000  0.22640000  1.0 0.1328707776
H  H181  1  0.77360000  0.60480000  0.63590000  1.0 0.1328707776
H  H182  1  0.22640000  0.39520000  0.63590000  1.0 0.1328707776
H  H183  1  0.22640000  0.60480000  0.36410000  1.0 0.1328707776
H  H184  1  0.77360000  0.39520000  0.36410000  1.0 0.1328707776
H  H185  1  0.63590000  0.77360000  0.60480000  1.0 0.1328707776
H  H186  1  0.63590000  0.22640000  0.39520000  1.0 0.1328707776
H  H187  1  0.36410000  0.22640000  0.60480000  1.0 0.1328707776
H  H188  1  0.36410000  0.77360000  0.39520000  1.0 0.1328707776
H  H189  1  0.60480000  0.63590000  0.77360000  1.0 0.1328707776
H  H190  1  0.39520000  0.63590000  0.22640000  1.0 0.1328707776
H  H191  1  0.60480000  0.36410000  0.22640000  1.0 0.1328707776
H  H192  1  0.39520000  0.36410000  0.77360000  1.0 0.1328707776
H  H193  1  0.16090000  0.34250000  0.21520000  1.0 0.1372914789
H  H194  1  0.83910000  0.65750000  0.21520000  1.0 0.1372914789
H  H195  1  0.83910000  0.34250000  0.78480000  1.0 0.1372914789
H  H196  1  0.16090000  0.65750000  0.78480000  1.0 0.1372914789
H  H197  1  0.21520000  0.16090000  0.34250000  1.0 0.1372914789
H  H198  1  0.21520000  0.83910000  0.65750000  1.0 0.1372914789
H  H199  1  0.78480000  0.83910000  0.34250000  1.0 0.1372914789
H  H200  1  0.78480000  0.16090000  0.65750000  1.0 0.1372914789
H  H201  1  0.34250000  0.21520000  0.16090000  1.0 0.1372914789
H  H202  1  0.65750000  0.21520000  0.83910000  1.0 0.1372914789
H  H203  1  0.34250000  0.78480000  0.83910000  1.0 0.1372914789
H  H204  1  0.65750000  0.78480000  0.16090000  1.0 0.1372914789
H  H205  1  0.83910000  0.65750000  0.78480000  1.0 0.1372914789
H  H206  1  0.16090000  0.34250000  0.78480000  1.0 0.1372914789
H  H207  1  0.16090000  0.65750000  0.21520000  1.0 0.1372914789
H  H208  1  0.83910000  0.34250000  0.21520000  1.0 0.1372914789
H  H209  1  0.78480000  0.83910000  0.65750000  1.0 0.1372914789
H  H210  1  0.78480000  0.16090000  0.34250000  1.0 0.1372914789
H  H211  1  0.21520000  0.16090000  0.65750000  1.0 0.1372914789
H  H212  1  0.21520000  0.83910000  0.34250000  1.0 0.1372914789
H  H213  1  0.65750000  0.78480000  0.83910000  1.0 0.1372914789
H  H214  1  0.34250000  0.78480000  0.16090000  1.0 0.1372914789
H  H215  1  0.65750000  0.21520000  0.16090000  1.0 0.1372914789
H  H216  1  0.34250000  0.21520000  0.83910000  1.0 0.1372914789
H  H217  1  0.08360000  0.26910000  0.13720000  1.0 0.1328707776
H  H218  1  0.91640000  0.73090000  0.13720000  1.0 0.1328707776
H  H219  1  0.91640000  0.26910000  0.86280000  1.0 0.1328707776
H  H220  1  0.08360000  0.73090000  0.86280000  1.0 0.1328707776
H  H221  1  0.13720000  0.08360000  0.26910000  1.0 0.1328707776
H  H222  1  0.13720000  0.91640000  0.73090000  1.0 0.1328707776
H  H223  1  0.86280000  0.91640000  0.26910000  1.0 0.1328707776
H  H224  1  0.86280000  0.08360000  0.73090000  1.0 0.1328707776
H  H225  1  0.26910000  0.13720000  0.08360000  1.0 0.1328707776
H  H226  1  0.73090000  0.13720000  0.91640000  1.0 0.1328707776
H  H227  1  0.26910000  0.86280000  0.91640000  1.0 0.1328707776
H  H228  1  0.73090000  0.86280000  0.08360000  1.0 0.1328707776
H  H229  1  0.91640000  0.73090000  0.86280000  1.0 0.1328707776
H  H230  1  0.08360000  0.26910000  0.86280000  1.0 0.1328707776
H  H231  1  0.08360000  0.73090000  0.13720000  1.0 0.1328707776
H  H232  1  0.91640000  0.26910000  0.13720000  1.0 0.1328707776
H  H233  1  0.86280000  0.91640000  0.73090000  1.0 0.1328707776
H  H234  1  0.86280000  0.08360000  0.26910000  1.0 0.1328707776
H  H235  1  0.13720000  0.08360000  0.73090000  1.0 0.1328707776
H  H236  1  0.13720000  0.91640000  0.26910000  1.0 0.1328707776
H  H237  1  0.73090000  0.86280000  0.91640000  1.0 0.1328707776
H  H238  1  0.26910000  0.86280000  0.08360000  1.0 0.1328707776
H  H239  1  0.73090000  0.13720000  0.08360000  1.0 0.1328707776
H  H240  1  0.26910000  0.13720000  0.91640000  1.0 0.1328707776
C  C1  1  0.08098000  0.21877000  0.30243000  1.0 0.5903531787
C  C2  1  0.91902000  0.78123000  0.30243000  1.0 0.5903531787
C  C3  1  0.91902000  0.21877000  0.69757000  1.0 0.5903531787
C  C4  1  0.08098000  0.78123000  0.69757000  1.0 0.5903531787
C  C5  1  0.30243000  0.08098000  0.21877000  1.0 0.5903531787
C  C6  1  0.30243000  0.91902000  0.78123000  1.0 0.5903531787
C  C7  1  0.69757000  0.91902000  0.21877000  1.0 0.5903531787
C  C8  1  0.69757000  0.08098000  0.78123000  1.0 0.5903531787
C  C9  1  0.21877000  0.30243000  0.08098000  1.0 0.5903531787
C  C10  1  0.78123000  0.30243000  0.91902000  1.0 0.5903531787
C  C11  1  0.21877000  0.69757000  0.91902000  1.0 0.5903531787
C  C12  1  0.78123000  0.69757000  0.08098000  1.0 0.5903531787
C  C13  1  0.91902000  0.78123000  0.69757000  1.0 0.5903531787
C  C14  1  0.08098000  0.21877000  0.69757000  1.0 0.5903531787
C  C15  1  0.08098000  0.78123000  0.30243000  1.0 0.5903531787
C  C16  1  0.91902000  0.21877000  0.30243000  1.0 0.5903531787
C  C17  1  0.69757000  0.91902000  0.78123000  1.0 0.5903531787
C  C18  1  0.69757000  0.08098000  0.21877000  1.0 0.5903531787
C  C19  1  0.30243000  0.08098000  0.78123000  1.0 0.5903531787
C  C20  1  0.30243000  0.91902000  0.21877000  1.0 0.5903531787
C  C21  1  0.78123000  0.69757000  0.91902000  1.0 0.5903531787
C  C22  1  0.21877000  0.69757000  0.08098000  1.0 0.5903531787
C  C23  1  0.78123000  0.30243000  0.08098000  1.0 0.5903531787
C  C24  1  0.21877000  0.30243000  0.91902000  1.0 0.5903531787
C  C25  1  0.00000000  0.40199000  0.31270000  1.0 0.5903531787
C  C26  1  0.00000000  0.59801000  0.31270000  1.0 0.5903531787
C  C27  1  0.00000000  0.40199000  0.68730000  1.0 0.5903531787
C  C28  1  0.00000000  0.59801000  0.68730000  1.0 0.5903531787
C  C29  1  0.31270000  0.00000000  0.40199000  1.0 0.5903531787
C  C30  1  0.31270000  0.00000000  0.59801000  1.0 0.5903531787
C  C31  1  0.68730000  0.00000000  0.40199000  1.0 0.5903531787
C  C32  1  0.68730000  0.00000000  0.59801000  1.0 0.5903531787
C  C33  1  0.40199000  0.31270000  0.00000000  1.0 0.5903531787
C  C34  1  0.59801000  0.31270000  0.00000000  1.0 0.5903531787
C  C35  1  0.40199000  0.68730000  0.00000000  1.0 0.5903531787
C  C36  1  0.59801000  0.68730000  0.00000000  1.0 0.5903531787
C  C37  1  0.00000000  0.31270000  0.40212000  1.0 0.5903531787
C  C38  1  0.00000000  0.68730000  0.40212000  1.0 0.5903531787
C  C39  1  0.00000000  0.31270000  0.59788000  1.0 0.5903531787
C  C40  1  0.00000000  0.68730000  0.59788000  1.0 0.5903531787
C  C41  1  0.40212000  0.00000000  0.31270000  1.0 0.5903531787
C  C42  1  0.40212000  0.00000000  0.68730000  1.0 0.5903531787
C  C43  1  0.59788000  0.00000000  0.31270000  1.0 0.5903531787
C  C44  1  0.59788000  0.00000000  0.68730000  1.0 0.5903531787
C  C45  1  0.31270000  0.40212000  0.00000000  1.0 0.5903531787
C  C46  1  0.68730000  0.40212000  0.00000000  1.0 0.5903531787
C  C47  1  0.31270000  0.59788000  0.00000000  1.0 0.5903531787
C  C48  1  0.68730000  0.59788000  0.00000000  1.0 0.5903531787
C  C49  1  0.13610000  0.37820000  0.31330000  1.0 0.1229918078
C  C50  1  0.86390000  0.62180000  0.31330000  1.0 0.1229918078
C  C51  1  0.86390000  0.37820000  0.68670000  1.0 0.1229918078
C  C52  1  0.13610000  0.62180000  0.68670000  1.0 0.1229918078
C  C53  1  0.31330000  0.13610000  0.37820000  1.0 0.1229918078
C  C54  1  0.31330000  0.86390000  0.62180000  1.0 0.1229918078
C  C55  1  0.68670000  0.86390000  0.37820000  1.0 0.1229918078
C  C56  1  0.68670000  0.13610000  0.62180000  1.0 0.1229918078
C  C57  1  0.37820000  0.31330000  0.13610000  1.0 0.1229918078
C  C58  1  0.62180000  0.31330000  0.86390000  1.0 0.1229918078
C  C59  1  0.37820000  0.68670000  0.86390000  1.0 0.1229918078
C  C60  1  0.62180000  0.68670000  0.13610000  1.0 0.1229918078
C  C61  1  0.86390000  0.62180000  0.68670000  1.0 0.1229918078
C  C62  1  0.13610000  0.37820000  0.68670000  1.0 0.1229918078
C  C63  1  0.13610000  0.62180000  0.31330000  1.0 0.1229918078
C  C64  1  0.86390000  0.37820000  0.31330000  1.0 0.1229918078
C  C65  1  0.68670000  0.86390000  0.62180000  1.0 0.1229918078
C  C66  1  0.68670000  0.13610000  0.37820000  1.0 0.1229918078
C  C67  1  0.31330000  0.13610000  0.62180000  1.0 0.1229918078
C  C68  1  0.31330000  0.86390000  0.37820000  1.0 0.1229918078
C  C69  1  0.62180000  0.68670000  0.86390000  1.0 0.1229918078
C  C70  1  0.37820000  0.68670000  0.13610000  1.0 0.1229918078
C  C71  1  0.62180000  0.31330000  0.13610000  1.0 0.1229918078
C  C72  1  0.37820000  0.31330000  0.86390000  1.0 0.1229918078
C  C73  1  0.15030000  0.32270000  0.36360000  1.0 0.0654513949
C  C74  1  0.84970000  0.67730000  0.36360000  1.0 0.0654513949
C  C75  1  0.84970000  0.32270000  0.63640000  1.0 0.0654513949
C  C76  1  0.15030000  0.67730000  0.63640000  1.0 0.0654513949
C  C77  1  0.36360000  0.15030000  0.32270000  1.0 0.0654513949
C  C78  1  0.36360000  0.84970000  0.67730000  1.0 0.0654513949
C  C79  1  0.63640000  0.84970000  0.32270000  1.0 0.0654513949
C  C80  1  0.63640000  0.15030000  0.67730000  1.0 0.0654513949
C  C81  1  0.32270000  0.36360000  0.15030000  1.0 0.0654513949
C  C82  1  0.67730000  0.36360000  0.84970000  1.0 0.0654513949
C  C83  1  0.32270000  0.63640000  0.84970000  1.0 0.0654513949
C  C84  1  0.67730000  0.63640000  0.15030000  1.0 0.0654513949
C  C85  1  0.84970000  0.67730000  0.63640000  1.0 0.0654513949
C  C86  1  0.15030000  0.32270000  0.63640000  1.0 0.0654513949
C  C87  1  0.15030000  0.67730000  0.36360000  1.0 0.0654513949
C  C88  1  0.84970000  0.32270000  0.36360000  1.0 0.0654513949
C  C89  1  0.63640000  0.84970000  0.67730000  1.0 0.0654513949
C  C90  1  0.63640000  0.15030000  0.32270000  1.0 0.0654513949
C  C91  1  0.36360000  0.15030000  0.67730000  1.0 0.0654513949
C  C92  1  0.36360000  0.84970000  0.32270000  1.0 0.0654513949
C  C93  1  0.67730000  0.63640000  0.84970000  1.0 0.0654513949
C  C94  1  0.32270000  0.63640000  0.15030000  1.0 0.0654513949
C  C95  1  0.67730000  0.36360000  0.15030000  1.0 0.0654513949
C  C96  1  0.32270000  0.36360000  0.84970000  1.0 0.0654513949
C  C97  1  0.08109000  0.30272000  0.21897000  1.0 0.5992176659
C  C98  1  0.91891000  0.69728000  0.21897000  1.0 0.5992176659
C  C99  1  0.91891000  0.30272000  0.78103000  1.0 0.5992176659
C  C100  1  0.08109000  0.69728000  0.78103000  1.0 0.5992176659
C  C101  1  0.21897000  0.08109000  0.30272000  1.0 0.5992176659
C  C102  1  0.21897000  0.91891000  0.69728000  1.0 0.5992176659
C  C103  1  0.78103000  0.91891000  0.30272000  1.0 0.5992176659
C  C104  1  0.78103000  0.08109000  0.69728000  1.0 0.5992176659
C  C105  1  0.30272000  0.21897000  0.08109000  1.0 0.5992176659
C  C106  1  0.69728000  0.21897000  0.91891000  1.0 0.5992176659
C  C107  1  0.30272000  0.78103000  0.91891000  1.0 0.5992176659
C  C108  1  0.69728000  0.78103000  0.08109000  1.0 0.5992176659
C  C109  1  0.91891000  0.69728000  0.78103000  1.0 0.5992176659
C  C110  1  0.08109000  0.30272000  0.78103000  1.0 0.5992176659
C  C111  1  0.08109000  0.69728000  0.21897000  1.0 0.5992176659
C  C112  1  0.91891000  0.30272000  0.21897000  1.0 0.5992176659
C  C113  1  0.78103000  0.91891000  0.69728000  1.0 0.5992176659
C  C114  1  0.78103000  0.08109000  0.30272000  1.0 0.5992176659
C  C115  1  0.21897000  0.08109000  0.69728000  1.0 0.5992176659
C  C116  1  0.21897000  0.91891000  0.30272000  1.0 0.5992176659
C  C117  1  0.69728000  0.78103000  0.91891000  1.0 0.5992176659
C  C118  1  0.30272000  0.78103000  0.08109000  1.0 0.5992176659
C  C119  1  0.69728000  0.21897000  0.08109000  1.0 0.5992176659
C  C120  1  0.30272000  0.21897000  0.91891000  1.0 0.5992176659
C  C121  1  0.11663000  0.18271000  0.30434000  1.0 0.0186650275
C  C122  1  0.88337000  0.81729000  0.30434000  1.0 0.0186650275
C  C123  1  0.88337000  0.18271000  0.69566000  1.0 0.0186650275
C  C124  1  0.11663000  0.81729000  0.69566000  1.0 0.0186650275
C  C125  1  0.30434000  0.11663000  0.18271000  1.0 0.0186650275
C  C126  1  0.30434000  0.88337000  0.81729000  1.0 0.0186650275
C  C127  1  0.69566000  0.88337000  0.18271000  1.0 0.0186650275
C  C128  1  0.69566000  0.11663000  0.81729000  1.0 0.0186650275
C  C129  1  0.18271000  0.30434000  0.11663000  1.0 0.0186650275
C  C130  1  0.81729000  0.30434000  0.88337000  1.0 0.0186650275
C  C131  1  0.18271000  0.69566000  0.88337000  1.0 0.0186650275
C  C132  1  0.81729000  0.69566000  0.11663000  1.0 0.0186650275
C  C133  1  0.88337000  0.81729000  0.69566000  1.0 0.0186650275
C  C134  1  0.11663000  0.18271000  0.69566000  1.0 0.0186650275
C  C135  1  0.11663000  0.81729000  0.30434000  1.0 0.0186650275
C  C136  1  0.88337000  0.18271000  0.30434000  1.0 0.0186650275
C  C137  1  0.69566000  0.88337000  0.81729000  1.0 0.0186650275
C  C138  1  0.69566000  0.11663000  0.18271000  1.0 0.0186650275
C  C139  1  0.30434000  0.11663000  0.81729000  1.0 0.0186650275
C  C140  1  0.30434000  0.88337000  0.18271000  1.0 0.0186650275
C  C141  1  0.81729000  0.69566000  0.88337000  1.0 0.0186650275
C  C142  1  0.18271000  0.69566000  0.11663000  1.0 0.0186650275
C  C143  1  0.81729000  0.30434000  0.11663000  1.0 0.0186650275
C  C144  1  0.18271000  0.30434000  0.88337000  1.0 0.0186650275
C  C145  1  0.00000000  0.45250000  0.31180000  1.0 0.0186650275
C  C146  1  0.00000000  0.54750000  0.31180000  1.0 0.0186650275
C  C147  1  0.00000000  0.45250000  0.68820000  1.0 0.0186650275
C  C148  1  0.00000000  0.54750000  0.68820000  1.0 0.0186650275
C  C149  1  0.31180000  0.00000000  0.45250000  1.0 0.0186650275
C  C150  1  0.31180000  0.00000000  0.54750000  1.0 0.0186650275
C  C151  1  0.68820000  0.00000000  0.45250000  1.0 0.0186650275
C  C152  1  0.68820000  0.00000000  0.54750000  1.0 0.0186650275
C  C153  1  0.45250000  0.31180000  0.00000000  1.0 0.0186650275
C  C154  1  0.54750000  0.31180000  0.00000000  1.0 0.0186650275
C  C155  1  0.45250000  0.68820000  0.00000000  1.0 0.0186650275
C  C156  1  0.54750000  0.68820000  0.00000000  1.0 0.0186650275
C  C157  1  0.00000000  0.31180000  0.45270000  1.0 0.0186650275
C  C158  1  0.00000000  0.68820000  0.45270000  1.0 0.0186650275
C  C159  1  0.00000000  0.31180000  0.54730000  1.0 0.0186650275
C  C160  1  0.00000000  0.68820000  0.54730000  1.0 0.0186650275
C  C161  1  0.45270000  0.00000000  0.31180000  1.0 0.0186650275
C  C162  1  0.45270000  0.00000000  0.68820000  1.0 0.0186650275
C  C163  1  0.54730000  0.00000000  0.31180000  1.0 0.0186650275
C  C164  1  0.54730000  0.00000000  0.68820000  1.0 0.0186650275
C  C165  1  0.31180000  0.45270000  0.00000000  1.0 0.0186650275
C  C166  1  0.68820000  0.45270000  0.00000000  1.0 0.0186650275
C  C167  1  0.31180000  0.54730000  0.00000000  1.0 0.0186650275
C  C168  1  0.68820000  0.54730000  0.00000000  1.0 0.0186650275
C  C169  1  0.17760000  0.39470000  0.31880000  1.0 -0.0912538807
C  C170  1  0.82240000  0.60530000  0.31880000  1.0 -0.0912538807
C  C171  1  0.82240000  0.39470000  0.68120000  1.0 -0.0912538807
C  C172  1  0.17760000  0.60530000  0.68120000  1.0 -0.0912538807
C  C173  1  0.31880000  0.17760000  0.39470000  1.0 -0.0912538807
C  C174  1  0.31880000  0.82240000  0.60530000  1.0 -0.0912538807
C  C175  1  0.68120000  0.82240000  0.39470000  1.0 -0.0912538807
C  C176  1  0.68120000  0.17760000  0.60530000  1.0 -0.0912538807
C  C177  1  0.39470000  0.31880000  0.17760000  1.0 -0.0912538807
C  C178  1  0.60530000  0.31880000  0.82240000  1.0 -0.0912538807
C  C179  1  0.39470000  0.68120000  0.82240000  1.0 -0.0912538807
C  C180  1  0.60530000  0.68120000  0.17760000  1.0 -0.0912538807
C  C181  1  0.82240000  0.60530000  0.68120000  1.0 -0.0912538807
C  C182  1  0.17760000  0.39470000  0.68120000  1.0 -0.0912538807
C  C183  1  0.17760000  0.60530000  0.31880000  1.0 -0.0912538807
C  C184  1  0.82240000  0.39470000  0.31880000  1.0 -0.0912538807
C  C185  1  0.68120000  0.82240000  0.60530000  1.0 -0.0912538807
C  C186  1  0.68120000  0.17760000  0.39470000  1.0 -0.0912538807
C  C187  1  0.31880000  0.17760000  0.60530000  1.0 -0.0912538807
C  C188  1  0.31880000  0.82240000  0.39470000  1.0 -0.0912538807
C  C189  1  0.60530000  0.68120000  0.82240000  1.0 -0.0912538807
C  C190  1  0.39470000  0.68120000  0.17760000  1.0 -0.0912538807
C  C191  1  0.60530000  0.31880000  0.17760000  1.0 -0.0912538807
C  C192  1  0.39470000  0.31880000  0.82240000  1.0 -0.0912538807
C  C193  1  0.18990000  0.34180000  0.37310000  1.0 -0.0381714226
C  C194  1  0.81010000  0.65820000  0.37310000  1.0 -0.0381714226
C  C195  1  0.81010000  0.34180000  0.62690000  1.0 -0.0381714226
C  C196  1  0.18990000  0.65820000  0.62690000  1.0 -0.0381714226
C  C197  1  0.37310000  0.18990000  0.34180000  1.0 -0.0381714226
C  C198  1  0.37310000  0.81010000  0.65820000  1.0 -0.0381714226
C  C199  1  0.62690000  0.81010000  0.34180000  1.0 -0.0381714226
C  C200  1  0.62690000  0.18990000  0.65820000  1.0 -0.0381714226
C  C201  1  0.34180000  0.37310000  0.18990000  1.0 -0.0381714226
C  C202  1  0.65820000  0.37310000  0.81010000  1.0 -0.0381714226
C  C203  1  0.34180000  0.62690000  0.81010000  1.0 -0.0381714226
C  C204  1  0.65820000  0.62690000  0.18990000  1.0 -0.0381714226
C  C205  1  0.81010000  0.65820000  0.62690000  1.0 -0.0381714226
C  C206  1  0.18990000  0.34180000  0.62690000  1.0 -0.0381714226
C  C207  1  0.18990000  0.65820000  0.37310000  1.0 -0.0381714226
C  C208  1  0.81010000  0.34180000  0.37310000  1.0 -0.0381714226
C  C209  1  0.62690000  0.81010000  0.65820000  1.0 -0.0381714226
C  C210  1  0.62690000  0.18990000  0.34180000  1.0 -0.0381714226
C  C211  1  0.37310000  0.18990000  0.65820000  1.0 -0.0381714226
C  C212  1  0.37310000  0.81010000  0.34180000  1.0 -0.0381714226
C  C213  1  0.65820000  0.62690000  0.81010000  1.0 -0.0381714226
C  C214  1  0.34180000  0.62690000  0.18990000  1.0 -0.0381714226
C  C215  1  0.65820000  0.37310000  0.18990000  1.0 -0.0381714226
C  C216  1  0.34180000  0.37310000  0.81010000  1.0 -0.0381714226
C  C217  1  0.11634000  0.30413000  0.18276000  1.0 0.0186650275
C  C218  1  0.88366000  0.69587000  0.18276000  1.0 0.0121238519
C  C219  1  0.88366000  0.30413000  0.81724000  1.0 0.0121238519
C  C220  1  0.11634000  0.69587000  0.81724000  1.0 0.0186650275
C  C221  1  0.18276000  0.11634000  0.30413000  1.0 0.0186650275
C  C222  1  0.18276000  0.88366000  0.69587000  1.0 0.0121238519
C  C223  1  0.81724000  0.88366000  0.30413000  1.0 0.0121238519
C  C224  1  0.81724000  0.11634000  0.69587000  1.0 0.0186650275
C  C225  1  0.30413000  0.18276000  0.11634000  1.0 0.0186650275
C  C226  1  0.69587000  0.18276000  0.88366000  1.0 0.0121238519
C  C227  1  0.30413000  0.81724000  0.88366000  1.0 0.0121238519
C  C228  1  0.69587000  0.81724000  0.11634000  1.0 0.0186650275
C  C229  1  0.88366000  0.69587000  0.81724000  1.0 0.0121238519
C  C230  1  0.11634000  0.30413000  0.81724000  1.0 0.0186650275
C  C231  1  0.11634000  0.69587000  0.18276000  1.0 0.0186650275
C  C232  1  0.88366000  0.30413000  0.18276000  1.0 0.0121238519
C  C233  1  0.81724000  0.88366000  0.69587000  1.0 0.0121238519
C  C234  1  0.81724000  0.11634000  0.30413000  1.0 0.0186650275
C  C235  1  0.18276000  0.11634000  0.69587000  1.0 0.0186650275
C  C236  1  0.18276000  0.88366000  0.30413000  1.0 0.0121238519
C  C237  1  0.69587000  0.81724000  0.88366000  1.0 0.0121238519
C  C238  1  0.30413000  0.81724000  0.11634000  1.0 0.0186650275
C  C239  1  0.69587000  0.18276000  0.11634000  1.0 0.0186650275
C  C240  1  0.30413000  0.18276000  0.88366000  1.0 0.0121238519
C  C241  1  0.15651000  0.18895000  0.32600000  1.0 -0.1096453976
C  C242  1  0.84349000  0.81105000  0.32600000  1.0 -0.1096453976
C  C243  1  0.84349000  0.18895000  0.67400000  1.0 -0.1096453976
C  C244  1  0.15651000  0.81105000  0.67400000  1.0 -0.1096453976
C  C245  1  0.32600000  0.15651000  0.18895000  1.0 -0.1096453976
C  C246  1  0.32600000  0.84349000  0.81105000  1.0 -0.1096453976
C  C247  1  0.67400000  0.84349000  0.18895000  1.0 -0.1096453976
C  C248  1  0.67400000  0.15651000  0.81105000  1.0 -0.1096453976
C  C249  1  0.18895000  0.32600000  0.15651000  1.0 -0.1096453976
C  C250  1  0.81105000  0.32600000  0.84349000  1.0 -0.1096453976
C  C251  1  0.18895000  0.67400000  0.84349000  1.0 -0.1096453976
C  C252  1  0.81105000  0.67400000  0.15651000  1.0 -0.1096453976
C  C253  1  0.84349000  0.81105000  0.67400000  1.0 -0.1096453976
C  C254  1  0.15651000  0.18895000  0.67400000  1.0 -0.1096453976
C  C255  1  0.15651000  0.81105000  0.32600000  1.0 -0.1096453976
C  C256  1  0.84349000  0.18895000  0.32600000  1.0 -0.1096453976
C  C257  1  0.67400000  0.84349000  0.81105000  1.0 -0.1096453976
C  C258  1  0.67400000  0.15651000  0.18895000  1.0 -0.1096453976
C  C259  1  0.32600000  0.15651000  0.81105000  1.0 -0.1096453976
C  C260  1  0.32600000  0.84349000  0.18895000  1.0 -0.1096453976
C  C261  1  0.81105000  0.67400000  0.84349000  1.0 -0.1096453976
C  C262  1  0.18895000  0.67400000  0.15651000  1.0 -0.1096453976
C  C263  1  0.81105000  0.32600000  0.15651000  1.0 -0.1096453976
C  C264  1  0.18895000  0.32600000  0.84349000  1.0 -0.1096453976
C  C265  1  0.11053000  0.14283000  0.28300000  1.0 -0.0958590925
C  C266  1  0.88947000  0.85717000  0.28300000  1.0 -0.0958590925
C  C267  1  0.88947000  0.14283000  0.71700000  1.0 -0.0912538807
C  C268  1  0.11053000  0.85717000  0.71700000  1.0 -0.0958590925
C  C269  1  0.28300000  0.11053000  0.14283000  1.0 -0.0958590925
C  C270  1  0.28300000  0.88947000  0.85717000  1.0 -0.0958590925
C  C271  1  0.71700000  0.88947000  0.14283000  1.0 -0.0912538807
C  C272  1  0.71700000  0.11053000  0.85717000  1.0 -0.0912538807
C  C273  1  0.14283000  0.28300000  0.11053000  1.0 -0.0958590925
C  C274  1  0.85717000  0.28300000  0.88947000  1.0 -0.0912538807
C  C275  1  0.14283000  0.71700000  0.88947000  1.0 -0.0912538807
C  C276  1  0.85717000  0.71700000  0.11053000  1.0 -0.0958590925
C  C277  1  0.88947000  0.85717000  0.71700000  1.0 -0.0912538807
C  C278  1  0.11053000  0.14283000  0.71700000  1.0 -0.0912538807
C  C279  1  0.11053000  0.85717000  0.28300000  1.0 -0.0958590925
C  C280  1  0.88947000  0.14283000  0.28300000  1.0 -0.0912538807
C  C281  1  0.71700000  0.88947000  0.85717000  1.0 -0.0912538807
C  C282  1  0.71700000  0.11053000  0.14283000  1.0 -0.0912538807
C  C283  1  0.28300000  0.11053000  0.85717000  1.0 -0.0958590925
C  C284  1  0.28300000  0.88947000  0.14283000  1.0 -0.0958590925
C  C285  1  0.85717000  0.71700000  0.88947000  1.0 -0.0912538807
C  C286  1  0.14283000  0.71700000  0.11053000  1.0 -0.0958590925
C  C287  1  0.85717000  0.28300000  0.11053000  1.0 -0.0958590925
C  C288  1  0.14283000  0.28300000  0.88947000  1.0 -0.0912538807
C  C289  1  0.03899000  0.47670000  0.31270000  1.0 -0.0958590925
C  C290  1  0.96101000  0.52330000  0.31270000  1.0 -0.0958590925
C  C291  1  0.96101000  0.47670000  0.68730000  1.0 -0.0958590925
C  C292  1  0.03899000  0.52330000  0.68730000  1.0 -0.0958590925
C  C293  1  0.31270000  0.03899000  0.47670000  1.0 -0.0958590925
C  C294  1  0.31270000  0.96101000  0.52330000  1.0 -0.0958590925
C  C295  1  0.68730000  0.96101000  0.47670000  1.0 -0.0958590925
C  C296  1  0.68730000  0.03899000  0.52330000  1.0 -0.0958590925
C  C297  1  0.47670000  0.31270000  0.03899000  1.0 -0.0958590925
C  C298  1  0.52330000  0.31270000  0.96101000  1.0 -0.0958590925
C  C299  1  0.47670000  0.68730000  0.96101000  1.0 -0.0958590925
C  C300  1  0.52330000  0.68730000  0.03899000  1.0 -0.0958590925
C  C301  1  0.96101000  0.52330000  0.68730000  1.0 -0.0958590925
C  C302  1  0.03899000  0.47670000  0.68730000  1.0 -0.0958590925
C  C303  1  0.03899000  0.52330000  0.31270000  1.0 -0.0958590925
C  C304  1  0.96101000  0.47670000  0.31270000  1.0 -0.0958590925
C  C305  1  0.68730000  0.96101000  0.52330000  1.0 -0.0958590925
C  C306  1  0.68730000  0.03899000  0.47670000  1.0 -0.0958590925
C  C307  1  0.31270000  0.03899000  0.52330000  1.0 -0.0958590925
C  C308  1  0.31270000  0.96101000  0.47670000  1.0 -0.0958590925
C  C309  1  0.52330000  0.68730000  0.96101000  1.0 -0.0958590925
C  C310  1  0.47670000  0.68730000  0.03899000  1.0 -0.0958590925
C  C311  1  0.52330000  0.31270000  0.03899000  1.0 -0.0958590925
C  C312  1  0.47670000  0.31270000  0.96101000  1.0 -0.0958590925
C  C313  1  0.03912000  0.31210000  0.47679000  1.0 -0.0912538807
C  C314  1  0.96088000  0.68790000  0.47679000  1.0 -0.0912538807
C  C315  1  0.96088000  0.31210000  0.52321000  1.0 -0.0912538807
C  C316  1  0.03912000  0.68790000  0.52321000  1.0 -0.0912538807
C  C317  1  0.47679000  0.03912000  0.31210000  1.0 -0.0912538807
C  C318  1  0.47679000  0.96088000  0.68790000  1.0 -0.0912538807
C  C319  1  0.52321000  0.96088000  0.31210000  1.0 -0.0912538807
C  C320  1  0.52321000  0.03912000  0.68790000  1.0 -0.0912538807
C  C321  1  0.31210000  0.47679000  0.03912000  1.0 -0.0912538807
C  C322  1  0.68790000  0.47679000  0.96088000  1.0 -0.0912538807
C  C323  1  0.31210000  0.52321000  0.96088000  1.0 -0.0912538807
C  C324  1  0.68790000  0.52321000  0.03912000  1.0 -0.0912538807
C  C325  1  0.96088000  0.68790000  0.52321000  1.0 -0.0912538807
C  C326  1  0.03912000  0.31210000  0.52321000  1.0 -0.0912538807
C  C327  1  0.03912000  0.68790000  0.47679000  1.0 -0.0912538807
C  C328  1  0.96088000  0.31210000  0.47679000  1.0 -0.0912538807
C  C329  1  0.52321000  0.96088000  0.68790000  1.0 -0.0912538807
C  C330  1  0.52321000  0.03912000  0.31210000  1.0 -0.0912538807
C  C331  1  0.47679000  0.03912000  0.68790000  1.0 -0.0912538807
C  C332  1  0.47679000  0.96088000  0.31210000  1.0 -0.0912538807
C  C333  1  0.68790000  0.52321000  0.96088000  1.0 -0.0912538807
C  C334  1  0.31210000  0.52321000  0.03912000  1.0 -0.0912538807
C  C335  1  0.68790000  0.47679000  0.03912000  1.0 -0.0912538807
C  C336  1  0.31210000  0.47679000  0.96088000  1.0 -0.0912538807
C  C337  1  0.20170000  0.37930000  0.35380000  1.0 -0.0381714226
C  C338  1  0.79830000  0.62070000  0.35380000  1.0 -0.0381714226
C  C339  1  0.79830000  0.37930000  0.64620000  1.0 -0.0381714226
C  C340  1  0.20170000  0.62070000  0.64620000  1.0 -0.0381714226
C  C341  1  0.35380000  0.20170000  0.37930000  1.0 -0.0381714226
C  C342  1  0.35380000  0.79830000  0.62070000  1.0 -0.0381714226
C  C343  1  0.64620000  0.79830000  0.37930000  1.0 -0.0381714226
C  C344  1  0.64620000  0.20170000  0.62070000  1.0 -0.0381714226
C  C345  1  0.37930000  0.35380000  0.20170000  1.0 -0.0381714226
C  C346  1  0.62070000  0.35380000  0.79830000  1.0 -0.0381714226
C  C347  1  0.37930000  0.64620000  0.79830000  1.0 -0.0381714226
C  C348  1  0.62070000  0.64620000  0.20170000  1.0 -0.0381714226
C  C349  1  0.79830000  0.62070000  0.64620000  1.0 -0.0381714226
C  C350  1  0.20170000  0.37930000  0.64620000  1.0 -0.0381714226
C  C351  1  0.20170000  0.62070000  0.35380000  1.0 -0.0381714226
C  C352  1  0.79830000  0.37930000  0.35380000  1.0 -0.0381714226
C  C353  1  0.64620000  0.79830000  0.62070000  1.0 -0.0381714226
C  C354  1  0.64620000  0.20170000  0.37930000  1.0 -0.0381714226
C  C355  1  0.35380000  0.20170000  0.62070000  1.0 -0.0381714226
C  C356  1  0.35380000  0.79830000  0.37930000  1.0 -0.0381714226
C  C357  1  0.62070000  0.64620000  0.79830000  1.0 -0.0381714226
C  C358  1  0.37930000  0.64620000  0.20170000  1.0 -0.0381714226
C  C359  1  0.62070000  0.35380000  0.20170000  1.0 -0.0381714226
C  C360  1  0.37930000  0.35380000  0.79830000  1.0 -0.0381714226
C  C361  1  0.19480000  0.42960000  0.28820000  1.0 0.5169396974
C  C362  1  0.80520000  0.57040000  0.28820000  1.0 0.5169396974
C  C363  1  0.80520000  0.42960000  0.71180000  1.0 0.5169396974
C  C364  1  0.19480000  0.57040000  0.71180000  1.0 0.5169396974
C  C365  1  0.28820000  0.19480000  0.42960000  1.0 0.5169396974
C  C366  1  0.28820000  0.80520000  0.57040000  1.0 0.5169396974
C  C367  1  0.71180000  0.80520000  0.42960000  1.0 0.5169396974
C  C368  1  0.71180000  0.19480000  0.57040000  1.0 0.5169396974
C  C369  1  0.42960000  0.28820000  0.19480000  1.0 0.5169396974
C  C370  1  0.57040000  0.28820000  0.80520000  1.0 0.5169396974
C  C371  1  0.42960000  0.71180000  0.80520000  1.0 0.5169396974
C  C372  1  0.57040000  0.71180000  0.19480000  1.0 0.5169396974
C  C373  1  0.80520000  0.57040000  0.71180000  1.0 0.5169396974
C  C374  1  0.19480000  0.42960000  0.71180000  1.0 0.5169396974
C  C375  1  0.19480000  0.57040000  0.28820000  1.0 0.5169396974
C  C376  1  0.80520000  0.42960000  0.28820000  1.0 0.5169396974
C  C377  1  0.71180000  0.80520000  0.57040000  1.0 0.5169396974
C  C378  1  0.71180000  0.19480000  0.42960000  1.0 0.5169396974
C  C379  1  0.28820000  0.19480000  0.57040000  1.0 0.5169396974
C  C380  1  0.28820000  0.80520000  0.42960000  1.0 0.5169396974
C  C381  1  0.57040000  0.71180000  0.80520000  1.0 0.5169396974
C  C382  1  0.42960000  0.71180000  0.19480000  1.0 0.5169396974
C  C383  1  0.57040000  0.28820000  0.19480000  1.0 0.5169396974
C  C384  1  0.42960000  0.28820000  0.80520000  1.0 0.5169396974
C  C385  1  0.15613000  0.32660000  0.18880000  1.0 -0.1096453976
C  C386  1  0.84387000  0.67340000  0.18880000  1.0 -0.1096453976
C  C387  1  0.84387000  0.32660000  0.81120000  1.0 -0.1096453976
C  C388  1  0.15613000  0.67340000  0.81120000  1.0 -0.1096453976
C  C389  1  0.18880000  0.15613000  0.32660000  1.0 -0.1096453976
C  C390  1  0.18880000  0.84387000  0.67340000  1.0 -0.1096453976
C  C391  1  0.81120000  0.84387000  0.32660000  1.0 -0.1096453976
C  C392  1  0.81120000  0.15613000  0.67340000  1.0 -0.1096453976
C  C393  1  0.32660000  0.18880000  0.15613000  1.0 -0.1096453976
C  C394  1  0.67340000  0.18880000  0.84387000  1.0 -0.1096453976
C  C395  1  0.32660000  0.81120000  0.84387000  1.0 -0.1096453976
C  C396  1  0.67340000  0.81120000  0.15613000  1.0 -0.1096453976
C  C397  1  0.84387000  0.67340000  0.81120000  1.0 -0.1096453976
C  C398  1  0.15613000  0.32660000  0.81120000  1.0 -0.1096453976
C  C399  1  0.15613000  0.67340000  0.18880000  1.0 -0.1096453976
C  C400  1  0.84387000  0.32660000  0.18880000  1.0 -0.1096453976
C  C401  1  0.81120000  0.84387000  0.67340000  1.0 -0.1096453976
C  C402  1  0.81120000  0.15613000  0.32660000  1.0 -0.1096453976
C  C403  1  0.18880000  0.15613000  0.67340000  1.0 -0.1096453976
C  C404  1  0.18880000  0.84387000  0.32660000  1.0 -0.1096453976
C  C405  1  0.67340000  0.81120000  0.84387000  1.0 -0.1096453976
C  C406  1  0.32660000  0.81120000  0.15613000  1.0 -0.1096453976
C  C407  1  0.67340000  0.18880000  0.15613000  1.0 -0.1096453976
C  C408  1  0.32660000  0.18880000  0.84387000  1.0 -0.1096453976
C  C409  1  0.11062000  0.28350000  0.14283000  1.0 -0.0958590925
C  C410  1  0.88938000  0.71650000  0.14283000  1.0 -0.0958590925
C  C411  1  0.88938000  0.28350000  0.85717000  1.0 -0.0958590925
C  C412  1  0.11062000  0.71650000  0.85717000  1.0 -0.0958590925
C  C413  1  0.14283000  0.11062000  0.28350000  1.0 -0.0958590925
C  C414  1  0.14283000  0.88938000  0.71650000  1.0 -0.0958590925
C  C415  1  0.85717000  0.88938000  0.28350000  1.0 -0.0958590925
C  C416  1  0.85717000  0.11062000  0.71650000  1.0 -0.0958590925
C  C417  1  0.28350000  0.14283000  0.11062000  1.0 -0.0958590925
C  C418  1  0.71650000  0.14283000  0.88938000  1.0 -0.0958590925
C  C419  1  0.28350000  0.85717000  0.88938000  1.0 -0.0958590925
C  C420  1  0.71650000  0.85717000  0.11062000  1.0 -0.0958590925
C  C421  1  0.88938000  0.71650000  0.85717000  1.0 -0.0958590925
C  C422  1  0.11062000  0.28350000  0.85717000  1.0 -0.0958590925
C  C423  1  0.11062000  0.71650000  0.14283000  1.0 -0.0958590925
C  C424  1  0.88938000  0.28350000  0.14283000  1.0 -0.0958590925
C  C425  1  0.85717000  0.88938000  0.71650000  1.0 -0.0958590925
C  C426  1  0.85717000  0.11062000  0.28350000  1.0 -0.0958590925
C  C427  1  0.14283000  0.11062000  0.71650000  1.0 -0.0958590925
C  C428  1  0.14283000  0.88938000  0.28350000  1.0 -0.0958590925
C  C429  1  0.71650000  0.85717000  0.88938000  1.0 -0.0958590925
C  C430  1  0.28350000  0.85717000  0.11062000  1.0 -0.0958590925
C  C431  1  0.71650000  0.14283000  0.11062000  1.0 -0.0958590925
C  C432  1  0.28350000  0.14283000  0.88938000  1.0 -0.0958590925
C  C433  1  0.13510000  0.31520000  0.37830000  1.0 0.0978567876
C  C434  1  0.86490000  0.68480000  0.37830000  1.0 0.0978567876
C  C435  1  0.86490000  0.31520000  0.62170000  1.0 0.0978567876
C  C436  1  0.13510000  0.68480000  0.62170000  1.0 0.0978567876
C  C437  1  0.37830000  0.13510000  0.31520000  1.0 0.0978567876
C  C438  1  0.37830000  0.86490000  0.68480000  1.0 0.0978567876
C  C439  1  0.62170000  0.86490000  0.31520000  1.0 0.0978567876
C  C440  1  0.62170000  0.13510000  0.68480000  1.0 0.0978567876
C  C441  1  0.31520000  0.37830000  0.13510000  1.0 0.0978567876
C  C442  1  0.68480000  0.37830000  0.86490000  1.0 0.0978567876
C  C443  1  0.31520000  0.62170000  0.86490000  1.0 0.0978567876
C  C444  1  0.68480000  0.62170000  0.13510000  1.0 0.0978567876
C  C445  1  0.86490000  0.68480000  0.62170000  1.0 0.0978567876
C  C446  1  0.13510000  0.31520000  0.62170000  1.0 0.0978567876
C  C447  1  0.13510000  0.68480000  0.37830000  1.0 0.0978567876
C  C448  1  0.86490000  0.31520000  0.37830000  1.0 0.0978567876
C  C449  1  0.62170000  0.86490000  0.68480000  1.0 0.0978567876
C  C450  1  0.62170000  0.13510000  0.31520000  1.0 0.0978567876
C  C451  1  0.37830000  0.13510000  0.68480000  1.0 0.0978567876
C  C452  1  0.37830000  0.86490000  0.31520000  1.0 0.0978567876
C  C453  1  0.68480000  0.62170000  0.86490000  1.0 0.0978567876
C  C454  1  0.31520000  0.62170000  0.13510000  1.0 0.0978567876
C  C455  1  0.68480000  0.37830000  0.13510000  1.0 0.0978567876
C  C456  1  0.31520000  0.37830000  0.86490000  1.0 0.0978567876
C  C457  1  0.17720000  0.32080000  0.39510000  1.0 -0.0735962935
C  C458  1  0.82280000  0.67920000  0.39510000  1.0 -0.0735962935
C  C459  1  0.82280000  0.32080000  0.60490000  1.0 -0.0735962935
C  C460  1  0.17720000  0.67920000  0.60490000  1.0 -0.0735962935
C  C461  1  0.39510000  0.17720000  0.32080000  1.0 -0.0735962935
C  C462  1  0.39510000  0.82280000  0.67920000  1.0 -0.0735962935
C  C463  1  0.60490000  0.82280000  0.32080000  1.0 -0.0735962935
C  C464  1  0.60490000  0.17720000  0.67920000  1.0 -0.0735962935
C  C465  1  0.32080000  0.39510000  0.17720000  1.0 -0.0735962935
C  C466  1  0.67920000  0.39510000  0.82280000  1.0 -0.0735962935
C  C467  1  0.32080000  0.60490000  0.82280000  1.0 -0.0735962935
C  C468  1  0.67920000  0.60490000  0.17720000  1.0 -0.0735962935
C  C469  1  0.82280000  0.67920000  0.60490000  1.0 -0.0735962935
C  C470  1  0.17720000  0.32080000  0.60490000  1.0 -0.0735962935
C  C471  1  0.17720000  0.67920000  0.39510000  1.0 -0.0735962935
C  C472  1  0.82280000  0.32080000  0.39510000  1.0 -0.0735962935
C  C473  1  0.60490000  0.82280000  0.67920000  1.0 -0.0735962935
C  C474  1  0.60490000  0.17720000  0.32080000  1.0 -0.0735962935
C  C475  1  0.39510000  0.17720000  0.67920000  1.0 -0.0735962935
C  C476  1  0.39510000  0.82280000  0.32080000  1.0 -0.0735962935
C  C477  1  0.67920000  0.60490000  0.82280000  1.0 -0.0735962935
C  C478  1  0.32080000  0.60490000  0.17720000  1.0 -0.0735962935
C  C479  1  0.67920000  0.39510000  0.17720000  1.0 -0.0735962935
C  C480  1  0.32080000  0.39510000  0.82280000  1.0 -0.0735962935
C  C481  1  0.20100000  0.35760000  0.38040000  1.0 -0.0381714226
C  C482  1  0.79900000  0.64240000  0.38040000  1.0 -0.0381714226
C  C483  1  0.79900000  0.35760000  0.61960000  1.0 -0.0381714226
C  C484  1  0.20100000  0.64240000  0.61960000  1.0 -0.0381714226
C  C485  1  0.38040000  0.20100000  0.35760000  1.0 -0.0381714226
C  C486  1  0.38040000  0.79900000  0.64240000  1.0 -0.0381714226
C  C487  1  0.61960000  0.79900000  0.35760000  1.0 -0.0381714226
C  C488  1  0.61960000  0.20100000  0.64240000  1.0 -0.0381714226
C  C489  1  0.35760000  0.38040000  0.20100000  1.0 -0.0381714226
C  C490  1  0.64240000  0.38040000  0.79900000  1.0 -0.0381714226
C  C491  1  0.35760000  0.61960000  0.79900000  1.0 -0.0381714226
C  C492  1  0.64240000  0.61960000  0.20100000  1.0 -0.0381714226
C  C493  1  0.79900000  0.64240000  0.61960000  1.0 -0.0381714226
C  C494  1  0.20100000  0.35760000  0.61960000  1.0 -0.0381714226
C  C495  1  0.20100000  0.64240000  0.38040000  1.0 -0.0381714226
C  C496  1  0.79900000  0.35760000  0.38040000  1.0 -0.0381714226
C  C497  1  0.61960000  0.79900000  0.64240000  1.0 -0.0381714226
C  C498  1  0.61960000  0.20100000  0.35760000  1.0 -0.0381714226
C  C499  1  0.38040000  0.20100000  0.64240000  1.0 -0.0381714226
C  C500  1  0.38040000  0.79900000  0.35760000  1.0 -0.0381714226
C  C501  1  0.64240000  0.61960000  0.79900000  1.0 -0.0381714226
C  C502  1  0.35760000  0.61960000  0.20100000  1.0 -0.0381714226
C  C503  1  0.64240000  0.38040000  0.20100000  1.0 -0.0381714226
C  C504  1  0.35760000  0.38040000  0.79900000  1.0 -0.0381714226
C  C505  1  0.18920000  0.37630000  0.34130000  1.0 0.0121238519
C  C506  1  0.81080000  0.62370000  0.34130000  1.0 0.0121238519
C  C507  1  0.81080000  0.37630000  0.65870000  1.0 0.0121238519
C  C508  1  0.18920000  0.62370000  0.65870000  1.0 0.0121238519
C  C509  1  0.34130000  0.18920000  0.37630000  1.0 0.0121238519
C  C510  1  0.34130000  0.81080000  0.62370000  1.0 0.0121238519
C  C511  1  0.65870000  0.81080000  0.37630000  1.0 0.0121238519
C  C512  1  0.65870000  0.18920000  0.62370000  1.0 0.0121238519
C  C513  1  0.37630000  0.34130000  0.18920000  1.0 0.0121238519
C  C514  1  0.62370000  0.34130000  0.81080000  1.0 0.0121238519
C  C515  1  0.37630000  0.65870000  0.81080000  1.0 0.0121238519
C  C516  1  0.62370000  0.65870000  0.18920000  1.0 0.0121238519
C  C517  1  0.81080000  0.62370000  0.65870000  1.0 0.0121238519
C  C518  1  0.18920000  0.37630000  0.65870000  1.0 0.0121238519
C  C519  1  0.18920000  0.62370000  0.34130000  1.0 0.0121238519
C  C520  1  0.81080000  0.37630000  0.34130000  1.0 0.0121238519
C  C521  1  0.65870000  0.81080000  0.62370000  1.0 0.0121238519
C  C522  1  0.65870000  0.18920000  0.37630000  1.0 0.0121238519
C  C523  1  0.34130000  0.18920000  0.62370000  1.0 0.0121238519
C  C524  1  0.34130000  0.81080000  0.37630000  1.0 0.0121238519
C  C525  1  0.62370000  0.65870000  0.81080000  1.0 0.0121238519
C  C526  1  0.37630000  0.65870000  0.18920000  1.0 0.0121238519
C  C527  1  0.62370000  0.34130000  0.18920000  1.0 0.0121238519
C  C528  1  0.37630000  0.34130000  0.81080000  1.0 0.0121238519
C  C529  1  0.14800000  0.36820000  0.32310000  1.0 0.1100547208
C  C530  1  0.85200000  0.63180000  0.32310000  1.0 0.1100547208
C  C531  1  0.85200000  0.36820000  0.67690000  1.0 0.1100547208
C  C532  1  0.14800000  0.63180000  0.67690000  1.0 0.1100547208
C  C533  1  0.32310000  0.14800000  0.36820000  1.0 0.1100547208
C  C534  1  0.32310000  0.85200000  0.63180000  1.0 0.1100547208
C  C535  1  0.67690000  0.85200000  0.36820000  1.0 0.1100547208
C  C536  1  0.67690000  0.14800000  0.63180000  1.0 0.1100547208
C  C537  1  0.36820000  0.32310000  0.14800000  1.0 0.1100547208
C  C538  1  0.63180000  0.32310000  0.85200000  1.0 0.1100547208
C  C539  1  0.36820000  0.67690000  0.85200000  1.0 0.1100547208
C  C540  1  0.63180000  0.67690000  0.14800000  1.0 0.1100547208
C  C541  1  0.85200000  0.63180000  0.67690000  1.0 0.1100547208
C  C542  1  0.14800000  0.36820000  0.67690000  1.0 0.1100547208
C  C543  1  0.14800000  0.63180000  0.32310000  1.0 0.1100547208
C  C544  1  0.85200000  0.36820000  0.32310000  1.0 0.1100547208
C  C545  1  0.67690000  0.85200000  0.63180000  1.0 0.1100547208
C  C546  1  0.67690000  0.14800000  0.36820000  1.0 0.1100547208
C  C547  1  0.32310000  0.14800000  0.63180000  1.0 0.1100547208
C  C548  1  0.32310000  0.85200000  0.36820000  1.0 0.1100547208
C  C549  1  0.63180000  0.67690000  0.85200000  1.0 0.1100547208
C  C550  1  0.36820000  0.67690000  0.14800000  1.0 0.1100547208
C  C551  1  0.63180000  0.32310000  0.14800000  1.0 0.1100547208
C  C552  1  0.36820000  0.32310000  0.85200000  1.0 0.1100547208
C  C553  1  0.19440000  0.29060000  0.43250000  1.0 0.500699164
C  C554  1  0.80560000  0.70940000  0.43250000  1.0 0.500699164
C  C555  1  0.80560000  0.29060000  0.56750000  1.0 0.500699164
C  C556  1  0.19440000  0.70940000  0.56750000  1.0 0.500699164
C  C557  1  0.43250000  0.19440000  0.29060000  1.0 0.500699164
C  C558  1  0.43250000  0.80560000  0.70940000  1.0 0.500699164
C  C559  1  0.56750000  0.80560000  0.29060000  1.0 0.500699164
C  C560  1  0.56750000  0.19440000  0.70940000  1.0 0.500699164
C  C561  1  0.29060000  0.43250000  0.19440000  1.0 0.500699164
C  C562  1  0.70940000  0.43250000  0.80560000  1.0 0.500699164
C  C563  1  0.29060000  0.56750000  0.80560000  1.0 0.500699164
C  C564  1  0.70940000  0.56750000  0.19440000  1.0 0.500699164
C  C565  1  0.80560000  0.70940000  0.56750000  1.0 0.500699164
C  C566  1  0.19440000  0.29060000  0.56750000  1.0 0.500699164
C  C567  1  0.19440000  0.70940000  0.43250000  1.0 0.500699164
C  C568  1  0.80560000  0.29060000  0.43250000  1.0 0.500699164
C  C569  1  0.56750000  0.80560000  0.70940000  1.0 0.500699164
C  C570  1  0.56750000  0.19440000  0.29060000  1.0 0.500699164
C  C571  1  0.43250000  0.19440000  0.70940000  1.0 0.500699164
C  C572  1  0.43250000  0.80560000  0.29060000  1.0 0.500699164
C  C573  1  0.70940000  0.56750000  0.80560000  1.0 0.500699164
C  C574  1  0.29060000  0.56750000  0.19440000  1.0 0.500699164
C  C575  1  0.70940000  0.43250000  0.19440000  1.0 0.500699164
C  C576  1  0.29060000  0.43250000  0.80560000  1.0 0.500699164
N  N1  1  0.12120000  0.34400000  0.33800000  1.0 -0.220309591
N  N2  1  0.87880000  0.65600000  0.33800000  1.0 -0.220309591
N  N3  1  0.87880000  0.34400000  0.66200000  1.0 -0.220309591
N  N4  1  0.12120000  0.65600000  0.66200000  1.0 -0.220309591
N  N5  1  0.33800000  0.12120000  0.34400000  1.0 -0.220309591
N  N6  1  0.33800000  0.87880000  0.65600000  1.0 -0.220309591
N  N7  1  0.66200000  0.87880000  0.34400000  1.0 -0.2252429895
N  N8  1  0.66200000  0.12120000  0.65600000  1.0 -0.220309591
N  N9  1  0.34400000  0.33800000  0.12120000  1.0 -0.220309591
N  N10  1  0.65600000  0.33800000  0.87880000  1.0 -0.220309591
N  N11  1  0.34400000  0.66200000  0.87880000  1.0 -0.220309591
N  N12  1  0.65600000  0.66200000  0.12120000  1.0 -0.2252429895
N  N13  1  0.87880000  0.65600000  0.66200000  1.0 -0.220309591
N  N14  1  0.12120000  0.34400000  0.66200000  1.0 -0.220309591
N  N15  1  0.12120000  0.65600000  0.33800000  1.0 -0.220309591
N  N16  1  0.87880000  0.34400000  0.33800000  1.0 -0.220309591
N  N17  1  0.66200000  0.87880000  0.65600000  1.0 -0.220309591
N  N18  1  0.66200000  0.12120000  0.34400000  1.0 -0.220309591
N  N19  1  0.33800000  0.12120000  0.65600000  1.0 -0.220309591
N  N20  1  0.33800000  0.87880000  0.34400000  1.0 -0.2252429895
N  N21  1  0.65600000  0.66200000  0.87880000  1.0 -0.220309591
N  N22  1  0.34400000  0.66200000  0.12120000  1.0 -0.2252429895
N  N23  1  0.65600000  0.33800000  0.12120000  1.0 -0.220309591
N  N24  1  0.34400000  0.33800000  0.87880000  1.0 -0.220309591
N  N25  1  0.11880000  0.34080000  0.34470000  1.0 -0.220309591
N  N26  1  0.88120000  0.65920000  0.34470000  1.0 -0.220309591
N  N27  1  0.88120000  0.34080000  0.65530000  1.0 -0.220309591
N  N28  1  0.11880000  0.65920000  0.65530000  1.0 -0.220309591
N  N29  1  0.34470000  0.11880000  0.34080000  1.0 -0.220309591
N  N30  1  0.34470000  0.88120000  0.65920000  1.0 -0.220309591
N  N31  1  0.65530000  0.88120000  0.34080000  1.0 -0.220309591
N  N32  1  0.65530000  0.11880000  0.65920000  1.0 -0.220309591
N  N33  1  0.34080000  0.34470000  0.11880000  1.0 -0.220309591
N  N34  1  0.65920000  0.34470000  0.88120000  1.0 -0.220309591
N  N35  1  0.34080000  0.65530000  0.88120000  1.0 -0.220309591
N  N36  1  0.65920000  0.65530000  0.11880000  1.0 -0.220309591
N  N37  1  0.88120000  0.65920000  0.65530000  1.0 -0.220309591
N  N38  1  0.11880000  0.34080000  0.65530000  1.0 -0.220309591
N  N39  1  0.11880000  0.65920000  0.34470000  1.0 -0.220309591
N  N40  1  0.88120000  0.34080000  0.34470000  1.0 -0.220309591
N  N41  1  0.65530000  0.88120000  0.65920000  1.0 -0.220309591
N  N42  1  0.65530000  0.11880000  0.34080000  1.0 -0.220309591
N  N43  1  0.34470000  0.11880000  0.65920000  1.0 -0.220309591
N  N44  1  0.34470000  0.88120000  0.34080000  1.0 -0.220309591
N  N45  1  0.65920000  0.65530000  0.88120000  1.0 -0.220309591
N  N46  1  0.34080000  0.65530000  0.11880000  1.0 -0.220309591
N  N47  1  0.65920000  0.34470000  0.11880000  1.0 -0.220309591
N  N48  1  0.34080000  0.34470000  0.88120000  1.0 -0.220309591
O  O1  1  0.00000000  0.29460000  0.29446000  1.0 -0.7470434181
O  O2  1  0.00000000  0.70540000  0.29446000  1.0 -0.7470434181
O  O3  1  0.00000000  0.29460000  0.70554000  1.0 -0.7470434181
O  O4  1  0.00000000  0.70540000  0.70554000  1.0 -0.7470434181
O  O5  1  0.29446000  0.00000000  0.29460000  1.0 -0.7470434181
O  O6  1  0.29446000  0.00000000  0.70540000  1.0 -0.7470434181
O  O7  1  0.70554000  0.00000000  0.29460000  1.0 -0.7470434181
O  O8  1  0.70554000  0.00000000  0.70540000  1.0 -0.7470434181
O  O9  1  0.29460000  0.29446000  0.00000000  1.0 -0.7470434181
O  O10  1  0.70540000  0.29446000  0.00000000  1.0 -0.7470434181
O  O11  1  0.29460000  0.70554000  0.00000000  1.0 -0.7470434181
O  O12  1  0.70540000  0.70554000  0.00000000  1.0 -0.7470434181
O  O13  1  0.08774000  0.25458000  0.32343000  1.0 -0.5135627318
O  O14  1  0.91226000  0.74542000  0.32343000  1.0 -0.5153877012
O  O15  1  0.91226000  0.25458000  0.67657000  1.0 -0.5135627318
O  O16  1  0.08774000  0.74542000  0.67657000  1.0 -0.5153877012
O  O17  1  0.32343000  0.08774000  0.25458000  1.0 -0.5135627318
O  O18  1  0.32343000  0.91226000  0.74542000  1.0 -0.5153877012
O  O19  1  0.67657000  0.91226000  0.25458000  1.0 -0.5153877012
O  O20  1  0.67657000  0.08774000  0.74542000  1.0 -0.5135627318
O  O21  1  0.25458000  0.32343000  0.08774000  1.0 -0.5135627318
O  O22  1  0.74542000  0.32343000  0.91226000  1.0 -0.5135627318
O  O23  1  0.25458000  0.67657000  0.91226000  1.0 -0.5153877012
O  O24  1  0.74542000  0.67657000  0.08774000  1.0 -0.5135627318
O  O25  1  0.91226000  0.74542000  0.67657000  1.0 -0.5153877012
O  O26  1  0.08774000  0.25458000  0.67657000  1.0 -0.5135627318
O  O27  1  0.08774000  0.74542000  0.32343000  1.0 -0.5153877012
O  O28  1  0.91226000  0.25458000  0.32343000  1.0 -0.5135627318
O  O29  1  0.67657000  0.91226000  0.74542000  1.0 -0.5153877012
O  O30  1  0.67657000  0.08774000  0.25458000  1.0 -0.5135627318
O  O31  1  0.32343000  0.08774000  0.74542000  1.0 -0.5135627318
O  O32  1  0.32343000  0.91226000  0.25458000  1.0 -0.5153877012
O  O33  1  0.74542000  0.67657000  0.91226000  1.0 -0.5153877012
O  O34  1  0.25458000  0.67657000  0.08774000  1.0 -0.5153877012
O  O35  1  0.74542000  0.32343000  0.08774000  1.0 -0.5135627318
O  O36  1  0.25458000  0.32343000  0.91226000  1.0 -0.5135627318
O  O37  1  0.03708000  0.38376000  0.31356000  1.0 -0.478742206
O  O38  1  0.96292000  0.61624000  0.31356000  1.0 -0.478742206
O  O39  1  0.96292000  0.38376000  0.68644000  1.0 -0.478742206
O  O40  1  0.03708000  0.61624000  0.68644000  1.0 -0.478742206
O  O41  1  0.31356000  0.03708000  0.38376000  1.0 -0.478742206
O  O42  1  0.31356000  0.96292000  0.61624000  1.0 -0.478742206
O  O43  1  0.68644000  0.96292000  0.38376000  1.0 -0.478742206
O  O44  1  0.68644000  0.03708000  0.61624000  1.0 -0.478742206
O  O45  1  0.38376000  0.31356000  0.03708000  1.0 -0.478742206
O  O46  1  0.61624000  0.31356000  0.96292000  1.0 -0.478742206
O  O47  1  0.38376000  0.68644000  0.96292000  1.0 -0.478742206
O  O48  1  0.61624000  0.68644000  0.03708000  1.0 -0.478742206
O  O49  1  0.96292000  0.61624000  0.68644000  1.0 -0.478742206
O  O50  1  0.03708000  0.38376000  0.68644000  1.0 -0.478742206
O  O51  1  0.03708000  0.61624000  0.31356000  1.0 -0.478742206
O  O52  1  0.96292000  0.38376000  0.31356000  1.0 -0.478742206
O  O53  1  0.68644000  0.96292000  0.61624000  1.0 -0.478742206
O  O54  1  0.68644000  0.03708000  0.38376000  1.0 -0.478742206
O  O55  1  0.31356000  0.03708000  0.61624000  1.0 -0.478742206
O  O56  1  0.31356000  0.96292000  0.38376000  1.0 -0.478742206
O  O57  1  0.61624000  0.68644000  0.96292000  1.0 -0.478742206
O  O58  1  0.38376000  0.68644000  0.03708000  1.0 -0.478742206
O  O59  1  0.61624000  0.31356000  0.03708000  1.0 -0.478742206
O  O60  1  0.38376000  0.31356000  0.96292000  1.0 -0.478742206
O  O61  1  0.03707000  0.31320000  0.38389000  1.0 -0.478742206
O  O62  1  0.96293000  0.68680000  0.38389000  1.0 -0.478742206
O  O63  1  0.96293000  0.31320000  0.61611000  1.0 -0.478742206
O  O64  1  0.03707000  0.68680000  0.61611000  1.0 -0.478742206
O  O65  1  0.38389000  0.03707000  0.31320000  1.0 -0.478742206
O  O66  1  0.38389000  0.96293000  0.68680000  1.0 -0.478742206
O  O67  1  0.61611000  0.96293000  0.31320000  1.0 -0.478742206
O  O68  1  0.61611000  0.03707000  0.68680000  1.0 -0.478742206
O  O69  1  0.31320000  0.38389000  0.03707000  1.0 -0.478742206
O  O70  1  0.68680000  0.38389000  0.96293000  1.0 -0.478742206
O  O71  1  0.31320000  0.61611000  0.96293000  1.0 -0.478742206
O  O72  1  0.68680000  0.61611000  0.03707000  1.0 -0.478742206
O  O73  1  0.96293000  0.68680000  0.61611000  1.0 -0.478742206
O  O74  1  0.03707000  0.31320000  0.61611000  1.0 -0.478742206
O  O75  1  0.03707000  0.68680000  0.38389000  1.0 -0.478742206
O  O76  1  0.96293000  0.31320000  0.38389000  1.0 -0.478742206
O  O77  1  0.61611000  0.96293000  0.68680000  1.0 -0.478742206
O  O78  1  0.61611000  0.03707000  0.31320000  1.0 -0.478742206
O  O79  1  0.38389000  0.03707000  0.68680000  1.0 -0.478742206
O  O80  1  0.38389000  0.96293000  0.31320000  1.0 -0.478742206
O  O81  1  0.68680000  0.61611000  0.96293000  1.0 -0.478742206
O  O82  1  0.31320000  0.61611000  0.03707000  1.0 -0.478742206
O  O83  1  0.68680000  0.38389000  0.03707000  1.0 -0.478742206
O  O84  1  0.31320000  0.38389000  0.96293000  1.0 -0.478742206
O  O85  1  0.08770000  0.32330000  0.25471000  1.0 -0.5135627318
O  O86  1  0.91230000  0.67670000  0.25471000  1.0 -0.5135627318
O  O87  1  0.91230000  0.32330000  0.74529000  1.0 -0.5135627318
O  O88  1  0.08770000  0.67670000  0.74529000  1.0 -0.5135627318
O  O89  1  0.25471000  0.08770000  0.32330000  1.0 -0.5135627318
O  O90  1  0.25471000  0.91230000  0.67670000  1.0 -0.5135627318
O  O91  1  0.74529000  0.91230000  0.32330000  1.0 -0.5135627318
O  O92  1  0.74529000  0.08770000  0.67670000  1.0 -0.5135627318
O  O93  1  0.32330000  0.25471000  0.08770000  1.0 -0.5135627318
O  O94  1  0.67670000  0.25471000  0.91230000  1.0 -0.5135627318
O  O95  1  0.32330000  0.74529000  0.91230000  1.0 -0.5135627318
O  O96  1  0.67670000  0.74529000  0.08770000  1.0 -0.5135627318
O  O97  1  0.91230000  0.67670000  0.74529000  1.0 -0.5135627318
O  O98  1  0.08770000  0.32330000  0.74529000  1.0 -0.5135627318
O  O99  1  0.08770000  0.67670000  0.25471000  1.0 -0.5135627318
O  O100  1  0.91230000  0.32330000  0.25471000  1.0 -0.5135627318
O  O101  1  0.74529000  0.91230000  0.67670000  1.0 -0.5135627318
O  O102  1  0.74529000  0.08770000  0.32330000  1.0 -0.5135627318
O  O103  1  0.25471000  0.08770000  0.67670000  1.0 -0.5135627318
O  O104  1  0.25471000  0.91230000  0.32330000  1.0 -0.5135627318
O  O105  1  0.67670000  0.74529000  0.91230000  1.0 -0.5135627318
O  O106  1  0.32330000  0.74529000  0.08770000  1.0 -0.5135627318
O  O107  1  0.67670000  0.25471000  0.08770000  1.0 -0.5135627318
O  O108  1  0.32330000  0.25471000  0.91230000  1.0 -0.5135627318
O  O109  1  0.04780000  0.20983000  0.27841000  1.0 -0.5153877012
O  O110  1  0.95220000  0.79017000  0.27841000  1.0 -0.5135627318
O  O111  1  0.95220000  0.20983000  0.72159000  1.0 -0.5135627318
O  O112  1  0.04780000  0.79017000  0.72159000  1.0 -0.5135627318
O  O113  1  0.27841000  0.04780000  0.20983000  1.0 -0.5153877012
O  O114  1  0.27841000  0.95220000  0.79017000  1.0 -0.5135627318
O  O115  1  0.72159000  0.95220000  0.20983000  1.0 -0.5153877012
O  O116  1  0.72159000  0.04780000  0.79017000  1.0 -0.5135627318
O  O117  1  0.20983000  0.27841000  0.04780000  1.0 -0.5153877012
O  O118  1  0.79017000  0.27841000  0.95220000  1.0 -0.5135627318
O  O119  1  0.20983000  0.72159000  0.95220000  1.0 -0.5135627318
O  O120  1  0.79017000  0.72159000  0.04780000  1.0 -0.5135627318
O  O121  1  0.95220000  0.79017000  0.72159000  1.0 -0.5135627318
O  O122  1  0.04780000  0.20983000  0.72159000  1.0 -0.5135627318
O  O123  1  0.04780000  0.79017000  0.27841000  1.0 -0.5153877012
O  O124  1  0.95220000  0.20983000  0.27841000  1.0 -0.5153877012
O  O125  1  0.72159000  0.95220000  0.79017000  1.0 -0.5135627318
O  O126  1  0.72159000  0.04780000  0.20983000  1.0 -0.5135627318
O  O127  1  0.27841000  0.04780000  0.79017000  1.0 -0.5135627318
O  O128  1  0.27841000  0.95220000  0.20983000  1.0 -0.5153877012
O  O129  1  0.79017000  0.72159000  0.95220000  1.0 -0.5135627318
O  O130  1  0.20983000  0.72159000  0.04780000  1.0 -0.5153877012
O  O131  1  0.79017000  0.27841000  0.04780000  1.0 -0.5135627318
O  O132  1  0.20983000  0.27841000  0.95220000  1.0 -0.5135627318
O  O133  1  0.04762000  0.27835000  0.20973000  1.0 -0.5305499681
O  O134  1  0.95238000  0.72165000  0.20973000  1.0 -0.5305499681
O  O135  1  0.95238000  0.27835000  0.79027000  1.0 -0.5305499681
O  O136  1  0.04762000  0.72165000  0.79027000  1.0 -0.5305499681
O  O137  1  0.20973000  0.04762000  0.27835000  1.0 -0.5305499681
O  O138  1  0.20973000  0.95238000  0.72165000  1.0 -0.5305499681
O  O139  1  0.79027000  0.95238000  0.27835000  1.0 -0.5305499681
O  O140  1  0.79027000  0.04762000  0.72165000  1.0 -0.5305499681
O  O141  1  0.27835000  0.20973000  0.04762000  1.0 -0.5305499681
O  O142  1  0.72165000  0.20973000  0.95238000  1.0 -0.5305499681
O  O143  1  0.27835000  0.79027000  0.95238000  1.0 -0.5305499681
O  O144  1  0.72165000  0.79027000  0.04762000  1.0 -0.5305499681
O  O145  1  0.95238000  0.72165000  0.79027000  1.0 -0.5305499681
O  O146  1  0.04762000  0.27835000  0.79027000  1.0 -0.5305499681
O  O147  1  0.04762000  0.72165000  0.20973000  1.0 -0.5305499681
O  O148  1  0.95238000  0.27835000  0.20973000  1.0 -0.5305499681
O  O149  1  0.79027000  0.95238000  0.72165000  1.0 -0.5305499681
O  O150  1  0.79027000  0.04762000  0.27835000  1.0 -0.5305499681
O  O151  1  0.20973000  0.04762000  0.72165000  1.0 -0.5305499681
O  O152  1  0.20973000  0.95238000  0.27835000  1.0 -0.5305499681
O  O153  1  0.72165000  0.79027000  0.95238000  1.0 -0.5305499681
O  O154  1  0.27835000  0.79027000  0.04762000  1.0 -0.5305499681
O  O155  1  0.72165000  0.20973000  0.04762000  1.0 -0.5305499681
O  O156  1  0.27835000  0.20973000  0.95238000  1.0 -0.5305499681
O  O157  1  0.22930000  0.45060000  0.29910000  1.0 -0.478742206
O  O158  1  0.77070000  0.54940000  0.29910000  1.0 -0.478742206
O  O159  1  0.77070000  0.45060000  0.70090000  1.0 -0.478742206
O  O160  1  0.22930000  0.54940000  0.70090000  1.0 -0.478742206
O  O161  1  0.29910000  0.22930000  0.45060000  1.0 -0.478742206
O  O162  1  0.29910000  0.77070000  0.54940000  1.0 -0.478742206
O  O163  1  0.70090000  0.77070000  0.45060000  1.0 -0.478742206
O  O164  1  0.70090000  0.22930000  0.54940000  1.0 -0.478742206
O  O165  1  0.45060000  0.29910000  0.22930000  1.0 -0.478742206
O  O166  1  0.54940000  0.29910000  0.77070000  1.0 -0.478742206
O  O167  1  0.45060000  0.70090000  0.77070000  1.0 -0.478742206
O  O168  1  0.54940000  0.70090000  0.22930000  1.0 -0.478742206
O  O169  1  0.77070000  0.54940000  0.70090000  1.0 -0.478742206
O  O170  1  0.22930000  0.45060000  0.70090000  1.0 -0.478742206
O  O171  1  0.22930000  0.54940000  0.29910000  1.0 -0.478742206
O  O172  1  0.77070000  0.45060000  0.29910000  1.0 -0.478742206
O  O173  1  0.70090000  0.77070000  0.54940000  1.0 -0.478742206
O  O174  1  0.70090000  0.22930000  0.45060000  1.0 -0.478742206
O  O175  1  0.29910000  0.22930000  0.54940000  1.0 -0.478742206
O  O176  1  0.29910000  0.77070000  0.45060000  1.0 -0.478742206
O  O177  1  0.54940000  0.70090000  0.77070000  1.0 -0.478742206
O  O178  1  0.45060000  0.70090000  0.22930000  1.0 -0.478742206
O  O179  1  0.54940000  0.29910000  0.22930000  1.0 -0.478742206
O  O180  1  0.45060000  0.29910000  0.77070000  1.0 -0.478742206
O  O181  1  0.16760000  0.44770000  0.26180000  1.0 -0.4488035705
O  O182  1  0.83240000  0.55230000  0.26180000  1.0 -0.4488035705
O  O183  1  0.83240000  0.44770000  0.73820000  1.0 -0.4488035705
O  O184  1  0.16760000  0.55230000  0.73820000  1.0 -0.4488035705
O  O185  1  0.26180000  0.16760000  0.44770000  1.0 -0.4488035705
O  O186  1  0.26180000  0.83240000  0.55230000  1.0 -0.4488035705
O  O187  1  0.73820000  0.83240000  0.44770000  1.0 -0.4488035705
O  O188  1  0.73820000  0.16760000  0.55230000  1.0 -0.4488035705
O  O189  1  0.44770000  0.26180000  0.16760000  1.0 -0.4488035705
O  O190  1  0.55230000  0.26180000  0.83240000  1.0 -0.4488035705
O  O191  1  0.44770000  0.73820000  0.83240000  1.0 -0.4488035705
O  O192  1  0.55230000  0.73820000  0.16760000  1.0 -0.4488035705
O  O193  1  0.83240000  0.55230000  0.73820000  1.0 -0.4488035705
O  O194  1  0.16760000  0.44770000  0.73820000  1.0 -0.4488035705
O  O195  1  0.16760000  0.55230000  0.26180000  1.0 -0.4488035705
O  O196  1  0.83240000  0.44770000  0.26180000  1.0 -0.4488035705
O  O197  1  0.73820000  0.83240000  0.55230000  1.0 -0.4488035705
O  O198  1  0.73820000  0.16760000  0.44770000  1.0 -0.4488035705
O  O199  1  0.26180000  0.16760000  0.55230000  1.0 -0.4488035705
O  O200  1  0.26180000  0.83240000  0.44770000  1.0 -0.4488035705
O  O201  1  0.55230000  0.73820000  0.83240000  1.0 -0.4488035705
O  O202  1  0.44770000  0.73820000  0.16760000  1.0 -0.4488035705
O  O203  1  0.55230000  0.26180000  0.16760000  1.0 -0.4488035705
O  O204  1  0.44770000  0.26180000  0.83240000  1.0 -0.4488035705
O  O205  1  0.22960000  0.29900000  0.45050000  1.0 -0.4488035705
O  O206  1  0.77040000  0.70100000  0.45050000  1.0 -0.4488035705
O  O207  1  0.77040000  0.29900000  0.54950000  1.0 -0.4488035705
O  O208  1  0.22960000  0.70100000  0.54950000  1.0 -0.4488035705
O  O209  1  0.45050000  0.22960000  0.29900000  1.0 -0.4488035705
O  O210  1  0.45050000  0.77040000  0.70100000  1.0 -0.4488035705
O  O211  1  0.54950000  0.77040000  0.29900000  1.0 -0.4488035705
O  O212  1  0.54950000  0.22960000  0.70100000  1.0 -0.4488035705
O  O213  1  0.29900000  0.45050000  0.22960000  1.0 -0.4488035705
O  O214  1  0.70100000  0.45050000  0.77040000  1.0 -0.4488035705
O  O215  1  0.29900000  0.54950000  0.77040000  1.0 -0.4488035705
O  O216  1  0.70100000  0.54950000  0.22960000  1.0 -0.4488035705
O  O217  1  0.77040000  0.70100000  0.54950000  1.0 -0.4488035705
O  O218  1  0.22960000  0.29900000  0.54950000  1.0 -0.4488035705
O  O219  1  0.22960000  0.70100000  0.45050000  1.0 -0.4488035705
O  O220  1  0.77040000  0.29900000  0.45050000  1.0 -0.4488035705
O  O221  1  0.54950000  0.77040000  0.70100000  1.0 -0.4488035705
O  O222  1  0.54950000  0.22960000  0.29900000  1.0 -0.4488035705
O  O223  1  0.45050000  0.22960000  0.70100000  1.0 -0.4488035705
O  O224  1  0.45050000  0.77040000  0.29900000  1.0 -0.4488035705
O  O225  1  0.70100000  0.54950000  0.77040000  1.0 -0.4488035705
O  O226  1  0.29900000  0.54950000  0.22960000  1.0 -0.4488035705
O  O227  1  0.70100000  0.45050000  0.22960000  1.0 -0.4488035705
O  O228  1  0.29900000  0.45050000  0.77040000  1.0 -0.4488035705
O  O229  1  0.17000000  0.26180000  0.44670000  1.0 -0.3882200057
O  O230  1  0.83000000  0.73820000  0.44670000  1.0 -0.3882200057
O  O231  1  0.83000000  0.26180000  0.55330000  1.0 -0.3882200057
O  O232  1  0.17000000  0.73820000  0.55330000  1.0 -0.3882200057
O  O233  1  0.44670000  0.17000000  0.26180000  1.0 -0.3882200057
O  O234  1  0.44670000  0.83000000  0.73820000  1.0 -0.3882200057
O  O235  1  0.55330000  0.83000000  0.26180000  1.0 -0.3882200057
O  O236  1  0.55330000  0.17000000  0.73820000  1.0 -0.3882200057
O  O237  1  0.26180000  0.44670000  0.17000000  1.0 -0.3882200057
O  O238  1  0.73820000  0.44670000  0.83000000  1.0 -0.3882200057
O  O239  1  0.26180000  0.55330000  0.83000000  1.0 -0.3882200057
O  O240  1  0.73820000  0.55330000  0.17000000  1.0 -0.3882200057
O  O241  1  0.83000000  0.73820000  0.55330000  1.0 -0.3882200057
O  O242  1  0.17000000  0.26180000  0.55330000  1.0 -0.3882200057
O  O243  1  0.17000000  0.73820000  0.44670000  1.0 -0.3882200057
O  O244  1  0.83000000  0.26180000  0.44670000  1.0 -0.3882200057
O  O245  1  0.55330000  0.83000000  0.73820000  1.0 -0.3882200057
O  O246  1  0.55330000  0.17000000  0.26180000  1.0 -0.3882200057
O  O247  1  0.44670000  0.17000000  0.73820000  1.0 -0.3882200057
O  O248  1  0.44670000  0.83000000  0.26180000  1.0 -0.3882200057
O  O249  1  0.73820000  0.55330000  0.83000000  1.0 -0.3882200057
O  O250  1  0.26180000  0.55330000  0.17000000  1.0 -0.3882200057
O  O251  1  0.73820000  0.44670000  0.17000000  1.0 -0.3882200057
O  O252  1  0.26180000  0.44670000  0.83000000  1.0 -0.3882200057
