# DDEC6 charges by PACMAN v1.1 (https://github.com/mtap-research/PACMAN-charge/)
data_TEVVOJ01_ASR_pacman
_symmetry_space_group_name_H-M   'P 1'
_cell_length_a   12.01680000
_cell_length_b   13.48500000
_cell_length_c   23.44500000
_cell_angle_alpha   90.47000000
_cell_angle_beta   97.25500000
_cell_angle_gamma   93.18400000
_symmetry_Int_Tables_number   1
_chemical_formula_structural   DyP3H63C57(NO6)3
_chemical_formula_sum   'Dy2 P6 H126 C114 N6 O36'
_cell_volume   3762.50288966
_cell_formula_units_Z   2
loop_
 _symmetry_equiv_pos_site_id
 _symmetry_equiv_pos_as_xyz
  1  'x, y, z'
loop_
 _atom_site_type_symbol
 _atom_site_label
 _atom_site_symmetry_multiplicity
 _atom_site_fract_x
 _atom_site_fract_y
 _atom_site_fract_z
 _atom_site_occupancy
 _atom_site_charge
Dy  Dy1  1  0.70264000  0.82103000  0.25113000  1.0 1.9645997251
Dy  Dy2  1  0.29736000  0.17897000  0.74887000  1.0 1.9645997251
P  P1  1  0.76179000  0.63974000  0.13744000  1.0 1.2521662678
P  P2  1  0.23821000  0.36026000  0.86256000  1.0 1.2521662678
P  P3  1  0.90413000  0.98772000  0.18226000  1.0 1.2305103506
P  P4  1  0.09587000  0.01228000  0.81774000  1.0 1.2305103506
P  P5  1  0.55547000  0.02412000  0.31035000  1.0 1.2167544331
P  P6  1  0.44453000  0.97588000  0.68965000  1.0 1.2167544331
H  H1  1  0.62508000  0.71190000  0.07673000  1.0 0.1585757847
H  H2  1  0.37492000  0.28810000  0.92327000  1.0 0.1585757847
H  H3  1  0.72271000  0.67875000  0.04204000  1.0 0.1479967128
H  H4  1  0.27729000  0.32125000  0.95796000  1.0 0.1479967128
H  H5  1  0.81822000  0.55094000  0.03101000  1.0 0.1209954236
H  H6  1  0.18178000  0.44906000  0.96899000  1.0 0.1209954236
H  H7  1  0.90788000  0.41317000  0.00312000  1.0 0.1100166781
H  H8  1  0.09212000  0.58683000  0.99688000  1.0 0.1100166781
H  H9  1  0.80769000  0.26414000  0.97960000  1.0 0.1100166781
H  H10  1  0.19231000  0.73586000  0.02040000  1.0 0.1100166781
H  H11  1  0.61409000  0.25129000  0.98318000  1.0 0.1209954236
H  H12  1  0.38591000  0.74871000  0.01682000  1.0 0.1209954236
H  H13  1  0.45226000  0.31555000  0.01605000  1.0 0.1001285151
H  H14  1  0.54774000  0.68445000  0.98395000  1.0 0.1001285151
H  H15  1  0.34466000  0.33414000  0.09373000  1.0 0.1100166781
H  H16  1  0.65534000  0.66586000  0.90627000  1.0 0.1100166781
H  H17  1  0.31022000  0.41737000  0.17601000  1.0 0.1100166781
H  H18  1  0.68978000  0.58263000  0.82399000  1.0 0.1100166781
H  H19  1  0.39653000  0.57624000  0.19819000  1.0 0.1209954236
H  H20  1  0.60347000  0.42376000  0.80181000  1.0 0.1209954236
H  H21  1  0.52765000  0.64103000  0.14230000  1.0 0.1209954236
H  H22  1  0.47235000  0.35897000  0.85770000  1.0 0.1209954236
H  H23  1  0.68046000  0.42240000  0.19688000  1.0 0.0843203332
H  H24  1  0.31954000  0.57760000  0.80312000  1.0 0.0843203332
H  H25  1  0.66408000  0.53286000  0.21884000  1.0 0.0929875968
H  H26  1  0.33592000  0.46714000  0.78116000  1.0 0.0929875968
H  H27  1  0.86676000  0.43438000  0.23908000  1.0 0.1304180187
H  H28  1  0.13324000  0.56562000  0.76092000  1.0 0.1304180187
H  H29  1  0.78486000  0.45360000  0.28631000  1.0 0.1304180187
H  H30  1  0.21514000  0.54640000  0.71369000  1.0 0.1304180187
H  H31  1  0.85152000  0.54524000  0.26046000  1.0 0.1479967128
H  H32  1  0.14848000  0.45476000  0.73954000  1.0 0.1479967128
H  H33  1  0.01076000  0.71382000  0.18024000  1.0 0.1001285151
H  H34  1  0.98924000  0.28618000  0.81976000  1.0 0.1001285151
H  H35  1  0.95547000  0.60817000  0.19587000  1.0 0.1001285151
H  H36  1  0.04453000  0.39183000  0.80413000  1.0 0.0929875968
H  H37  1  0.03258000  0.53466000  0.12552000  1.0 0.1388087993
H  H38  1  0.96742000  0.46534000  0.87448000  1.0 0.1388087993
H  H39  1  0.12787000  0.59469000  0.16817000  1.0 0.1388087993
H  H40  1  0.87213000  0.40531000  0.83183000  1.0 0.1388087993
H  H41  1  0.08401000  0.63984000  0.10705000  1.0 0.1304180187
H  H42  1  0.91599000  0.36016000  0.89295000  1.0 0.1304180187
H  H43  1  0.05810000  0.93527000  0.14471000  1.0 0.1479967128
H  H44  1  0.94190000  0.06473000  0.85529000  1.0 0.1479967128
H  H45  1  0.95021000  0.86555000  0.12247000  1.0 0.1585757847
H  H46  1  0.04979000  0.13445000  0.87753000  1.0 0.1585757847
H  H47  1  0.77582000  0.88812000  0.08620000  1.0 0.1304180187
H  H48  1  0.22418000  0.11188000  0.91380000  1.0 0.1304180187
H  H49  1  0.59893000  0.89249000  0.03324000  1.0 0.1100166781
H  H50  1  0.40107000  0.10751000  0.96676000  1.0 0.1100166781
H  H51  1  0.57518000  0.98567000  0.94887000  1.0 0.1100166781
H  H52  1  0.42482000  0.01433000  0.05113000  1.0 0.1100166781
H  H53  1  0.73089000  0.07024000  0.91792000  1.0 0.1209954236
H  H54  1  0.26911000  0.92976000  0.08208000  1.0 0.1209954236
H  H55  1  0.91709000  0.13990000  0.93875000  1.0 0.1001285151
H  H56  1  0.08291000  0.86010000  0.06125000  1.0 0.1001285151
H  H57  1  0.03951000  0.27229000  0.98028000  1.0 0.1209954236
H  H58  1  0.96049000  0.72771000  0.01972000  1.0 0.1209954236
H  H59  1  0.13666000  0.35190000  0.06265000  1.0 0.1100166781
H  H60  1  0.86334000  0.64810000  0.93735000  1.0 0.1100166781
H  H61  1  0.16465000  0.26416000  0.14783000  1.0 0.1100166781
H  H62  1  0.83535000  0.73584000  0.85217000  1.0 0.1100166781
H  H63  1  0.09677000  0.10136000  0.15181000  1.0 0.1100166781
H  H64  1  0.90323000  0.89864000  0.84819000  1.0 0.1100166781
H  H65  1  0.93750000  0.04084000  0.29890000  1.0 0.1001285151
H  H66  1  0.06250000  0.95916000  0.70110000  1.0 0.1001285151
H  H67  1  0.99426000  0.13616000  0.27130000  1.0 0.1001285151
H  H68  1  0.00574000  0.86384000  0.72870000  1.0 0.1001285151
H  H69  1  0.10243000  0.99037000  0.33724000  1.0 0.1479967128
H  H70  1  0.89757000  0.00963000  0.66276000  1.0 0.1479967128
H  H71  1  0.10930000  0.10756000  0.34966000  1.0 0.1304180187
H  H72  1  0.89070000  0.89244000  0.65034000  1.0 0.1304180187
H  H73  1  0.16967000  0.06375000  0.29864000  1.0 0.1388087993
H  H74  1  0.83033000  0.93625000  0.70136000  1.0 0.1388087993
H  H75  1  0.69047000  0.04516000  0.14958000  1.0 0.1001285151
H  H76  1  0.30953000  0.95484000  0.85042000  1.0 0.1001285151
H  H77  1  0.72481000  0.12805000  0.19885000  1.0 0.0929875968
H  H78  1  0.27519000  0.87195000  0.80115000  1.0 0.0929875968
H  H79  1  0.74288000  0.24518000  0.13458000  1.0 0.1479967128
H  H80  1  0.25712000  0.75482000  0.86542000  1.0 0.1479967128
H  H81  1  0.62516000  0.18515000  0.11570000  1.0 0.1304180187
H  H82  1  0.37484000  0.81485000  0.88430000  1.0 0.1304180187
H  H83  1  0.73118000  0.16511000  0.08310000  1.0 0.1388087993
H  H84  1  0.26882000  0.83489000  0.91690000  1.0 0.1388087993
H  H85  1  0.41404000  0.95115000  0.35402000  1.0 0.1479967128
H  H86  1  0.58596000  0.04885000  0.64598000  1.0 0.1479967128
H  H87  1  0.52476000  0.89241000  0.36747000  1.0 0.1585757847
H  H88  1  0.47524000  0.10759000  0.63253000  1.0 0.1585757847
H  H89  1  0.70513000  0.93923000  0.39776000  1.0 0.1209954236
H  H90  1  0.29487000  0.06077000  0.60224000  1.0 0.1209954236
H  H91  1  0.88777000  0.96171000  0.44325000  1.0 0.1100166781
H  H92  1  0.11223000  0.03829000  0.55675000  1.0 0.1100166781
H  H93  1  0.92218000  0.05155000  0.53125000  1.0 0.1100166781
H  H94  1  0.07782000  0.94845000  0.46875000  1.0 0.1100166781
H  H95  1  0.77177000  0.11374000  0.57213000  1.0 0.1209954236
H  H96  1  0.22823000  0.88626000  0.42787000  1.0 0.1209954236
H  H97  1  0.57986000  0.14616000  0.56612000  1.0 0.1100166781
H  H98  1  0.42014000  0.85384000  0.43388000  1.0 0.1100166781
H  H99  1  0.43104000  0.25595000  0.54031000  1.0 0.1209954236
H  H100  1  0.56896000  0.74405000  0.45969000  1.0 0.1209954236
H  H101  1  0.30071000  0.31899000  0.47005000  1.0 0.1209954236
H  H102  1  0.69929000  0.68101000  0.52995000  1.0 0.1209954236
H  H103  1  0.26565000  0.24268000  0.37949000  1.0 0.1100166781
H  H104  1  0.73435000  0.75732000  0.62051000  1.0 0.1100166781
H  H105  1  0.35595000  0.10046000  0.35979000  1.0 0.1100166781
H  H106  1  0.64405000  0.89954000  0.64021000  1.0 0.1100166781
H  H107  1  0.74617000  0.12478000  0.32505000  1.0 0.1001285151
H  H108  1  0.25383000  0.87522000  0.67495000  1.0 0.1001285151
H  H109  1  0.71439000  0.16728000  0.38487000  1.0 0.0929875968
H  H110  1  0.28561000  0.83272000  0.61513000  1.0 0.0929875968
H  H111  1  0.74524000  0.27293000  0.29060000  1.0 0.1388087993
H  H112  1  0.25476000  0.72707000  0.70940000  1.0 0.1388087993
H  H113  1  0.71427000  0.31530000  0.35022000  1.0 0.1479967128
H  H114  1  0.28573000  0.68470000  0.64978000  1.0 0.1479967128
H  H115  1  0.61643000  0.27906000  0.30049000  1.0 0.1479967128
H  H116  1  0.38357000  0.72094000  0.69951000  1.0 0.1479967128
H  H117  1  0.42688000  0.02808000  0.18499000  1.0 0.1001285151
H  H118  1  0.57312000  0.97192000  0.81501000  1.0 0.1001285151
H  H119  1  0.52550000  0.10641000  0.21106000  1.0 0.1001285151
H  H120  1  0.47450000  0.89359000  0.78894000  1.0 0.1001285151
H  H121  1  0.29699000  0.13310000  0.19127000  1.0 0.1388087993
H  H122  1  0.70301000  0.86690000  0.80873000  1.0 0.1388087993
H  H123  1  0.39806000  0.20088000  0.17116000  1.0 0.1388087993
H  H124  1  0.60194000  0.79912000  0.82884000  1.0 0.1388087993
H  H125  1  0.37609000  0.20256000  0.23707000  1.0 0.1479967128
H  H126  1  0.62391000  0.79744000  0.76293000  1.0 0.1479967128
C  C1  1  0.67330000  0.65650000  0.07080000  1.0 -0.5788092201
C  C2  1  0.32670000  0.34350000  0.92920000  1.0 -0.5788092201
C  C3  1  0.59540000  0.56820000  0.04330000  1.0 0.1304180187
C  C4  1  0.40460000  0.43180000  0.95670000  1.0 0.1304180187
C  C5  1  0.66070000  0.48250000  0.02540000  1.0 0.0089477272
C  C6  1  0.33930000  0.51750000  0.97460000  1.0 0.0089477272
C  C7  1  0.77620000  0.48990000  0.02190000  1.0 -0.1406239281
C  C8  1  0.22380000  0.51010000  0.97810000  1.0 -0.1406239281
C  C9  1  0.82920000  0.40800000  0.00500000  1.0 -0.1103935922
C  C10  1  0.17080000  0.59200000  0.99500000  1.0 -0.1103935922
C  C11  1  0.77030000  0.31990000  0.99090000  1.0 -0.0903724218
C  C12  1  0.22970000  0.68010000  0.00910000  1.0 -0.0903724218
C  C13  1  0.65560000  0.31230000  0.99320000  1.0 -0.1406239281
C  C14  1  0.34440000  0.68770000  0.00680000  1.0 -0.1406239281
C  C15  1  0.60150000  0.39320000  0.01020000  1.0 0.0482472833
C  C16  1  0.39850000  0.60680000  0.98980000  1.0 0.0482472833
C  C17  1  0.47670000  0.38730000  0.01360000  1.0 -0.1406239281
C  C18  1  0.52330000  0.61270000  0.98640000  1.0 -0.1406239281
C  C19  1  0.45680000  0.43760000  0.06850000  1.0 0.0482472833
C  C20  1  0.54320000  0.56240000  0.93150000  1.0 0.0482472833
C  C21  1  0.38190000  0.39710000  0.10350000  1.0 -0.1668379341
C  C22  1  0.61810000  0.60290000  0.89650000  1.0 -0.1668379341
C  C23  1  0.36060000  0.44660000  0.15200000  1.0 -0.1020710726
C  C24  1  0.63940000  0.55340000  0.84800000  1.0 -0.1020710726
C  C25  1  0.41340000  0.53990000  0.16580000  1.0 -0.0829236467
C  C26  1  0.58660000  0.46010000  0.83420000  1.0 -0.0829236467
C  C27  1  0.48980000  0.57850000  0.13210000  1.0 -0.1299164429
C  C28  1  0.51020000  0.42150000  0.86790000  1.0 -0.1299164429
C  C29  1  0.51360000  0.52860000  0.08330000  1.0 0.0089477272
C  C30  1  0.48640000  0.47140000  0.91670000  1.0 0.0089477272
C  C31  1  0.71900000  0.48860000  0.20570000  1.0 0.0594611357
C  C32  1  0.28100000  0.51140000  0.79430000  1.0 0.0594611357
C  C33  1  0.81350000  0.47970000  0.25170000  1.0 -0.4203506742
C  C34  1  0.18650000  0.52030000  0.74830000  1.0 -0.4203506742
C  C35  1  0.97960000  0.64860000  0.16410000  1.0 0.0482472833
C  C36  1  0.02040000  0.35140000  0.83590000  1.0 0.0482472833
C  C37  1  0.06210000  0.60090000  0.13940000  1.0 -0.4108682756
C  C38  1  0.93790000  0.39910000  0.86060000  1.0 -0.4108682756
C  C39  1  0.97820000  0.93580000  0.12810000  1.0 -0.5788092201
C  C40  1  0.02180000  0.06420000  0.87190000  1.0 -0.5788092201
C  C41  1  0.97610000  0.98090000  0.06780000  1.0 0.1209954236
C  C42  1  0.02390000  0.01910000  0.93220000  1.0 0.1209954236
C  C43  1  0.85810000  0.97910000  0.03490000  1.0 0.0089477272
C  C44  1  0.14190000  0.02090000  0.96510000  1.0 0.0089477272
C  C45  1  0.76640000  0.92630000  0.05220000  1.0 -0.1299164429
C  C46  1  0.23360000  0.07370000  0.94780000  1.0 -0.1299164429
C  C47  1  0.66140000  0.92840000  0.02070000  1.0 -0.1020710726
C  C48  1  0.33860000  0.07160000  0.97930000  1.0 -0.1020710726
C  C49  1  0.64730000  0.98320000  0.97050000  1.0 -0.1103935922
C  C50  1  0.35270000  0.01680000  0.02950000  1.0 -0.1103935922
C  C51  1  0.73950000  0.03390000  0.95260000  1.0 -0.1505451535
C  C52  1  0.26050000  0.96610000  0.04740000  1.0 -0.1505451535
C  C53  1  0.84370000  0.03240000  0.98450000  1.0 0.0405767302
C  C54  1  0.15630000  0.96760000  0.01550000  1.0 0.0405767302
C  C55  1  0.94530000  0.08760000  0.96600000  1.0 -0.1406239281
C  C56  1  0.05470000  0.91240000  0.03400000  1.0 -0.1406239281
C  C57  1  0.00920000  0.14030000  0.01770000  1.0 0.0482472833
C  C58  1  0.99080000  0.85970000  0.98230000  1.0 0.0482472833
C  C59  1  0.05070000  0.23740000  0.01540000  1.0 -0.1560837065
C  C60  1  0.94930000  0.76260000  0.98460000  1.0 -0.1560837065
C  C61  1  0.10870000  0.28480000  0.06410000  1.0 -0.1103935922
C  C62  1  0.89130000  0.71520000  0.93590000  1.0 -0.1103935922
C  C63  1  0.12480000  0.23280000  0.11430000  1.0 -0.1020710726
C  C64  1  0.87520000  0.76720000  0.88570000  1.0 -0.1020710726
C  C65  1  0.08390000  0.13600000  0.11670000  1.0 -0.1406239281
C  C66  1  0.91610000  0.86400000  0.88330000  1.0 -0.1406239281
C  C67  1  0.02460000  0.08780000  0.06910000  1.0 0.0089477272
C  C68  1  0.97540000  0.91220000  0.93090000  1.0 0.0089477272
C  C69  1  0.00310000  0.06520000  0.28030000  1.0 0.0711998868
C  C70  1  0.99690000  0.93480000  0.71970000  1.0 0.0711998868
C  C71  1  0.10420000  0.05600000  0.31960000  1.0 -0.4286650751
C  C72  1  0.89580000  0.94400000  0.68040000  1.0 -0.4286650751
C  C73  1  0.73830000  0.10640000  0.16000000  1.0 0.0482472833
C  C74  1  0.26170000  0.89360000  0.84000000  1.0 0.0482472833
C  C75  1  0.70700000  0.18120000  0.12030000  1.0 -0.4374113713
C  C76  1  0.29300000  0.81880000  0.87970000  1.0 -0.4374113713
C  C77  1  0.49580000  0.95970000  0.36680000  1.0 -0.5881812607
C  C78  1  0.50420000  0.04030000  0.63320000  1.0 -0.5881812607
C  C79  1  0.50800000  0.99570000  0.42930000  1.0 0.1304180187
C  C80  1  0.49200000  0.00430000  0.57070000  1.0 0.1304180187
C  C81  1  0.63060000  0.01190000  0.45700000  1.0 0.0016053634
C  C82  1  0.36940000  0.98810000  0.54300000  1.0 0.0016053634
C  C83  1  0.71930000  0.97480000  0.43330000  1.0 -0.1406239281
C  C84  1  0.28070000  0.02520000  0.56670000  1.0 -0.1406239281
C  C85  1  0.82750000  0.98790000  0.46000000  1.0 -0.1020710726
C  C86  1  0.17250000  0.01210000  0.54000000  1.0 -0.1020710726
C  C87  1  0.84760000  0.04080000  0.51240000  1.0 -0.0903724218
C  C88  1  0.15240000  0.95920000  0.48760000  1.0 -0.0903724218
C  C89  1  0.75820000  0.07750000  0.53680000  1.0 -0.1406239281
C  C90  1  0.24180000  0.92250000  0.46320000  1.0 -0.1406239281
C  C91  1  0.65010000  0.06130000  0.50970000  1.0 0.0482472833
C  C92  1  0.34990000  0.93870000  0.49030000  1.0 0.0482472833
C  C93  1  0.55140000  0.09310000  0.53700000  1.0 -0.1406239281
C  C94  1  0.44860000  0.90690000  0.46300000  1.0 -0.1406239281
C  C95  1  0.47050000  0.13950000  0.49200000  1.0 0.0594611357
C  C96  1  0.52950000  0.86050000  0.50800000  1.0 0.0594611357
C  C97  1  0.41560000  0.22410000  0.50360000  1.0 -0.1299164429
C  C98  1  0.58440000  0.77590000  0.49640000  1.0 -0.1299164429
C  C99  1  0.33900000  0.26170000  0.46200000  1.0 -0.0903724218
C  C100  1  0.66100000  0.73830000  0.53800000  1.0 -0.0903724218
C  C101  1  0.31770000  0.21600000  0.40840000  1.0 -0.1020710726
C  C102  1  0.68230000  0.78400000  0.59160000  1.0 -0.1020710726
C  C103  1  0.37190000  0.13140000  0.39670000  1.0 -0.1406239281
C  C104  1  0.62810000  0.86860000  0.60330000  1.0 -0.1406239281
C  C105  1  0.44840000  0.09170000  0.43760000  1.0 -0.0007294574
C  C106  1  0.55160000  0.90830000  0.56240000  1.0 -0.0007294574
C  C107  1  0.69250000  0.16470000  0.34270000  1.0 0.1388087993
C  C108  1  0.30750000  0.83530000  0.65730000  1.0 0.1388087993
C  C109  1  0.69210000  0.26670000  0.31900000  1.0 -0.4525152405
C  C110  1  0.30790000  0.73330000  0.68100000  1.0 -0.4525152405
C  C111  1  0.44750000  0.08150000  0.21420000  1.0 0.0711998868
C  C112  1  0.55250000  0.91850000  0.78580000  1.0 0.0711998868
C  C113  1  0.37390000  0.16080000  0.20250000  1.0 -0.4525152405
C  C114  1  0.62610000  0.83920000  0.79750000  1.0 -0.4525152405
N  N1  1  0.90600000  0.82290000  0.33040000  1.0 0.6928963031
N  N2  1  0.09400000  0.17710000  0.66960000  1.0 0.6928963031
N  N3  1  0.61610000  0.68630000  0.33100000  1.0 0.6797630753
N  N4  1  0.38390000  0.31370000  0.66900000  1.0 0.6797630753
N  N5  1  0.49430000  0.83470000  0.17620000  1.0 0.7016566958
N  N6  1  0.50570000  0.16530000  0.82380000  1.0 0.7016566958
O  O1  1  0.73460000  0.70550000  0.18390000  1.0 -0.8273923431
O  O2  1  0.26540000  0.29450000  0.81610000  1.0 -0.8273923431
O  O3  1  0.75920000  0.52890000  0.15336000  1.0 -0.4286650751
O  O4  1  0.24080000  0.47110000  0.84664000  1.0 -0.4286650751
O  O5  1  0.88260000  0.66280000  0.12082000  1.0 -0.4374113713
O  O6  1  0.11740000  0.33720000  0.87918000  1.0 -0.4374113713
O  O7  1  0.81950000  0.91710000  0.20160000  1.0 -0.8192610775
O  O8  1  0.18050000  0.08290000  0.79840000  1.0 -0.8192610775
O  O9  1  0.00530000  0.01250000  0.23020000  1.0 -0.3988392537
O  O10  1  0.99470000  0.98750000  0.76980000  1.0 -0.3988392537
O  O11  1  0.85510000  0.08440000  0.16130000  1.0 -0.4286650751
O  O12  1  0.14490000  0.91560000  0.83870000  1.0 -0.4286650751
O  O13  1  0.62980000  0.96680000  0.28024000  1.0 -0.8149704967
O  O14  1  0.37020000  0.03320000  0.71976000  1.0 -0.8192610775
O  O15  1  0.59110000  0.12650000  0.33030000  1.0 -0.3556382243
O  O16  1  0.40890000  0.87350000  0.66970000  1.0 -0.3556382243
O  O17  1  0.44280000  0.04300000  0.26800000  1.0 -0.3988392537
O  O18  1  0.55720000  0.95700000  0.73200000  1.0 -0.3988392537
O  O19  1  0.83870000  0.89200000  0.32782000  1.0 -0.5025201325
O  O20  1  0.16130000  0.10800000  0.67218000  1.0 -0.5025201325
O  O21  1  0.87780000  0.75270000  0.29470000  1.0 -0.4879550372
O  O22  1  0.12220000  0.24730000  0.70530000  1.0 -0.4879550372
O  O23  1  0.99050000  0.82450000  0.36440000  1.0 -0.349258009
O  O24  1  0.00950000  0.17550000  0.63560000  1.0 -0.349258009
O  O25  1  0.63240000  0.77590000  0.34040000  1.0 -0.4619564448
O  O26  1  0.36760000  0.22410000  0.65960000  1.0 -0.4619564448
O  O27  1  0.64460000  0.65440000  0.28460000  1.0 -0.4802237187
O  O28  1  0.35540000  0.34560000  0.71540000  1.0 -0.4802237187
O  O29  1  0.57240000  0.63380000  0.36330000  1.0 -0.3286073838
O  O30  1  0.42760000  0.36620000  0.63670000  1.0 -0.3286073838
O  O31  1  0.58570000  0.87220000  0.16260000  1.0 -0.4879550372
O  O32  1  0.41430000  0.12780000  0.83740000  1.0 -0.4879550372
O  O33  1  0.50040000  0.78700000  0.22280000  1.0 -0.5025201325
O  O34  1  0.49960000  0.21300000  0.77720000  1.0 -0.5025201325
O  O35  1  0.40650000  0.84100000  0.14570000  1.0 -0.3751632903
O  O36  1  0.59350000  0.15900000  0.85430000  1.0 -0.3743006323
