# DDEC6 charges by PACMAN v1.1 (https://github.com/mtap-research/PACMAN-charge/)
data_TEWFOS_FSR_pacman
_symmetry_space_group_name_H-M   'P 1'
_cell_length_a   17.83260000
_cell_length_b   17.83260000
_cell_length_c   17.83260000
_cell_angle_alpha   130.98900000
_cell_angle_beta   123.83700000
_cell_angle_gamma   77.71640000
_symmetry_Int_Tables_number   1
_chemical_formula_structural   CuH18C30(NO2)4
_chemical_formula_sum   'Cu4 H72 C120 N16 O32'
_cell_volume   3448.75489869
_cell_formula_units_Z   4
loop_
 _symmetry_equiv_pos_site_id
 _symmetry_equiv_pos_as_xyz
  1  'x, y, z'
loop_
 _atom_site_type_symbol
 _atom_site_label
 _atom_site_symmetry_multiplicity
 _atom_site_fract_x
 _atom_site_fract_y
 _atom_site_fract_z
 _atom_site_occupancy
 _atom_site_charge
Cu  Cu1  1  0.00000000  0.00000000  0.50000000  1.0 0.7247848953
Cu  Cu2  1  0.00000000  0.50000000  0.00000000  1.0 0.7247848953
Cu  Cu3  1  0.50000000  0.50000000  0.50000000  1.0 0.7247848953
Cu  Cu4  1  0.50000000  0.00000000  0.00000000  1.0 0.7262430037
H  H1  1  0.90980000  0.80250000  0.25050000  1.0 0.1193580813
H  H2  1  0.05200000  0.65930000  0.24950000  1.0 0.1193580813
H  H3  1  0.09020000  0.19750000  0.74950000  1.0 0.1193580813
H  H4  1  0.94800000  0.34070000  0.75050000  1.0 0.1193580813
H  H5  1  0.17390000  0.05390000  0.42940000  1.0 0.1274570371
H  H6  1  0.12450000  0.74450000  0.07060000  1.0 0.1274570371
H  H7  1  0.82610000  0.94610000  0.57060000  1.0 0.1274570371
H  H8  1  0.87550000  0.25550000  0.92940000  1.0 0.1274570371
H  H9  1  0.76240000  0.70710000  0.07170000  1.0 0.1492435605
H  H10  1  0.13540000  0.69070000  0.42830000  1.0 0.1492435605
H  H11  1  0.23760000  0.29290000  0.92830000  1.0 0.1492435605
H  H12  1  0.86460000  0.30930000  0.57170000  1.0 0.1492435605
H  H13  1  0.44650000  0.62280000  0.12410000  1.0 0.1492435605
H  H14  1  0.99870000  0.32240000  0.37590000  1.0 0.1492435605
H  H15  1  0.55350000  0.37720000  0.87590000  1.0 0.1492435605
H  H16  1  0.00130000  0.67760000  0.62410000  1.0 0.1492435605
H  H17  1  0.55310000  0.79740000  0.02690000  1.0 0.1193580813
H  H18  1  0.27050000  0.52620000  0.47310000  1.0 0.1193580813
H  H19  1  0.44690000  0.20260000  0.97310000  1.0 0.1193580813
H  H20  1  0.72950000  0.47380000  0.52690000  1.0 0.1193580813
H  H21  1  0.59590000  0.71760000  0.95210000  1.0 0.1193580813
H  H22  1  0.26550000  0.64380000  0.54790000  1.0 0.1193580813
H  H23  1  0.40410000  0.28240000  0.04790000  1.0 0.1193580813
H  H24  1  0.73450000  0.35620000  0.45210000  1.0 0.1193580813
H  H25  1  0.65630000  0.93580000  0.23990000  1.0 0.1492435605
H  H26  1  0.19590000  0.41640000  0.26010000  1.0 0.1492435605
H  H27  1  0.34370000  0.06420000  0.76010000  1.0 0.1492435605
H  H28  1  0.80410000  0.58360000  0.73990000  1.0 0.1492435605
H  H29  1  0.80530000  0.02540000  0.41310000  1.0 0.1193580813
H  H30  1  0.11230000  0.39220000  0.08690000  1.0 0.1193580813
H  H31  1  0.19470000  0.97460000  0.58690000  1.0 0.1193580813
H  H32  1  0.88770000  0.60780000  0.91310000  1.0 0.1193580813
H  H33  1  0.23460000  0.04960000  0.34080000  1.0 0.1127907033
H  H34  1  0.20880000  0.89380000  0.15920000  1.0 0.1127907033
H  H35  1  0.76540000  0.95040000  0.65920000  1.0 0.1127907033
H  H36  1  0.79120000  0.10620000  0.84080000  1.0 0.1127907033
H  H37  1  0.44800000  0.69750000  0.60730000  1.0 0.1193580813
H  H38  1  0.59020000  0.84070000  0.89270000  1.0 0.1193580813
H  H39  1  0.55200000  0.30250000  0.39270000  1.0 0.1193580813
H  H40  1  0.40980000  0.15930000  0.10730000  1.0 0.1193580813
H  H41  1  0.37550000  0.44610000  0.62000000  1.0 0.1274570371
H  H42  1  0.32610000  0.75550000  0.88000000  1.0 0.1274570371
H  H43  1  0.62450000  0.55390000  0.38000000  1.0 0.1274570371
H  H44  1  0.67390000  0.24450000  0.12000000  1.0 0.1274570371
H  H45  1  0.36460000  0.79290000  0.55530000  1.0 0.1492435605
H  H46  1  0.73760000  0.80930000  0.94470000  1.0 0.1492435605
H  H47  1  0.63540000  0.20710000  0.44470000  1.0 0.1492435605
H  H48  1  0.26240000  0.19070000  0.05530000  1.0 0.1492435605
H  H49  1  0.50130000  0.87720000  0.32370000  1.0 0.1492435605
H  H50  1  0.05350000  0.17760000  0.17630000  1.0 0.1492435605
H  H51  1  0.49870000  0.12280000  0.67630000  1.0 0.1492435605
H  H52  1  0.94650000  0.82240000  0.82370000  1.0 0.1492435605
H  H53  1  0.22950000  0.70260000  0.25570000  1.0 0.1193580813
H  H54  1  0.94690000  0.97380000  0.24430000  1.0 0.1193580813
H  H55  1  0.77050000  0.29740000  0.74430000  1.0 0.1193580813
H  H56  1  0.05310000  0.02620000  0.75570000  1.0 0.1193580813
H  H57  1  0.23450000  0.78240000  0.37830000  1.0 0.1193580813
H  H58  1  0.90410000  0.85620000  0.12170000  1.0 0.1193580813
H  H59  1  0.76550000  0.21760000  0.62170000  1.0 0.1193580813
H  H60  1  0.09590000  0.14380000  0.87830000  1.0 0.1193580813
H  H61  1  0.30410000  0.56420000  0.22050000  1.0 0.1492435605
H  H62  1  0.84370000  0.08360000  0.27950000  1.0 0.1492435605
H  H63  1  0.69590000  0.43580000  0.77950000  1.0 0.1492435605
H  H64  1  0.15630000  0.91640000  0.72050000  1.0 0.1492435605
H  H65  1  0.38770000  0.47460000  0.27990000  1.0 0.1193580813
H  H66  1  0.69470000  0.10780000  0.22010000  1.0 0.1193580813
H  H67  1  0.61230000  0.52540000  0.72010000  1.0 0.1193580813
H  H68  1  0.30530000  0.89220000  0.77990000  1.0 0.1193580813
H  H69  1  0.29120000  0.45040000  0.68500000  1.0 0.1127907033
H  H70  1  0.26540000  0.60620000  0.81500000  1.0 0.1127907033
H  H71  1  0.70880000  0.54960000  0.31500000  1.0 0.1127907033
H  H72  1  0.73460000  0.39380000  0.18500000  1.0 0.1127907033
C  C1  1  0.52152000  0.69282000  0.06830000  1.0 0.4275697185
C  C2  1  0.12452000  0.45322000  0.43170000  1.0 0.4275697185
C  C3  1  0.47848000  0.30718000  0.93170000  1.0 0.4275697185
C  C4  1  0.87548000  0.54678000  0.56830000  1.0 0.4275697185
C  C5  1  0.08106000  0.90646000  0.36900000  1.0 0.5555276121
C  C6  1  0.03746000  0.71206000  0.13100000  1.0 0.5555276121
C  C7  1  0.91894000  0.09354000  0.63100000  1.0 0.5555276121
C  C8  1  0.96254000  0.28794000  0.86900000  1.0 0.5555276121
C  C9  1  0.85757000  0.83027000  0.24830000  1.0 0.1005957271
C  C10  1  0.08197000  0.60927000  0.25170000  1.0 0.1005957271
C  C11  1  0.14243000  0.16973000  0.75170000  1.0 0.1005957271
C  C12  1  0.91803000  0.39073000  0.74830000  1.0 0.1005957271
C  C13  1  0.16403000  0.99053000  0.35630000  1.0 -0.1078410405
C  C14  1  0.13423000  0.80773000  0.14370000  1.0 -0.1078410405
C  C15  1  0.83597000  0.00947000  0.64370000  1.0 -0.1078410405
C  C16  1  0.86577000  0.19227000  0.85630000  1.0 -0.1078410405
C  C17  1  0.11377000  0.90192000  0.30425000  1.0 -0.0346794133
C  C18  1  0.09767000  0.80952000  0.19575000  1.0 -0.0346794133
C  C19  1  0.88623000  0.09808000  0.69575000  1.0 -0.0346794133
C  C20  1  0.90233000  0.19048000  0.80425000  1.0 -0.0350695332
C  C21  1  0.76972000  0.77262000  0.14110000  1.0 -0.1825738424
C  C22  1  0.13152000  0.62862000  0.35890000  1.0 -0.1825738424
C  C23  1  0.23028000  0.22738000  0.85890000  1.0 -0.1825738424
C  C24  1  0.86848000  0.37138000  0.64110000  1.0 -0.1825738424
C  C25  1  0.46745000  0.57395000  0.07450000  1.0 -0.071995717
C  C26  1  0.99945000  0.39295000  0.42550000  1.0 -0.071995717
C  C27  1  0.53255000  0.42605000  0.92550000  1.0 -0.071995717
C  C28  1  0.00055000  0.60705000  0.57450000  1.0 -0.071995717
C  C29  1  0.57389000  0.57399000  0.94850000  1.0 0.4275697185
C  C30  1  0.12549000  0.62539000  0.55150000  1.0 0.4275697185
C  C31  1  0.42611000  0.42601000  0.05150000  1.0 0.4275697185
C  C32  1  0.87451000  0.37461000  0.44850000  1.0 0.4275697185
C  C33  1  0.50444000  0.59554000  0.03850000  1.0 -0.0586397341
C  C34  1  0.05704000  0.46594000  0.46150000  1.0 -0.0586397341
C  C35  1  0.49556000  0.40446000  0.96150000  1.0 -0.0586397341
C  C36  1  0.94296000  0.53406000  0.53850000  1.0 -0.0586397341
C  C37  1  0.59536000  0.75085000  0.02311000  1.0 -0.142131072
C  C38  1  0.22774000  0.57225000  0.47689000  1.0 -0.142131072
C  C39  1  0.40464000  0.24915000  0.97689000  1.0 -0.142131072
C  C40  1  0.77226000  0.42775000  0.52311000  1.0 -0.142131072
C  C41  1  0.70749000  0.90679000  0.23970000  1.0 -0.1732386281
C  C42  1  0.16709000  0.46779000  0.26030000  1.0 -0.1732386281
C  C43  1  0.29251000  0.09321000  0.76030000  1.0 -0.1732386281
C  C44  1  0.83291000  0.53221000  0.73970000  1.0 -0.1732386281
C  C45  1  0.69317000  0.81225000  0.13712000  1.0 0.1438620384
C  C46  1  0.17513000  0.55605000  0.36288000  1.0 0.1438620384
C  C47  1  0.30683000  0.18775000  0.86288000  1.0 0.1438620384
C  C48  1  0.82487000  0.44395000  0.63712000  1.0 0.1438620384
C  C49  1  0.46328000  0.47568000  0.03300000  1.0 -0.0586397341
C  C50  1  0.94268000  0.43028000  0.46700000  1.0 -0.0586397341
C  C51  1  0.53672000  0.52432000  0.96700000  1.0 -0.0586397341
C  C52  1  0.05732000  0.56972000  0.53300000  1.0 -0.0586397341
C  C53  1  0.79645000  0.95965000  0.34260000  1.0 0.0777042009
C  C54  1  0.11705000  0.45385000  0.15740000  1.0 0.0777042009
C  C55  1  0.20355000  0.04035000  0.65740000  1.0 0.0777042009
C  C56  1  0.88295000  0.54615000  0.84260000  1.0 0.0777042009
C  C57  1  0.19968000  0.98828000  0.30380000  1.0 -0.097301126
C  C58  1  0.18448000  0.89588000  0.19620000  1.0 -0.097301126
C  C59  1  0.80032000  0.01172000  0.69620000  1.0 -0.097301126
C  C60  1  0.81552000  0.10412000  0.80380000  1.0 -0.097301126
C  C61  1  0.37548000  0.80718000  0.32870000  1.0 0.4275697185
C  C62  1  0.97848000  0.04678000  0.17130000  1.0 0.4275697185
C  C63  1  0.62452000  0.19282000  0.67130000  1.0 0.4275697185
C  C64  1  0.02152000  0.95322000  0.82870000  1.0 0.4275697185
C  C65  1  0.46254000  0.59354000  0.67460000  1.0 0.5555276121
C  C66  1  0.41894000  0.78794000  0.82540000  1.0 0.5555276121
C  C67  1  0.53746000  0.40646000  0.32540000  1.0 0.5555276121
C  C68  1  0.58106000  0.21206000  0.17460000  1.0 0.5555276121
C  C69  1  0.41803000  0.66973000  0.52730000  1.0 0.1005957271
C  C70  1  0.64243000  0.89073000  0.97270000  1.0 0.1005957271
C  C71  1  0.58197000  0.33027000  0.47270000  1.0 0.1005957271
C  C72  1  0.35757000  0.10927000  0.02730000  1.0 0.1005957271
C  C73  1  0.36577000  0.50947000  0.67350000  1.0 -0.1078410405
C  C74  1  0.33597000  0.69227000  0.82650000  1.0 -0.1078410405
C  C75  1  0.63423000  0.49053000  0.32650000  1.0 -0.1078410405
C  C76  1  0.66403000  0.30773000  0.17350000  1.0 -0.1078410405
C  C77  1  0.40233000  0.59808000  0.71185000  1.0 -0.0346794133
C  C78  1  0.38623000  0.69048000  0.78815000  1.0 -0.0346794133
C  C79  1  0.59767000  0.40192000  0.28815000  1.0 -0.0346794133
C  C80  1  0.61377000  0.30952000  0.21185000  1.0 -0.0346794133
C  C81  1  0.36848000  0.72738000  0.49710000  1.0 -0.1825738424
C  C82  1  0.73028000  0.87138000  0.00290000  1.0 -0.1825738424
C  C83  1  0.63152000  0.27262000  0.50290000  1.0 -0.1825738424
C  C84  1  0.26972000  0.12862000  0.99710000  1.0 -0.1825738424
C  C85  1  0.50055000  0.92605000  0.39350000  1.0 -0.071995717
C  C86  1  0.03255000  0.10705000  0.10650000  1.0 -0.071995717
C  C87  1  0.49945000  0.07395000  0.60650000  1.0 -0.071995717
C  C88  1  0.96745000  0.89295000  0.89350000  1.0 -0.071995717
C  C89  1  0.37451000  0.92601000  0.49990000  1.0 0.4275697185
C  C90  1  0.92611000  0.87461000  0.00010000  1.0 0.4275697185
C  C91  1  0.62549000  0.07399000  0.50010000  1.0 0.4275697185
C  C92  1  0.07389000  0.12539000  0.99990000  1.0 0.4275697185
C  C93  1  0.44296000  0.90446000  0.40890000  1.0 -0.0586397341
C  C94  1  0.99556000  0.03406000  0.09110000  1.0 -0.0586397341
C  C95  1  0.55704000  0.09554000  0.59110000  1.0 -0.0586397341
C  C96  1  0.00444000  0.96594000  0.90890000  1.0 -0.0586397341
C  C97  1  0.27226000  0.74915000  0.34451000  1.0 -0.142131072
C  C98  1  0.90464000  0.92775000  0.15549000  1.0 -0.142131072
C  C99  1  0.72774000  0.25085000  0.65549000  1.0 -0.142131072
C  C100  1  0.09536000  0.07225000  0.84451000  1.0 -0.142131072
C  C101  1  0.33291000  0.59321000  0.30070000  1.0 -0.1732386281
C  C102  1  0.79251000  0.03221000  0.19930000  1.0 -0.1732386281
C  C103  1  0.66709000  0.40679000  0.69930000  1.0 -0.1732386281
C  C104  1  0.20749000  0.96779000  0.80070000  1.0 -0.1732386281
C  C105  1  0.32487000  0.68775000  0.38092000  1.0 0.1438620384
C  C106  1  0.80683000  0.94395000  0.11908000  1.0 0.1438620384
C  C107  1  0.67513000  0.31225000  0.61908000  1.0 0.1438620384
C  C108  1  0.19317000  0.05605000  0.88092000  1.0 0.1438620384
C  C109  1  0.55732000  0.02432000  0.48760000  1.0 -0.0586397341
C  C110  1  0.03672000  0.06972000  0.01240000  1.0 -0.0586397341
C  C111  1  0.44268000  0.97568000  0.51240000  1.0 -0.0586397341
C  C112  1  0.96328000  0.93028000  0.98760000  1.0 -0.0586397341
C  C113  1  0.38295000  0.54035000  0.33680000  1.0 0.0777042009
C  C114  1  0.70355000  0.04615000  0.16320000  1.0 0.0777042009
C  C115  1  0.61705000  0.45965000  0.66320000  1.0 0.0777042009
C  C116  1  0.29645000  0.95385000  0.83680000  1.0 0.0777042009
C  C117  1  0.31552000  0.51172000  0.71140000  1.0 -0.097301126
C  C118  1  0.30032000  0.60412000  0.78860000  1.0 -0.097301126
C  C119  1  0.68448000  0.48828000  0.28860000  1.0 -0.097301126
C  C120  1  0.69968000  0.39588000  0.21140000  1.0 -0.097301126
N  N1  1  0.56146000  0.67313000  0.01013000  1.0 -0.1825738424
N  N2  1  0.16300000  0.55133000  0.48987000  1.0 -0.1825738424
N  N3  1  0.43854000  0.32687000  0.98987000  1.0 -0.1825738424
N  N4  1  0.83700000  0.44867000  0.51013000  1.0 -0.1825738424
N  N5  1  0.87132000  0.92186000  0.34706000  1.0 -0.2211675202
N  N6  1  0.07480000  0.52426000  0.15294000  1.0 -0.2211675202
N  N7  1  0.12868000  0.07814000  0.65294000  1.0 -0.2211675202
N  N8  1  0.92520000  0.47574000  0.84706000  1.0 -0.2211675202
N  N9  1  0.33700000  0.82687000  0.38833000  1.0 -0.1825738424
N  N10  1  0.93854000  0.94867000  0.11167000  1.0 -0.1825738424
N  N11  1  0.66300000  0.17313000  0.61167000  1.0 -0.1825738424
N  N12  1  0.06146000  0.05133000  0.88833000  1.0 -0.1825738424
N  N13  1  0.42520000  0.57814000  0.44946000  1.0 -0.2211675202
N  N14  1  0.62868000  0.97574000  0.05054000  1.0 -0.2211675202
N  N15  1  0.57480000  0.42186000  0.55054000  1.0 -0.2211675202
N  N16  1  0.37132000  0.02426000  0.94946000  1.0 -0.2211675202
O  O1  1  0.04506000  0.98269000  0.41315000  1.0 -0.5509065171
O  O2  1  0.06954000  0.63191000  0.08685000  1.0 -0.5509065171
O  O3  1  0.95494000  0.01731000  0.58685000  1.0 -0.5509065171
O  O4  1  0.93046000  0.36809000  0.91315000  1.0 -0.5509065171
O  O5  1  0.50548000  0.77346000  0.12992000  1.0 -0.4080952783
O  O6  1  0.14354000  0.37556000  0.37008000  1.0 -0.4080952783
O  O7  1  0.49452000  0.22654000  0.87008000  1.0 -0.4080952783
O  O8  1  0.85646000  0.62444000  0.62992000  1.0 -0.4080952783
O  O9  1  0.09295000  0.84301000  0.38000000  1.0 -0.5509065171
O  O10  1  0.96301000  0.71295000  0.12000000  1.0 -0.5509065171
O  O11  1  0.90705000  0.15699000  0.62000000  1.0 -0.5509065171
O  O12  1  0.03699000  0.28705000  0.88000000  1.0 -0.5509065171
O  O13  1  0.60881000  0.53923000  0.89310000  1.0 -0.4200757263
O  O14  1  0.14613000  0.71571000  0.60690000  1.0 -0.4200757263
O  O15  1  0.39119000  0.46077000  0.10690000  1.0 -0.4200757263
O  O16  1  0.85387000  0.28429000  0.39310000  1.0 -0.4200757263
O  O17  1  0.43046000  0.51731000  0.56237000  1.0 -0.5509065171
O  O18  1  0.45494000  0.86809000  0.93763000  1.0 -0.5509065171
O  O19  1  0.56954000  0.48269000  0.43763000  1.0 -0.5509065171
O  O20  1  0.54506000  0.13191000  0.06237000  1.0 -0.5509065171
O  O21  1  0.35646000  0.72654000  0.23202000  1.0 -0.4080952783
O  O22  1  0.99452000  0.12444000  0.26798000  1.0 -0.4080952783
O  O23  1  0.64354000  0.27346000  0.76798000  1.0 -0.4080952783
O  O24  1  0.00548000  0.87556000  0.73202000  1.0 -0.4080952783
O  O25  1  0.53699000  0.65699000  0.74994000  1.0 -0.5509065171
O  O26  1  0.40705000  0.78705000  0.75006000  1.0 -0.5509065171
O  O27  1  0.46301000  0.34301000  0.25006000  1.0 -0.5509065171
O  O28  1  0.59295000  0.21295000  0.24994000  1.0 -0.5509065171
O  O29  1  0.35387000  0.96077000  0.56958000  1.0 -0.4200757263
O  O30  1  0.89119000  0.78429000  0.93042000  1.0 -0.4200757263
O  O31  1  0.64613000  0.03923000  0.43042000  1.0 -0.4200757263
O  O32  1  0.10881000  0.21571000  0.06958000  1.0 -0.4200757263
