# DDEC6 charges by PACMAN v1.1 (https://github.com/mtap-research/PACMAN-charge/)
data_TEWMUG_ASR_pacman
_symmetry_space_group_name_H-M   'P 1'
_cell_length_a   22.19600000
_cell_length_b   22.19600000
_cell_length_c   21.52750000
_cell_angle_alpha   72.16740000
_cell_angle_beta   107.83300000
_cell_angle_gamma   70.02200000
_symmetry_Int_Tables_number   1
_chemical_formula_structural   Zr3H6C16(NO6)2
_chemical_formula_sum   'Zr24 H48 C128 N16 O96'
_cell_volume   8428.89390831
_cell_formula_units_Z   8
loop_
 _symmetry_equiv_pos_site_id
 _symmetry_equiv_pos_as_xyz
  1  'x, y, z'
loop_
 _atom_site_type_symbol
 _atom_site_label
 _atom_site_symmetry_multiplicity
 _atom_site_fract_x
 _atom_site_fract_y
 _atom_site_fract_z
 _atom_site_occupancy
 _atom_site_charge
Zr  Zr1  1  0.93971000  0.96311000  0.91160000  1.0 2.4600458321
Zr  Zr2  1  0.38171000  0.52167000  0.91360000  1.0 2.4515283283
Zr  Zr3  1  0.38236000  0.03200000  0.40259000  1.0 2.4264146265
Zr  Zr4  1  0.47028000  0.94038000  0.59587000  1.0 2.4433861749
Zr  Zr5  1  0.44396000  0.11448000  0.50389000  1.0 2.3501318869
Zr  Zr6  1  0.96311000  0.93971000  0.08840000  1.0 2.4677169499
Zr  Zr7  1  0.52167000  0.38171000  0.08640000  1.0 2.4515283283
Zr  Zr8  1  0.03200000  0.38236000  0.59741000  1.0 2.4248328385
Zr  Zr9  1  0.94038000  0.47028000  0.40413000  1.0 2.4433861749
Zr  Zr10  1  0.11448000  0.44396000  0.49611000  1.0 2.3501318869
Zr  Zr11  1  0.06029000  0.03689000  0.08840000  1.0 2.4677169499
Zr  Zr12  1  0.61829000  0.47833000  0.08640000  1.0 2.4600458321
Zr  Zr13  1  0.61764000  0.96800000  0.59741000  1.0 2.4264146265
Zr  Zr14  1  0.52972000  0.05962000  0.40413000  1.0 2.4515283283
Zr  Zr15  1  0.55604000  0.88552000  0.49611000  1.0 2.3501318869
Zr  Zr16  1  0.03689000  0.06029000  0.91160000  1.0 2.4600458321
Zr  Zr17  1  0.47833000  0.61829000  0.91360000  1.0 2.4600458321
Zr  Zr18  1  0.96800000  0.61764000  0.40259000  1.0 2.4248328385
Zr  Zr19  1  0.05962000  0.52972000  0.59587000  1.0 2.4433861749
Zr  Zr20  1  0.88552000  0.55604000  0.50389000  1.0 2.3501318869
Zr  Zr21  1  0.11232000  0.88768000  0.05469000  1.0 2.3501318869
Zr  Zr22  1  0.44173000  0.55827000  0.06191000  1.0 2.3792189536
Zr  Zr23  1  0.88768000  0.11232000  0.94531000  1.0 2.3501318869
Zr  Zr24  1  0.55827000  0.44173000  0.93809000  1.0 2.3792189536
H  H1  1  0.32980000  0.76960000  0.22640000  1.0 0.12863457
H  H2  1  0.49250000  0.76450000  0.37930000  1.0 0.120157799
H  H3  1  0.29450000  0.93830000  0.26820000  1.0 0.0981689793
H  H4  1  0.50160000  0.61360000  0.24920000  1.0 0.120157799
H  H5  1  0.66620000  0.60640000  0.40590000  1.0 0.12863457
H  H6  1  0.70730000  0.51550000  0.27550000  1.0 0.0925815561
H  H7  1  0.16400000  0.60740000  0.88370000  1.0 0.120157799
H  H8  1  0.00120000  0.77020000  0.87680000  1.0 0.120157799
H  H9  1  0.20940000  0.70600000  0.00780000  1.0 0.12863457
H  H10  1  0.82900000  0.79160000  0.72260000  1.0 0.120157799
H  H11  1  0.99360000  0.63260000  0.72640000  1.0 0.120157799
H  H12  1  0.78610000  0.70750000  0.58210000  1.0 0.12863457
H  H13  1  0.76960000  0.32980000  0.77360000  1.0 0.12863457
H  H14  1  0.76450000  0.49250000  0.62070000  1.0 0.120157799
H  H15  1  0.93830000  0.29450000  0.73180000  1.0 0.0981689793
H  H16  1  0.61360000  0.50160000  0.75080000  1.0 0.120157799
H  H17  1  0.60640000  0.66620000  0.59410000  1.0 0.12863457
H  H18  1  0.51550000  0.70730000  0.72450000  1.0 0.0925815561
H  H19  1  0.60740000  0.16400000  0.11630000  1.0 0.120157799
H  H20  1  0.77020000  0.00120000  0.12320000  1.0 0.120157799
H  H21  1  0.70600000  0.20940000  0.99220000  1.0 0.12863457
H  H22  1  0.79160000  0.82900000  0.27740000  1.0 0.120157799
H  H23  1  0.63260000  0.99360000  0.27360000  1.0 0.120157799
H  H24  1  0.70750000  0.78610000  0.41790000  1.0 0.12863457
H  H25  1  0.67020000  0.23040000  0.77360000  1.0 0.12863457
H  H26  1  0.50750000  0.23550000  0.62070000  1.0 0.120157799
H  H27  1  0.70550000  0.06170000  0.73180000  1.0 0.0981689793
H  H28  1  0.49840000  0.38640000  0.75080000  1.0 0.120157799
H  H29  1  0.33380000  0.39360000  0.59410000  1.0 0.12863457
H  H30  1  0.29270000  0.48450000  0.72450000  1.0 0.0925815561
H  H31  1  0.83600000  0.39260000  0.11630000  1.0 0.120157799
H  H32  1  0.99880000  0.22980000  0.12320000  1.0 0.120157799
H  H33  1  0.79060000  0.29400000  0.99220000  1.0 0.12863457
H  H34  1  0.17100000  0.20840000  0.27740000  1.0 0.120157799
H  H35  1  0.00640000  0.36740000  0.27360000  1.0 0.120157799
H  H36  1  0.21390000  0.29250000  0.41790000  1.0 0.12863457
H  H37  1  0.23040000  0.67020000  0.22640000  1.0 0.12863457
H  H38  1  0.23550000  0.50750000  0.37930000  1.0 0.120157799
H  H39  1  0.06170000  0.70550000  0.26820000  1.0 0.0981689793
H  H40  1  0.38640000  0.49840000  0.24920000  1.0 0.120157799
H  H41  1  0.39360000  0.33380000  0.40590000  1.0 0.12863457
H  H42  1  0.48450000  0.29270000  0.27550000  1.0 0.0925815561
H  H43  1  0.39260000  0.83600000  0.88370000  1.0 0.120157799
H  H44  1  0.22980000  0.99880000  0.87680000  1.0 0.120157799
H  H45  1  0.29400000  0.79060000  0.00780000  1.0 0.12863457
H  H46  1  0.20840000  0.17100000  0.72260000  1.0 0.120157799
H  H47  1  0.36740000  0.00640000  0.72640000  1.0 0.120157799
H  H48  1  0.29250000  0.21390000  0.58210000  1.0 0.12863457
C  C1  1  0.22310000  0.89710000  0.18140000  1.0 0.6294388872
C  C2  1  0.29960000  0.86040000  0.23790000  1.0 -0.0489863062
C  C3  1  0.34790000  0.79170000  0.25340000  1.0 -0.1541459406
C  C4  1  0.41950000  0.75310000  0.30430000  1.0 0.1679271575
C  C5  1  0.44350000  0.78850000  0.34320000  1.0 -0.1541459406
C  C6  1  0.39940000  0.85500000  0.33080000  1.0 -0.0294234216
C  C7  1  0.32580000  0.89160000  0.27700000  1.0 -0.1097637211
C  C8  1  0.42440000  0.89280000  0.37150000  1.0 0.6294388872
C  C9  1  0.57270000  0.54910000  0.18850000  1.0 0.6381201845
C  C10  1  0.59740000  0.56960000  0.24650000  1.0 -0.0554966279
C  C11  1  0.55070000  0.60290000  0.27120000  1.0 -0.1592628896
C  C12  1  0.57500000  0.62080000  0.32810000  1.0 0.1589259787
C  C13  1  0.64870000  0.59750000  0.36530000  1.0 -0.1592628896
C  C14  1  0.69750000  0.56130000  0.34380000  1.0 -0.0489863062
C  C15  1  0.67380000  0.54380000  0.28720000  1.0 -0.1097637211
C  C16  1  0.77380000  0.54060000  0.38380000  1.0 0.6209890869
C  C17  1  0.27510000  0.60650000  0.96810000  1.0 0.6381201845
C  C18  1  0.19770000  0.65230000  0.94680000  1.0 -0.0377029498
C  C19  1  0.14830000  0.64290000  0.89930000  1.0 -0.170477816
C  C20  1  0.07520000  0.68540000  0.87430000  1.0 0.1504240063
C  C21  1  0.05130000  0.74010000  0.89470000  1.0 -0.170477816
C  C22  1  0.10210000  0.74890000  0.94120000  1.0 -0.0294234216
C  C23  1  0.17520000  0.70300000  0.97120000  1.0 -0.1238437697
C  C24  1  0.07610000  0.80810000  0.96210000  1.0 0.6294388872
C  C25  1  0.72180000  0.81180000  0.61650000  1.0 0.6294388872
C  C26  1  0.79850000  0.75550000  0.64990000  1.0 -0.0377029498
C  C27  1  0.84550000  0.75790000  0.70510000  1.0 -0.177821929
C  C28  1  0.91840000  0.71000000  0.73570000  1.0 0.1589259787
C  C29  1  0.94340000  0.66320000  0.70710000  1.0 -0.177821929
C  C30  1  0.89410000  0.66270000  0.65100000  1.0 -0.0233285719
C  C31  1  0.82030000  0.70830000  0.62090000  1.0 -0.1270377177
C  C32  1  0.92270000  0.61470000  0.61860000  1.0 0.6136956242
C  C33  1  0.89710000  0.22310000  0.81860000  1.0 0.6294388872
C  C34  1  0.86040000  0.29960000  0.76210000  1.0 -0.0489863062
C  C35  1  0.79170000  0.34790000  0.74660000  1.0 -0.1541459406
C  C36  1  0.75310000  0.41950000  0.69570000  1.0 0.1679271575
C  C37  1  0.78850000  0.44350000  0.65680000  1.0 -0.1541459406
C  C38  1  0.85500000  0.39940000  0.66920000  1.0 -0.0294234216
C  C39  1  0.89160000  0.32580000  0.72300000  1.0 -0.1097637211
C  C40  1  0.89280000  0.42440000  0.62850000  1.0 0.6294388872
C  C41  1  0.54910000  0.57270000  0.81150000  1.0 0.6381201845
C  C42  1  0.56960000  0.59740000  0.75350000  1.0 -0.0554966279
C  C43  1  0.60290000  0.55070000  0.72880000  1.0 -0.1592628896
C  C44  1  0.62080000  0.57500000  0.67190000  1.0 0.1589259787
C  C45  1  0.59750000  0.64870000  0.63470000  1.0 -0.1592628896
C  C46  1  0.56130000  0.69750000  0.65620000  1.0 -0.0554966279
C  C47  1  0.54380000  0.67380000  0.71280000  1.0 -0.1097637211
C  C48  1  0.54060000  0.77380000  0.61620000  1.0 0.6209890869
C  C49  1  0.60650000  0.27510000  0.03190000  1.0 0.6381201845
C  C50  1  0.65230000  0.19770000  0.05320000  1.0 -0.0377029498
C  C51  1  0.64290000  0.14830000  0.10070000  1.0 -0.170477816
C  C52  1  0.68540000  0.07520000  0.12570000  1.0 0.1504240063
C  C53  1  0.74010000  0.05130000  0.10530000  1.0 -0.170477816
C  C54  1  0.74890000  0.10210000  0.05880000  1.0 -0.0294234216
C  C55  1  0.70300000  0.17520000  0.02880000  1.0 -0.1238437697
C  C56  1  0.80810000  0.07610000  0.03790000  1.0 0.6294388872
C  C57  1  0.81180000  0.72180000  0.38350000  1.0 0.6294388872
C  C58  1  0.75550000  0.79850000  0.35010000  1.0 -0.0377029498
C  C59  1  0.75790000  0.84550000  0.29490000  1.0 -0.177821929
C  C60  1  0.71000000  0.91840000  0.26430000  1.0 0.1589259787
C  C61  1  0.66320000  0.94340000  0.29290000  1.0 -0.177821929
C  C62  1  0.66270000  0.89410000  0.34900000  1.0 -0.0233285719
C  C63  1  0.70830000  0.82030000  0.37910000  1.0 -0.1270377177
C  C64  1  0.61470000  0.92270000  0.38140000  1.0 0.6136956242
C  C65  1  0.77690000  0.10290000  0.81860000  1.0 0.6294388872
C  C66  1  0.70040000  0.13960000  0.76210000  1.0 -0.0489863062
C  C67  1  0.65210000  0.20830000  0.74660000  1.0 -0.1592628896
C  C68  1  0.58050000  0.24690000  0.69570000  1.0 0.1679271575
C  C69  1  0.55650000  0.21150000  0.65680000  1.0 -0.1541459406
C  C70  1  0.60060000  0.14500000  0.66920000  1.0 -0.0294234216
C  C71  1  0.67420000  0.10840000  0.72300000  1.0 -0.1097637211
C  C72  1  0.57560000  0.10720000  0.62850000  1.0 0.6294388872
C  C73  1  0.42730000  0.45090000  0.81150000  1.0 0.6381201845
C  C74  1  0.40260000  0.43040000  0.75350000  1.0 -0.0554966279
C  C75  1  0.44930000  0.39710000  0.72880000  1.0 -0.1592628896
C  C76  1  0.42500000  0.37920000  0.67190000  1.0 0.1679271575
C  C77  1  0.35130000  0.40250000  0.63470000  1.0 -0.1592628896
C  C78  1  0.30250000  0.43870000  0.65620000  1.0 -0.0489863062
C  C79  1  0.32620000  0.45620000  0.71280000  1.0 -0.1097637211
C  C80  1  0.22620000  0.45940000  0.61620000  1.0 0.6209890869
C  C81  1  0.72490000  0.39350000  0.03190000  1.0 0.6381201845
C  C82  1  0.80230000  0.34770000  0.05320000  1.0 -0.0377029498
C  C83  1  0.85170000  0.35710000  0.10070000  1.0 -0.170477816
C  C84  1  0.92480000  0.31460000  0.12570000  1.0 0.1504240063
C  C85  1  0.94870000  0.25990000  0.10530000  1.0 -0.170477816
C  C86  1  0.89790000  0.25110000  0.05880000  1.0 -0.0294234216
C  C87  1  0.82480000  0.29700000  0.02880000  1.0 -0.1238437697
C  C88  1  0.92390000  0.19190000  0.03790000  1.0 0.6294388872
C  C89  1  0.27820000  0.18820000  0.38350000  1.0 0.6294388872
C  C90  1  0.20150000  0.24450000  0.35010000  1.0 -0.0377029498
C  C91  1  0.15450000  0.24210000  0.29490000  1.0 -0.177821929
C  C92  1  0.08160000  0.29000000  0.26430000  1.0 0.1589259787
C  C93  1  0.05660000  0.33680000  0.29290000  1.0 -0.177821929
C  C94  1  0.10590000  0.33730000  0.34900000  1.0 -0.0233285719
C  C95  1  0.17970000  0.29170000  0.37910000  1.0 -0.1270377177
C  C96  1  0.07730000  0.38530000  0.38140000  1.0 0.6136956242
C  C97  1  0.10290000  0.77690000  0.18140000  1.0 0.6294388872
C  C98  1  0.13960000  0.70040000  0.23790000  1.0 -0.0489863062
C  C99  1  0.20830000  0.65210000  0.25340000  1.0 -0.1541459406
C  C100  1  0.24690000  0.58050000  0.30430000  1.0 0.1679271575
C  C101  1  0.21150000  0.55650000  0.34320000  1.0 -0.1541459406
C  C102  1  0.14500000  0.60060000  0.33080000  1.0 -0.0294234216
C  C103  1  0.10840000  0.67420000  0.27700000  1.0 -0.1097637211
C  C104  1  0.10720000  0.57560000  0.37150000  1.0 0.6294388872
C  C105  1  0.45090000  0.42730000  0.18850000  1.0 0.6381201845
C  C106  1  0.43040000  0.40260000  0.24650000  1.0 -0.0554966279
C  C107  1  0.39710000  0.44930000  0.27120000  1.0 -0.1592628896
C  C108  1  0.37920000  0.42500000  0.32810000  1.0 0.1589259787
C  C109  1  0.40250000  0.35130000  0.36530000  1.0 -0.1592628896
C  C110  1  0.43870000  0.30250000  0.34380000  1.0 -0.0554966279
C  C111  1  0.45620000  0.32620000  0.28720000  1.0 -0.1097637211
C  C112  1  0.45940000  0.22620000  0.38380000  1.0 0.6209890869
C  C113  1  0.39350000  0.72490000  0.96810000  1.0 0.6381201845
C  C114  1  0.34770000  0.80230000  0.94680000  1.0 -0.0377029498
C  C115  1  0.35710000  0.85170000  0.89930000  1.0 -0.170477816
C  C116  1  0.31460000  0.92480000  0.87430000  1.0 0.1504240063
C  C117  1  0.25990000  0.94870000  0.89470000  1.0 -0.170477816
C  C118  1  0.25110000  0.89790000  0.94120000  1.0 -0.0294234216
C  C119  1  0.29700000  0.82480000  0.97120000  1.0 -0.1238437697
C  C120  1  0.19190000  0.92390000  0.96210000  1.0 0.6294388872
C  C121  1  0.18820000  0.27820000  0.61650000  1.0 0.6294388872
C  C122  1  0.24450000  0.20150000  0.64990000  1.0 -0.0377029498
C  C123  1  0.24210000  0.15450000  0.70510000  1.0 -0.177821929
C  C124  1  0.29000000  0.08160000  0.73570000  1.0 0.1589259787
C  C125  1  0.33680000  0.05660000  0.70710000  1.0 -0.177821929
C  C126  1  0.33730000  0.10590000  0.65100000  1.0 -0.0233285719
C  C127  1  0.29170000  0.17970000  0.62090000  1.0 -0.1270377177
C  C128  1  0.38530000  0.07730000  0.61860000  1.0 0.6136956242
N  N1  1  0.45990000  0.68530000  0.31280000  1.0 -0.170477816
N  N2  1  0.52920000  0.64800000  0.36140000  1.0 -0.177821929
N  N3  1  0.03000000  0.67440000  0.82100000  1.0 -0.1401847787
N  N4  1  0.96510000  0.71430000  0.79460000  1.0 -0.1401847787
N  N5  1  0.68530000  0.45990000  0.68720000  1.0 -0.170477816
N  N6  1  0.64800000  0.52920000  0.63860000  1.0 -0.177821929
N  N7  1  0.67440000  0.03000000  0.17900000  1.0 -0.1401847787
N  N8  1  0.71430000  0.96510000  0.20540000  1.0 -0.1401847787
N  N9  1  0.54010000  0.31470000  0.68720000  1.0 -0.170477816
N  N10  1  0.47080000  0.35200000  0.63860000  1.0 -0.177821929
N  N11  1  0.97000000  0.32560000  0.17900000  1.0 -0.1401847787
N  N12  1  0.03490000  0.28570000  0.20540000  1.0 -0.1401847787
N  N13  1  0.31470000  0.54010000  0.31280000  1.0 -0.170477816
N  N14  1  0.35200000  0.47080000  0.36140000  1.0 -0.177821929
N  N15  1  0.32560000  0.97000000  0.82100000  1.0 -0.1270377177
N  N16  1  0.28570000  0.03490000  0.79460000  1.0 -0.1401847787
O  O1  1  0.00740000  0.89460000  0.02820000  1.0 -1.1905888342
O  O2  1  0.42230000  0.48090000  0.02830000  1.0 -1.199147854
O  O3  1  0.40560000  0.04060000  0.50210000  1.0 -1.1210200462
O  O4  1  0.45560000  0.93360000  0.49830000  1.0 -1.1210200462
O  O5  1  0.48280000  0.98980000  0.40170000  1.0 -1.1494799528
O  O6  1  0.43010000  0.10070000  0.40700000  1.0 -1.1494799528
O  O7  1  0.20890000  0.86390000  0.14580000  1.0 -0.5810795176
O  O8  1  0.17800000  0.95760000  0.17060000  1.0 -0.6087902608
O  O9  1  0.37970000  0.95450000  0.35810000  1.0 -0.6206531908
O  O10  1  0.49050000  0.85810000  0.41920000  1.0 -0.5810795176
O  O11  1  0.50560000  0.56900000  0.15520000  1.0 -0.5922176066
O  O12  1  0.61990000  0.51630000  0.17080000  1.0 -0.6422117177
O  O13  1  0.82100000  0.50580000  0.36670000  1.0 -0.6206531908
O  O14  1  0.78850000  0.56050000  0.43250000  1.0 -0.5696363199
O  O15  1  0.32430000  0.60250000  0.02410000  1.0 -0.6206531908
O  O16  1  0.28850000  0.57690000  0.93060000  1.0 -0.6016573134
O  O17  1  0.12060000  0.80700000  0.01440000  1.0 -0.5579441461
O  O18  1  0.00910000  0.85590000  0.92120000  1.0 -0.6206531908
O  O19  1  0.71050000  0.86290000  0.63220000  1.0 -0.6016573134
O  O20  1  0.67280000  0.80860000  0.56770000  1.0 -0.6016573134
O  O21  1  0.87650000  0.60550000  0.57680000  1.0 -0.5696363199
O  O22  1  0.98700000  0.58840000  0.63690000  1.0 -0.5579441461
O  O23  1  0.89460000  0.00740000  0.97180000  1.0 -1.199147854
O  O24  1  0.48090000  0.42230000  0.97170000  1.0 -1.199147854
O  O25  1  0.04060000  0.40560000  0.49790000  1.0 -1.1210200462
O  O26  1  0.93360000  0.45560000  0.50170000  1.0 -1.1210200462
O  O27  1  0.98980000  0.48280000  0.59830000  1.0 -1.1494799528
O  O28  1  0.10070000  0.43010000  0.59300000  1.0 -1.1494799528
O  O29  1  0.86390000  0.20890000  0.85420000  1.0 -0.5810795176
O  O30  1  0.95760000  0.17800000  0.82940000  1.0 -0.6087902608
O  O31  1  0.95450000  0.37970000  0.64190000  1.0 -0.6206531908
O  O32  1  0.85810000  0.49050000  0.58080000  1.0 -0.5810795176
O  O33  1  0.56900000  0.50560000  0.84480000  1.0 -0.5922176066
O  O34  1  0.51630000  0.61990000  0.82920000  1.0 -0.6422117177
O  O35  1  0.50580000  0.82100000  0.63330000  1.0 -0.6206531908
O  O36  1  0.56050000  0.78850000  0.56750000  1.0 -0.5696363199
O  O37  1  0.60250000  0.32430000  0.97590000  1.0 -0.6206531908
O  O38  1  0.57690000  0.28850000  0.06940000  1.0 -0.6016573134
O  O39  1  0.80700000  0.12060000  0.98560000  1.0 -0.5579441461
O  O40  1  0.85590000  0.00910000  0.07880000  1.0 -0.6206531908
O  O41  1  0.86290000  0.71050000  0.36780000  1.0 -0.6016573134
O  O42  1  0.80860000  0.67280000  0.43230000  1.0 -0.6016573134
O  O43  1  0.60550000  0.87650000  0.42320000  1.0 -0.5696363199
O  O44  1  0.58840000  0.98700000  0.36310000  1.0 -0.5579441461
O  O45  1  0.99260000  0.10540000  0.97180000  1.0 -1.199147854
O  O46  1  0.57770000  0.51910000  0.97170000  1.0 -1.199147854
O  O47  1  0.59440000  0.95940000  0.49790000  1.0 -1.1210200462
O  O48  1  0.54440000  0.06640000  0.50170000  1.0 -1.1210200462
O  O49  1  0.51720000  0.01020000  0.59830000  1.0 -1.1494799528
O  O50  1  0.56990000  0.89930000  0.59300000  1.0 -1.1494799528
O  O51  1  0.79110000  0.13610000  0.85420000  1.0 -0.5810795176
O  O52  1  0.82200000  0.04240000  0.82940000  1.0 -0.6087902608
O  O53  1  0.62030000  0.04550000  0.64190000  1.0 -0.6206531908
O  O54  1  0.50950000  0.14190000  0.58080000  1.0 -0.5810795176
O  O55  1  0.49440000  0.43100000  0.84480000  1.0 -0.5922176066
O  O56  1  0.38010000  0.48370000  0.82920000  1.0 -0.6422117177
O  O57  1  0.17900000  0.49420000  0.63330000  1.0 -0.6206531908
O  O58  1  0.21150000  0.43950000  0.56750000  1.0 -0.5696363199
O  O59  1  0.67570000  0.39750000  0.97590000  1.0 -0.6206531908
O  O60  1  0.71150000  0.42310000  0.06940000  1.0 -0.6016573134
O  O61  1  0.87940000  0.19300000  0.98560000  1.0 -0.5579441461
O  O62  1  0.99090000  0.14410000  0.07880000  1.0 -0.6206531908
O  O63  1  0.28950000  0.13710000  0.36780000  1.0 -0.6016573134
O  O64  1  0.32720000  0.19140000  0.43230000  1.0 -0.6016573134
O  O65  1  0.12350000  0.39450000  0.42320000  1.0 -0.5696363199
O  O66  1  0.01300000  0.41160000  0.36310000  1.0 -0.5579441461
O  O67  1  0.10540000  0.99260000  0.02820000  1.0 -1.1905888342
O  O68  1  0.51910000  0.57770000  0.02830000  1.0 -1.199147854
O  O69  1  0.95940000  0.59440000  0.50210000  1.0 -1.1210200462
O  O70  1  0.06640000  0.54440000  0.49830000  1.0 -1.1210200462
O  O71  1  0.01020000  0.51720000  0.40170000  1.0 -1.1494799528
O  O72  1  0.89930000  0.56990000  0.40700000  1.0 -1.1494799528
O  O73  1  0.13610000  0.79110000  0.14580000  1.0 -0.5810795176
O  O74  1  0.04240000  0.82200000  0.17060000  1.0 -0.6087902608
O  O75  1  0.04550000  0.62030000  0.35810000  1.0 -0.6206531908
O  O76  1  0.14190000  0.50950000  0.41920000  1.0 -0.5810795176
O  O77  1  0.43100000  0.49440000  0.15520000  1.0 -0.5922176066
O  O78  1  0.48370000  0.38010000  0.17080000  1.0 -0.6422117177
O  O79  1  0.49420000  0.17900000  0.36670000  1.0 -0.6206531908
O  O80  1  0.43950000  0.21150000  0.43250000  1.0 -0.5696363199
O  O81  1  0.39750000  0.67570000  0.02410000  1.0 -0.6206531908
O  O82  1  0.42310000  0.71150000  0.93060000  1.0 -0.6016573134
O  O83  1  0.19300000  0.87940000  0.01440000  1.0 -0.5579441461
O  O84  1  0.14410000  0.99090000  0.92120000  1.0 -0.6206531908
O  O85  1  0.13710000  0.28950000  0.63220000  1.0 -0.6016573134
O  O86  1  0.19140000  0.32720000  0.56770000  1.0 -0.6016573134
O  O87  1  0.39450000  0.12350000  0.57680000  1.0 -0.5696363199
O  O88  1  0.41160000  0.01300000  0.63690000  1.0 -0.5579441461
O  O89  1  0.04560000  0.95440000  0.93810000  1.0 -1.1905888342
O  O90  1  0.93490000  0.06510000  0.88740000  1.0 -1.1905888342
O  O91  1  0.39440000  0.60560000  0.93550000  1.0 -1.1781580868
O  O92  1  0.45770000  0.54230000  0.87960000  1.0 -1.199147854
O  O93  1  0.95440000  0.04560000  0.06190000  1.0 -1.1905888342
O  O94  1  0.06510000  0.93490000  0.11260000  1.0 -1.1905888342
O  O95  1  0.60560000  0.39440000  0.06450000  1.0 -1.1781580868
O  O96  1  0.54230000  0.45770000  0.12040000  1.0 -1.2060080591
