# DDEC6 charges by PACMAN v1.1 (https://github.com/mtap-research/PACMAN-charge/)
data_TEYBEH_FSR_pacman
_symmetry_space_group_name_H-M   'P 1'
_cell_length_a   10.58280000
_cell_length_b   10.58280000
_cell_length_c   10.58280000
_cell_angle_alpha   99.13730000
_cell_angle_beta   99.13730000
_cell_angle_gamma   133.03100000
_symmetry_Int_Tables_number   1
_chemical_formula_structural   CuGeH16C24(N2F7)2
_chemical_formula_sum   'Cu1 Ge1 H16 C24 N4 F14'
_cell_volume   794.62086796
_cell_formula_units_Z   1
loop_
 _symmetry_equiv_pos_site_id
 _symmetry_equiv_pos_as_xyz
  1  'x, y, z'
loop_
 _atom_site_type_symbol
 _atom_site_label
 _atom_site_symmetry_multiplicity
 _atom_site_fract_x
 _atom_site_fract_y
 _atom_site_fract_z
 _atom_site_occupancy
 _atom_site_charge
Cu  Cu1  1  0.00000000  0.00000000  0.00000000  1.0 0.4603357135
Ge  Ge1  1  0.50000000  0.50000000  0.00000000  1.0 0.5199368416
H  H1  1  0.76030000  0.42740000  0.66710000  1.0 0.1191147237
H  H2  1  0.76770000  0.60300000  0.83530000  1.0 0.0582670166
H  H3  1  0.76030000  0.09320000  0.33290000  1.0 0.1191147237
H  H4  1  0.76770000  0.93240000  0.16470000  1.0 0.0582670166
H  H5  1  0.09320000  0.76030000  0.33290000  1.0 0.1191147237
H  H6  1  0.93240000  0.76770000  0.16470000  1.0 0.0582670166
H  H7  1  0.42740000  0.76030000  0.66710000  1.0 0.1191147237
H  H8  1  0.60300000  0.76770000  0.83530000  1.0 0.0582670166
H  H9  1  0.23970000  0.90680000  0.66710000  1.0 0.1191147237
H  H10  1  0.23230000  0.06760000  0.83530000  1.0 0.0582670166
H  H11  1  0.23970000  0.57260000  0.33290000  1.0 0.1191147237
H  H12  1  0.23230000  0.39700000  0.16470000  1.0 0.0582670166
H  H13  1  0.90680000  0.23970000  0.66710000  1.0 0.1191147237
H  H14  1  0.06760000  0.23230000  0.83530000  1.0 0.0582670166
H  H15  1  0.57260000  0.23970000  0.33290000  1.0 0.1191147237
H  H16  1  0.39700000  0.23230000  0.16470000  1.0 0.0582670166
C  C1  1  0.85930000  0.55940000  0.70010000  1.0 -0.198866784
C  C2  1  0.86500000  0.66550000  0.80050000  1.0 0.0688744557
C  C3  1  0.85930000  0.15920000  0.29990000  1.0 -0.198866784
C  C4  1  0.86500000  0.06450000  0.19950000  1.0 0.0688744557
C  C5  1  0.15920000  0.85930000  0.29990000  1.0 -0.198866784
C  C6  1  0.06450000  0.86500000  0.19950000  1.0 0.0688744557
C  C7  1  0.55940000  0.85930000  0.70010000  1.0 -0.198866784
C  C8  1  0.66550000  0.86500000  0.80050000  1.0 0.0688744557
C  C9  1  0.14070000  0.84080000  0.70010000  1.0 -0.198866784
C  C10  1  0.13500000  0.93550000  0.80050000  1.0 0.0688744557
C  C11  1  0.14070000  0.44060000  0.29990000  1.0 -0.198866784
C  C12  1  0.13500000  0.33450000  0.19950000  1.0 0.0688744557
C  C13  1  0.84080000  0.14070000  0.70010000  1.0 -0.198866784
C  C14  1  0.93550000  0.13500000  0.80050000  1.0 0.0688744557
C  C15  1  0.44060000  0.14070000  0.29990000  1.0 -0.198866784
C  C16  1  0.33450000  0.13500000  0.19950000  1.0 0.0688744557
C  C17  1  0.00000000  0.64790000  0.64790000  1.0 0.1702221303
C  C18  1  0.00000000  0.54490000  0.54490000  1.0 -0.1023742811
C  C19  1  0.00000000  0.35210000  0.35210000  1.0 0.1702221303
C  C20  1  0.00000000  0.45510000  0.45510000  1.0 -0.1023742811
C  C21  1  0.35210000  0.00000000  0.35210000  1.0 0.1702221303
C  C22  1  0.45510000  0.00000000  0.45510000  1.0 -0.1023742811
C  C23  1  0.64790000  0.00000000  0.64790000  1.0 0.1702221303
C  C24  1  0.54490000  0.00000000  0.54490000  1.0 -0.1023742811
N  N1  1  0.00000000  0.85140000  0.85140000  1.0 -0.2780888037
N  N2  1  0.00000000  0.14860000  0.14860000  1.0 -0.2780888037
N  N3  1  0.14860000  0.00000000  0.14860000  1.0 -0.2780888037
N  N4  1  0.85140000  0.00000000  0.85140000  1.0 -0.2780888037
F  F1  1  0.71630000  0.71630000  0.00000000  1.0 -0.549664724
F  F2  1  0.28370000  0.28370000  0.00000000  1.0 -0.549664724
F  F3  1  0.50000000  0.37080000  0.87080000  1.0 0.04929291
F  F4  1  0.50000000  0.62920000  0.12920000  1.0 0.0439881577
F  F5  1  0.62920000  0.50000000  0.12920000  1.0 0.0439881577
F  F6  1  0.37080000  0.50000000  0.87080000  1.0 0.04929291
F  F7  1  0.46420000  0.37420000  0.83840000  1.0 0.04929291
F  F8  1  0.53580000  0.62580000  0.16160000  1.0 0.04929291
F  F9  1  0.62580000  0.46420000  0.09000000  1.0 0.04929291
F  F10  1  0.37420000  0.53580000  0.91000000  1.0 0.04929291
F  F11  1  0.53580000  0.37420000  0.91000000  1.0 0.04929291
F  F12  1  0.46420000  0.62580000  0.09000000  1.0 0.04929291
F  F13  1  0.37420000  0.46420000  0.83840000  1.0 0.04929291
F  F14  1  0.62580000  0.53580000  0.16160000  1.0 0.04929291
