# DDEC6 charges by PACMAN v1.1 (https://github.com/mtap-research/PACMAN-charge/)
data_TICQAA_ASR_pacman
_symmetry_space_group_name_H-M   'P 1'
_cell_length_a   25.74340000
_cell_length_b   25.74340000
_cell_length_c   25.74340000
_cell_angle_alpha   109.71100000
_cell_angle_beta   109.71100000
_cell_angle_gamma   108.99200000
_symmetry_Int_Tables_number   1
_chemical_formula_structural   Cu2H11C26(NO6)2
_chemical_formula_sum   'Cu24 H132 C312 N24 O144'
_cell_volume   13132.78841154
_cell_formula_units_Z   12
loop_
 _symmetry_equiv_pos_site_id
 _symmetry_equiv_pos_as_xyz
  1  'x, y, z'
loop_
 _atom_site_type_symbol
 _atom_site_label
 _atom_site_symmetry_multiplicity
 _atom_site_fract_x
 _atom_site_fract_y
 _atom_site_fract_z
 _atom_site_occupancy
 _atom_site_charge
Cu  Cu1  1  0.44418000  0.08799000  0.01929000  1.0 0.8357686301
Cu  Cu2  1  0.33571000  0.07100000  0.01475000  1.0 0.853990016
Cu  Cu3  1  0.06870000  0.42489000  0.98071000  1.0 0.8357686301
Cu  Cu4  1  0.05625000  0.32096000  0.98525000  1.0 0.853990016
Cu  Cu5  1  0.42489000  0.44418000  0.35619000  1.0 0.8357686301
Cu  Cu6  1  0.32096000  0.33571000  0.26471000  1.0 0.853990016
Cu  Cu7  1  0.08799000  0.06870000  0.64381000  1.0 0.8357686301
Cu  Cu8  1  0.07100000  0.05625000  0.73529000  1.0 0.853990016
Cu  Cu9  1  0.55582000  0.91201000  0.98071000  1.0 0.8357686301
Cu  Cu10  1  0.66429000  0.92900000  0.98525000  1.0 0.853990016
Cu  Cu11  1  0.93130000  0.57511000  0.01929000  1.0 0.8357686301
Cu  Cu12  1  0.94375000  0.67904000  0.01475000  1.0 0.853990016
Cu  Cu13  1  0.57511000  0.55582000  0.64381000  1.0 0.8357686301
Cu  Cu14  1  0.67904000  0.66429000  0.73529000  1.0 0.853990016
Cu  Cu15  1  0.91201000  0.93130000  0.35619000  1.0 0.8357686301
Cu  Cu16  1  0.92900000  0.94375000  0.26471000  1.0 0.853990016
Cu  Cu17  1  0.26488000  0.01072000  0.27560000  1.0 0.8604283681
Cu  Cu18  1  0.35410000  0.01596000  0.37006000  1.0 0.8604283681
Cu  Cu19  1  0.73512000  0.98928000  0.72440000  1.0 0.8604283681
Cu  Cu20  1  0.64590000  0.98404000  0.62994000  1.0 0.8604283681
Cu  Cu21  1  0.98928000  0.26488000  0.25416000  1.0 0.8604283681
Cu  Cu22  1  0.98404000  0.35410000  0.33814000  1.0 0.8604283681
Cu  Cu23  1  0.01072000  0.73512000  0.74584000  1.0 0.8604283681
Cu  Cu24  1  0.01596000  0.64590000  0.66186000  1.0 0.8604283681
H  H1  1  0.35970000  0.03220000  0.17030000  1.0 0.1403963054
H  H2  1  0.51780000  0.04580000  0.16560000  1.0 0.1507838216
H  H3  1  0.48240000  0.00960000  0.29400000  1.0 0.1403963054
H  H4  1  0.71290000  0.06420000  0.23930000  1.0 0.1292695863
H  H5  1  0.81130000  0.02420000  0.36270000  1.0 0.1507838216
H  H6  1  0.64930000  0.01820000  0.34890000  1.0 0.1292695863
H  H7  1  0.90140000  0.03170000  0.52510000  1.0 0.1507838216
H  H8  1  0.87290000  0.00220000  0.65970000  1.0 0.1403963054
H  H9  1  0.73500000  0.99470000  0.51950000  1.0 0.1507838216
H  H10  1  0.77090000  0.03560000  0.19350000  1.0 0.1172612497
H  H11  1  0.84510000  0.07080000  0.22570000  1.0 0.1403963054
H  H12  1  0.81110000  0.10780000  0.24590000  1.0 0.1172612497
H  H13  1  0.39970000  0.25440000  0.16210000  1.0 0.1507838216
H  H14  1  0.55680000  0.42460000  0.29060000  1.0 0.1595064014
H  H15  1  0.56150000  0.28950000  0.15800000  1.0 0.1507838216
H  H16  1  0.75630000  0.43790000  0.33840000  1.0 0.1595064014
H  H17  1  0.86190000  0.18940000  0.82970000  1.0 0.1403963054
H  H18  1  0.88020000  0.35220000  0.83440000  1.0 0.1507838216
H  H19  1  0.71560000  0.18840000  0.70600000  1.0 0.1403963054
H  H20  1  0.82490000  0.47360000  0.76070000  1.0 0.1292695863
H  H21  1  0.66150000  0.44860000  0.63730000  1.0 0.1507838216
H  H22  1  0.66930000  0.30040000  0.65110000  1.0 0.1292695863
H  H23  1  0.50660000  0.37630000  0.47490000  1.0 0.1507838216
H  H24  1  0.34250000  0.21320000  0.34030000  1.0 0.1403963054
H  H25  1  0.47520000  0.21550000  0.48050000  1.0 0.1507838216
H  H26  1  0.84210000  0.57740000  0.80650000  1.0 0.1172612497
H  H27  1  0.84510000  0.61940000  0.77430000  1.0 0.1403963054
H  H28  1  0.86190000  0.56520000  0.75410000  1.0 0.1172612497
H  H29  1  0.09230000  0.23760000  0.83790000  1.0 0.1403963054
H  H30  1  0.13400000  0.26620000  0.70940000  1.0 0.1595064014
H  H31  1  0.13150000  0.40350000  0.84200000  1.0 0.1507838216
H  H32  1  0.09950000  0.41790000  0.66160000  1.0 0.1595064014
H  H33  1  0.18940000  0.35970000  0.32750000  1.0 0.1403963054
H  H34  1  0.35220000  0.51780000  0.47200000  1.0 0.1507838216
H  H35  1  0.18840000  0.48240000  0.47280000  1.0 0.1403963054
H  H36  1  0.47360000  0.71290000  0.64870000  1.0 0.1292695863
H  H37  1  0.44860000  0.81130000  0.78710000  1.0 0.1507838216
H  H38  1  0.30040000  0.64930000  0.63110000  1.0 0.1292695863
H  H39  1  0.37630000  0.90140000  0.86970000  1.0 0.1507838216
H  H40  1  0.21320000  0.87290000  0.87070000  1.0 0.1403963054
H  H41  1  0.21550000  0.73500000  0.74030000  1.0 0.1507838216
H  H42  1  0.57740000  0.77090000  0.73530000  1.0 0.1172612497
H  H43  1  0.61940000  0.84510000  0.77430000  1.0 0.1403963054
H  H44  1  0.56520000  0.81110000  0.70330000  1.0 0.1172612497
H  H45  1  0.23760000  0.39970000  0.14530000  1.0 0.1403963054
H  H46  1  0.26620000  0.55680000  0.13220000  1.0 0.1595064014
H  H47  1  0.40350000  0.56150000  0.27200000  1.0 0.1507838216
H  H48  1  0.41790000  0.75630000  0.31840000  1.0 0.1595064014
H  H49  1  0.03220000  0.86190000  0.67250000  1.0 0.1403963054
H  H50  1  0.04580000  0.88020000  0.52800000  1.0 0.1507838216
H  H51  1  0.00960000  0.71560000  0.52720000  1.0 0.1403963054
H  H52  1  0.06420000  0.82490000  0.35130000  1.0 0.1292695863
H  H53  1  0.02420000  0.66150000  0.21290000  1.0 0.1507838216
H  H54  1  0.01820000  0.66930000  0.36890000  1.0 0.1292695863
H  H55  1  0.03170000  0.50660000  0.13030000  1.0 0.1507838216
H  H56  1  0.00220000  0.34250000  0.12930000  1.0 0.1403963054
H  H57  1  0.99470000  0.47520000  0.25970000  1.0 0.1507838216
H  H58  1  0.03560000  0.84210000  0.26470000  1.0 0.1172612497
H  H59  1  0.07080000  0.84510000  0.22570000  1.0 0.1403963054
H  H60  1  0.10780000  0.86190000  0.29670000  1.0 0.1172612497
H  H61  1  0.25440000  0.09230000  0.85470000  1.0 0.1403963054
H  H62  1  0.42460000  0.13400000  0.86780000  1.0 0.1595064014
H  H63  1  0.28950000  0.13150000  0.72800000  1.0 0.1507838216
H  H64  1  0.43790000  0.09950000  0.68160000  1.0 0.1595064014
H  H65  1  0.64030000  0.96780000  0.82970000  1.0 0.1403963054
H  H66  1  0.48220000  0.95420000  0.83440000  1.0 0.1507838216
H  H67  1  0.51760000  0.99040000  0.70600000  1.0 0.1403963054
H  H68  1  0.28710000  0.93580000  0.76070000  1.0 0.1292695863
H  H69  1  0.18870000  0.97580000  0.63730000  1.0 0.1507838216
H  H70  1  0.35070000  0.98180000  0.65110000  1.0 0.1292695863
H  H71  1  0.09860000  0.96830000  0.47490000  1.0 0.1507838216
H  H72  1  0.12710000  0.99780000  0.34030000  1.0 0.1403963054
H  H73  1  0.26500000  0.00530000  0.48050000  1.0 0.1507838216
H  H74  1  0.22910000  0.96440000  0.80650000  1.0 0.1172612497
H  H75  1  0.15490000  0.92920000  0.77430000  1.0 0.1403963054
H  H76  1  0.18890000  0.89220000  0.75410000  1.0 0.1172612497
H  H77  1  0.60030000  0.74560000  0.83790000  1.0 0.1403963054
H  H78  1  0.44320000  0.57540000  0.70940000  1.0 0.1595064014
H  H79  1  0.43850000  0.71050000  0.84200000  1.0 0.1507838216
H  H80  1  0.24370000  0.56210000  0.66160000  1.0 0.1595064014
H  H81  1  0.13810000  0.81060000  0.17030000  1.0 0.1403963054
H  H82  1  0.11980000  0.64780000  0.16560000  1.0 0.1507838216
H  H83  1  0.28440000  0.81160000  0.29400000  1.0 0.1403963054
H  H84  1  0.17510000  0.52640000  0.23930000  1.0 0.1292695863
H  H85  1  0.33850000  0.55140000  0.36270000  1.0 0.1507838216
H  H86  1  0.33070000  0.69960000  0.34890000  1.0 0.1292695863
H  H87  1  0.49340000  0.62370000  0.52510000  1.0 0.1507838216
H  H88  1  0.65750000  0.78680000  0.65970000  1.0 0.1403963054
H  H89  1  0.52480000  0.78450000  0.51950000  1.0 0.1507838216
H  H90  1  0.15790000  0.42260000  0.19350000  1.0 0.1172612497
H  H91  1  0.15490000  0.38060000  0.22570000  1.0 0.1403963054
H  H92  1  0.13810000  0.43480000  0.24590000  1.0 0.1172612497
H  H93  1  0.90770000  0.76240000  0.16210000  1.0 0.1403963054
H  H94  1  0.86600000  0.73380000  0.29060000  1.0 0.1595064014
H  H95  1  0.86850000  0.59650000  0.15800000  1.0 0.1507838216
H  H96  1  0.90050000  0.58210000  0.33840000  1.0 0.1595064014
H  H97  1  0.81060000  0.64030000  0.67250000  1.0 0.1403963054
H  H98  1  0.64780000  0.48220000  0.52800000  1.0 0.1507838216
H  H99  1  0.81160000  0.51760000  0.52720000  1.0 0.1403963054
H  H100  1  0.52640000  0.28710000  0.35130000  1.0 0.1292695863
H  H101  1  0.55140000  0.18870000  0.21290000  1.0 0.1507838216
H  H102  1  0.69960000  0.35070000  0.36890000  1.0 0.1292695863
H  H103  1  0.62370000  0.09860000  0.13030000  1.0 0.1507838216
H  H104  1  0.78680000  0.12710000  0.12930000  1.0 0.1403963054
H  H105  1  0.78450000  0.26500000  0.25970000  1.0 0.1507838216
H  H106  1  0.42260000  0.22910000  0.26470000  1.0 0.1172612497
H  H107  1  0.38060000  0.15490000  0.22570000  1.0 0.1403963054
H  H108  1  0.43480000  0.18890000  0.29670000  1.0 0.1172612497
H  H109  1  0.76240000  0.60030000  0.85470000  1.0 0.1403963054
H  H110  1  0.73380000  0.44320000  0.86780000  1.0 0.1595064014
H  H111  1  0.59650000  0.43850000  0.72800000  1.0 0.1507838216
H  H112  1  0.58210000  0.24370000  0.68160000  1.0 0.1595064014
H  H113  1  0.96780000  0.13810000  0.32750000  1.0 0.1403963054
H  H114  1  0.95420000  0.11980000  0.47200000  1.0 0.1507838216
H  H115  1  0.99040000  0.28440000  0.47280000  1.0 0.1403963054
H  H116  1  0.93580000  0.17510000  0.64870000  1.0 0.1292695863
H  H117  1  0.97580000  0.33850000  0.78710000  1.0 0.1507838216
H  H118  1  0.98180000  0.33070000  0.63110000  1.0 0.1292695863
H  H119  1  0.96830000  0.49340000  0.86970000  1.0 0.1507838216
H  H120  1  0.99780000  0.65750000  0.87070000  1.0 0.1403963054
H  H121  1  0.00530000  0.52480000  0.74030000  1.0 0.1507838216
H  H122  1  0.96440000  0.15790000  0.73530000  1.0 0.1172612497
H  H123  1  0.92920000  0.15490000  0.77430000  1.0 0.1403963054
H  H124  1  0.89220000  0.13810000  0.70330000  1.0 0.1172612497
H  H125  1  0.74560000  0.90770000  0.14530000  1.0 0.1403963054
H  H126  1  0.57540000  0.86600000  0.13220000  1.0 0.1595064014
H  H127  1  0.71050000  0.86850000  0.27200000  1.0 0.1507838216
H  H128  1  0.56210000  0.90050000  0.31840000  1.0 0.1595064014
H  H129  1  0.72720000  0.50010000  0.22730000  1.0 0.1172612497
H  H130  1  0.27280000  0.49990000  0.77270000  1.0 0.1172612497
H  H131  1  0.49990000  0.72720000  0.22710000  1.0 0.1172612497
H  H132  1  0.50010000  0.27280000  0.77290000  1.0 0.1172612497
C  C1  1  0.37536000  0.01499000  0.26905000  1.0 0.5889471596
C  C2  1  0.41507000  0.02072000  0.23727000  1.0 -0.0101873454
C  C3  1  0.39743000  0.03140000  0.18661000  1.0 -0.1077273852
C  C4  1  0.43595000  0.04104000  0.15991000  1.0 -0.0039087693
C  C5  1  0.49197000  0.03907000  0.18340000  1.0 -0.1319249695
C  C6  1  0.50937000  0.02708000  0.23365000  1.0 0.2481452761
C  C7  1  0.47095000  0.01774000  0.26057000  1.0 -0.1416594809
C  C8  1  0.41829000  0.05505000  0.10608000  1.0 0.5827478072
C  C9  1  0.61909000  0.05492000  0.26067000  1.0 0.450380505
C  C10  1  0.67238000  0.04262000  0.28948000  1.0 0.0313273509
C  C11  1  0.71741000  0.05245000  0.27026000  1.0 -0.2152337084
C  C12  1  0.76854000  0.04490000  0.29684000  1.0 0.2414115568
C  C13  1  0.77635000  0.02868000  0.34425000  1.0 -0.1919484442
C  C14  1  0.73142000  0.01917000  0.36411000  1.0 0.0087274739
C  C15  1  0.67968000  0.02547000  0.33637000  1.0 -0.1232708158
C  C16  1  0.73669000  0.00009000  0.41326000  1.0 0.450380505
C  C17  1  0.81432000  0.01360000  0.51296000  1.0 0.2481452761
C  C18  1  0.87532000  0.02281000  0.54225000  1.0 -0.1232708158
C  C19  1  0.89737000  0.01876000  0.59735000  1.0 -0.0174000809
C  C20  1  0.85851000  0.00549000  0.62326000  1.0 -0.1232708158
C  C21  1  0.79775000  0.99714000  0.59361000  1.0 -0.0101873454
C  C22  1  0.77583000  0.00083000  0.53898000  1.0 -0.1319249695
C  C23  1  0.81005000  0.06770000  0.23255000  1.0 -0.2103480013
C  C24  1  0.96430000  0.03152000  0.63022000  1.0 0.5827478072
C  C25  1  0.75765000  0.98964000  0.62465000  1.0 0.5889471596
C  C26  1  0.44383000  0.19474000  0.09941000  1.0 0.5827478072
C  C27  1  0.47591000  0.26228000  0.15193000  1.0 0.0048801772
C  C28  1  0.44240000  0.28190000  0.17892000  1.0 -0.1077273852
C  C29  1  0.47263000  0.34241000  0.23086000  1.0 0.0087274739
C  C30  1  0.53655000  0.38408000  0.25577000  1.0 -0.1587778019
C  C31  1  0.56985000  0.36484000  0.22835000  1.0 0.1825108355
C  C32  1  0.53920000  0.30285000  0.17607000  1.0 -0.1515230188
C  C33  1  0.43565000  0.36190000  0.25997000  1.0 0.5889471596
C  C34  1  0.66650000  0.41650000  0.23180000  1.0 0.3282501487
C  C35  1  0.68330000  0.45000000  0.30510000  1.0 0.322962196
C  C36  1  0.73920000  0.47790000  0.29350000  1.0 0.0439450153
C  C37  1  0.77090000  0.47500000  0.33650000  1.0 -0.1319249695
C  C38  1  0.81899000  0.51726000  0.37547000  1.0 0.1013673091
C  C39  1  0.74594000  0.10631000  0.73095000  1.0 0.5889471596
C  C40  1  0.78345000  0.17780000  0.76273000  1.0 -0.0101873454
C  C41  1  0.84479000  0.21082000  0.81339000  1.0 -0.1077273852
C  C42  1  0.88113000  0.27604000  0.84009000  1.0 -0.0039087693
C  C43  1  0.85567000  0.30857000  0.81660000  1.0 -0.1416594809
C  C44  1  0.79343000  0.27572000  0.76635000  1.0 0.2481452761
C  C45  1  0.75717000  0.21038000  0.73943000  1.0 -0.1416594809
C  C46  1  0.94897000  0.31221000  0.89392000  1.0 0.5827478072
C  C47  1  0.79425000  0.35842000  0.73933000  1.0 0.4556857725
C  C48  1  0.75314000  0.38290000  0.71052000  1.0 0.0313273509
C  C49  1  0.78219000  0.44715000  0.72974000  1.0 -0.2103480013
C  C50  1  0.74806000  0.47170000  0.70316000  1.0 0.2414115568
C  C51  1  0.68443000  0.43210000  0.65575000  1.0 -0.1919484442
C  C52  1  0.65506000  0.36731000  0.63589000  1.0 0.0087274739
C  C53  1  0.68910000  0.34331000  0.66363000  1.0 -0.1232708158
C  C54  1  0.58683000  0.32343000  0.58674000  1.0 0.450380505
C  C55  1  0.50064000  0.30136000  0.48704000  1.0 0.2481452761
C  C56  1  0.48056000  0.33307000  0.45775000  1.0 -0.1232708158
C  C57  1  0.42141000  0.30002000  0.40265000  1.0 -0.0174000809
C  C58  1  0.38223000  0.23525000  0.37674000  1.0 -0.1232708158
C  C59  1  0.40353000  0.20414000  0.40639000  1.0 -0.0101873454
C  C60  1  0.46185000  0.23685000  0.46102000  1.0 -0.1319249695
C  C61  1  0.83515000  0.57750000  0.76745000  1.0 -0.2103480013
C  C62  1  0.40130000  0.33408000  0.36978000  1.0 0.5827478072
C  C63  1  0.36499000  0.13300000  0.37535000  1.0 0.5889471596
C  C64  1  0.09533000  0.34442000  0.90059000  1.0 0.5827478072
C  C65  1  0.11035000  0.32398000  0.84807000  1.0 0.0048801772
C  C66  1  0.10298000  0.26348000  0.82108000  1.0 -0.1077273852
C  C67  1  0.11155000  0.24177000  0.76914000  1.0 0.0087274739
C  C68  1  0.12831000  0.28078000  0.74423000  1.0 -0.1587778019
C  C69  1  0.13649000  0.34150000  0.77165000  1.0 0.1825108355
C  C70  1  0.12678000  0.36313000  0.82393000  1.0 -0.1515230188
C  C71  1  0.10193000  0.17568000  0.74003000  1.0 0.5889471596
C  C72  1  0.18470000  0.43470000  0.76820000  1.0 0.3282501487
C  C73  1  0.14490000  0.37820000  0.69490000  1.0 0.322962196
C  C74  1  0.18440000  0.44570000  0.70650000  1.0 0.0439450153
C  C75  1  0.13850000  0.43440000  0.66350000  1.0 -0.1319249695
C  C76  1  0.14179000  0.44352000  0.62453000  1.0 0.1013673091
C  C77  1  0.10631000  0.37536000  0.36037000  1.0 0.5889471596
C  C78  1  0.17780000  0.41507000  0.39435000  1.0 -0.0101873454
C  C79  1  0.21082000  0.39743000  0.36603000  1.0 -0.1077273852
C  C80  1  0.27604000  0.43595000  0.39491000  1.0 -0.0039087693
C  C81  1  0.30857000  0.49197000  0.45290000  1.0 -0.1319249695
C  C82  1  0.27572000  0.50937000  0.48229000  1.0 0.2481452761
C  C83  1  0.21038000  0.47095000  0.45321000  1.0 -0.1416594809
C  C84  1  0.31221000  0.41829000  0.36324000  1.0 0.5827478072
C  C85  1  0.35842000  0.61909000  0.56417000  1.0 0.4556857725
C  C86  1  0.38290000  0.67238000  0.62976000  1.0 0.0313273509
C  C87  1  0.44715000  0.71741000  0.66496000  1.0 -0.2152337084
C  C88  1  0.47170000  0.76854000  0.72364000  1.0 0.2414115568
C  C89  1  0.43210000  0.77635000  0.74767000  1.0 -0.1919484442
C  C90  1  0.36731000  0.73142000  0.71225000  1.0 0.0087274739
C  C91  1  0.34331000  0.67968000  0.65421000  1.0 -0.1232708158
C  C92  1  0.32343000  0.73669000  0.73660000  1.0 0.450380505
C  C93  1  0.30136000  0.81432000  0.80072000  1.0 0.2481452761
C  C94  1  0.33307000  0.87532000  0.85251000  1.0 -0.1232708158
C  C95  1  0.30002000  0.89737000  0.87861000  1.0 -0.0174000809
C  C96  1  0.23525000  0.85851000  0.85302000  1.0 -0.1232708158
C  C97  1  0.20414000  0.79775000  0.80061000  1.0 -0.0101873454
C  C98  1  0.23685000  0.77583000  0.77500000  1.0 -0.1319249695
C  C99  1  0.57750000  0.81005000  0.74235000  1.0 -0.2103480013
C  C100  1  0.33408000  0.96430000  0.93278000  1.0 0.5827478072
C  C101  1  0.13300000  0.75765000  0.76801000  1.0 0.5889471596
C  C102  1  0.34442000  0.44383000  0.24909000  1.0 0.5827478072
C  C103  1  0.32398000  0.47591000  0.21363000  1.0 0.0087274739
C  C104  1  0.26348000  0.44240000  0.16050000  1.0 -0.1077273852
C  C105  1  0.24177000  0.47263000  0.13022000  1.0 0.0048801772
C  C106  1  0.28078000  0.53655000  0.15247000  1.0 -0.1587778019
C  C107  1  0.34150000  0.56985000  0.20501000  1.0 0.1825108355
C  C108  1  0.36313000  0.53920000  0.23635000  1.0 -0.1515230188
C  C109  1  0.17568000  0.43565000  0.07375000  1.0 0.5889471596
C  C110  1  0.43470000  0.66650000  0.25000000  1.0 0.3282501487
C  C111  1  0.37820000  0.68330000  0.23330000  1.0 0.322962196
C  C112  1  0.44570000  0.73920000  0.26130000  1.0 0.0439450153
C  C113  1  0.43440000  0.77090000  0.29590000  1.0 -0.1319249695
C  C114  1  0.44352000  0.81899000  0.30173000  1.0 0.1013673091
C  C115  1  0.01499000  0.74594000  0.63963000  1.0 0.5889471596
C  C116  1  0.02072000  0.78345000  0.60565000  1.0 -0.0101873454
C  C117  1  0.03140000  0.84479000  0.63397000  1.0 -0.1077273852
C  C118  1  0.04104000  0.88113000  0.60509000  1.0 -0.0039087693
C  C119  1  0.03907000  0.85567000  0.54710000  1.0 -0.1319249695
C  C120  1  0.02708000  0.79343000  0.51771000  1.0 0.2481452761
C  C121  1  0.01774000  0.75717000  0.54679000  1.0 -0.1416594809
C  C122  1  0.05505000  0.94897000  0.63676000  1.0 0.5827478072
C  C123  1  0.05492000  0.79425000  0.43583000  1.0 0.4556857725
C  C124  1  0.04262000  0.75314000  0.37024000  1.0 0.0313273509
C  C125  1  0.05245000  0.78219000  0.33504000  1.0 -0.2103480013
C  C126  1  0.04490000  0.74806000  0.27636000  1.0 0.2414115568
C  C127  1  0.02868000  0.68443000  0.25233000  1.0 -0.1919484442
C  C128  1  0.01917000  0.65506000  0.28775000  1.0 0.0087274739
C  C129  1  0.02547000  0.68910000  0.34579000  1.0 -0.1232708158
C  C130  1  0.00009000  0.58683000  0.26340000  1.0 0.450380505
C  C131  1  0.01360000  0.50064000  0.19928000  1.0 0.2481452761
C  C132  1  0.02281000  0.48056000  0.14749000  1.0 -0.1232708158
C  C133  1  0.01876000  0.42141000  0.12139000  1.0 -0.0174000809
C  C134  1  0.00549000  0.38223000  0.14698000  1.0 -0.1232708158
C  C135  1  0.99714000  0.40353000  0.19939000  1.0 -0.0101873454
C  C136  1  0.00083000  0.46185000  0.22500000  1.0 -0.1319249695
C  C137  1  0.06770000  0.83515000  0.25765000  1.0 -0.2103480013
C  C138  1  0.03152000  0.40130000  0.06722000  1.0 0.5827478072
C  C139  1  0.98964000  0.36499000  0.23199000  1.0 0.5889471596
C  C140  1  0.19474000  0.09533000  0.75091000  1.0 0.5827478072
C  C141  1  0.26228000  0.11035000  0.78637000  1.0 0.0048801772
C  C142  1  0.28190000  0.10298000  0.83950000  1.0 -0.1077273852
C  C143  1  0.34241000  0.11155000  0.86978000  1.0 0.0087274739
C  C144  1  0.38408000  0.12831000  0.84753000  1.0 -0.1587778019
C  C145  1  0.36484000  0.13649000  0.79499000  1.0 0.1825108355
C  C146  1  0.30285000  0.12678000  0.76365000  1.0 -0.1515230188
C  C147  1  0.36190000  0.10193000  0.92625000  1.0 0.5889471596
C  C148  1  0.41650000  0.18470000  0.75000000  1.0 0.3282501487
C  C149  1  0.45000000  0.14490000  0.76670000  1.0 0.322962196
C  C150  1  0.47790000  0.18440000  0.73870000  1.0 0.0439450153
C  C151  1  0.47500000  0.13850000  0.70410000  1.0 -0.1319249695
C  C152  1  0.51726000  0.14179000  0.69827000  1.0 0.1013673091
C  C153  1  0.62464000  0.98501000  0.73095000  1.0 0.5889471596
C  C154  1  0.58493000  0.97928000  0.76273000  1.0 -0.0101873454
C  C155  1  0.60257000  0.96860000  0.81339000  1.0 -0.1077273852
C  C156  1  0.56405000  0.95896000  0.84009000  1.0 -0.0039087693
C  C157  1  0.50803000  0.96093000  0.81660000  1.0 -0.1319249695
C  C158  1  0.49063000  0.97292000  0.76635000  1.0 0.2481452761
C  C159  1  0.52905000  0.98226000  0.73943000  1.0 -0.1416594809
C  C160  1  0.58171000  0.94495000  0.89392000  1.0 0.5827478072
C  C161  1  0.38091000  0.94508000  0.73933000  1.0 0.4556857725
C  C162  1  0.32762000  0.95738000  0.71052000  1.0 0.0313273509
C  C163  1  0.28259000  0.94755000  0.72974000  1.0 -0.2103480013
C  C164  1  0.23146000  0.95510000  0.70316000  1.0 0.2414115568
C  C165  1  0.22365000  0.97132000  0.65575000  1.0 -0.1919484442
C  C166  1  0.26858000  0.98083000  0.63589000  1.0 0.0087274739
C  C167  1  0.32032000  0.97453000  0.66363000  1.0 -0.1232708158
C  C168  1  0.26331000  0.99991000  0.58674000  1.0 0.450380505
C  C169  1  0.18568000  0.98640000  0.48704000  1.0 0.2481452761
C  C170  1  0.12468000  0.97719000  0.45775000  1.0 -0.1232708158
C  C171  1  0.10263000  0.98124000  0.40265000  1.0 -0.0174000809
C  C172  1  0.14149000  0.99451000  0.37674000  1.0 -0.1232708158
C  C173  1  0.20225000  0.00286000  0.40639000  1.0 -0.0101873454
C  C174  1  0.22417000  0.99917000  0.46102000  1.0 -0.1319249695
C  C175  1  0.18995000  0.93230000  0.76745000  1.0 -0.2103480013
C  C176  1  0.03570000  0.96848000  0.36978000  1.0 0.5827478072
C  C177  1  0.24235000  0.01036000  0.37535000  1.0 0.5889471596
C  C178  1  0.55617000  0.80526000  0.90059000  1.0 0.5827478072
C  C179  1  0.52409000  0.73772000  0.84807000  1.0 0.0048801772
C  C180  1  0.55760000  0.71810000  0.82108000  1.0 -0.1077273852
C  C181  1  0.52737000  0.65759000  0.76914000  1.0 0.0048801772
C  C182  1  0.46345000  0.61592000  0.74423000  1.0 -0.1587778019
C  C183  1  0.43015000  0.63516000  0.77165000  1.0 0.1825108355
C  C184  1  0.46080000  0.69715000  0.82393000  1.0 -0.1515230188
C  C185  1  0.56435000  0.63810000  0.74003000  1.0 0.5889471596
C  C186  1  0.33350000  0.58350000  0.76820000  1.0 0.3282501487
C  C187  1  0.31670000  0.55000000  0.69490000  1.0 0.322962196
C  C188  1  0.26080000  0.52210000  0.70650000  1.0 0.0439450153
C  C189  1  0.22910000  0.52500000  0.66350000  1.0 -0.1319249695
C  C190  1  0.18101000  0.48274000  0.62453000  1.0 0.1013673091
C  C191  1  0.25406000  0.89369000  0.26905000  1.0 0.5889471596
C  C192  1  0.21655000  0.82220000  0.23727000  1.0 -0.0101873454
C  C193  1  0.15521000  0.78918000  0.18661000  1.0 -0.1077273852
C  C194  1  0.11887000  0.72396000  0.15991000  1.0 -0.0039087693
C  C195  1  0.14433000  0.69143000  0.18340000  1.0 -0.1319249695
C  C196  1  0.20657000  0.72428000  0.23365000  1.0 0.2481452761
C  C197  1  0.24283000  0.78962000  0.26057000  1.0 -0.1416594809
C  C198  1  0.05103000  0.68779000  0.10608000  1.0 0.5827478072
C  C199  1  0.20575000  0.64158000  0.26067000  1.0 0.450380505
C  C200  1  0.24686000  0.61710000  0.28948000  1.0 0.0313273509
C  C201  1  0.21781000  0.55285000  0.27026000  1.0 -0.2103480013
C  C202  1  0.25194000  0.52830000  0.29684000  1.0 0.2414115568
C  C203  1  0.31557000  0.56790000  0.34425000  1.0 -0.1919484442
C  C204  1  0.34494000  0.63269000  0.36411000  1.0 0.0087274739
C  C205  1  0.31090000  0.65669000  0.33637000  1.0 -0.1232708158
C  C206  1  0.41317000  0.67657000  0.41326000  1.0 0.450380505
C  C207  1  0.49936000  0.69864000  0.51296000  1.0 0.2481452761
C  C208  1  0.51944000  0.66693000  0.54225000  1.0 -0.1232708158
C  C209  1  0.57859000  0.69998000  0.59735000  1.0 -0.0174000809
C  C210  1  0.61777000  0.76475000  0.62326000  1.0 -0.1232708158
C  C211  1  0.59647000  0.79586000  0.59361000  1.0 -0.0101873454
C  C212  1  0.53815000  0.76315000  0.53898000  1.0 -0.1319249695
C  C213  1  0.16485000  0.42250000  0.23255000  1.0 -0.2103480013
C  C214  1  0.59870000  0.66592000  0.63022000  1.0 0.5827478072
C  C215  1  0.63501000  0.86700000  0.62465000  1.0 0.5889471596
C  C216  1  0.90467000  0.65558000  0.09941000  1.0 0.5827478072
C  C217  1  0.88965000  0.67602000  0.15193000  1.0 0.0048801772
C  C218  1  0.89702000  0.73652000  0.17892000  1.0 -0.1077273852
C  C219  1  0.88845000  0.75823000  0.23086000  1.0 0.0048801772
C  C220  1  0.87169000  0.71922000  0.25577000  1.0 -0.1587778019
C  C221  1  0.86351000  0.65850000  0.22835000  1.0 0.1825108355
C  C222  1  0.87322000  0.63687000  0.17607000  1.0 -0.1515230188
C  C223  1  0.89807000  0.82432000  0.25997000  1.0 0.5889471596
C  C224  1  0.81530000  0.56530000  0.23180000  1.0 0.3282501487
C  C225  1  0.85510000  0.62180000  0.30510000  1.0 0.322962196
C  C226  1  0.81560000  0.55430000  0.29350000  1.0 0.0439450153
C  C227  1  0.86150000  0.56560000  0.33650000  1.0 -0.1319249695
C  C228  1  0.85821000  0.55648000  0.37547000  1.0 0.1013673091
C  C229  1  0.89369000  0.62464000  0.63963000  1.0 0.5889471596
C  C230  1  0.82220000  0.58493000  0.60565000  1.0 -0.0101873454
C  C231  1  0.78918000  0.60257000  0.63397000  1.0 -0.1077273852
C  C232  1  0.72396000  0.56405000  0.60509000  1.0 -0.0039087693
C  C233  1  0.69143000  0.50803000  0.54710000  1.0 -0.1319249695
C  C234  1  0.72428000  0.49063000  0.51771000  1.0 0.2481452761
C  C235  1  0.78962000  0.52905000  0.54679000  1.0 -0.1416594809
C  C236  1  0.68779000  0.58171000  0.63676000  1.0 0.5827478072
C  C237  1  0.64158000  0.38091000  0.43583000  1.0 0.4556857725
C  C238  1  0.61710000  0.32762000  0.37024000  1.0 0.0313273509
C  C239  1  0.55285000  0.28259000  0.33504000  1.0 -0.2103480013
C  C240  1  0.52830000  0.23146000  0.27636000  1.0 0.2414115568
C  C241  1  0.56790000  0.22365000  0.25233000  1.0 -0.1919484442
C  C242  1  0.63269000  0.26858000  0.28775000  1.0 0.0087274739
C  C243  1  0.65669000  0.32032000  0.34579000  1.0 -0.1232708158
C  C244  1  0.67657000  0.26331000  0.26340000  1.0 0.450380505
C  C245  1  0.69864000  0.18568000  0.19928000  1.0 0.2481452761
C  C246  1  0.66693000  0.12468000  0.14749000  1.0 -0.1232708158
C  C247  1  0.69998000  0.10263000  0.12139000  1.0 -0.0174000809
C  C248  1  0.76475000  0.14149000  0.14698000  1.0 -0.1232708158
C  C249  1  0.79586000  0.20225000  0.19939000  1.0 -0.0101873454
C  C250  1  0.76315000  0.22417000  0.22500000  1.0 -0.1319249695
C  C251  1  0.42250000  0.18995000  0.25765000  1.0 -0.2103480013
C  C252  1  0.66592000  0.03570000  0.06722000  1.0 0.5827478072
C  C253  1  0.86700000  0.24235000  0.23199000  1.0 0.5889471596
C  C254  1  0.65558000  0.55617000  0.75091000  1.0 0.5827478072
C  C255  1  0.67602000  0.52409000  0.78637000  1.0 0.0048801772
C  C256  1  0.73652000  0.55760000  0.83950000  1.0 -0.1077273852
C  C257  1  0.75823000  0.52737000  0.86978000  1.0 0.0048801772
C  C258  1  0.71922000  0.46345000  0.84753000  1.0 -0.1587778019
C  C259  1  0.65850000  0.43015000  0.79499000  1.0 0.1825108355
C  C260  1  0.63687000  0.46080000  0.76365000  1.0 -0.1515230188
C  C261  1  0.82432000  0.56435000  0.92625000  1.0 0.5889471596
C  C262  1  0.56530000  0.33350000  0.75000000  1.0 0.3282501487
C  C263  1  0.62180000  0.31670000  0.76670000  1.0 0.322962196
C  C264  1  0.55430000  0.26080000  0.73870000  1.0 0.0439450153
C  C265  1  0.56560000  0.22910000  0.70410000  1.0 -0.1319249695
C  C266  1  0.55648000  0.18101000  0.69827000  1.0 0.1013673091
C  C267  1  0.98501000  0.25406000  0.36037000  1.0 0.5889471596
C  C268  1  0.97928000  0.21655000  0.39435000  1.0 -0.0101873454
C  C269  1  0.96860000  0.15521000  0.36603000  1.0 -0.1077273852
C  C270  1  0.95896000  0.11887000  0.39491000  1.0 -0.0039087693
C  C271  1  0.96093000  0.14433000  0.45290000  1.0 -0.1319249695
C  C272  1  0.97292000  0.20657000  0.48229000  1.0 0.2481452761
C  C273  1  0.98226000  0.24283000  0.45321000  1.0 -0.1416594809
C  C274  1  0.94495000  0.05103000  0.36324000  1.0 0.5827478072
C  C275  1  0.94508000  0.20575000  0.56417000  1.0 0.450380505
C  C276  1  0.95738000  0.24686000  0.62976000  1.0 0.0313273509
C  C277  1  0.94755000  0.21781000  0.66496000  1.0 -0.2103480013
C  C278  1  0.95510000  0.25194000  0.72364000  1.0 0.2414115568
C  C279  1  0.97132000  0.31557000  0.74767000  1.0 -0.1919484442
C  C280  1  0.98083000  0.34494000  0.71225000  1.0 0.0087274739
C  C281  1  0.97453000  0.31090000  0.65421000  1.0 -0.1232708158
C  C282  1  0.99991000  0.41317000  0.73660000  1.0 0.450380505
C  C283  1  0.98640000  0.49936000  0.80072000  1.0 0.2481452761
C  C284  1  0.97719000  0.51944000  0.85251000  1.0 -0.1232708158
C  C285  1  0.98124000  0.57859000  0.87861000  1.0 -0.0174000809
C  C286  1  0.99451000  0.61777000  0.85302000  1.0 -0.1232708158
C  C287  1  0.00286000  0.59647000  0.80061000  1.0 -0.0101873454
C  C288  1  0.99917000  0.53815000  0.77500000  1.0 -0.1319249695
C  C289  1  0.93230000  0.16485000  0.74235000  1.0 -0.2103480013
C  C290  1  0.96848000  0.59870000  0.93278000  1.0 0.5827478072
C  C291  1  0.01036000  0.63501000  0.76801000  1.0 0.5889471596
C  C292  1  0.80526000  0.90467000  0.24909000  1.0 0.5827478072
C  C293  1  0.73772000  0.88965000  0.21363000  1.0 0.0048801772
C  C294  1  0.71810000  0.89702000  0.16050000  1.0 -0.1077273852
C  C295  1  0.65759000  0.88845000  0.13022000  1.0 0.0048801772
C  C296  1  0.61592000  0.87169000  0.15247000  1.0 -0.1587778019
C  C297  1  0.63516000  0.86351000  0.20501000  1.0 0.1825108355
C  C298  1  0.69715000  0.87322000  0.23635000  1.0 -0.1515230188
C  C299  1  0.63810000  0.89807000  0.07375000  1.0 0.5889471596
C  C300  1  0.58350000  0.81530000  0.25000000  1.0 0.3282501487
C  C301  1  0.55000000  0.85510000  0.23330000  1.0 0.322962196
C  C302  1  0.52210000  0.81560000  0.26130000  1.0 0.0439450153
C  C303  1  0.52500000  0.86150000  0.29590000  1.0 -0.1319249695
C  C304  1  0.48274000  0.85821000  0.30173000  1.0 0.1013673091
C  C305  1  0.75710000  0.50960000  0.26670000  1.0 -0.2103480013
C  C306  1  0.92090000  0.55730000  0.47820000  1.0 0.1507838216
C  C307  1  0.24290000  0.49040000  0.73330000  1.0 -0.2103480013
C  C308  1  0.07910000  0.44270000  0.52180000  1.0 0.1507838216
C  C309  1  0.49040000  0.75710000  0.24750000  1.0 -0.2046835522
C  C310  1  0.44270000  0.92090000  0.36360000  1.0 0.1507838216
C  C311  1  0.50960000  0.24290000  0.75250000  1.0 -0.2046835522
C  C312  1  0.55730000  0.07910000  0.63640000  1.0 0.1507838216
N  N1  1  0.56458000  0.02140000  0.25730000  1.0 -0.4503189834
N  N2  1  0.63446000  0.40660000  0.25160000  1.0 -0.1416594809
N  N3  1  0.79644000  0.02318000  0.45992000  1.0 -0.4175751755
N  N4  1  0.76410000  0.30728000  0.74270000  1.0 -0.4503189834
N  N5  1  0.15500000  0.38286000  0.74840000  1.0 -0.1416594809
N  N6  1  0.56326000  0.33652000  0.54008000  1.0 -0.4175751755
N  N7  1  0.30728000  0.56458000  0.54318000  1.0 -0.4503189834
N  N8  1  0.38286000  0.63446000  0.22786000  1.0 -0.1416594809
N  N9  1  0.33652000  0.79644000  0.77326000  1.0 -0.4175751755
N  N10  1  0.02140000  0.76410000  0.45682000  1.0 -0.4503189834
N  N11  1  0.40660000  0.15500000  0.77214000  1.0 -0.1416594809
N  N12  1  0.02318000  0.56326000  0.22674000  1.0 -0.4175751755
N  N13  1  0.43542000  0.97860000  0.74270000  1.0 -0.4503189834
N  N14  1  0.36554000  0.59340000  0.74840000  1.0 -0.1416594809
N  N15  1  0.20356000  0.97682000  0.54008000  1.0 -0.4175751755
N  N16  1  0.23590000  0.69272000  0.25730000  1.0 -0.4503189834
N  N17  1  0.84500000  0.61714000  0.25160000  1.0 -0.1416594809
N  N18  1  0.43674000  0.66348000  0.45992000  1.0 -0.4175751755
N  N19  1  0.69272000  0.43542000  0.45682000  1.0 -0.4503189834
N  N20  1  0.61714000  0.36554000  0.77214000  1.0 -0.1416594809
N  N21  1  0.66348000  0.20356000  0.22674000  1.0 -0.4175751755
N  N22  1  0.97860000  0.23590000  0.54318000  1.0 -0.4503189834
N  N23  1  0.59340000  0.84500000  0.22786000  1.0 -0.1416594809
N  N24  1  0.97682000  0.43674000  0.77326000  1.0 -0.4175751755
O  O1  1  0.32274000  0.01178000  0.24176000  1.0 -0.519146047
O  O2  1  0.67869000  0.45979000  0.35210000  1.0 -0.3636370326
O  O3  1  0.39808000  0.01509000  0.32063000  1.0 -0.5254417161
O  O4  1  0.64640000  0.38500000  0.17420000  1.0 -0.3432186941
O  O5  1  0.36527000  0.05271000  0.08402000  1.0 -0.5115471408
O  O6  1  0.85700000  0.51540000  0.43320000  1.0 -0.083587851
O  O7  1  0.45749000  0.06775000  0.08812000  1.0 -0.5012302068
O  O8  1  0.62750000  0.09497000  0.24475000  1.0 -0.4503189834
O  O9  1  0.81444000  0.05117000  0.28033000  1.0 -0.1232708158
O  O10  1  0.68896000  0.96368000  0.40970000  1.0 -0.4914841056
O  O11  1  0.99645000  0.04170000  0.60455000  1.0 -0.5012302068
O  O12  1  0.98264000  0.03050000  0.68164000  1.0 -0.5115471408
O  O13  1  0.78007000  0.98880000  0.67597000  1.0 -0.5115471408
O  O14  1  0.70490000  0.98555000  0.59727000  1.0 -0.5012302068
O  O15  1  0.47825000  0.17673000  0.08248000  1.0 -0.5012302068
O  O16  1  0.38579000  0.16179000  0.07738000  1.0 -0.5012302068
O  O17  1  0.37858000  0.32351000  0.23323000  1.0 -0.5012302068
O  O18  1  0.46620000  0.41587000  0.30969000  1.0 -0.5012302068
O  O19  1  0.77002000  0.08098000  0.75824000  1.0 -0.519146047
O  O20  1  0.10769000  0.32659000  0.64790000  1.0 -0.3636370326
O  O21  1  0.69446000  0.07745000  0.67937000  1.0 -0.519146047
O  O22  1  0.21080000  0.47220000  0.82580000  1.0 -0.3454785148
O  O23  1  0.96869000  0.28125000  0.91598000  1.0 -0.5115471408
O  O24  1  0.08220000  0.42380000  0.56680000  1.0 -0.083587851
O  O25  1  0.97963000  0.36937000  0.91188000  1.0 -0.5012302068
O  O26  1  0.85022000  0.38275000  0.75525000  1.0 -0.4503189834
O  O27  1  0.77084000  0.53411000  0.71967000  1.0 -0.1232708158
O  O28  1  0.55398000  0.27926000  0.59030000  1.0 -0.4914841056
O  O29  1  0.43715000  0.39190000  0.39545000  1.0 -0.5012302068
O  O30  1  0.34886000  0.30100000  0.31836000  1.0 -0.5115471408
O  O31  1  0.31283000  0.10410000  0.32403000  1.0 -0.5115471408
O  O32  1  0.38828000  0.10763000  0.40273000  1.0 -0.5012302068
O  O33  1  0.09425000  0.39577000  0.91752000  1.0 -0.5012302068
O  O34  1  0.08441000  0.30841000  0.92262000  1.0 -0.5012302068
O  O35  1  0.09028000  0.14535000  0.76677000  1.0 -0.5012302068
O  O36  1  0.10618000  0.15651000  0.69031000  1.0 -0.5012302068
O  O37  1  0.08098000  0.32274000  0.31096000  1.0 -0.519146047
O  O38  1  0.32659000  0.67869000  0.21890000  1.0 -0.3636370326
O  O39  1  0.07745000  0.39808000  0.38299000  1.0 -0.5254417161
O  O40  1  0.47220000  0.64640000  0.26140000  1.0 -0.3432186941
O  O41  1  0.28125000  0.36527000  0.31256000  1.0 -0.5115471408
O  O42  1  0.42380000  0.85700000  0.34160000  1.0 -0.083587851
O  O43  1  0.36937000  0.45749000  0.38974000  1.0 -0.4914841056
O  O44  1  0.38275000  0.62750000  0.53253000  1.0 -0.4503189834
O  O45  1  0.53411000  0.81444000  0.76327000  1.0 -0.1232708158
O  O46  1  0.27926000  0.68896000  0.72528000  1.0 -0.4914841056
O  O47  1  0.39190000  0.99645000  0.95475000  1.0 -0.5012302068
O  O48  1  0.30100000  0.98264000  0.95214000  1.0 -0.5115471408
O  O49  1  0.10410000  0.78007000  0.79127000  1.0 -0.5115471408
O  O50  1  0.10763000  0.70490000  0.71935000  1.0 -0.5012302068
O  O51  1  0.39577000  0.47825000  0.30152000  1.0 -0.5012302068
O  O52  1  0.30841000  0.38579000  0.22400000  1.0 -0.5012302068
O  O53  1  0.14535000  0.37858000  0.05507000  1.0 -0.5012302068
O  O54  1  0.15651000  0.46620000  0.05033000  1.0 -0.5012302068
O  O55  1  0.01178000  0.77002000  0.68904000  1.0 -0.519146047
O  O56  1  0.45979000  0.10769000  0.78110000  1.0 -0.3636370326
O  O57  1  0.01509000  0.69446000  0.61701000  1.0 -0.519146047
O  O58  1  0.38500000  0.21080000  0.73860000  1.0 -0.3454785148
O  O59  1  0.05271000  0.96869000  0.68744000  1.0 -0.5115471408
O  O60  1  0.51540000  0.08220000  0.65840000  1.0 -0.083587851
O  O61  1  0.06775000  0.97963000  0.61026000  1.0 -0.5012302068
O  O62  1  0.09497000  0.85022000  0.46747000  1.0 -0.4503189834
O  O63  1  0.05117000  0.77084000  0.23673000  1.0 -0.1232708158
O  O64  1  0.96368000  0.55398000  0.27472000  1.0 -0.4914841056
O  O65  1  0.04170000  0.43715000  0.04525000  1.0 -0.5012302068
O  O66  1  0.03050000  0.34886000  0.04786000  1.0 -0.5115471408
O  O67  1  0.98880000  0.31283000  0.20873000  1.0 -0.5115471408
O  O68  1  0.98555000  0.38828000  0.28065000  1.0 -0.5012302068
O  O69  1  0.17673000  0.09425000  0.69848000  1.0 -0.5012302068
O  O70  1  0.16179000  0.08441000  0.77600000  1.0 -0.5012302068
O  O71  1  0.32351000  0.09028000  0.94493000  1.0 -0.5012302068
O  O72  1  0.41587000  0.10618000  0.94967000  1.0 -0.5012302068
O  O73  1  0.67726000  0.98822000  0.75824000  1.0 -0.519146047
O  O74  1  0.32131000  0.54021000  0.64790000  1.0 -0.3636370326
O  O75  1  0.60192000  0.98491000  0.67937000  1.0 -0.5254417161
O  O76  1  0.35360000  0.61500000  0.82580000  1.0 -0.3432186941
O  O77  1  0.63473000  0.94729000  0.91598000  1.0 -0.5115471408
O  O78  1  0.14300000  0.48460000  0.56680000  1.0 -0.083587851
O  O79  1  0.54251000  0.93225000  0.91188000  1.0 -0.5012302068
O  O80  1  0.37250000  0.90503000  0.75525000  1.0 -0.4503189834
O  O81  1  0.18556000  0.94883000  0.71967000  1.0 -0.1232708158
O  O82  1  0.31104000  0.03632000  0.59030000  1.0 -0.4914841056
O  O83  1  0.00355000  0.95830000  0.39545000  1.0 -0.5012302068
O  O84  1  0.01736000  0.96950000  0.31836000  1.0 -0.5115471408
O  O85  1  0.21993000  0.01120000  0.32403000  1.0 -0.5115471408
O  O86  1  0.29510000  0.01445000  0.40273000  1.0 -0.5012302068
O  O87  1  0.52175000  0.82327000  0.91752000  1.0 -0.5012302068
O  O88  1  0.61421000  0.83821000  0.92262000  1.0 -0.5012302068
O  O89  1  0.62142000  0.67649000  0.76677000  1.0 -0.5012302068
O  O90  1  0.53380000  0.58413000  0.69031000  1.0 -0.5012302068
O  O91  1  0.22998000  0.91902000  0.24176000  1.0 -0.519146047
O  O92  1  0.89231000  0.67341000  0.35210000  1.0 -0.3636370326
O  O93  1  0.30554000  0.92255000  0.32063000  1.0 -0.5254417161
O  O94  1  0.78920000  0.52780000  0.17420000  1.0 -0.3432186941
O  O95  1  0.03131000  0.71875000  0.08402000  1.0 -0.5115471408
O  O96  1  0.91780000  0.57620000  0.43320000  1.0 -0.083587851
O  O97  1  0.02037000  0.63063000  0.08812000  1.0 -0.4914841056
O  O98  1  0.14978000  0.61725000  0.24475000  1.0 -0.4503189834
O  O99  1  0.22916000  0.46589000  0.28033000  1.0 -0.1232708158
O  O100  1  0.44602000  0.72074000  0.40970000  1.0 -0.4914841056
O  O101  1  0.56285000  0.60810000  0.60455000  1.0 -0.5012302068
O  O102  1  0.65114000  0.69900000  0.68164000  1.0 -0.5115471408
O  O103  1  0.68717000  0.89590000  0.67597000  1.0 -0.5115471408
O  O104  1  0.61172000  0.89237000  0.59727000  1.0 -0.5012302068
O  O105  1  0.90575000  0.60423000  0.08248000  1.0 -0.5012302068
O  O106  1  0.91559000  0.69159000  0.07738000  1.0 -0.5012302068
O  O107  1  0.90972000  0.85465000  0.23323000  1.0 -0.5012302068
O  O108  1  0.89382000  0.84349000  0.30969000  1.0 -0.5012302068
O  O109  1  0.91902000  0.67726000  0.68904000  1.0 -0.519146047
O  O110  1  0.67341000  0.32131000  0.78110000  1.0 -0.3636370326
O  O111  1  0.92255000  0.60192000  0.61701000  1.0 -0.5254417161
O  O112  1  0.52780000  0.35360000  0.73860000  1.0 -0.3454785148
O  O113  1  0.71875000  0.63473000  0.68744000  1.0 -0.5115471408
O  O114  1  0.57620000  0.14300000  0.65840000  1.0 -0.083587851
O  O115  1  0.63063000  0.54251000  0.61026000  1.0 -0.4914841056
O  O116  1  0.61725000  0.37250000  0.46747000  1.0 -0.4503189834
O  O117  1  0.46589000  0.18556000  0.23673000  1.0 -0.1232708158
O  O118  1  0.72074000  0.31104000  0.27472000  1.0 -0.4914841056
O  O119  1  0.60810000  0.00355000  0.04525000  1.0 -0.5012302068
O  O120  1  0.69900000  0.01736000  0.04786000  1.0 -0.5115471408
O  O121  1  0.89590000  0.21993000  0.20873000  1.0 -0.5115471408
O  O122  1  0.89237000  0.29510000  0.28065000  1.0 -0.5012302068
O  O123  1  0.60423000  0.52175000  0.69848000  1.0 -0.5012302068
O  O124  1  0.69159000  0.61421000  0.77600000  1.0 -0.5012302068
O  O125  1  0.85465000  0.62142000  0.94493000  1.0 -0.5012302068
O  O126  1  0.84349000  0.53380000  0.94967000  1.0 -0.5012302068
O  O127  1  0.98822000  0.22998000  0.31096000  1.0 -0.519146047
O  O128  1  0.54021000  0.89231000  0.21890000  1.0 -0.3636370326
O  O129  1  0.98491000  0.30554000  0.38299000  1.0 -0.5254417161
O  O130  1  0.61500000  0.78920000  0.26140000  1.0 -0.3454785148
O  O131  1  0.94729000  0.03131000  0.31256000  1.0 -0.5115471408
O  O132  1  0.48460000  0.91780000  0.34160000  1.0 -0.083587851
O  O133  1  0.93225000  0.02037000  0.38974000  1.0 -0.4914841056
O  O134  1  0.90503000  0.14978000  0.53253000  1.0 -0.4503189834
O  O135  1  0.94883000  0.22916000  0.76327000  1.0 -0.1232708158
O  O136  1  0.03632000  0.44602000  0.72528000  1.0 -0.4914841056
O  O137  1  0.95830000  0.56285000  0.95475000  1.0 -0.5012302068
O  O138  1  0.96950000  0.65114000  0.95214000  1.0 -0.5115471408
O  O139  1  0.01120000  0.68717000  0.79127000  1.0 -0.5115471408
O  O140  1  0.01445000  0.61172000  0.71935000  1.0 -0.5012302068
O  O141  1  0.82327000  0.90575000  0.30152000  1.0 -0.5012302068
O  O142  1  0.83821000  0.91559000  0.22400000  1.0 -0.5012302068
O  O143  1  0.67649000  0.90972000  0.05507000  1.0 -0.5012302068
O  O144  1  0.58413000  0.89382000  0.05033000  1.0 -0.5012302068
