# DDEC6 charges by PACMAN v1.1 (https://github.com/mtap-research/PACMAN-charge/)
data_TIFRIM_FSR_pacman
_symmetry_space_group_name_H-M   'P 1'
_cell_length_a   12.76440000
_cell_length_b   21.06710000
_cell_length_c   29.56650000
_cell_angle_alpha   73.18700000
_cell_angle_beta   85.73900000
_cell_angle_gamma   79.25500000
_symmetry_Int_Tables_number   1
_chemical_formula_structural   CdH48C75N3Cl2O3
_chemical_formula_sum   'Cd4 H192 C300 N12 Cl8 O12'
_cell_volume   7475.63561755
_cell_formula_units_Z   4
loop_
 _symmetry_equiv_pos_site_id
 _symmetry_equiv_pos_as_xyz
  1  'x, y, z'
loop_
 _atom_site_type_symbol
 _atom_site_label
 _atom_site_symmetry_multiplicity
 _atom_site_fract_x
 _atom_site_fract_y
 _atom_site_fract_z
 _atom_site_occupancy
 _atom_site_charge
Cd  Cd1  1  0.58944000  0.75882000  0.25828000  1.0 0.701916047
Cd  Cd2  1  0.90551000  0.71576000  0.23953000  1.0 0.7050781032
Cd  Cd3  1  0.41056000  0.24118000  0.74172000  1.0 0.701916047
Cd  Cd4  1  0.09449000  0.28424000  0.76047000  1.0 0.7050781032
H  H1  1  0.45113000  0.88162000  0.29410000  1.0 0.1105818914
H  H2  1  0.43346000  0.99417000  0.28786000  1.0 0.1463170306
H  H3  1  0.70545000  0.99710000  0.21128000  1.0 0.1269156398
H  H4  1  0.71746000  0.88400000  0.22137000  1.0 0.0911146669
H  H5  1  0.62119000  0.67464000  0.17900000  1.0 0.1105818914
H  H6  1  0.60708000  0.57512000  0.16551000  1.0 0.1396760276
H  H7  1  0.48841000  0.51671000  0.29783000  1.0 0.1396760276
H  H8  1  0.50794000  0.61777000  0.30741000  1.0 0.1031600876
H  H9  1  0.44719000  0.36780000  0.30430000  1.0 0.1185656258
H  H10  1  0.35842000  0.30041000  0.35982000  1.0 0.1185656258
H  H11  1  0.66575000  0.18470000  0.15264000  1.0 0.1185656258
H  H12  1  0.71706000  0.25956000  0.08790000  1.0 0.1185656258
H  H13  1  0.50734000  0.46085000  0.10167000  1.0 0.1185656258
H  H14  1  0.36130000  0.51262000  0.05719000  1.0 0.1185656258
H  H15  1  0.31787000  0.47077000  0.00025000  1.0 0.1185656258
H  H16  1  0.42188000  0.37713000  0.98712000  1.0 0.1185656258
H  H17  1  0.56451000  0.32065000  0.03567000  1.0 0.1105818914
H  H18  1  0.74201000  0.44091000  0.12734000  1.0 0.1269156398
H  H19  1  0.87711000  0.49510000  0.09034000  1.0 0.1185656258
H  H20  1  0.95402000  0.48019000  0.02466000  1.0 0.1105818914
H  H21  1  0.89652000  0.40927000  0.98975000  1.0 0.1185656258
H  H22  1  0.76122000  0.34923000  0.02642000  1.0 0.1105818914
H  H23  1  0.52995000  0.09827000  0.36886000  1.0 0.1269156398
H  H24  1  0.57707000  0.03903000  0.44490000  1.0 0.1185656258
H  H25  1  0.48232000  0.06842000  0.50825000  1.0 0.1185656258
H  H26  1  0.34036000  0.15617000  0.49465000  1.0 0.1185656258
H  H27  1  0.29924000  0.21853000  0.41822000  1.0 0.1105818914
H  H28  1  0.30077000  0.10568000  0.34766000  1.0 0.1185656258
H  H29  1  0.14644000  0.09127000  0.31776000  1.0 0.1185656258
H  H30  1  0.03321000  0.18284000  0.27368000  1.0 0.1031600876
H  H31  1  0.08034000  0.28764000  0.25447000  1.0 0.1105818914
H  H32  1  0.23500000  0.30241000  0.28198000  1.0 0.1185656258
H  H33  1  0.78368000  0.58825000  0.28689000  1.0 0.0911146669
H  H34  1  0.76281000  0.48483000  0.28305000  1.0 0.1269156398
H  H35  1  0.97491000  0.50173000  0.17595000  1.0 0.1396760276
H  H36  1  0.99236000  0.60355000  0.18287000  1.0 0.1105818914
H  H37  1  0.96828000  0.86058000  0.18532000  1.0 0.1105818914
H  H38  1  0.95044000  0.96964000  0.18777000  1.0 0.1463170306
H  H39  1  0.85985000  0.90938000  0.32419000  1.0 0.1396760276
H  H40  1  0.88362000  0.80165000  0.31779000  1.0 0.1105818914
H  H41  1  0.72744000  0.10502000  0.32772000  1.0 0.1185656258
H  H42  1  0.67213000  0.15602000  0.38422000  1.0 0.1105818914
H  H43  1  0.93978000  0.33883000  0.15098000  1.0 0.1185656258
H  H44  1  0.01650000  0.28614000  0.09894000  1.0 0.1185656258
H  H45  1  0.14683000  0.20750000  0.17989000  1.0 0.1185656258
H  H46  1  0.31578000  0.14843000  0.19943000  1.0 0.1185656258
H  H47  1  0.38200000  0.05790000  0.17211000  1.0 0.1105818914
H  H48  1  0.27635000  0.02362000  0.12827000  1.0 0.1105818914
H  H49  1  0.10585000  0.07761000  0.11143000  1.0 0.1185656258
H  H50  1  0.02185000  0.23348000  0.04081000  1.0 0.1105818914
H  H51  1  0.94009000  0.21924000  0.97776000  1.0 0.1185656258
H  H52  1  0.81515000  0.14917000  0.99122000  1.0 0.1105818914
H  H53  1  0.77444000  0.09147000  0.06752000  1.0 0.1105818914
H  H54  1  0.85275000  0.10686000  0.13028000  1.0 0.1185656258
H  H55  1  0.59696000  0.21404000  0.42752000  1.0 0.1105818914
H  H56  1  0.47048000  0.28476000  0.45963000  1.0 0.1105818914
H  H57  1  0.46080000  0.39972000  0.43284000  1.0 0.1105818914
H  H58  1  0.57767000  0.44472000  0.37422000  1.0 0.1105818914
H  H59  1  0.69963000  0.37471000  0.34100000  1.0 0.1105818914
H  H60  1  0.81564000  0.15500000  0.43566000  1.0 0.1185656258
H  H61  1  0.97425000  0.12950000  0.47305000  1.0 0.1269156398
H  H62  1  0.10908000  0.18772000  0.44162000  1.0 0.1105818914
H  H63  1  0.07958000  0.27420000  0.37517000  1.0 0.1185656258
H  H64  1  0.91986000  0.29977000  0.33737000  1.0 0.1185656258
H  H65  1  0.96231000  0.59750000  0.33980000  1.0 0.1031600876
H  H66  1  0.09176000  0.54617000  0.39449000  1.0 0.1396760276
H  H67  1  0.27418000  0.67851000  0.32068000  1.0 0.1396760276
H  H68  1  0.14000000  0.72412000  0.26808000  1.0 0.1105818914
H  H69  1  0.49168000  0.63607000  0.40141000  1.0 0.1269156398
H  H70  1  0.65422000  0.66490000  0.39564000  1.0 0.1396760276
H  H71  1  0.26526000  0.36392000  0.46764000  1.0 0.1269156398
H  H72  1  0.16676000  0.28844000  0.45688000  1.0 0.1105818914
H  H73  1  0.05521000  0.23870000  0.51630000  1.0 0.1185656258
H  H74  1  0.04210000  0.26549000  0.58721000  1.0 0.1185656258
H  H75  1  0.13887000  0.34168000  0.59836000  1.0 0.1105818914
H  H76  1  0.25998000  0.45586000  0.62157000  1.0 0.1185656258
H  H77  1  0.14264000  0.54463000  0.63774000  1.0 0.1105818914
H  H78  1  0.01517000  0.60859000  0.58473000  1.0 0.1185656258
H  H79  1  0.00344000  0.58360000  0.51470000  1.0 0.1105818914
H  H80  1  0.12067000  0.49644000  0.49791000  1.0 0.1185656258
H  H81  1  0.53952000  0.87488000  0.15864000  1.0 0.0911146669
H  H82  1  0.41076000  0.93252000  0.10511000  1.0 0.1396760276
H  H83  1  0.21645000  0.80621000  0.17581000  1.0 0.1463170306
H  H84  1  0.35071000  0.75312000  0.22783000  1.0 0.1105818914
H  H85  1  0.00449000  0.86143000  0.09681000  1.0 0.1269156398
H  H86  1  0.84286000  0.83289000  0.10055000  1.0 0.1396760276
H  H87  1  0.22918000  0.13432000  0.03868000  1.0 0.1185656258
H  H88  1  0.32897000  0.20698000  0.05368000  1.0 0.1185656258
H  H89  1  0.44518000  0.25662000  0.99714000  1.0 0.1105818914
H  H90  1  0.45808000  0.23803000  0.92333000  1.0 0.1185656258
H  H91  1  0.35776000  0.16539000  0.90835000  1.0 0.1105818914
H  H92  1  0.27817000  0.06682000  0.87635000  1.0 0.1185656258
H  H93  1  0.40975000  0.98525000  0.85864000  1.0 0.1031600876
H  H94  1  0.50708000  0.90497000  0.91714000  1.0 0.1105818914
H  H95  1  0.47955000  0.90896000  0.99385000  1.0 0.1105818914
H  H96  1  0.35464000  0.99114000  0.01205000  1.0 0.1185656258
H  H97  1  0.54887000  0.11838000  0.70590000  1.0 0.1105818914
H  H98  1  0.56654000  0.00583000  0.71214000  1.0 0.1463170306
H  H99  1  0.29455000  0.00290000  0.78872000  1.0 0.1269156398
H  H100  1  0.28254000  0.11600000  0.77863000  1.0 0.0911146669
H  H101  1  0.37881000  0.32536000  0.82100000  1.0 0.1105818914
H  H102  1  0.39292000  0.42488000  0.83449000  1.0 0.1396760276
H  H103  1  0.51159000  0.48329000  0.70217000  1.0 0.1396760276
H  H104  1  0.49206000  0.38223000  0.69259000  1.0 0.1031600876
H  H105  1  0.55281000  0.63220000  0.69570000  1.0 0.1185656258
H  H106  1  0.64158000  0.69959000  0.64018000  1.0 0.1185656258
H  H107  1  0.33425000  0.81530000  0.84736000  1.0 0.1185656258
H  H108  1  0.28294000  0.74044000  0.91210000  1.0 0.1185656258
H  H109  1  0.49266000  0.53915000  0.89833000  1.0 0.1185656258
H  H110  1  0.63870000  0.48738000  0.94281000  1.0 0.1185656258
H  H111  1  0.68213000  0.52923000  0.99975000  1.0 0.1185656258
H  H112  1  0.57812000  0.62287000  0.01288000  1.0 0.1185656258
H  H113  1  0.43549000  0.67935000  0.96433000  1.0 0.1185656258
H  H114  1  0.25799000  0.55909000  0.87266000  1.0 0.1269156398
H  H115  1  0.12289000  0.50490000  0.90966000  1.0 0.1185656258
H  H116  1  0.04598000  0.51981000  0.97534000  1.0 0.1105818914
H  H117  1  0.10348000  0.59073000  0.01025000  1.0 0.1185656258
H  H118  1  0.23878000  0.65077000  0.97358000  1.0 0.1105818914
H  H119  1  0.47005000  0.90173000  0.63114000  1.0 0.1269156398
H  H120  1  0.42293000  0.96097000  0.55510000  1.0 0.1185656258
H  H121  1  0.51768000  0.93158000  0.49175000  1.0 0.1185656258
H  H122  1  0.65964000  0.84383000  0.50535000  1.0 0.1185656258
H  H123  1  0.70076000  0.78147000  0.58178000  1.0 0.1105818914
H  H124  1  0.69923000  0.89432000  0.65234000  1.0 0.1185656258
H  H125  1  0.85356000  0.90873000  0.68224000  1.0 0.1185656258
H  H126  1  0.96679000  0.81716000  0.72632000  1.0 0.1031600876
H  H127  1  0.91966000  0.71236000  0.74553000  1.0 0.1105818914
H  H128  1  0.76500000  0.69759000  0.71802000  1.0 0.1185656258
H  H129  1  0.21632000  0.41175000  0.71311000  1.0 0.0911146669
H  H130  1  0.23719000  0.51517000  0.71695000  1.0 0.1269156398
H  H131  1  0.02509000  0.49827000  0.82405000  1.0 0.1396760276
H  H132  1  0.00764000  0.39645000  0.81713000  1.0 0.1105818914
H  H133  1  0.03172000  0.13942000  0.81468000  1.0 0.1105818914
H  H134  1  0.04956000  0.03036000  0.81223000  1.0 0.1463170306
H  H135  1  0.14015000  0.09062000  0.67581000  1.0 0.1396760276
H  H136  1  0.11638000  0.19835000  0.68221000  1.0 0.1105818914
H  H137  1  0.27256000  0.89498000  0.67228000  1.0 0.1185656258
H  H138  1  0.32787000  0.84398000  0.61578000  1.0 0.1105818914
H  H139  1  0.06022000  0.66117000  0.84902000  1.0 0.1185656258
H  H140  1  0.98350000  0.71386000  0.90106000  1.0 0.1185656258
H  H141  1  0.85317000  0.79250000  0.82011000  1.0 0.1185656258
H  H142  1  0.68422000  0.85157000  0.80057000  1.0 0.1185656258
H  H143  1  0.61800000  0.94210000  0.82789000  1.0 0.1105818914
H  H144  1  0.72365000  0.97638000  0.87173000  1.0 0.1105818914
H  H145  1  0.89415000  0.92239000  0.88857000  1.0 0.1185656258
H  H146  1  0.97815000  0.76652000  0.95919000  1.0 0.1105818914
H  H147  1  0.05991000  0.78076000  0.02224000  1.0 0.1185656258
H  H148  1  0.18485000  0.85083000  0.00878000  1.0 0.1105818914
H  H149  1  0.22556000  0.90853000  0.93248000  1.0 0.1105818914
H  H150  1  0.14725000  0.89314000  0.86972000  1.0 0.1185656258
H  H151  1  0.40304000  0.78596000  0.57248000  1.0 0.1105818914
H  H152  1  0.52952000  0.71524000  0.54037000  1.0 0.1105818914
H  H153  1  0.53920000  0.60028000  0.56716000  1.0 0.1105818914
H  H154  1  0.42233000  0.55528000  0.62578000  1.0 0.1105818914
H  H155  1  0.30037000  0.62529000  0.65900000  1.0 0.1105818914
H  H156  1  0.18436000  0.84500000  0.56434000  1.0 0.1185656258
H  H157  1  0.02575000  0.87050000  0.52695000  1.0 0.1269156398
H  H158  1  0.89092000  0.81228000  0.55838000  1.0 0.1105818914
H  H159  1  0.92042000  0.72580000  0.62483000  1.0 0.1185656258
H  H160  1  0.08014000  0.70023000  0.66263000  1.0 0.1185656258
H  H161  1  0.03769000  0.40250000  0.66020000  1.0 0.1031600876
H  H162  1  0.90824000  0.45383000  0.60551000  1.0 0.1396760276
H  H163  1  0.72582000  0.32149000  0.67932000  1.0 0.1396760276
H  H164  1  0.86000000  0.27588000  0.73192000  1.0 0.1105818914
H  H165  1  0.50832000  0.36393000  0.59859000  1.0 0.1269156398
H  H166  1  0.34578000  0.33510000  0.60436000  1.0 0.1396760276
H  H167  1  0.73474000  0.63608000  0.53236000  1.0 0.1269156398
H  H168  1  0.83324000  0.71156000  0.54312000  1.0 0.1105818914
H  H169  1  0.94479000  0.76130000  0.48370000  1.0 0.1185656258
H  H170  1  0.95790000  0.73451000  0.41279000  1.0 0.1185656258
H  H171  1  0.86113000  0.65832000  0.40164000  1.0 0.1105818914
H  H172  1  0.74002000  0.54414000  0.37843000  1.0 0.1185656258
H  H173  1  0.85736000  0.45537000  0.36226000  1.0 0.1105818914
H  H174  1  0.98483000  0.39141000  0.41527000  1.0 0.1185656258
H  H175  1  0.99656000  0.41640000  0.48530000  1.0 0.1105818914
H  H176  1  0.87933000  0.50356000  0.50209000  1.0 0.1185656258
H  H177  1  0.46048000  0.12512000  0.84136000  1.0 0.0911146669
H  H178  1  0.58924000  0.06748000  0.89489000  1.0 0.1396760276
H  H179  1  0.78355000  0.19379000  0.82419000  1.0 0.1463170306
H  H180  1  0.64929000  0.24688000  0.77217000  1.0 0.1105818914
H  H181  1  0.99551000  0.13857000  0.90319000  1.0 0.1269156398
H  H182  1  0.15714000  0.16711000  0.89945000  1.0 0.1396760276
H  H183  1  0.77082000  0.86568000  0.96132000  1.0 0.1185656258
H  H184  1  0.67103000  0.79302000  0.94632000  1.0 0.1185656258
H  H185  1  0.55482000  0.74338000  0.00286000  1.0 0.1105818914
H  H186  1  0.54192000  0.76197000  0.07667000  1.0 0.1185656258
H  H187  1  0.64224000  0.83461000  0.09165000  1.0 0.1105818914
H  H188  1  0.72183000  0.93318000  0.12365000  1.0 0.1185656258
H  H189  1  0.59025000  0.01475000  0.14136000  1.0 0.1031600876
H  H190  1  0.49292000  0.09503000  0.08286000  1.0 0.1105818914
H  H191  1  0.52045000  0.09104000  0.00615000  1.0 0.1105818914
H  H192  1  0.64536000  0.00886000  0.98795000  1.0 0.1185656258
C  C1  1  0.50310000  0.90530000  0.27740000  1.0 0.0911146669
C  C2  1  0.49150000  0.97310000  0.27350000  1.0 -0.1922017082
C  C3  1  0.56680000  0.00960000  0.24810000  1.0 0.1701907188
C  C4  1  0.65260000  0.97470000  0.22840000  1.0 -0.2014491194
C  C5  1  0.65910000  0.90670000  0.23450000  1.0 0.0805142448
C  C6  1  0.55980000  0.08050000  0.24070000  1.0 -0.1295039403
C  C7  1  0.55600000  0.13960000  0.23340000  1.0 -0.0600964543
C  C8  1  0.59520000  0.64190000  0.20330000  1.0 0.0805142448
C  C9  1  0.58650000  0.58240000  0.19470000  1.0 -0.2014491194
C  C10  1  0.54650000  0.53350000  0.23040000  1.0 0.1701907188
C  C11  1  0.51640000  0.54800000  0.27320000  1.0 -0.2092386776
C  C12  1  0.52840000  0.60880000  0.27870000  1.0 0.0805142448
C  C13  1  0.53870000  0.46890000  0.22500000  1.0 -0.1091880172
C  C14  1  0.53800000  0.41360000  0.22200000  1.0 -0.0304777663
C  C15  1  0.53810000  0.34560000  0.22340000  1.0 0.0024678008
C  C16  1  0.58530000  0.32000000  0.18670000  1.0 0.1701907188
C  C17  1  0.59180000  0.25270000  0.18880000  1.0 -0.0304777663
C  C18  1  0.54960000  0.20950000  0.22850000  1.0 0.0024678008
C  C19  1  0.50200000  0.23530000  0.26490000  1.0 0.1701907188
C  C20  1  0.49500000  0.30250000  0.26280000  1.0 -0.0223934575
C  C21  1  0.44390000  0.32500000  0.30230000  1.0 -0.0923627556
C  C22  1  0.39280000  0.28440000  0.33540000  1.0 -0.2014491194
C  C23  1  0.38720000  0.21290000  0.33560000  1.0 0.2007751545
C  C24  1  0.64900000  0.23040000  0.15020000  1.0 -0.1002424722
C  C25  1  0.67760000  0.27490000  0.11160000  1.0 -0.2014491194
C  C26  1  0.64750000  0.34980000  0.10510000  1.0 0.2164873635
C  C27  1  0.54610000  0.38170000  0.07710000  1.0 0.0360481912
C  C28  1  0.48790000  0.44120000  0.07990000  1.0 -0.1396958619
C  C29  1  0.40210000  0.47360000  0.05240000  1.0 -0.0923627556
C  C30  1  0.37690000  0.44920000  0.01880000  1.0 -0.1091880172
C  C31  1  0.43730000  0.39320000  0.01160000  1.0 -0.1091880172
C  C32  1  0.52290000  0.35920000  0.04090000  1.0 -0.1503816227
C  C33  1  0.73820000  0.38800000  0.08120000  1.0 0.0360481912
C  C34  1  0.77300000  0.43270000  0.09960000  1.0 -0.1503816227
C  C35  1  0.85390000  0.46540000  0.07700000  1.0 -0.1091880172
C  C36  1  0.89890000  0.45730000  0.03850000  1.0 -0.1002424722
C  C37  1  0.86550000  0.41480000  0.01820000  1.0 -0.1186473383
C  C38  1  0.78370000  0.37890000  0.04010000  1.0 -0.1396958619
C  C39  1  0.41250000  0.16690000  0.38520000  1.0 0.0304627334
C  C40  1  0.49350000  0.11130000  0.39410000  1.0 -0.1396958619
C  C41  1  0.52070000  0.07510000  0.43940000  1.0 -0.1091880172
C  C42  1  0.46360000  0.09260000  0.47750000  1.0 -0.1091880172
C  C43  1  0.38020000  0.14530000  0.46940000  1.0 -0.1002424722
C  C44  1  0.35550000  0.18230000  0.42350000  1.0 -0.1503816227
C  C45  1  0.28400000  0.20570000  0.31870000  1.0 0.0220941869
C  C46  1  0.25680000  0.14270000  0.32890000  1.0 -0.1396958619
C  C47  1  0.16340000  0.13410000  0.31120000  1.0 -0.0923627556
C  C48  1  0.09670000  0.18840000  0.28440000  1.0 -0.1002424722
C  C49  1  0.12440000  0.25080000  0.27340000  1.0 -0.1002424722
C  C50  1  0.21710000  0.25970000  0.29000000  1.0 -0.1396958619
C  C51  1  0.82310000  0.57040000  0.26430000  1.0 0.073942067
C  C52  1  0.81030000  0.50810000  0.26240000  1.0 -0.2014491194
C  C53  1  0.86870000  0.48000000  0.22940000  1.0 0.1781124072
C  C54  1  0.93580000  0.51810000  0.19920000  1.0 -0.1922017082
C  C55  1  0.94520000  0.57950000  0.20330000  1.0 0.0805142448
C  C56  1  0.94550000  0.87070000  0.21340000  1.0 0.073942067
C  C57  1  0.93440000  0.93650000  0.21450000  1.0 -0.2014491194
C  C58  1  0.89880000  0.95310000  0.25620000  1.0 0.1701907188
C  C59  1  0.88110000  0.90100000  0.29540000  1.0 -0.2014491194
C  C60  1  0.89540000  0.83620000  0.29110000  1.0 0.0805142448
C  C61  1  0.87820000  0.02150000  0.25730000  1.0 -0.0923627556
C  C62  1  0.85810000  0.08030000  0.25480000  1.0 -0.0407352479
C  C63  1  0.85980000  0.41320000  0.22860000  1.0 -0.1295039403
C  C64  1  0.85070000  0.35640000  0.23120000  1.0 -0.0600964543
C  C65  1  0.84570000  0.28810000  0.23550000  1.0 0.0024678008
C  C66  1  0.89100000  0.25790000  0.20040000  1.0 -0.0304777663
C  C67  1  0.89000000  0.18960000  0.20760000  1.0 0.1701907188
C  C68  1  0.84670000  0.15110000  0.24860000  1.0 -0.0223934575
C  C69  1  0.79770000  0.18160000  0.28290000  1.0 -0.0304777663
C  C70  1  0.80030000  0.24970000  0.27650000  1.0 0.1781124072
C  C71  1  0.74240000  0.14760000  0.32470000  1.0 -0.0923627556
C  C72  1  0.71300000  0.17680000  0.35880000  1.0 -0.2014491194
C  C73  1  0.74380000  0.24200000  0.35740000  1.0 0.2118401458
C  C74  1  0.94030000  0.29290000  0.15730000  1.0 -0.1002424722
C  C75  1  0.98640000  0.26120000  0.12640000  1.0 -0.2014491194
C  C76  1  0.99250000  0.18680000  0.13350000  1.0 0.2164873635
C  C77  1  0.10790000  0.15030000  0.14270000  1.0 0.0304627334
C  C78  1  0.17210000  0.16980000  0.16930000  1.0 -0.1295039403
C  C79  1  0.27400000  0.13470000  0.18080000  1.0 -0.1002424722
C  C80  1  0.31290000  0.08090000  0.16520000  1.0 -0.1091880172
C  C81  1  0.24970000  0.06080000  0.13920000  1.0 -0.1002424722
C  C82  1  0.14820000  0.09360000  0.12850000  1.0 -0.1396958619
C  C83  1  0.94290000  0.17350000  0.09260000  1.0 0.0304627334
C  C84  1  0.97070000  0.20580000  0.04640000  1.0 -0.1503816227
C  C85  1  0.92230000  0.19670000  0.00860000  1.0 -0.0923627556
C  C86  1  0.84810000  0.15460000  0.01650000  1.0 -0.1002424722
C  C87  1  0.82320000  0.12080000  0.06200000  1.0 -0.1002424722
C  C88  1  0.87020000  0.13010000  0.09960000  1.0 -0.1553121725
C  C89  1  0.66010000  0.28710000  0.37970000  1.0 0.0360481912
C  C90  1  0.59240000  0.26050000  0.41600000  1.0 -0.1396958619
C  C91  1  0.51690000  0.30310000  0.43570000  1.0 -0.1002424722
C  C92  1  0.51120000  0.37160000  0.41980000  1.0 -0.1002424722
C  C93  1  0.58010000  0.39840000  0.38470000  1.0 -0.1091880172
C  C94  1  0.65350000  0.35600000  0.36490000  1.0 -0.1396958619
C  C95  1  0.85050000  0.22890000  0.38170000  1.0 0.0360481912
C  C96  1  0.86930000  0.17950000  0.42240000  1.0 -0.1396958619
C  C97  1  0.96440000  0.16410000  0.44500000  1.0 -0.1091880172
C  C98  1  0.04360000  0.19880000  0.42690000  1.0 -0.1186473383
C  C99  1  0.02630000  0.24900000  0.38760000  1.0 -0.1002424722
C  C100  1  0.93000000  0.26430000  0.36490000  1.0 -0.1396958619
C  C101  1  0.02640000  0.61360000  0.33590000  1.0 0.0805142448
C  C102  1  0.10360000  0.58250000  0.36910000  1.0 -0.2014491194
C  C103  1  0.19980000  0.60640000  0.36400000  1.0 0.1781124072
C  C104  1  0.21150000  0.66070000  0.32530000  1.0 -0.1922017082
C  C105  1  0.13030000  0.68800000  0.29400000  1.0 0.073942067
C  C106  1  0.28250000  0.57590000  0.39740000  1.0 -0.0923627556
C  C107  1  0.35020000  0.55160000  0.42630000  1.0 -0.0407352479
C  C108  1  0.42770000  0.52490000  0.46280000  1.0 -0.0084615385
C  C109  1  0.51880000  0.55450000  0.46160000  1.0 -0.0223934575
C  C110  1  0.54310000  0.61160000  0.42350000  1.0 -0.0923627556
C  C111  1  0.63890000  0.62870000  0.42030000  1.0 -0.1825830311
C  C112  1  0.41140000  0.47070000  0.50080000  1.0 0.1701907188
C  C113  1  0.27690000  0.40950000  0.54420000  1.0 0.2164873635
C  C114  1  0.21310000  0.36040000  0.53430000  1.0 0.0360481912
C  C115  1  0.22050000  0.34430000  0.49180000  1.0 -0.1295039403
C  C116  1  0.16140000  0.29900000  0.48550000  1.0 -0.1186473383
C  C117  1  0.09450000  0.26920000  0.52090000  1.0 -0.1091880172
C  C118  1  0.08680000  0.28530000  0.56310000  1.0 -0.1002424722
C  C119  1  0.14510000  0.33080000  0.56980000  1.0 -0.1396958619
C  C120  1  0.20270000  0.46710000  0.55780000  1.0 0.0304627334
C  C121  1  0.20880000  0.48150000  0.59970000  1.0 -0.1396958619
C  C122  1  0.13820000  0.53470000  0.60930000  1.0 -0.1002424722
C  C123  1  0.06200000  0.57290000  0.57790000  1.0 -0.1002424722
C  C124  1  0.05530000  0.55820000  0.53630000  1.0 -0.0923627556
C  C125  1  0.12540000  0.50590000  0.52640000  1.0 -0.1396958619
C  C126  1  0.47340000  0.86120000  0.16220000  1.0 0.0805142448
C  C127  1  0.39660000  0.89610000  0.12990000  1.0 -0.2014491194
C  C128  1  0.29760000  0.87650000  0.13440000  1.0 0.1781124072
C  C129  1  0.28130000  0.82140000  0.17180000  1.0 -0.1825830311
C  C130  1  0.36260000  0.78970000  0.20270000  1.0 0.0805142448
C  C131  1  0.21440000  0.91290000  0.10160000  1.0 -0.1091880172
C  C132  1  0.14730000  0.94340000  0.07350000  1.0 -0.0407352479
C  C133  1  0.07070000  0.97390000  0.03780000  1.0 -0.0084615385
C  C134  1  0.98020000  0.94430000  0.03770000  1.0 -0.0223934575
C  C135  1  0.95410000  0.88650000  0.07440000  1.0 -0.1091880172
C  C136  1  0.85920000  0.86920000  0.07620000  1.0 -0.1825830311
C  C137  1  0.08810000  0.02960000  0.00070000  1.0 0.1781124072
C  C138  1  0.22310000  0.09260000  0.96040000  1.0 0.2164873635
C  C139  1  0.28450000  0.14150000  0.97220000  1.0 0.0304627334
C  C140  1  0.27540000  0.15460000  0.01550000  1.0 -0.1295039403
C  C141  1  0.33540000  0.19820000  0.02440000  1.0 -0.1091880172
C  C142  1  0.40420000  0.22840000  0.99050000  1.0 -0.1091880172
C  C143  1  0.41280000  0.21700000  0.94660000  1.0 -0.1002424722
C  C144  1  0.35240000  0.17330000  0.93790000  1.0 -0.1396958619
C  C145  1  0.30290000  0.03680000  0.94620000  1.0 0.0304627334
C  C146  1  0.31900000  0.03530000  0.90020000  1.0 -0.1503816227
C  C147  1  0.39730000  0.98600000  0.88990000  1.0 -0.1186473383
C  C148  1  0.45620000  0.93850000  0.92450000  1.0 -0.1002424722
C  C149  1  0.43940000  0.94090000  0.97000000  1.0 -0.0923627556
C  C150  1  0.36440000  0.98970000  0.98090000  1.0 -0.1396958619
C  C151  1  0.49690000  0.09470000  0.72260000  1.0 0.0911146669
C  C152  1  0.50850000  0.02690000  0.72650000  1.0 -0.1922017082
C  C153  1  0.43320000  0.99040000  0.75190000  1.0 0.1701907188
C  C154  1  0.34740000  0.02530000  0.77160000  1.0 -0.2014491194
C  C155  1  0.34090000  0.09330000  0.76550000  1.0 0.0805142448
C  C156  1  0.44020000  0.91950000  0.75930000  1.0 -0.1295039403
C  C157  1  0.44400000  0.86040000  0.76660000  1.0 -0.0600964543
C  C158  1  0.40480000  0.35810000  0.79670000  1.0 0.0805142448
C  C159  1  0.41350000  0.41760000  0.80530000  1.0 -0.2014491194
C  C160  1  0.45350000  0.46650000  0.76960000  1.0 0.1701907188
C  C161  1  0.48360000  0.45200000  0.72680000  1.0 -0.2092386776
C  C162  1  0.47160000  0.39120000  0.72130000  1.0 0.0805142448
C  C163  1  0.46130000  0.53110000  0.77500000  1.0 -0.1091880172
C  C164  1  0.46200000  0.58640000  0.77800000  1.0 -0.0304777663
C  C165  1  0.46190000  0.65440000  0.77660000  1.0 0.0024678008
C  C166  1  0.41470000  0.68000000  0.81330000  1.0 0.1701907188
C  C167  1  0.40820000  0.74730000  0.81120000  1.0 -0.0304777663
C  C168  1  0.45040000  0.79050000  0.77150000  1.0 0.0024678008
C  C169  1  0.49800000  0.76470000  0.73510000  1.0 0.1701907188
C  C170  1  0.50500000  0.69750000  0.73720000  1.0 -0.0223934575
C  C171  1  0.55610000  0.67500000  0.69770000  1.0 -0.0923627556
C  C172  1  0.60720000  0.71560000  0.66460000  1.0 -0.2014491194
C  C173  1  0.61280000  0.78710000  0.66440000  1.0 0.2007751545
C  C174  1  0.35100000  0.76960000  0.84980000  1.0 -0.0923627556
C  C175  1  0.32240000  0.72510000  0.88840000  1.0 -0.2014491194
C  C176  1  0.35250000  0.65020000  0.89490000  1.0 0.2164873635
C  C177  1  0.45390000  0.61830000  0.92290000  1.0 0.0360481912
C  C178  1  0.51210000  0.55880000  0.92010000  1.0 -0.1396958619
C  C179  1  0.59790000  0.52640000  0.94760000  1.0 -0.0923627556
C  C180  1  0.62310000  0.55080000  0.98120000  1.0 -0.1091880172
C  C181  1  0.56270000  0.60680000  0.98840000  1.0 -0.1091880172
C  C182  1  0.47710000  0.64080000  0.95910000  1.0 -0.1503816227
C  C183  1  0.26180000  0.61200000  0.91880000  1.0 0.0360481912
C  C184  1  0.22700000  0.56730000  0.90040000  1.0 -0.1503816227
C  C185  1  0.14610000  0.53460000  0.92300000  1.0 -0.1091880172
C  C186  1  0.10110000  0.54270000  0.96150000  1.0 -0.1002424722
C  C187  1  0.13450000  0.58520000  0.98180000  1.0 -0.1186473383
C  C188  1  0.21630000  0.62110000  0.95990000  1.0 -0.1396958619
C  C189  1  0.58750000  0.83310000  0.61480000  1.0 0.0304627334
C  C190  1  0.50650000  0.88870000  0.60590000  1.0 -0.1396958619
C  C191  1  0.47930000  0.92490000  0.56060000  1.0 -0.1091880172
C  C192  1  0.53640000  0.90740000  0.52250000  1.0 -0.1091880172
C  C193  1  0.61980000  0.85470000  0.53060000  1.0 -0.1002424722
C  C194  1  0.64450000  0.81770000  0.57650000  1.0 -0.1503816227
C  C195  1  0.71600000  0.79430000  0.68130000  1.0 0.0220941869
C  C196  1  0.74320000  0.85730000  0.67110000  1.0 -0.1396958619
C  C197  1  0.83660000  0.86590000  0.68880000  1.0 -0.0923627556
C  C198  1  0.90330000  0.81160000  0.71560000  1.0 -0.1002424722
C  C199  1  0.87560000  0.74920000  0.72660000  1.0 -0.1002424722
C  C200  1  0.78290000  0.74030000  0.71000000  1.0 -0.1396958619
C  C201  1  0.17690000  0.42960000  0.73570000  1.0 0.073942067
C  C202  1  0.18970000  0.49190000  0.73760000  1.0 -0.2014491194
C  C203  1  0.13130000  0.52000000  0.77060000  1.0 0.1781124072
C  C204  1  0.06420000  0.48190000  0.80080000  1.0 -0.1922017082
C  C205  1  0.05480000  0.42050000  0.79670000  1.0 0.0805142448
C  C206  1  0.05450000  0.12930000  0.78660000  1.0 0.073942067
C  C207  1  0.06560000  0.06350000  0.78550000  1.0 -0.2014491194
C  C208  1  0.10120000  0.04690000  0.74380000  1.0 0.1701907188
C  C209  1  0.11890000  0.09900000  0.70460000  1.0 -0.2014491194
C  C210  1  0.10460000  0.16380000  0.70890000  1.0 0.0805142448
C  C211  1  0.12180000  0.97850000  0.74270000  1.0 -0.0923627556
C  C212  1  0.14190000  0.91970000  0.74520000  1.0 -0.0407352479
C  C213  1  0.14020000  0.58680000  0.77140000  1.0 -0.1295039403
C  C214  1  0.14930000  0.64360000  0.76880000  1.0 -0.0600964543
C  C215  1  0.15430000  0.71190000  0.76450000  1.0 0.0024678008
C  C216  1  0.10900000  0.74210000  0.79960000  1.0 -0.0304777663
C  C217  1  0.11000000  0.81040000  0.79240000  1.0 0.1701907188
C  C218  1  0.15330000  0.84890000  0.75140000  1.0 -0.0223934575
C  C219  1  0.20230000  0.81840000  0.71710000  1.0 -0.0304777663
C  C220  1  0.19970000  0.75030000  0.72350000  1.0 0.1701907188
C  C221  1  0.25760000  0.85240000  0.67530000  1.0 -0.0923627556
C  C222  1  0.28700000  0.82320000  0.64120000  1.0 -0.2014491194
C  C223  1  0.25620000  0.75800000  0.64260000  1.0 0.2118401458
C  C224  1  0.05970000  0.70710000  0.84270000  1.0 -0.1002424722
C  C225  1  0.01360000  0.73880000  0.87360000  1.0 -0.2014491194
C  C226  1  0.00750000  0.81320000  0.86650000  1.0 0.2164873635
C  C227  1  0.89210000  0.84970000  0.85730000  1.0 0.0304627334
C  C228  1  0.82790000  0.83020000  0.83070000  1.0 -0.1295039403
C  C229  1  0.72600000  0.86530000  0.81920000  1.0 -0.1002424722
C  C230  1  0.68710000  0.91910000  0.83480000  1.0 -0.1091880172
C  C231  1  0.75030000  0.93920000  0.86080000  1.0 -0.1002424722
C  C232  1  0.85180000  0.90640000  0.87150000  1.0 -0.1396958619
C  C233  1  0.05710000  0.82650000  0.90740000  1.0 0.0304627334
C  C234  1  0.02930000  0.79420000  0.95360000  1.0 -0.1503816227
C  C235  1  0.07770000  0.80330000  0.99140000  1.0 -0.0923627556
C  C236  1  0.15190000  0.84540000  0.98350000  1.0 -0.1002424722
C  C237  1  0.17680000  0.87920000  0.93800000  1.0 -0.1002424722
C  C238  1  0.12980000  0.86990000  0.90040000  1.0 -0.1553121725
C  C239  1  0.33990000  0.71290000  0.62030000  1.0 0.0360481912
C  C240  1  0.40760000  0.73950000  0.58400000  1.0 -0.1396958619
C  C241  1  0.48310000  0.69690000  0.56430000  1.0 -0.1002424722
C  C242  1  0.48880000  0.62840000  0.58020000  1.0 -0.1002424722
C  C243  1  0.41990000  0.60160000  0.61530000  1.0 -0.1091880172
C  C244  1  0.34650000  0.64400000  0.63510000  1.0 -0.1396958619
C  C245  1  0.14950000  0.77110000  0.61830000  1.0 0.0360481912
C  C246  1  0.13070000  0.82050000  0.57760000  1.0 -0.1396958619
C  C247  1  0.03560000  0.83590000  0.55500000  1.0 -0.1091880172
C  C248  1  0.95640000  0.80120000  0.57310000  1.0 -0.1186473383
C  C249  1  0.97370000  0.75100000  0.61240000  1.0 -0.1002424722
C  C250  1  0.07000000  0.73570000  0.63510000  1.0 -0.1396958619
C  C251  1  0.97360000  0.38640000  0.66410000  1.0 0.0805142448
C  C252  1  0.89640000  0.41750000  0.63090000  1.0 -0.2014491194
C  C253  1  0.80020000  0.39360000  0.63600000  1.0 0.1781124072
C  C254  1  0.78850000  0.33930000  0.67470000  1.0 -0.1922017082
C  C255  1  0.86970000  0.31200000  0.70600000  1.0 0.073942067
C  C256  1  0.71750000  0.42410000  0.60260000  1.0 -0.0923627556
C  C257  1  0.64980000  0.44840000  0.57370000  1.0 -0.0407352479
C  C258  1  0.57230000  0.47510000  0.53720000  1.0 -0.0084615385
C  C259  1  0.48120000  0.44550000  0.53840000  1.0 -0.0223934575
C  C260  1  0.45690000  0.38840000  0.57650000  1.0 -0.0923627556
C  C261  1  0.36110000  0.37130000  0.57970000  1.0 -0.1825830311
C  C262  1  0.58860000  0.52930000  0.49920000  1.0 0.1701907188
C  C263  1  0.72310000  0.59050000  0.45580000  1.0 0.2164873635
C  C264  1  0.78690000  0.63960000  0.46570000  1.0 0.0360481912
C  C265  1  0.77950000  0.65570000  0.50820000  1.0 -0.1295039403
C  C266  1  0.83860000  0.70100000  0.51450000  1.0 -0.1186473383
C  C267  1  0.90550000  0.73080000  0.47910000  1.0 -0.1091880172
C  C268  1  0.91320000  0.71470000  0.43690000  1.0 -0.1002424722
C  C269  1  0.85490000  0.66920000  0.43020000  1.0 -0.1396958619
C  C270  1  0.79730000  0.53290000  0.44220000  1.0 0.0304627334
C  C271  1  0.79120000  0.51850000  0.40030000  1.0 -0.1396958619
C  C272  1  0.86180000  0.46530000  0.39070000  1.0 -0.1002424722
C  C273  1  0.93800000  0.42710000  0.42210000  1.0 -0.1002424722
C  C274  1  0.94470000  0.44180000  0.46370000  1.0 -0.0923627556
C  C275  1  0.87460000  0.49410000  0.47360000  1.0 -0.1396958619
C  C276  1  0.52660000  0.13880000  0.83780000  1.0 0.0805142448
C  C277  1  0.60340000  0.10390000  0.87010000  1.0 -0.2014491194
C  C278  1  0.70240000  0.12350000  0.86560000  1.0 0.1781124072
C  C279  1  0.71870000  0.17860000  0.82820000  1.0 -0.1825830311
C  C280  1  0.63740000  0.21030000  0.79730000  1.0 0.0805142448
C  C281  1  0.78560000  0.08710000  0.89840000  1.0 -0.1091880172
C  C282  1  0.85270000  0.05660000  0.92650000  1.0 -0.0407352479
C  C283  1  0.92930000  0.02610000  0.96220000  1.0 -0.0084615385
C  C284  1  0.01980000  0.05570000  0.96230000  1.0 -0.0223934575
C  C285  1  0.04590000  0.11350000  0.92560000  1.0 -0.1002424722
C  C286  1  0.14080000  0.13080000  0.92380000  1.0 -0.1825830311
C  C287  1  0.91190000  0.97040000  0.99930000  1.0 0.1781124072
C  C288  1  0.77690000  0.90740000  0.03960000  1.0 0.2164873635
C  C289  1  0.71550000  0.85850000  0.02780000  1.0 0.0304627334
C  C290  1  0.72460000  0.84540000  0.98450000  1.0 -0.1295039403
C  C291  1  0.66460000  0.80180000  0.97560000  1.0 -0.1091880172
C  C292  1  0.59580000  0.77160000  0.00950000  1.0 -0.1091880172
C  C293  1  0.58720000  0.78300000  0.05340000  1.0 -0.1002424722
C  C294  1  0.64760000  0.82670000  0.06210000  1.0 -0.1396958619
C  C295  1  0.69710000  0.96320000  0.05380000  1.0 0.0304627334
C  C296  1  0.68100000  0.96470000  0.09980000  1.0 -0.1503816227
C  C297  1  0.60270000  0.01400000  0.11010000  1.0 -0.1186473383
C  C298  1  0.54380000  0.06150000  0.07550000  1.0 -0.1002424722
C  C299  1  0.56060000  0.05910000  0.03000000  1.0 -0.0923627556
C  C300  1  0.63560000  0.01030000  0.01910000  1.0 -0.1396958619
N  N1  1  0.58570000  0.87220000  0.25831000  1.0 -0.2183670577
N  N2  1  0.56860000  0.65570000  0.24439000  1.0 -0.2183670577
N  N3  1  0.45800000  0.80880000  0.19847000  1.0 -0.2183670577
N  N4  1  0.03780000  0.66520000  0.29864000  1.0 -0.2183670577
N  N5  1  0.88970000  0.60690000  0.23527000  1.0 -0.2183670577
N  N6  1  0.92500000  0.82060000  0.25096000  1.0 -0.2183670577
N  N7  1  0.41430000  0.12780000  0.74169000  1.0 -0.2183670577
N  N8  1  0.43140000  0.34430000  0.75561000  1.0 -0.2183670577
N  N9  1  0.54200000  0.19120000  0.80153000  1.0 -0.2183670577
N  N10  1  0.96220000  0.33480000  0.70136000  1.0 -0.2183670577
N  N11  1  0.11030000  0.39310000  0.76473000  1.0 -0.2183670577
N  N12  1  0.07500000  0.17940000  0.74904000  1.0 -0.2183670577
Cl  Cl1  1  0.75923000  0.70536000  0.30927000  1.0 -0.541008375
Cl  Cl2  1  0.73607000  0.77346000  0.18736000  1.0 -0.541008375
Cl  Cl3  1  0.44761000  0.74423000  0.32296000  1.0 -0.5878161112
Cl  Cl4  1  0.04360000  0.73282000  0.17272000  1.0 -0.6036181072
Cl  Cl5  1  0.24077000  0.29464000  0.69073000  1.0 -0.541008375
Cl  Cl6  1  0.26393000  0.22654000  0.81264000  1.0 -0.541008375
Cl  Cl7  1  0.55239000  0.25577000  0.67704000  1.0 -0.5878161112
Cl  Cl8  1  0.95640000  0.26718000  0.82728000  1.0 -0.6036181072
O  O1  1  0.63210000  0.36300000  0.15070000  1.0 -0.2623016456
O  O2  1  0.47150000  0.19010000  0.30475000  1.0 -0.2623016456
O  O3  1  0.17060000  0.06070000  0.00439000  1.0 -0.2387798349
O  O4  1  0.32850000  0.43920000  0.49895000  1.0 -0.2288308064
O  O5  1  0.75330000  0.28240000  0.30846000  1.0 -0.2523971791
O  O6  1  0.93240000  0.15640000  0.17552000  1.0 -0.2183670577
O  O7  1  0.36790000  0.63700000  0.84930000  1.0 -0.2623016456
O  O8  1  0.52850000  0.80990000  0.69525000  1.0 -0.2623016456
O  O9  1  0.82940000  0.93930000  0.99561000  1.0 -0.2387798349
O  O10  1  0.67150000  0.56080000  0.50105000  1.0 -0.2288308064
O  O11  1  0.24670000  0.71760000  0.69154000  1.0 -0.2523971791
O  O12  1  0.06760000  0.84360000  0.82448000  1.0 -0.2183670577
