# DDEC6 charges by PACMAN v1.1 (https://github.com/mtap-research/PACMAN-charge/)
data_TIFVEN_ASR_pacman
_symmetry_space_group_name_H-M   'P 1'
_cell_length_a   18.38710000
_cell_length_b   18.38710000
_cell_length_c   18.38710000
_cell_angle_alpha   107.10900000
_cell_angle_beta   107.10900000
_cell_angle_gamma   114.30700000
_symmetry_Int_Tables_number   1
_chemical_formula_structural   Eu18H104C116N16O89
_chemical_formula_sum   'Eu18 H104 C116 N16 O89'
_cell_volume   4759.58495931
_cell_formula_units_Z   1
loop_
 _symmetry_equiv_pos_site_id
 _symmetry_equiv_pos_as_xyz
  1  'x, y, z'
loop_
 _atom_site_type_symbol
 _atom_site_label
 _atom_site_symmetry_multiplicity
 _atom_site_fract_x
 _atom_site_fract_y
 _atom_site_fract_z
 _atom_site_occupancy
 _atom_site_charge
Eu  Eu1  1  0.64859000  0.90405000  0.74820000  1.0 2.0259126127
Eu  Eu2  1  0.15585000  0.90039000  0.25180000  1.0 2.0259126127
Eu  Eu3  1  0.90039000  0.64859000  0.74454000  1.0 2.0259126127
Eu  Eu4  1  0.90405000  0.15585000  0.25546000  1.0 2.0259126127
Eu  Eu5  1  0.35141000  0.09595000  0.25180000  1.0 2.0259126127
Eu  Eu6  1  0.84415000  0.09961000  0.74820000  1.0 2.0259126127
Eu  Eu7  1  0.09961000  0.35141000  0.25546000  1.0 2.0259126127
Eu  Eu8  1  0.09595000  0.84415000  0.74454000  1.0 2.0259126127
Eu  Eu9  1  0.75205000  0.84751000  0.59956000  1.0 1.9377162754
Eu  Eu10  1  0.24795000  0.15249000  0.40044000  1.0 1.9377162754
Eu  Eu11  1  0.15249000  0.75205000  0.90454000  1.0 1.9377162754
Eu  Eu12  1  0.84751000  0.24795000  0.09546000  1.0 1.9377162754
Eu  Eu13  1  0.89171000  0.96697000  0.85868000  1.0 2.111363858
Eu  Eu14  1  0.10829000  0.03303000  0.14132000  1.0 2.111363858
Eu  Eu15  1  0.03303000  0.89171000  0.92474000  1.0 2.111363858
Eu  Eu16  1  0.96697000  0.10829000  0.07526000  1.0 2.111363858
Eu  Eu17  1  0.13775000  0.13775000  0.00000000  1.0 2.2377801836
Eu  Eu18  1  0.86225000  0.86225000  0.00000000  1.0 2.2377801836
H  H1  1  0.36408000  0.68786000  0.53676000  1.0 0.1474111229
H  H2  1  0.15110000  0.82732000  0.46324000  1.0 0.1474111229
H  H3  1  0.82732000  0.36408000  0.67622000  1.0 0.1474111229
H  H4  1  0.68786000  0.15110000  0.32378000  1.0 0.1474111229
H  H5  1  0.63592000  0.31214000  0.46324000  1.0 0.1474111229
H  H6  1  0.84890000  0.17268000  0.53676000  1.0 0.1474111229
H  H7  1  0.17268000  0.63592000  0.32378000  1.0 0.1474111229
H  H8  1  0.31214000  0.84890000  0.67622000  1.0 0.1474111229
H  H9  1  0.22566000  0.56597000  0.43299000  1.0 0.1079409945
H  H10  1  0.13298000  0.79267000  0.56701000  1.0 0.1079409945
H  H11  1  0.79267000  0.22566000  0.65969000  1.0 0.1079409945
H  H12  1  0.56597000  0.13298000  0.34031000  1.0 0.1079409945
H  H13  1  0.77434000  0.43403000  0.56701000  1.0 0.1079409945
H  H14  1  0.86702000  0.20733000  0.43299000  1.0 0.1079409945
H  H15  1  0.20733000  0.77434000  0.34031000  1.0 0.1079409945
H  H16  1  0.43403000  0.86702000  0.65969000  1.0 0.1079409945
H  H17  1  0.31757000  0.47895000  0.29163000  1.0 0.1019565149
H  H18  1  0.18732000  0.02594000  0.70837000  1.0 0.1019565149
H  H19  1  0.02594000  0.31757000  0.83863000  1.0 0.1019565149
H  H20  1  0.47895000  0.18732000  0.16137000  1.0 0.1019565149
H  H21  1  0.68242000  0.52105000  0.70837000  1.0 0.1019565149
H  H22  1  0.81268000  0.97405000  0.29163000  1.0 0.1019565149
H  H23  1  0.97406000  0.68242000  0.16137000  1.0 0.1019565149
H  H24  1  0.52106000  0.81268000  0.83863000  1.0 0.1019565149
H  H25  1  0.46575000  0.60179000  0.38798000  1.0 0.139485836
H  H26  1  0.21381000  0.07777000  0.61202000  1.0 0.139485836
H  H27  1  0.07777000  0.46575000  0.86396000  1.0 0.139485836
H  H28  1  0.60179000  0.21381000  0.13604000  1.0 0.139485836
H  H29  1  0.53425000  0.39821000  0.61202000  1.0 0.139485836
H  H30  1  0.78619000  0.92223000  0.38798000  1.0 0.139485836
H  H31  1  0.92223000  0.53425000  0.13604000  1.0 0.139485836
H  H32  1  0.39821000  0.78619000  0.86396000  1.0 0.139485836
H  H33  1  0.60831000  0.59493000  0.84556000  1.0 0.139485836
H  H34  1  0.74937000  0.76275000  0.15444000  1.0 0.139485836
H  H35  1  0.76275000  0.60831000  0.01338000  1.0 0.139485836
H  H36  1  0.59493000  0.74937000  0.98662000  1.0 0.139485836
H  H37  1  0.39169000  0.40507000  0.15444000  1.0 0.139485836
H  H38  1  0.25063000  0.23725000  0.84556000  1.0 0.139485836
H  H39  1  0.23725000  0.39169000  0.98662000  1.0 0.139485836
H  H40  1  0.40507000  0.25063000  0.01338000  1.0 0.139485836
H  H41  1  0.48969000  0.44670000  0.76015000  1.0 0.1079409945
H  H42  1  0.68655000  0.72954000  0.23985000  1.0 0.1079409945
H  H43  1  0.72954000  0.48969000  0.04299000  1.0 0.1079409945
H  H44  1  0.44670000  0.68655000  0.95701000  1.0 0.1079409945
H  H45  1  0.51031000  0.55330000  0.23985000  1.0 0.1079409945
H  H46  1  0.31345000  0.27046000  0.76015000  1.0 0.1079409945
H  H47  1  0.27046000  0.51031000  0.95701000  1.0 0.1079409945
H  H48  1  0.55330000  0.31345000  0.04299000  1.0 0.1079409945
H  H49  1  0.38046000  0.49732000  0.58442000  1.0 0.1019565149
H  H50  1  0.91290000  0.79604000  0.41558000  1.0 0.1019565149
H  H51  1  0.79604000  0.38046000  0.88314000  1.0 0.1019565149
H  H52  1  0.49732000  0.91290000  0.11686000  1.0 0.1019565149
H  H53  1  0.61954000  0.50268000  0.41558000  1.0 0.1019565149
H  H54  1  0.08710000  0.20396000  0.58442000  1.0 0.1019565149
H  H55  1  0.20396000  0.61954000  0.11686000  1.0 0.1019565149
H  H56  1  0.50268000  0.08710000  0.88314000  1.0 0.1019565149
H  H57  1  0.49056000  0.64716000  0.66380000  1.0 0.1322241935
H  H58  1  0.98336000  0.82676000  0.33620000  1.0 0.1322241935
H  H59  1  0.82676000  0.49056000  0.84340000  1.0 0.1322241935
H  H60  1  0.64716000  0.98336000  0.15660000  1.0 0.1322241935
H  H61  1  0.50944000  0.35284000  0.33620000  1.0 0.1322241935
H  H62  1  0.01664000  0.17324000  0.66380000  1.0 0.1322241935
H  H63  1  0.17324000  0.50944000  0.15660000  1.0 0.1322241935
H  H64  1  0.35284000  0.01664000  0.84340000  1.0 0.1322241935
H  H65  1  0.96337000  0.84914000  0.57627000  1.0 0.087518144
H  H66  1  0.27287000  0.38710000  0.42373000  1.0 0.087518144
H  H67  1  0.38710000  0.96337000  0.11423000  1.0 0.087518144
H  H68  1  0.84914000  0.27287000  0.88577000  1.0 0.087518144
H  H69  1  0.03663000  0.15086000  0.42373000  1.0 0.087518144
H  H70  1  0.72713000  0.61290000  0.57627000  1.0 0.087518144
H  H71  1  0.61290000  0.03663000  0.88577000  1.0 0.087518144
H  H72  1  0.15086000  0.72713000  0.11423000  1.0 0.087518144
H  H73  1  0.96144000  0.89114000  0.57372000  1.0 0.1079409945
H  H74  1  0.31742000  0.38772000  0.42628000  1.0 0.1079409945
H  H75  1  0.38772000  0.96144000  0.07030000  1.0 0.1079409945
H  H76  1  0.89114000  0.31742000  0.92970000  1.0 0.1079409945
H  H77  1  0.03856000  0.10886000  0.42628000  1.0 0.1079409945
H  H78  1  0.68258000  0.61228000  0.57372000  1.0 0.1079409945
H  H79  1  0.61228000  0.03856000  0.92970000  1.0 0.1079409945
H  H80  1  0.10886000  0.68258000  0.07030000  1.0 0.1079409945
H  H81  1  0.62760000  0.16522000  0.79282000  1.0 0.087518144
H  H82  1  0.37240000  0.83478000  0.20718000  1.0 0.087518144
H  H83  1  0.83478000  0.62760000  0.46238000  1.0 0.087518144
H  H84  1  0.16522000  0.37240000  0.53762000  1.0 0.087518144
H  H85  1  0.53526000  0.09353000  0.70739000  1.0 0.0758484938
H  H86  1  0.38614000  0.82787000  0.29261000  1.0 0.0758484938
H  H87  1  0.82787000  0.53526000  0.44173000  1.0 0.0758484938
H  H88  1  0.09353000  0.38614000  0.55827000  1.0 0.0758484938
H  H89  1  0.46474000  0.90647000  0.29261000  1.0 0.0758484938
H  H90  1  0.61386000  0.17213000  0.70739000  1.0 0.0758484938
H  H91  1  0.17213000  0.46474000  0.55827000  1.0 0.0758484938
H  H92  1  0.90647000  0.61386000  0.44173000  1.0 0.0758484938
H  H93  1  0.59133000  0.13348000  0.64621000  1.0 0.087518144
H  H94  1  0.48727000  0.94512000  0.35379000  1.0 0.087518144
H  H95  1  0.94512000  0.59133000  0.45785000  1.0 0.087518144
H  H96  1  0.13348000  0.48727000  0.54215000  1.0 0.087518144
H  H97  1  0.40867000  0.86652000  0.35379000  1.0 0.087518144
H  H98  1  0.51273000  0.05488000  0.64621000  1.0 0.087518144
H  H99  1  0.05488000  0.40867000  0.54215000  1.0 0.087518144
H  H100  1  0.86652000  0.51273000  0.45785000  1.0 0.087518144
H  H101  1  0.55066000  0.03205000  0.58271000  1.0 0.1322241935
H  H102  1  0.44934000  0.96795000  0.41729000  1.0 0.1322241935
H  H103  1  0.96795000  0.55066000  0.51861000  1.0 0.1322241935
H  H104  1  0.03205000  0.44934000  0.48139000  1.0 0.1322241935
C  C1  1  0.52630000  0.73850000  0.54200000  1.0 0.6227496316
C  C2  1  0.19650000  0.98430000  0.45800000  1.0 0.6227496316
C  C3  1  0.98430000  0.52630000  0.78780000  1.0 0.6227496316
C  C4  1  0.73850000  0.19650000  0.21220000  1.0 0.6227496316
C  C5  1  0.47370000  0.26150000  0.45800000  1.0 0.6227496316
C  C6  1  0.80350000  0.01570000  0.54200000  1.0 0.6227496316
C  C7  1  0.01570000  0.47370000  0.21220000  1.0 0.6227496316
C  C8  1  0.26150000  0.80350000  0.78780000  1.0 0.6227496316
C  C9  1  0.43150000  0.65910000  0.47460000  1.0 0.0166370403
C  C10  1  0.18450000  0.95690000  0.52540000  1.0 0.0166370403
C  C11  1  0.95690000  0.43150000  0.77240000  1.0 0.0166370403
C  C12  1  0.65910000  0.18450000  0.22760000  1.0 0.0166370403
C  C13  1  0.56850000  0.34090000  0.52540000  1.0 0.0166370403
C  C14  1  0.81550000  0.04310000  0.47460000  1.0 0.0166370403
C  C15  1  0.04310000  0.56850000  0.22760000  1.0 0.0166370403
C  C16  1  0.34090000  0.81550000  0.77240000  1.0 0.0166370403
C  C17  1  0.35730000  0.64670000  0.48740000  1.0 -0.1586229671
C  C18  1  0.15930000  0.86990000  0.51260000  1.0 -0.1586229671
C  C19  1  0.86990000  0.35730000  0.71060000  1.0 -0.1586229671
C  C20  1  0.64670000  0.15930000  0.28940000  1.0 -0.1586229671
C  C21  1  0.64270000  0.35330000  0.51260000  1.0 -0.1586229671
C  C22  1  0.84070000  0.13010000  0.48740000  1.0 -0.1586229671
C  C23  1  0.13010000  0.64270000  0.28940000  1.0 -0.1586229671
C  C24  1  0.35330000  0.84070000  0.71060000  1.0 -0.1586229671
C  C25  1  0.27550000  0.57290000  0.42540000  1.0 0.0380752578
C  C26  1  0.14750000  0.85010000  0.57460000  1.0 0.0380752578
C  C27  1  0.85010000  0.27550000  0.70260000  1.0 0.0380752578
C  C28  1  0.57290000  0.14750000  0.29740000  1.0 0.0380752578
C  C29  1  0.72450000  0.42710000  0.57460000  1.0 0.0380752578
C  C30  1  0.85250000  0.14990000  0.42540000  1.0 0.0380752578
C  C31  1  0.14990000  0.72450000  0.29740000  1.0 0.0380752578
C  C32  1  0.42710000  0.85250000  0.70260000  1.0 0.0380752578
C  C33  1  0.32790000  0.52180000  0.34230000  1.0 0.1019565149
C  C34  1  0.17950000  0.98560000  0.65770000  1.0 0.1019565149
C  C35  1  0.98560000  0.32790000  0.80610000  1.0 0.1019565149
C  C36  1  0.52180000  0.17950000  0.19390000  1.0 0.1019565149
C  C37  1  0.67210000  0.47820000  0.65770000  1.0 0.1019565149
C  C38  1  0.82050000  0.01440000  0.34230000  1.0 0.1019565149
C  C39  1  0.01440000  0.67210000  0.19390000  1.0 0.1019565149
C  C40  1  0.47820000  0.82050000  0.80610000  1.0 0.1019565149
C  C41  1  0.41820000  0.59570000  0.39950000  1.0 -0.1586229671
C  C42  1  0.19620000  0.01870000  0.60050000  1.0 -0.1586229671
C  C43  1  0.01870000  0.41820000  0.82250000  1.0 -0.1586229671
C  C44  1  0.59570000  0.19620000  0.17750000  1.0 -0.1586229671
C  C45  1  0.58180000  0.40430000  0.60050000  1.0 -0.1586229671
C  C46  1  0.80380000  0.98130000  0.39950000  1.0 -0.1586229671
C  C47  1  0.98130000  0.58180000  0.17750000  1.0 -0.1586229671
C  C48  1  0.40430000  0.80380000  0.82250000  1.0 -0.1586229671
C  C49  1  0.63720000  0.73910000  0.81870000  1.0 0.6311857999
C  C50  1  0.92040000  0.81850000  0.18130000  1.0 0.6311857999
C  C51  1  0.81850000  0.63720000  0.89810000  1.0 0.6311857999
C  C52  1  0.73910000  0.92040000  0.10190000  1.0 0.6311857999
C  C53  1  0.36280000  0.26090000  0.18130000  1.0 0.6311857999
C  C54  1  0.07960000  0.18150000  0.81870000  1.0 0.6311857999
C  C55  1  0.18150000  0.36280000  0.10190000  1.0 0.6311857999
C  C56  1  0.26090000  0.07960000  0.89810000  1.0 0.6311857999
C  C57  1  0.56360000  0.64000000  0.76440000  1.0 0.0087827397
C  C58  1  0.87560000  0.79920000  0.23560000  1.0 0.0087827397
C  C59  1  0.79920000  0.56360000  0.92360000  1.0 0.0087827397
C  C60  1  0.64000000  0.87560000  0.07640000  1.0 0.0087827397
C  C61  1  0.43640000  0.36000000  0.23560000  1.0 0.0087827397
C  C62  1  0.12440000  0.20080000  0.76440000  1.0 0.0087827397
C  C63  1  0.20080000  0.43640000  0.07640000  1.0 0.0087827397
C  C64  1  0.36000000  0.12440000  0.92360000  1.0 0.0087827397
C  C65  1  0.56270000  0.57690000  0.79240000  1.0 -0.1499739941
C  C66  1  0.78450000  0.77030000  0.20760000  1.0 -0.1499739941
C  C67  1  0.77030000  0.56270000  0.98580000  1.0 -0.1499739941
C  C68  1  0.57690000  0.78450000  0.01420000  1.0 -0.1499739941
C  C69  1  0.43730000  0.42310000  0.20760000  1.0 -0.1499739941
C  C70  1  0.21550000  0.22970000  0.79240000  1.0 -0.1499739941
C  C71  1  0.22970000  0.43730000  0.01420000  1.0 -0.1499739941
C  C72  1  0.42310000  0.21550000  0.98580000  1.0 -0.1499739941
C  C73  1  0.49270000  0.48760000  0.73930000  1.0 0.0630992502
C  C74  1  0.74830000  0.75340000  0.26070000  1.0 0.0630992502
C  C75  1  0.75340000  0.49270000  0.00510000  1.0 0.0630992502
C  C76  1  0.48760000  0.74830000  0.99490000  1.0 0.0630992502
C  C77  1  0.50730000  0.51240000  0.26070000  1.0 0.0630992502
C  C78  1  0.25170000  0.24660000  0.73930000  1.0 0.0630992502
C  C79  1  0.24660000  0.50730000  0.99490000  1.0 0.0630992502
C  C80  1  0.51240000  0.25170000  0.00510000  1.0 0.0630992502
C  C81  1  0.42840000  0.51740000  0.63680000  1.0 0.0380752578
C  C82  1  0.88060000  0.79160000  0.36320000  1.0 0.0380752578
C  C83  1  0.79160000  0.42840000  0.91100000  1.0 0.0380752578
C  C84  1  0.51740000  0.88060000  0.08900000  1.0 0.0380752578
C  C85  1  0.57160000  0.48260000  0.36320000  1.0 0.0380752578
C  C86  1  0.11940000  0.20840000  0.63680000  1.0 0.0380752578
C  C87  1  0.20840000  0.57160000  0.08900000  1.0 0.0380752578
C  C88  1  0.48260000  0.11940000  0.91100000  1.0 0.0380752578
C  C89  1  0.49330000  0.60750000  0.68460000  1.0 -0.1586229671
C  C90  1  0.92290000  0.80870000  0.31540000  1.0 -0.1586229671
C  C91  1  0.80870000  0.49330000  0.88580000  1.0 -0.1586229671
C  C92  1  0.60750000  0.92290000  0.11420000  1.0 -0.1586229671
C  C93  1  0.50670000  0.39250000  0.31540000  1.0 -0.1586229671
C  C94  1  0.07710000  0.19130000  0.68460000  1.0 -0.1586229671
C  C95  1  0.19130000  0.50670000  0.11420000  1.0 -0.1586229671
C  C96  1  0.39250000  0.07710000  0.88580000  1.0 -0.1586229671
C  C97  1  0.63710000  0.07070000  0.70780000  1.0 0.6227496316
C  C98  1  0.36290000  0.92930000  0.29220000  1.0 0.6227496316
C  C99  1  0.92930000  0.63710000  0.56640000  1.0 0.6227496316
C  C100  1  0.07070000  0.36290000  0.43360000  1.0 0.6227496316
C  C101  1  0.95570000  0.88190000  0.61940000  1.0 0.348194357
C  C102  1  0.26250000  0.33630000  0.38060000  1.0 0.348194357
C  C103  1  0.33630000  0.95570000  0.07380000  1.0 0.348194357
C  C104  1  0.88190000  0.26250000  0.92620000  1.0 0.348194357
C  C105  1  0.04430000  0.11810000  0.38060000  1.0 0.348194357
C  C106  1  0.73750000  0.66370000  0.61940000  1.0 0.348194357
C  C107  1  0.66370000  0.04430000  0.92620000  1.0 0.348194357
C  C108  1  0.11810000  0.73750000  0.07380000  1.0 0.348194357
C  C109  1  0.56620000  0.07310000  0.63930000  1.0 -0.2856570109
C  C110  1  0.43380000  0.92690000  0.36070000  1.0 -0.2856570109
C  C111  1  0.92690000  0.56620000  0.49310000  1.0 -0.2856570109
C  C112  1  0.07310000  0.43380000  0.50690000  1.0 -0.2856570109
C  C113  1  0.59990000  0.13110000  0.73100000  1.0 -0.2802788913
C  C114  1  0.40010000  0.86890000  0.26900000  1.0 -0.2802788913
C  C115  1  0.86890000  0.59990000  0.46880000  1.0 -0.2802788913
C  C116  1  0.13110000  0.40010000  0.53120000  1.0 -0.2802788913
N  N1  1  0.25950000  0.50800000  0.35330000  1.0 -0.3225769698
N  N2  1  0.15470000  0.90620000  0.64670000  1.0 -0.3225769698
N  N3  1  0.90620000  0.25950000  0.75150000  1.0 -0.3225769698
N  N4  1  0.50800000  0.15470000  0.24850000  1.0 -0.3225769698
N  N5  1  0.74050000  0.49200000  0.64670000  1.0 -0.3225769698
N  N6  1  0.84530000  0.09380000  0.35330000  1.0 -0.3225769698
N  N7  1  0.09380000  0.74050000  0.24850000  1.0 -0.3225769698
N  N8  1  0.49200000  0.84530000  0.75150000  1.0 -0.3225769698
N  N9  1  0.42960000  0.45600000  0.66100000  1.0 -0.2337643902
N  N10  1  0.79500000  0.76860000  0.33900000  1.0 -0.2337643902
N  N11  1  0.76860000  0.42960000  0.97360000  1.0 -0.2337643902
N  N12  1  0.45600000  0.79500000  0.02640000  1.0 -0.2337643902
N  N13  1  0.57040000  0.54400000  0.33900000  1.0 -0.2337643902
N  N14  1  0.20500000  0.23140000  0.66100000  1.0 -0.2337643902
N  N15  1  0.23140000  0.57040000  0.02640000  1.0 -0.2337643902
N  N16  1  0.54400000  0.20500000  0.97360000  1.0 -0.2337643902
O  O1  1  0.53400000  0.78780000  0.61080000  1.0 -0.6003474593
O  O2  1  0.17700000  0.92320000  0.38920000  1.0 -0.6003474593
O  O3  1  0.92320000  0.53400000  0.74620000  1.0 -0.6003474593
O  O4  1  0.78780000  0.17700000  0.25380000  1.0 -0.6003474593
O  O5  1  0.46600000  0.21220000  0.38920000  1.0 -0.6003474593
O  O6  1  0.82300000  0.07680000  0.61080000  1.0 -0.6003474593
O  O7  1  0.07680000  0.46600000  0.25380000  1.0 -0.6003474593
O  O8  1  0.21220000  0.82300000  0.74620000  1.0 -0.6003474593
O  O9  1  0.58980000  0.74780000  0.52600000  1.0 -0.5916538428
O  O10  1  0.22180000  0.06380000  0.47400000  1.0 -0.5916538428
O  O11  1  0.06380000  0.58980000  0.84200000  1.0 -0.5916538428
O  O12  1  0.74780000  0.22180000  0.15800000  1.0 -0.5916538428
O  O13  1  0.41020000  0.25220000  0.47400000  1.0 -0.5916538428
O  O14  1  0.77820000  0.93620000  0.52600000  1.0 -0.5916538428
O  O15  1  0.93620000  0.41020000  0.15800000  1.0 -0.5916538428
O  O16  1  0.25220000  0.77820000  0.84200000  1.0 -0.5916538428
O  O17  1  0.60710000  0.00700000  0.72570000  1.0 -0.6406115442
O  O18  1  0.28130000  0.88140000  0.27430000  1.0 -0.6406115442
O  O19  1  0.88140000  0.60710000  0.60010000  1.0 -0.6406115442
O  O20  1  0.00700000  0.28130000  0.39990000  1.0 -0.6406115442
O  O21  1  0.39290000  0.99300000  0.27430000  1.0 -0.6406115442
O  O22  1  0.71870000  0.11860000  0.72570000  1.0 -0.6406115442
O  O23  1  0.11860000  0.39290000  0.39990000  1.0 -0.6406115442
O  O24  1  0.99300000  0.71870000  0.60010000  1.0 -0.6406115442
O  O25  1  0.62670000  0.79390000  0.79500000  1.0 -0.6093787625
O  O26  1  0.99890000  0.83170000  0.20500000  1.0 -0.6093787625
O  O27  1  0.83170000  0.62670000  0.83280000  1.0 -0.6093787625
O  O28  1  0.79390000  0.99890000  0.16720000  1.0 -0.6093787625
O  O29  1  0.37330000  0.20610000  0.20500000  1.0 -0.6093787625
O  O30  1  0.00110000  0.16830000  0.79500000  1.0 -0.6093787625
O  O31  1  0.16830000  0.37330000  0.16720000  1.0 -0.6093787625
O  O32  1  0.20610000  0.00110000  0.83280000  1.0 -0.6093787625
O  O33  1  0.70460000  0.76040000  0.88400000  1.0 -0.5916538428
O  O34  1  0.87640000  0.82060000  0.11600000  1.0 -0.5847575366
O  O35  1  0.82060000  0.70460000  0.94420000  1.0 -0.5916538428
O  O36  1  0.76040000  0.87640000  0.05580000  1.0 -0.5916538428
O  O37  1  0.29540000  0.23960000  0.11600000  1.0 -0.5847575366
O  O38  1  0.12360000  0.17940000  0.88400000  1.0 -0.5847575366
O  O39  1  0.17940000  0.29540000  0.05580000  1.0 -0.5847575366
O  O40  1  0.23960000  0.12360000  0.94420000  1.0 -0.5847575366
O  O41  1  0.70610000  0.94710000  0.65320000  1.0 -0.8386711776
O  O42  1  0.29390000  0.05290000  0.34680000  1.0 -0.8386711776
O  O43  1  0.05290000  0.70610000  0.75900000  1.0 -0.8386711776
O  O44  1  0.94710000  0.29390000  0.24100000  1.0 -0.8386711776
O  O45  1  0.74430000  0.84960000  0.72970000  1.0 -0.9355769336
O  O46  1  0.11990000  0.01460000  0.27030000  1.0 -0.9348454177
O  O47  1  0.01460000  0.74430000  0.89470000  1.0 -0.9348454177
O  O48  1  0.84960000  0.11990000  0.10530000  1.0 -0.9355769336
O  O49  1  0.25570000  0.15040000  0.27030000  1.0 -0.9355769336
O  O50  1  0.88010000  0.98540000  0.72970000  1.0 -0.9355769336
O  O51  1  0.98540000  0.25570000  0.10530000  1.0 -0.9355769336
O  O52  1  0.15040000  0.88010000  0.89470000  1.0 -0.9348454177
O  O53  1  0.79980000  0.03030000  0.83010000  1.0 -0.9073308259
O  O54  1  0.20020000  0.96970000  0.16990000  1.0 -0.9073308259
O  O55  1  0.96970000  0.79980000  0.76950000  1.0 -0.9073308259
O  O56  1  0.03030000  0.20020000  0.23050000  1.0 -0.9073308259
O  O57  1  0.03250000  0.99280000  0.86650000  1.0 -1.0095826515
O  O58  1  0.12630000  0.16600000  0.13350000  1.0 -1.0175613463
O  O59  1  0.16600000  0.03250000  0.03970000  1.0 -1.0095826515
O  O60  1  0.99280000  0.12630000  0.96030000  1.0 -1.0095826515
O  O61  1  0.96750000  0.00720000  0.13350000  1.0 -1.0095826515
O  O62  1  0.87370000  0.83400000  0.86650000  1.0 -1.0095826515
O  O63  1  0.83400000  0.96750000  0.96030000  1.0 -1.0095826515
O  O64  1  0.00720000  0.87370000  0.03970000  1.0 -1.0095826515
O  O65  1  0.88970000  0.88430000  0.58500000  1.0 -0.2358169407
O  O66  1  0.29930000  0.30470000  0.41500000  1.0 -0.2337643902
O  O67  1  0.30470000  0.88970000  0.00540000  1.0 -0.2337643902
O  O68  1  0.88430000  0.29930000  0.99460000  1.0 -0.2358169407
O  O69  1  0.11030000  0.11570000  0.41500000  1.0 -0.2337643902
O  O70  1  0.70070000  0.69530000  0.58500000  1.0 -0.2358169407
O  O71  1  0.69530000  0.11030000  0.99460000  1.0 -0.2358169407
O  O72  1  0.11570000  0.70070000  0.00540000  1.0 -0.2337643902
O  O73  1  0.01520000  0.90730000  0.68810000  1.0 -0.381878458
O  O74  1  0.21920000  0.32710000  0.31190000  1.0 -0.381878458
O  O75  1  0.32710000  0.01520000  0.10790000  1.0 -0.381878458
O  O76  1  0.90730000  0.21920000  0.89210000  1.0 -0.381878458
O  O77  1  0.98480000  0.09270000  0.31190000  1.0 -0.381878458
O  O78  1  0.78080000  0.67290000  0.68810000  1.0 -0.381878458
O  O79  1  0.67290000  0.98480000  0.89210000  1.0 -0.381878458
O  O80  1  0.09270000  0.78080000  0.10790000  1.0 -0.381878458
O  O81  1  0.00000000  0.00000000  0.00000000  1.0 -1.2569052279
O  O82  1  0.87900000  0.83810000  0.62350000  1.0 -0.1499739941
O  O83  1  0.21460000  0.25550000  0.37650000  1.0 -0.1499739941
O  O84  1  0.25550000  0.87900000  0.04090000  1.0 -0.1499739941
O  O85  1  0.83810000  0.21460000  0.95910000  1.0 -0.1499739941
O  O86  1  0.12100000  0.16190000  0.37650000  1.0 -0.1499739941
O  O87  1  0.78540000  0.74450000  0.62350000  1.0 -0.1499739941
O  O88  1  0.74450000  0.12100000  0.95910000  1.0 -0.1499739941
O  O89  1  0.16190000  0.78540000  0.04090000  1.0 -0.1499739941
