# DDEC6 charges by PACMAN v1.1 (https://github.com/mtap-research/PACMAN-charge/)
data_TIHRUA_ion_pacman
_symmetry_space_group_name_H-M   'P 1'
_cell_length_a   10.65660000
_cell_length_b   18.13000000
_cell_length_c   19.50060000
_cell_angle_alpha   65.60100000
_cell_angle_beta   74.96400000
_cell_angle_gamma   81.31700000
_symmetry_Int_Tables_number   1
_chemical_formula_structural   TbH26C53(N2O7)3
_chemical_formula_sum   'Tb2 H52 C106 N12 O42'
_cell_volume   3309.53321239
_cell_formula_units_Z   2
loop_
 _symmetry_equiv_pos_site_id
 _symmetry_equiv_pos_as_xyz
  1  'x, y, z'
loop_
 _atom_site_type_symbol
 _atom_site_label
 _atom_site_symmetry_multiplicity
 _atom_site_fract_x
 _atom_site_fract_y
 _atom_site_fract_z
 _atom_site_occupancy
 _atom_site_charge
Tb  Tb1  1  0.89279000  0.55878000  0.10741000  1.0 2.0843682794
Tb  Tb2  1  0.10721000  0.44122000  0.89259000  1.0 2.0843682794
H  H1  1  0.82371000  0.51049000  0.99550000  1.0 0.3842809258
H  H2  1  0.75584000  0.58545000  0.98568000  1.0 0.3593252508
H  H3  1  0.79545000  0.82212000  0.82191000  1.0 0.1382544408
H  H4  1  0.90384000  0.27299000  0.03194000  1.0 0.1319818927
H  H5  1  0.23561000  0.72898000  0.07685000  1.0 0.1564160643
H  H6  1  0.34328000  0.49266000  0.16926000  1.0 0.1319818927
H  H7  1  0.89949000  0.28944000  0.23229000  1.0 0.1486867724
H  H8  1  0.82491000  0.03936000  0.82471000  1.0 0.1382544408
H  H9  1  0.52486000  0.04400000  0.15111000  1.0 0.1382544408
H  H10  1  0.80773000  0.83730000  0.02023000  1.0 0.1319818927
H  H11  1  0.84831000  0.07432000  0.23194000  1.0 0.1382544408
H  H12  1  0.09227000  0.11997000  0.56835000  1.0 0.1382544408
H  H13  1  0.48291000  0.90902000  0.19470000  1.0 0.1382544408
H  H14  1  0.59088000  0.66168000  0.12093000  1.0 0.1486867724
H  H15  1  0.11007000  0.17366000  0.43582000  1.0 0.1382544408
H  H16  1  0.58948000  0.93130000  0.61797000  1.0 0.1382544408
H  H17  1  0.60484000  0.98619000  0.48490000  1.0 0.1227771996
H  H18  1  0.84600000  0.09500000  0.96500000  1.0 0.3675751968
H  H19  1  0.17629000  0.48951000  0.00450000  1.0 0.3842809258
H  H20  1  0.24416000  0.41455000  0.01432000  1.0 0.3593252508
H  H21  1  0.20455000  0.17788000  0.17809000  1.0 0.1382544408
H  H22  1  0.09616000  0.72701000  0.96806000  1.0 0.1319818927
H  H23  1  0.76439000  0.27102000  0.92315000  1.0 0.1564160643
H  H24  1  0.65672000  0.50734000  0.83074000  1.0 0.1319818927
H  H25  1  0.10051000  0.71056000  0.76771000  1.0 0.1486867724
H  H26  1  0.17509000  0.96064000  0.17529000  1.0 0.1382544408
H  H27  1  0.47514000  0.95600000  0.84889000  1.0 0.1382544408
H  H28  1  0.19227000  0.16270000  0.97977000  1.0 0.1319818927
H  H29  1  0.15169000  0.92568000  0.76806000  1.0 0.1382544408
H  H30  1  0.90773000  0.88003000  0.43165000  1.0 0.1382544408
H  H31  1  0.51709000  0.09098000  0.80530000  1.0 0.1382544408
H  H32  1  0.40912000  0.33832000  0.87907000  1.0 0.1486867724
H  H33  1  0.88993000  0.82634000  0.56418000  1.0 0.1382544408
H  H34  1  0.41052000  0.06870000  0.38203000  1.0 0.1382544408
H  H35  1  0.39516000  0.01381000  0.51510000  1.0 0.1227771996
H  H36  1  0.15400000  0.90500000  0.03500000  1.0 0.3675751968
H  H37  1  0.52082000  0.60142000  0.96416000  1.0 0.1319818927
H  H38  1  0.39231000  0.65410000  0.94892000  1.0 0.1382544408
H  H39  1  0.44167000  0.58985000  0.91214000  1.0 0.1382544408
H  H40  1  0.60258000  0.66287000  0.83656000  1.0 0.2514411865
H  H41  1  0.58137000  0.71571000  0.87681000  1.0 0.2514411865
H  H42  1  0.41276000  0.77859000  0.82749000  1.0 0.1382544408
H  H43  1  0.53653000  0.78140000  0.76223000  1.0 0.1382544408
H  H44  1  0.43039000  0.71907000  0.78552000  1.0 0.1382544408
H  H45  1  0.47918000  0.39858000  0.03584000  1.0 0.1319818927
H  H46  1  0.60769000  0.34590000  0.05108000  1.0 0.1382544408
H  H47  1  0.55833000  0.41015000  0.08786000  1.0 0.1382544408
H  H48  1  0.39742000  0.33713000  0.16344000  1.0 0.2514411865
H  H49  1  0.41863000  0.28429000  0.12319000  1.0 0.2514411865
H  H50  1  0.58724000  0.22141000  0.17251000  1.0 0.1382544408
H  H51  1  0.46347000  0.21860000  0.23777000  1.0 0.1382544408
H  H52  1  0.56961000  0.28093000  0.21448000  1.0 0.1382544408
C  C1  1  0.90770000  0.29410000  0.12540000  1.0 -0.0033927218
C  C2  1  0.86030000  0.11780000  0.08270000  1.0 0.5391757993
C  C3  1  0.87110000  0.16690000  0.12580000  1.0 -0.0033927218
C  C4  1  0.51070000  0.04180000  0.98660000  1.0 0.029670723
C  C5  1  0.80040000  0.85310000  0.84900000  1.0 -0.1573916566
C  C6  1  0.52280000  0.07400000  0.03970000  1.0 -0.0511039671
C  C7  1  0.79530000  0.81610000  0.92790000  1.0 -0.0125183649
C  C8  1  0.48060000  0.90870000  0.09250000  1.0 -0.0636160853
C  C9  1  0.89570000  0.24900000  0.08510000  1.0 -0.0963340492
C  C10  1  0.81280000  0.93650000  0.81060000  1.0 0.1975307299
C  C11  1  0.83100000  0.99490000  0.97150000  1.0 0.5668058901
C  C12  1  0.41690000  0.70750000  0.09480000  1.0 0.1883513985
C  C13  1  0.87420000  0.17670000  0.24410000  1.0 0.1814920141
C  C14  1  0.75630000  0.05410000  0.45710000  1.0 -0.0636160853
C  C15  1  0.93160000  0.05820000  0.59720000  1.0 -0.0658920349
C  C16  1  0.72360000  0.95590000  0.70060000  1.0 0.4382463603
C  C17  1  0.96830000  0.15390000  0.35280000  1.0 0.4244340567
C  C18  1  0.92390000  0.02390000  0.68130000  1.0 0.4306059091
C  C19  1  0.84990000  0.07260000  0.48700000  1.0 0.036711015
C  C20  1  0.29750000  0.68810000  0.09480000  1.0 -0.1448546143
C  C21  1  0.81690000  0.94570000  0.92910000  1.0 -0.0179074293
C  C22  1  0.36190000  0.54690000  0.15030000  1.0 -0.105915522
C  C23  1  0.89450000  0.25830000  0.20540000  1.0 -0.1573916566
C  C24  1  0.83990000  0.03890000  0.56770000  1.0 0.036711015
C  C25  1  0.81920000  0.98350000  0.85020000  1.0 -0.1573916566
C  C26  1  0.45550000  0.83930000  0.98710000  1.0 0.4508076666
C  C27  1  0.51460000  0.02330000  0.11660000  1.0 -0.0301064721
C  C28  1  0.80680000  0.86210000  0.96800000  1.0 -0.105915522
C  C29  1  0.73860000  0.98710000  0.61640000  1.0 -0.0511039671
C  C30  1  0.86210000  0.12940000  0.20550000  1.0 -0.1532213779
C  C31  1  0.26930000  0.60710000  0.12190000  1.0 0.0019978014
C  C32  1  0.03180000  0.10790000  0.54810000  1.0 -0.0771219803
C  C33  1  0.95340000  0.12250000  0.43730000  1.0 -0.0636160853
C  C34  1  0.48070000  0.56720000  0.15070000  1.0 -0.0033927218
C  C35  1  0.49140000  0.94180000  0.14250000  1.0 -0.0636160853
C  C36  1  0.45510000  0.82210000  0.12130000  1.0 0.4508076666
C  C37  1  0.50970000  0.64790000  0.12190000  1.0 -0.1275103108
C  C38  1  0.78370000  0.72480000  0.96910000  1.0 0.5825018792
C  C39  1  0.93470000  0.38390000  0.08350000  1.0 0.6383799223
C  C40  1  0.57910000  0.50140000  0.18470000  1.0 0.6117783694
C  C41  1  0.04260000  0.14020000  0.46830000  1.0 -0.0771219803
C  C42  1  0.14030000  0.58540000  0.12030000  1.0 0.5536459593
C  C43  1  0.65390000  0.96730000  0.58550000  1.0 -0.0636160853
C  C44  1  0.66270000  0.00060000  0.50520000  1.0 -0.0771219803
C  C45  1  0.75810000  0.09510000  0.37420000  1.0 0.4306059091
C  C46  1  0.93230000  0.50350000  0.29370000  1.0 0.3895786016
C  C47  1  0.85900000  0.82550000  0.20950000  1.0 0.1098172251
C  C48  1  0.67830000  0.72100000  0.29290000  1.0 0.1098172251
C  C49  1  0.99580000  0.35620000  0.37910000  1.0 -0.0125183649
C  C50  1  0.84050000  0.71620000  0.17520000  1.0 0.3675751968
C  C51  1  0.95900000  0.47600000  0.42590000  1.0 -0.0636160853
C  C52  1  0.09230000  0.70590000  0.87460000  1.0 -0.0033927218
C  C53  1  0.13970000  0.88220000  0.91730000  1.0 0.5391757993
C  C54  1  0.12890000  0.83310000  0.87420000  1.0 -0.0033927218
C  C55  1  0.48930000  0.95820000  0.01340000  1.0 0.029670723
C  C56  1  0.19960000  0.14690000  0.15100000  1.0 -0.1573916566
C  C57  1  0.47720000  0.92600000  0.96030000  1.0 -0.0511039671
C  C58  1  0.20470000  0.18390000  0.07210000  1.0 -0.0125183649
C  C59  1  0.51940000  0.09130000  0.90750000  1.0 -0.0636160853
C  C60  1  0.10430000  0.75100000  0.91490000  1.0 -0.0963340492
C  C61  1  0.18720000  0.06350000  0.18940000  1.0 0.1975307299
C  C62  1  0.16900000  0.00510000  0.02850000  1.0 0.5668058901
C  C63  1  0.58310000  0.29250000  0.90520000  1.0 0.1883513985
C  C64  1  0.12580000  0.82330000  0.75590000  1.0 0.1814920141
C  C65  1  0.24370000  0.94590000  0.54290000  1.0 -0.0636160853
C  C66  1  0.06840000  0.94180000  0.40280000  1.0 -0.0658920349
C  C67  1  0.27640000  0.04410000  0.29940000  1.0 0.4382463603
C  C68  1  0.03170000  0.84610000  0.64720000  1.0 0.4244340567
C  C69  1  0.07610000  0.97610000  0.31870000  1.0 0.4306059091
C  C70  1  0.15010000  0.92740000  0.51300000  1.0 0.036711015
C  C71  1  0.70250000  0.31190000  0.90520000  1.0 -0.1448546143
C  C72  1  0.18310000  0.05430000  0.07090000  1.0 -0.0179074293
C  C73  1  0.63810000  0.45310000  0.84970000  1.0 -0.105915522
C  C74  1  0.10550000  0.74170000  0.79460000  1.0 -0.1573916566
C  C75  1  0.16010000  0.96110000  0.43230000  1.0 0.036711015
C  C76  1  0.18080000  0.01650000  0.14980000  1.0 -0.1573916566
C  C77  1  0.54450000  0.16070000  0.01290000  1.0 0.4508076666
C  C78  1  0.48540000  0.97670000  0.88340000  1.0 -0.0301064721
C  C79  1  0.19320000  0.13790000  0.03200000  1.0 -0.105915522
C  C80  1  0.26140000  0.01290000  0.38360000  1.0 -0.0511039671
C  C81  1  0.13790000  0.87060000  0.79450000  1.0 -0.1532213779
C  C82  1  0.73070000  0.39290000  0.87810000  1.0 0.0019978014
C  C83  1  0.96820000  0.89210000  0.45190000  1.0 -0.0771219803
C  C84  1  0.04660000  0.87750000  0.56270000  1.0 -0.0636160853
C  C85  1  0.51930000  0.43280000  0.84930000  1.0 -0.0033927218
C  C86  1  0.50860000  0.05820000  0.85750000  1.0 -0.0636160853
C  C87  1  0.54490000  0.17790000  0.87870000  1.0 0.4508076666
C  C88  1  0.49030000  0.35210000  0.87810000  1.0 -0.1275103108
C  C89  1  0.21630000  0.27520000  0.03090000  1.0 0.5825018792
C  C90  1  0.06530000  0.61610000  0.91650000  1.0 0.6383799223
C  C91  1  0.42090000  0.49860000  0.81530000  1.0 0.6117783694
C  C92  1  0.95740000  0.85980000  0.53170000  1.0 -0.0771219803
C  C93  1  0.85970000  0.41460000  0.87970000  1.0 0.5536459593
C  C94  1  0.34610000  0.03270000  0.41450000  1.0 -0.0636160853
C  C95  1  0.33730000  0.99940000  0.49480000  1.0 -0.0771219803
C  C96  1  0.24190000  0.90490000  0.62580000  1.0 0.4306059091
C  C97  1  0.06770000  0.49650000  0.70630000  1.0 0.3895786016
C  C98  1  0.14100000  0.17450000  0.79050000  1.0 0.1098172251
C  C99  1  0.32170000  0.27900000  0.70710000  1.0 0.1227771996
C  C100  1  0.00420000  0.64380000  0.62090000  1.0 -0.0125183649
C  C101  1  0.15950000  0.28380000  0.82480000  1.0 0.3675751968
C  C102  1  0.04100000  0.52400000  0.57410000  1.0 -0.0636160853
C  C103  1  0.46800000  0.62860000  0.92680000  1.0 -0.2608376087
C  C104  1  0.47480000  0.74660000  0.80430000  1.0 -0.2608376087
C  C105  1  0.53200000  0.37140000  0.07320000  1.0 -0.2608376087
C  C106  1  0.52520000  0.25340000  0.19570000  1.0 -0.2608376087
N  N1  1  0.81930000  0.97400000  0.72840000  1.0 -0.2273833172
N  N2  1  0.86830000  0.13980000  0.32600000  1.0 -0.2149041386
N  N3  1  0.44500000  0.79270000  0.06600000  1.0 -0.2273833172
N  N4  1  0.78060000  0.75730000  0.21960000  1.0 -0.1275103108
N  N5  1  0.97000000  0.44520000  0.36390000  1.0 -0.0301064721
N  N6  1  0.18070000  0.02600000  0.27160000  1.0 -0.2273833172
N  N7  1  0.13170000  0.86020000  0.67400000  1.0 -0.2149041386
N  N8  1  0.55500000  0.20730000  0.93400000  1.0 -0.2273833172
N  N9  1  0.21940000  0.24270000  0.78040000  1.0 -0.1275103108
N  N10  1  0.03000000  0.55480000  0.63610000  1.0 -0.0301064721
N  N11  1  0.54110000  0.68860000  0.86040000  1.0 -0.0771219803
N  N12  1  0.45890000  0.31140000  0.13960000  1.0 -0.0771219803
O  O1  1  0.81500000  0.69060000  0.03330000  1.0 -0.6513918133
O  O2  1  0.04990000  0.64100000  0.10950000  1.0 -0.6159264536
O  O3  1  0.84200000  0.07170000  0.93230000  1.0 -0.4492616745
O  O4  1  0.77410000  0.53810000  0.02300000  1.0 -0.7761579247
O  O5  1  0.92970000  0.42230000  0.12483000  1.0 -0.6268200965
O  O6  1  0.95830000  0.41290000  0.01173000  1.0 -0.6513918133
O  O7  1  0.44560000  0.80880000  0.94420000  1.0 -0.3886539208
O  O8  1  0.83390000  0.04290000  0.12310000  1.0 -0.486928487
O  O9  1  0.87560000  0.14930000  0.01130000  1.0 -0.5179656636
O  O10  1  0.68900000  0.52290000  0.17980000  1.0 -0.6513918133
O  O11  1  0.00240000  0.03750000  0.70890000  1.0 -0.4007843749
O  O12  1  0.06400000  0.18800000  0.30840000  1.0 -0.4106320929
O  O13  1  0.66920000  0.09210000  0.34710000  1.0 -0.4106320929
O  O14  1  0.74270000  0.69160000  0.93480000  1.0 -0.5383191497
O  O15  1  0.82960000  0.96080000  0.04180000  1.0 -0.4562489034
O  O16  1  0.63180000  0.91630000  0.74530000  1.0 -0.4164182933
O  O17  1  0.44180000  0.77720000  0.18810000  1.0 -0.3886539208
O  O18  1  0.12460000  0.51570000  0.12740000  1.0 -0.5698825808
O  O19  1  0.54560000  0.42960000  0.21760000  1.0 -0.5179656636
O  O20  1  0.79680000  0.64460000  0.19230000  1.0 -0.5497976632
O  O21  1  0.90210000  0.49920000  0.24230000  1.0 -0.4007843749
O  O22  1  0.18500000  0.30940000  0.96670000  1.0 -0.6513918133
O  O23  1  0.95010000  0.35900000  0.89050000  1.0 -0.6159264536
O  O24  1  0.15800000  0.92830000  0.06770000  1.0 -0.4492616745
O  O25  1  0.22590000  0.46190000  0.97700000  1.0 -0.7761579247
O  O26  1  0.07030000  0.57770000  0.87517000  1.0 -0.6268200965
O  O27  1  0.04170000  0.58710000  0.98827000  1.0 -0.6513918133
O  O28  1  0.55440000  0.19120000  0.05580000  1.0 -0.3886539208
O  O29  1  0.16610000  0.95710000  0.87690000  1.0 -0.486928487
O  O30  1  0.12440000  0.85070000  0.98870000  1.0 -0.5179656636
O  O31  1  0.31100000  0.47710000  0.82020000  1.0 -0.6513918133
O  O32  1  0.99760000  0.96250000  0.29110000  1.0 -0.4007843749
O  O33  1  0.93600000  0.81200000  0.69160000  1.0 -0.4164182933
O  O34  1  0.33080000  0.90790000  0.65290000  1.0 -0.4106320929
O  O35  1  0.25730000  0.30840000  0.06520000  1.0 -0.5383191497
O  O36  1  0.17040000  0.03920000  0.95820000  1.0 -0.4562489034
O  O37  1  0.36820000  0.08370000  0.25470000  1.0 -0.4164182933
O  O38  1  0.55820000  0.22280000  0.81190000  1.0 -0.3886539208
O  O39  1  0.87540000  0.48430000  0.87260000  1.0 -0.5698825808
O  O40  1  0.45440000  0.57040000  0.78240000  1.0 -0.5148821564
O  O41  1  0.20320000  0.35540000  0.80770000  1.0 -0.5497976632
O  O42  1  0.09790000  0.50080000  0.75770000  1.0 -0.4007843749
