# DDEC6 charges by PACMAN v1.1 (https://github.com/mtap-research/PACMAN-charge/)
data_TIKCAV_ASR_pacman
_symmetry_space_group_name_H-M   'P 1'
_cell_length_a   13.40300000
_cell_length_b   13.40300000
_cell_length_c   47.81900000
_cell_angle_alpha   90.00000000
_cell_angle_beta   90.00000000
_cell_angle_gamma   120.00000000
_symmetry_Int_Tables_number   1
_chemical_formula_structural   CdH44C46(N2O)2
_chemical_formula_sum   'Cd6 H264 C276 N24 O12'
_cell_volume   7439.35282998
_cell_formula_units_Z   6
loop_
 _symmetry_equiv_pos_site_id
 _symmetry_equiv_pos_as_xyz
  1  'x, y, z'
loop_
 _atom_site_type_symbol
 _atom_site_label
 _atom_site_symmetry_multiplicity
 _atom_site_fract_x
 _atom_site_fract_y
 _atom_site_fract_z
 _atom_site_occupancy
 _atom_site_charge
Cd  Cd1  1  0.50000000  0.50000000  0.30006000  1.0 0.5384517523
Cd  Cd2  1  0.50000000  0.00000000  0.63339000  1.0 0.5384517523
Cd  Cd3  1  0.00000000  0.50000000  0.96673000  1.0 0.5384517523
Cd  Cd4  1  0.50000000  0.50000000  0.03327000  1.0 0.5384517523
Cd  Cd5  1  0.00000000  0.50000000  0.69994000  1.0 0.5384517523
Cd  Cd6  1  0.50000000  0.00000000  0.36661000  1.0 0.5384517523
H  H1  1  0.74118000  0.66138000  0.39684000  1.0 0.1458529842
H  H2  1  0.33862000  0.07980000  0.73017000  1.0 0.1458529842
H  H3  1  0.92020000  0.25882000  0.06351000  1.0 0.1458529842
H  H4  1  0.25882000  0.33862000  0.39684000  1.0 0.1458529842
H  H5  1  0.66138000  0.92020000  0.73017000  1.0 0.1458529842
H  H6  1  0.07980000  0.74118000  0.06351000  1.0 0.1458529842
H  H7  1  0.66138000  0.74118000  0.93649000  1.0 0.1458529842
H  H8  1  0.07980000  0.33862000  0.60316000  1.0 0.1458529842
H  H9  1  0.25882000  0.92020000  0.26983000  1.0 0.1458529842
H  H10  1  0.33862000  0.25882000  0.93649000  1.0 0.1458529842
H  H11  1  0.92020000  0.66138000  0.60316000  1.0 0.1458529842
H  H12  1  0.74118000  0.07980000  0.26983000  1.0 0.1458529842
H  H13  1  0.68350000  0.67442000  0.35260000  1.0 0.0910681449
H  H14  1  0.32558000  0.00908000  0.68593000  1.0 0.0910681449
H  H15  1  0.99092000  0.31650000  0.01927000  1.0 0.0910681449
H  H16  1  0.31650000  0.32558000  0.35260000  1.0 0.0910681449
H  H17  1  0.67442000  0.99092000  0.68593000  1.0 0.0910681449
H  H18  1  0.00908000  0.68350000  0.01927000  1.0 0.0910681449
H  H19  1  0.67442000  0.68350000  0.98073000  1.0 0.0910681449
H  H20  1  0.00908000  0.32558000  0.64740000  1.0 0.0910681449
H  H21  1  0.31650000  0.99092000  0.31407000  1.0 0.0910681449
H  H22  1  0.32558000  0.31650000  0.98073000  1.0 0.0910681449
H  H23  1  0.99092000  0.67442000  0.64740000  1.0 0.0910681449
H  H24  1  0.68350000  0.00908000  0.31407000  1.0 0.0910681449
H  H25  1  0.60287000  0.32259000  0.38459000  1.0 0.128819031
H  H26  1  0.67741000  0.28028000  0.71792000  1.0 0.128819031
H  H27  1  0.71972000  0.39713000  0.05126000  1.0 0.128819031
H  H28  1  0.39713000  0.67741000  0.38459000  1.0 0.128819031
H  H29  1  0.32259000  0.71972000  0.71792000  1.0 0.128819031
H  H30  1  0.28028000  0.60287000  0.05126000  1.0 0.128819031
H  H31  1  0.32259000  0.60287000  0.94874000  1.0 0.128819031
H  H32  1  0.28028000  0.67741000  0.61541000  1.0 0.128819031
H  H33  1  0.39713000  0.71972000  0.28208000  1.0 0.128819031
H  H34  1  0.67741000  0.39713000  0.94874000  1.0 0.128819031
H  H35  1  0.71972000  0.32259000  0.61541000  1.0 0.128819031
H  H36  1  0.60287000  0.28028000  0.28208000  1.0 0.128819031
H  H37  1  0.55710000  0.34898000  0.34026000  1.0 0.0782565629
H  H38  1  0.65102000  0.20812000  0.67359000  1.0 0.0782565629
H  H39  1  0.79188000  0.44290000  0.00693000  1.0 0.0782565629
H  H40  1  0.44290000  0.65102000  0.34026000  1.0 0.0782565629
H  H41  1  0.34898000  0.79188000  0.67359000  1.0 0.0782565629
H  H42  1  0.20812000  0.55710000  0.00693000  1.0 0.0782565629
H  H43  1  0.34898000  0.55710000  0.99307000  1.0 0.0782565629
H  H44  1  0.20812000  0.65102000  0.65974000  1.0 0.0782565629
H  H45  1  0.44290000  0.79188000  0.32641000  1.0 0.0782565629
H  H46  1  0.65102000  0.44290000  0.99307000  1.0 0.0782565629
H  H47  1  0.79188000  0.34898000  0.65974000  1.0 0.0782565629
H  H48  1  0.55710000  0.20812000  0.32641000  1.0 0.0782565629
H  H49  1  0.53396000  0.34797000  0.43271000  1.0 0.1234115616
H  H50  1  0.65203000  0.18599000  0.76604000  1.0 0.1234115616
H  H51  1  0.81401000  0.46604000  0.09938000  1.0 0.1234115616
H  H52  1  0.46604000  0.65203000  0.43271000  1.0 0.1234115616
H  H53  1  0.34797000  0.81401000  0.76604000  1.0 0.1234115616
H  H54  1  0.18599000  0.53396000  0.09938000  1.0 0.1234115616
H  H55  1  0.34797000  0.53396000  0.90062000  1.0 0.1234115616
H  H56  1  0.18599000  0.65203000  0.56729000  1.0 0.1234115616
H  H57  1  0.46604000  0.81401000  0.23396000  1.0 0.1234115616
H  H58  1  0.65203000  0.46604000  0.90062000  1.0 0.1234115616
H  H59  1  0.81401000  0.34797000  0.56729000  1.0 0.1234115616
H  H60  1  0.53396000  0.18599000  0.23396000  1.0 0.1234115616
H  H61  1  0.90432000  0.61347000  0.40469000  1.0 0.1060826915
H  H62  1  0.38653000  0.29085000  0.73802000  1.0 0.1060826915
H  H63  1  0.70915000  0.09568000  0.07136000  1.0 0.1060826915
H  H64  1  0.09568000  0.38653000  0.40469000  1.0 0.1060826915
H  H65  1  0.61347000  0.70915000  0.73802000  1.0 0.1060826915
H  H66  1  0.29085000  0.90432000  0.07136000  1.0 0.1060826915
H  H67  1  0.61347000  0.90432000  0.92864000  1.0 0.1060826915
H  H68  1  0.29085000  0.38653000  0.59531000  1.0 0.1060826915
H  H69  1  0.09568000  0.70915000  0.26198000  1.0 0.1060826915
H  H70  1  0.38653000  0.09568000  0.92864000  1.0 0.1060826915
H  H71  1  0.70915000  0.61347000  0.59531000  1.0 0.1060826915
H  H72  1  0.90432000  0.29085000  0.26198000  1.0 0.1060826915
H  H73  1  0.93236000  0.57739000  0.50006000  1.0 0.1406435898
H  H74  1  0.42261000  0.35497000  0.83339000  1.0 0.1406435898
H  H75  1  0.64503000  0.06764000  0.16673000  1.0 0.1406435898
H  H76  1  0.06764000  0.42261000  0.50006000  1.0 0.1406435898
H  H77  1  0.57739000  0.64503000  0.83339000  1.0 0.1406435898
H  H78  1  0.35497000  0.93236000  0.16673000  1.0 0.1406435898
H  H79  1  0.57739000  0.93236000  0.83327000  1.0 0.1406435898
H  H80  1  0.35497000  0.42261000  0.49994000  1.0 0.1406435898
H  H81  1  0.06764000  0.64503000  0.16661000  1.0 0.1406435898
H  H82  1  0.42261000  0.06764000  0.83327000  1.0 0.1406435898
H  H83  1  0.64503000  0.57739000  0.49994000  1.0 0.1406435898
H  H84  1  0.93236000  0.35497000  0.16661000  1.0 0.1406435898
H  H85  1  0.09180000  0.68951000  0.47485000  1.0 0.1234115616
H  H86  1  0.31049000  0.40229000  0.80818000  1.0 0.1234115616
H  H87  1  0.59771000  0.90820000  0.14152000  1.0 0.1234115616
H  H88  1  0.90820000  0.31049000  0.47485000  1.0 0.1234115616
H  H89  1  0.68951000  0.59771000  0.80818000  1.0 0.1234115616
H  H90  1  0.40229000  0.09180000  0.14152000  1.0 0.1234115616
H  H91  1  0.68951000  0.09180000  0.85848000  1.0 0.1234115616
H  H92  1  0.40229000  0.31049000  0.52515000  1.0 0.1234115616
H  H93  1  0.90820000  0.59771000  0.19182000  1.0 0.1234115616
H  H94  1  0.31049000  0.90820000  0.85848000  1.0 0.1234115616
H  H95  1  0.59771000  0.68951000  0.52515000  1.0 0.1234115616
H  H96  1  0.09180000  0.40229000  0.19182000  1.0 0.1234115616
H  H97  1  0.23177000  0.72485000  0.44756000  1.0 0.1406435898
H  H98  1  0.27515000  0.50692000  0.78089000  1.0 0.1406435898
H  H99  1  0.49308000  0.76823000  0.11423000  1.0 0.1406435898
H  H100  1  0.76823000  0.27515000  0.44756000  1.0 0.1406435898
H  H101  1  0.72485000  0.49308000  0.78089000  1.0 0.1406435898
H  H102  1  0.50692000  0.23177000  0.11423000  1.0 0.1406435898
H  H103  1  0.72485000  0.23177000  0.88577000  1.0 0.1406435898
H  H104  1  0.50692000  0.27515000  0.55244000  1.0 0.1406435898
H  H105  1  0.76823000  0.49308000  0.21911000  1.0 0.1406435898
H  H106  1  0.27515000  0.76823000  0.88577000  1.0 0.1406435898
H  H107  1  0.49308000  0.72485000  0.55244000  1.0 0.1406435898
H  H108  1  0.23177000  0.50692000  0.21911000  1.0 0.1406435898
H  H109  1  0.05658000  0.77503000  0.38739000  1.0 0.1234115616
H  H110  1  0.22497000  0.28155000  0.72072000  1.0 0.1234115616
H  H111  1  0.71845000  0.94342000  0.05406000  1.0 0.1234115616
H  H112  1  0.94342000  0.22497000  0.38739000  1.0 0.1234115616
H  H113  1  0.77503000  0.71845000  0.72072000  1.0 0.1234115616
H  H114  1  0.28155000  0.05658000  0.05406000  1.0 0.1234115616
H  H115  1  0.77503000  0.05658000  0.94594000  1.0 0.1234115616
H  H116  1  0.28155000  0.22497000  0.61261000  1.0 0.1234115616
H  H117  1  0.94342000  0.71845000  0.27928000  1.0 0.1234115616
H  H118  1  0.22497000  0.94342000  0.94594000  1.0 0.1234115616
H  H119  1  0.71845000  0.77503000  0.61261000  1.0 0.1234115616
H  H120  1  0.05658000  0.28155000  0.27928000  1.0 0.1234115616
H  H121  1  0.39813000  0.84101000  0.42307000  1.0 0.1060826915
H  H122  1  0.15899000  0.55712000  0.75640000  1.0 0.1060826915
H  H123  1  0.44288000  0.60187000  0.08974000  1.0 0.1060826915
H  H124  1  0.60187000  0.15899000  0.42307000  1.0 0.1060826915
H  H125  1  0.84101000  0.44288000  0.75640000  1.0 0.1060826915
H  H126  1  0.55712000  0.39813000  0.08974000  1.0 0.1060826915
H  H127  1  0.84101000  0.39813000  0.91026000  1.0 0.1060826915
H  H128  1  0.55712000  0.15899000  0.57693000  1.0 0.1060826915
H  H129  1  0.60187000  0.44288000  0.24360000  1.0 0.1060826915
H  H130  1  0.15899000  0.60187000  0.91026000  1.0 0.1060826915
H  H131  1  0.44288000  0.84101000  0.57693000  1.0 0.1060826915
H  H132  1  0.39813000  0.55712000  0.24360000  1.0 0.1060826915
H  H133  1  0.22718000  0.88377000  0.36433000  1.0 0.0910681449
H  H134  1  0.11623000  0.34341000  0.69766000  1.0 0.0910681449
H  H135  1  0.65659000  0.77282000  0.03100000  1.0 0.0910681449
H  H136  1  0.77282000  0.11623000  0.36433000  1.0 0.0910681449
H  H137  1  0.88377000  0.65659000  0.69766000  1.0 0.0910681449
H  H138  1  0.34341000  0.22718000  0.03100000  1.0 0.0910681449
H  H139  1  0.88377000  0.22718000  0.96900000  1.0 0.0910681449
H  H140  1  0.34341000  0.11623000  0.63567000  1.0 0.0910681449
H  H141  1  0.77282000  0.65659000  0.30234000  1.0 0.0910681449
H  H142  1  0.11623000  0.77282000  0.96900000  1.0 0.0910681449
H  H143  1  0.65659000  0.88377000  0.63567000  1.0 0.0910681449
H  H144  1  0.22718000  0.34341000  0.30234000  1.0 0.0910681449
H  H145  1  0.46541000  0.17456000  0.46015000  1.0 0.0910681449
H  H146  1  0.82544000  0.29085000  0.79348000  1.0 0.0910681449
H  H147  1  0.70915000  0.53459000  0.12682000  1.0 0.0910681449
H  H148  1  0.53459000  0.82544000  0.46015000  1.0 0.0910681449
H  H149  1  0.17456000  0.70915000  0.79348000  1.0 0.0910681449
H  H150  1  0.29085000  0.46541000  0.12682000  1.0 0.0910681449
H  H151  1  0.17456000  0.46541000  0.87318000  1.0 0.0910681449
H  H152  1  0.29085000  0.82544000  0.53985000  1.0 0.0910681449
H  H153  1  0.53459000  0.70915000  0.20652000  1.0 0.0910681449
H  H154  1  0.82544000  0.53459000  0.87318000  1.0 0.0910681449
H  H155  1  0.70915000  0.17456000  0.53985000  1.0 0.0910681449
H  H156  1  0.46541000  0.29085000  0.20652000  1.0 0.0910681449
H  H157  1  0.38590000  0.22834000  0.46240000  1.0 0.014473799
H  H158  1  0.77166000  0.15756000  0.79573000  1.0 0.014473799
H  H159  1  0.84244000  0.61410000  0.12907000  1.0 0.0198840466
H  H160  1  0.61410000  0.77166000  0.46240000  1.0 0.014473799
H  H161  1  0.22834000  0.84244000  0.79573000  1.0 0.014473799
H  H162  1  0.15756000  0.38590000  0.12907000  1.0 0.014473799
H  H163  1  0.22834000  0.38590000  0.87093000  1.0 0.014473799
H  H164  1  0.15756000  0.77166000  0.53760000  1.0 0.014473799
H  H165  1  0.61410000  0.84244000  0.20427000  1.0 0.0198840466
H  H166  1  0.77166000  0.61410000  0.87093000  1.0 0.014473799
H  H167  1  0.84244000  0.22834000  0.53760000  1.0 0.014473799
H  H168  1  0.38590000  0.15756000  0.20427000  1.0 0.0198840466
H  H169  1  0.35598000  0.13905000  0.50896000  1.0 0.0910681449
H  H170  1  0.86095000  0.21693000  0.84229000  1.0 0.0910681449
H  H171  1  0.78307000  0.64402000  0.17563000  1.0 0.0910681449
H  H172  1  0.64402000  0.86095000  0.50896000  1.0 0.0910681449
H  H173  1  0.13905000  0.78307000  0.84229000  1.0 0.0910681449
H  H174  1  0.21693000  0.35598000  0.17563000  1.0 0.0910681449
H  H175  1  0.13905000  0.35598000  0.82437000  1.0 0.0910681449
H  H176  1  0.21693000  0.86095000  0.49104000  1.0 0.0910681449
H  H177  1  0.64402000  0.78307000  0.15771000  1.0 0.0910681449
H  H178  1  0.86095000  0.64402000  0.82437000  1.0 0.0910681449
H  H179  1  0.78307000  0.13905000  0.49104000  1.0 0.0910681449
H  H180  1  0.35598000  0.21693000  0.15771000  1.0 0.0910681449
H  H181  1  0.37715000  0.05403000  0.49078000  1.0 0.0729599328
H  H182  1  0.94597000  0.32312000  0.82411000  1.0 0.0729599328
H  H183  1  0.67688000  0.62285000  0.15745000  1.0 0.0729599328
H  H184  1  0.62285000  0.94597000  0.49078000  1.0 0.0729599328
H  H185  1  0.05403000  0.67688000  0.82411000  1.0 0.0729599328
H  H186  1  0.32312000  0.37715000  0.15745000  1.0 0.0729599328
H  H187  1  0.05403000  0.37715000  0.84255000  1.0 0.0729599328
H  H188  1  0.32312000  0.94597000  0.50922000  1.0 0.0729599328
H  H189  1  0.62285000  0.67688000  0.17589000  1.0 0.0729599328
H  H190  1  0.94597000  0.62285000  0.84255000  1.0 0.0729599328
H  H191  1  0.67688000  0.05403000  0.50922000  1.0 0.0729599328
H  H192  1  0.37715000  0.32312000  0.17589000  1.0 0.0729599328
H  H193  1  0.27774000  0.07839000  0.48292000  1.0 0.0910681449
H  H194  1  0.92161000  0.19935000  0.81625000  1.0 0.0910681449
H  H195  1  0.80065000  0.72226000  0.14959000  1.0 0.0910681449
H  H196  1  0.72226000  0.92161000  0.48292000  1.0 0.0910681449
H  H197  1  0.07839000  0.80065000  0.81625000  1.0 0.0910681449
H  H198  1  0.19935000  0.27774000  0.14959000  1.0 0.0910681449
H  H199  1  0.07839000  0.27774000  0.85041000  1.0 0.0910681449
H  H200  1  0.19935000  0.92161000  0.51708000  1.0 0.0910681449
H  H201  1  0.72226000  0.80065000  0.18375000  1.0 0.0910681449
H  H202  1  0.92161000  0.72226000  0.85041000  1.0 0.0910681449
H  H203  1  0.80065000  0.07839000  0.51708000  1.0 0.0910681449
H  H204  1  0.27774000  0.19935000  0.18375000  1.0 0.0910681449
H  H205  1  0.40025000  0.13927000  0.48612000  1.0 -0.0002717527
H  H206  1  0.86073000  0.26098000  0.81945000  1.0 0.0002909729
H  H207  1  0.73902000  0.59975000  0.15279000  1.0 0.0002909729
H  H208  1  0.59975000  0.86073000  0.48612000  1.0 -0.0002717527
H  H209  1  0.13927000  0.73902000  0.81945000  1.0 -0.0002717527
H  H210  1  0.26098000  0.40025000  0.15279000  1.0 0.0002909729
H  H211  1  0.13927000  0.40025000  0.84721000  1.0 -0.0002717527
H  H212  1  0.26098000  0.86073000  0.51388000  1.0 -0.0002717527
H  H213  1  0.59975000  0.73902000  0.18055000  1.0 -0.0002717527
H  H214  1  0.86073000  0.59975000  0.84721000  1.0 -0.0002717527
H  H215  1  0.73902000  0.13927000  0.51388000  1.0 -0.0002717527
H  H216  1  0.40025000  0.26098000  0.18055000  1.0 0.0002909729
H  H217  1  0.45979000  0.18370000  0.45686000  1.0 0.0910681449
H  H218  1  0.81630000  0.27609000  0.79019000  1.0 0.0910681449
H  H219  1  0.72391000  0.54021000  0.12353000  1.0 0.0910681449
H  H220  1  0.54021000  0.81630000  0.45686000  1.0 0.0910681449
H  H221  1  0.18370000  0.72391000  0.79019000  1.0 0.0910681449
H  H222  1  0.27609000  0.45979000  0.12353000  1.0 0.0910681449
H  H223  1  0.18370000  0.45979000  0.87647000  1.0 0.0910681449
H  H224  1  0.27609000  0.81630000  0.54314000  1.0 0.0910681449
H  H225  1  0.54021000  0.72391000  0.20981000  1.0 0.0910681449
H  H226  1  0.81630000  0.54021000  0.87647000  1.0 0.0910681449
H  H227  1  0.72391000  0.18370000  0.54314000  1.0 0.0910681449
H  H228  1  0.45979000  0.27609000  0.20981000  1.0 0.0910681449
H  H229  1  0.30587000  0.24474000  0.48133000  1.0 0.0982355637
H  H230  1  0.75526000  0.06113000  0.81466000  1.0 0.0982355637
H  H231  1  0.93887000  0.69413000  0.14800000  1.0 0.0982355637
H  H232  1  0.69413000  0.75526000  0.48133000  1.0 0.0982355637
H  H233  1  0.24474000  0.93887000  0.81466000  1.0 0.0982355637
H  H234  1  0.06113000  0.30587000  0.14800000  1.0 0.0982355637
H  H235  1  0.24474000  0.30587000  0.85200000  1.0 0.0982355637
H  H236  1  0.06113000  0.75526000  0.51867000  1.0 0.0982355637
H  H237  1  0.69413000  0.93887000  0.18534000  1.0 0.0982355637
H  H238  1  0.75526000  0.69413000  0.85200000  1.0 0.0982355637
H  H239  1  0.93887000  0.24474000  0.51867000  1.0 0.0982355637
H  H240  1  0.30587000  0.06113000  0.18534000  1.0 0.0982355637
H  H241  1  0.27748000  0.16468000  0.45513000  1.0 0.0782565629
H  H242  1  0.83532000  0.11280000  0.78846000  1.0 0.0782565629
H  H243  1  0.88720000  0.72252000  0.12180000  1.0 0.0782565629
H  H244  1  0.72252000  0.83532000  0.45513000  1.0 0.0782565629
H  H245  1  0.16468000  0.88720000  0.78846000  1.0 0.0782565629
H  H246  1  0.11280000  0.27748000  0.12180000  1.0 0.0782565629
H  H247  1  0.16468000  0.27748000  0.87820000  1.0 0.0782565629
H  H248  1  0.11280000  0.83532000  0.54487000  1.0 0.0782565629
H  H249  1  0.72252000  0.88720000  0.21154000  1.0 0.0782565629
H  H250  1  0.83532000  0.72252000  0.87820000  1.0 0.0782565629
H  H251  1  0.88720000  0.16468000  0.54487000  1.0 0.0782565629
H  H252  1  0.27748000  0.11280000  0.21154000  1.0 0.0782565629
H  H253  1  0.36925000  0.29602000  0.45290000  1.0 0.0782565629
H  H254  1  0.70398000  0.07323000  0.78623000  1.0 0.0782565629
H  H255  1  0.92677000  0.63075000  0.11957000  1.0 0.0782565629
H  H256  1  0.63075000  0.70398000  0.45290000  1.0 0.0782565629
H  H257  1  0.29602000  0.92677000  0.78623000  1.0 0.0782565629
H  H258  1  0.07323000  0.36925000  0.11957000  1.0 0.0782565629
H  H259  1  0.29602000  0.36925000  0.88043000  1.0 0.0782565629
H  H260  1  0.07323000  0.70398000  0.54710000  1.0 0.0782565629
H  H261  1  0.63075000  0.92677000  0.21377000  1.0 0.0782565629
H  H262  1  0.70398000  0.63075000  0.88043000  1.0 0.0782565629
H  H263  1  0.92677000  0.29602000  0.54710000  1.0 0.0782565629
H  H264  1  0.36925000  0.07323000  0.21377000  1.0 0.0782565629
C  C1  1  0.67670000  0.48830000  0.39648000  1.0 0.1234115616
C  C2  1  0.51170000  0.18840000  0.72981000  1.0 0.1234115616
C  C3  1  0.81160000  0.32330000  0.06315000  1.0 0.1234115616
C  C4  1  0.32330000  0.51170000  0.39648000  1.0 0.1234115616
C  C5  1  0.48830000  0.81160000  0.72981000  1.0 0.1234115616
C  C6  1  0.18840000  0.67670000  0.06315000  1.0 0.1234115616
C  C7  1  0.48830000  0.67670000  0.93685000  1.0 0.1234115616
C  C8  1  0.18840000  0.51170000  0.60352000  1.0 0.1234115616
C  C9  1  0.32330000  0.81160000  0.27019000  1.0 0.1234115616
C  C10  1  0.51170000  0.32330000  0.93685000  1.0 0.1234115616
C  C11  1  0.81160000  0.48830000  0.60352000  1.0 0.1234115616
C  C12  1  0.67670000  0.18840000  0.27019000  1.0 0.1234115616
C  C13  1  0.70190000  0.59550000  0.38592000  1.0 -0.2107820462
C  C14  1  0.40450000  0.10640000  0.71925000  1.0 -0.2107820462
C  C15  1  0.89360000  0.29810000  0.05259000  1.0 -0.2107820462
C  C16  1  0.29810000  0.40450000  0.38592000  1.0 -0.2107820462
C  C17  1  0.59550000  0.89360000  0.71925000  1.0 -0.2107820462
C  C18  1  0.10640000  0.70190000  0.05259000  1.0 -0.2107820462
C  C19  1  0.59550000  0.70190000  0.94741000  1.0 -0.2107820462
C  C20  1  0.10640000  0.40450000  0.61408000  1.0 -0.2107820462
C  C21  1  0.29810000  0.89360000  0.28075000  1.0 -0.2107820462
C  C22  1  0.40450000  0.29810000  0.94741000  1.0 -0.2107820462
C  C23  1  0.89360000  0.59550000  0.61408000  1.0 -0.2107820462
C  C24  1  0.70190000  0.10640000  0.28075000  1.0 -0.2107820462
C  C25  1  0.66810000  0.60270000  0.35911000  1.0 0.0375613132
C  C26  1  0.39730000  0.06540000  0.69244000  1.0 0.0375613132
C  C27  1  0.93460000  0.33190000  0.02578000  1.0 0.0375613132
C  C28  1  0.33190000  0.39730000  0.35911000  1.0 0.0375613132
C  C29  1  0.60270000  0.93460000  0.69244000  1.0 0.0375613132
C  C30  1  0.06540000  0.66810000  0.02578000  1.0 0.0375613132
C  C31  1  0.60270000  0.66810000  0.97422000  1.0 0.0375613132
C  C32  1  0.06540000  0.39730000  0.64089000  1.0 0.0375613132
C  C33  1  0.33190000  0.93460000  0.30756000  1.0 0.0375613132
C  C34  1  0.39730000  0.33190000  0.97422000  1.0 0.0375613132
C  C35  1  0.93460000  0.60270000  0.64089000  1.0 0.0375613132
C  C36  1  0.66810000  0.06540000  0.30756000  1.0 0.0375613132
C  C37  1  0.62130000  0.39600000  0.37868000  1.0 -0.2107820462
C  C38  1  0.60400000  0.22530000  0.71201000  1.0 -0.2107820462
C  C39  1  0.77470000  0.37870000  0.04535000  1.0 -0.2107820462
C  C40  1  0.37870000  0.60400000  0.37868000  1.0 -0.2107820462
C  C41  1  0.39600000  0.77470000  0.71201000  1.0 -0.2107820462
C  C42  1  0.22530000  0.62130000  0.04535000  1.0 -0.2107820462
C  C43  1  0.39600000  0.62130000  0.95465000  1.0 -0.2107820462
C  C44  1  0.22530000  0.60400000  0.62132000  1.0 -0.2107820462
C  C45  1  0.37870000  0.77470000  0.28799000  1.0 -0.2107820462
C  C46  1  0.60400000  0.37870000  0.95465000  1.0 -0.2107820462
C  C47  1  0.77470000  0.39600000  0.62132000  1.0 -0.2107820462
C  C48  1  0.62130000  0.22530000  0.28799000  1.0 -0.2107820462
C  C49  1  0.59330000  0.41270000  0.35199000  1.0 0.0375613132
C  C50  1  0.58730000  0.18060000  0.68532000  1.0 0.0375613132
C  C51  1  0.81940000  0.40670000  0.01866000  1.0 0.0375613132
C  C52  1  0.40670000  0.58730000  0.35199000  1.0 0.0375613132
C  C53  1  0.41270000  0.81940000  0.68532000  1.0 0.0375613132
C  C54  1  0.18060000  0.59330000  0.01866000  1.0 0.0375613132
C  C55  1  0.41270000  0.59330000  0.98134000  1.0 0.0375613132
C  C56  1  0.18060000  0.58730000  0.64801000  1.0 0.0375613132
C  C57  1  0.40670000  0.81940000  0.31468000  1.0 0.0375613132
C  C58  1  0.58730000  0.40670000  0.98134000  1.0 0.0375613132
C  C59  1  0.81940000  0.41270000  0.64801000  1.0 0.0375613132
C  C60  1  0.59330000  0.18060000  0.31468000  1.0 0.0375613132
C  C61  1  0.80860000  0.53440000  0.43919000  1.0 0.0198840466
C  C62  1  0.46560000  0.27420000  0.77252000  1.0 0.0198840466
C  C63  1  0.72580000  0.19140000  0.10586000  1.0 0.0198840466
C  C64  1  0.19140000  0.46560000  0.43919000  1.0 0.0198840466
C  C65  1  0.53440000  0.72580000  0.77252000  1.0 0.0198840466
C  C66  1  0.27420000  0.80860000  0.10586000  1.0 0.0198840466
C  C67  1  0.53440000  0.80860000  0.89414000  1.0 0.0198840466
C  C68  1  0.27420000  0.46560000  0.56081000  1.0 0.0198840466
C  C69  1  0.19140000  0.72580000  0.22748000  1.0 0.0198840466
C  C70  1  0.46560000  0.19140000  0.89414000  1.0 0.0198840466
C  C71  1  0.72580000  0.53440000  0.56081000  1.0 0.0198840466
C  C72  1  0.80860000  0.27420000  0.22748000  1.0 0.0198840466
C  C73  1  0.81590000  0.51980000  0.46855000  1.0 0.0451929134
C  C74  1  0.48020000  0.29610000  0.80188000  1.0 0.0451929134
C  C75  1  0.70390000  0.18410000  0.13522000  1.0 0.0451929134
C  C76  1  0.18410000  0.48020000  0.46855000  1.0 0.0451929134
C  C77  1  0.51980000  0.70390000  0.80188000  1.0 0.0451929134
C  C78  1  0.29610000  0.81590000  0.13522000  1.0 0.0451929134
C  C79  1  0.51980000  0.81590000  0.86478000  1.0 0.0451929134
C  C80  1  0.29610000  0.48020000  0.53145000  1.0 0.0451929134
C  C81  1  0.18410000  0.70390000  0.19812000  1.0 0.0451929134
C  C82  1  0.48020000  0.18410000  0.86478000  1.0 0.0451929134
C  C83  1  0.70390000  0.51980000  0.53145000  1.0 0.0451929134
C  C84  1  0.81590000  0.29610000  0.19812000  1.0 0.0451929134
C  C85  1  0.61320000  0.37700000  0.47077000  1.0 0.1682617043
C  C86  1  0.62300000  0.23620000  0.80410000  1.0 0.1682617043
C  C87  1  0.76380000  0.38680000  0.13744000  1.0 0.1682617043
C  C88  1  0.38680000  0.62300000  0.47077000  1.0 0.1682617043
C  C89  1  0.37700000  0.76380000  0.80410000  1.0 0.1682617043
C  C90  1  0.23620000  0.61320000  0.13744000  1.0 0.1682617043
C  C91  1  0.37700000  0.61320000  0.86256000  1.0 0.1682617043
C  C92  1  0.23620000  0.62300000  0.52923000  1.0 0.1682617043
C  C93  1  0.38680000  0.76380000  0.19590000  1.0 0.1682617043
C  C94  1  0.62300000  0.38680000  0.86256000  1.0 0.1682617043
C  C95  1  0.76380000  0.37700000  0.52923000  1.0 0.1682617043
C  C96  1  0.61320000  0.23620000  0.19590000  1.0 0.1682617043
C  C97  1  0.69730000  0.47130000  0.42639000  1.0 0.0198840466
C  C98  1  0.52870000  0.22600000  0.75972000  1.0 0.0198840466
C  C99  1  0.77400000  0.30270000  0.09306000  1.0 0.0198840466
C  C100  1  0.30270000  0.52870000  0.42639000  1.0 0.0198840466
C  C101  1  0.47130000  0.77400000  0.75972000  1.0 0.0198840466
C  C102  1  0.22600000  0.69730000  0.09306000  1.0 0.0198840466
C  C103  1  0.47130000  0.69730000  0.90694000  1.0 0.0198840466
C  C104  1  0.22600000  0.52870000  0.57361000  1.0 0.0198840466
C  C105  1  0.30270000  0.77400000  0.24028000  1.0 0.0198840466
C  C106  1  0.52870000  0.30270000  0.90694000  1.0 0.0198840466
C  C107  1  0.77400000  0.47130000  0.57361000  1.0 0.0198840466
C  C108  1  0.69730000  0.22600000  0.24028000  1.0 0.0198840466
C  C109  1  0.60430000  0.39240000  0.44163000  1.0 -0.3204930835
C  C110  1  0.60760000  0.21190000  0.77496000  1.0 -0.3204930835
C  C111  1  0.78810000  0.39570000  0.10830000  1.0 -0.3204930835
C  C112  1  0.39570000  0.60760000  0.44163000  1.0 -0.3204930835
C  C113  1  0.39240000  0.78810000  0.77496000  1.0 -0.3204930835
C  C114  1  0.21190000  0.60430000  0.10830000  1.0 -0.3204930835
C  C115  1  0.39240000  0.60430000  0.89170000  1.0 -0.3204930835
C  C116  1  0.21190000  0.60760000  0.55837000  1.0 -0.3204930835
C  C117  1  0.39570000  0.78810000  0.22504000  1.0 -0.3204930835
C  C118  1  0.60760000  0.39570000  0.89170000  1.0 -0.3204930835
C  C119  1  0.78810000  0.39240000  0.55837000  1.0 -0.3204930835
C  C120  1  0.60430000  0.21190000  0.22504000  1.0 -0.3204930835
C  C121  1  0.71710000  0.44310000  0.48434000  1.0 -0.0544114958
C  C122  1  0.55690000  0.27400000  0.81767000  1.0 -0.05507779
C  C123  1  0.72600000  0.28290000  0.15101000  1.0 -0.05507779
C  C124  1  0.28290000  0.55690000  0.48434000  1.0 -0.05507779
C  C125  1  0.44310000  0.72600000  0.81767000  1.0 -0.0544114958
C  C126  1  0.27400000  0.71710000  0.15101000  1.0 -0.05507779
C  C127  1  0.44310000  0.71710000  0.84899000  1.0 -0.0544114958
C  C128  1  0.27400000  0.55690000  0.51566000  1.0 -0.05507779
C  C129  1  0.28290000  0.72600000  0.18233000  1.0 -0.05507779
C  C130  1  0.55690000  0.28290000  0.84899000  1.0 -0.0544114958
C  C131  1  0.72600000  0.44310000  0.51566000  1.0 -0.0544114958
C  C132  1  0.71710000  0.27400000  0.18233000  1.0 -0.0544114958
C  C133  1  0.90940000  0.60510000  0.42385000  1.0 -0.1974927274
C  C134  1  0.39490000  0.30430000  0.75718000  1.0 -0.1974927274
C  C135  1  0.69570000  0.09060000  0.09052000  1.0 -0.1974927274
C  C136  1  0.09060000  0.39490000  0.42385000  1.0 -0.1974927274
C  C137  1  0.60510000  0.69570000  0.75718000  1.0 -0.1974927274
C  C138  1  0.30430000  0.90940000  0.09052000  1.0 -0.1974927274
C  C139  1  0.60510000  0.90940000  0.90948000  1.0 -0.1974927274
C  C140  1  0.30430000  0.39490000  0.57615000  1.0 -0.1974927274
C  C141  1  0.09060000  0.69570000  0.24282000  1.0 -0.1974927274
C  C142  1  0.39490000  0.09060000  0.90948000  1.0 -0.1974927274
C  C143  1  0.69570000  0.60510000  0.57615000  1.0 -0.1974927274
C  C144  1  0.90940000  0.30430000  0.24282000  1.0 -0.1974927274
C  C145  1  0.92550000  0.58260000  0.48083000  1.0 -0.1327418275
C  C146  1  0.41740000  0.34290000  0.81416000  1.0 -0.1327418275
C  C147  1  0.65710000  0.07450000  0.14750000  1.0 -0.1327418275
C  C148  1  0.07450000  0.41740000  0.48083000  1.0 -0.1327418275
C  C149  1  0.58260000  0.65710000  0.81416000  1.0 -0.1327418275
C  C150  1  0.34290000  0.92550000  0.14750000  1.0 -0.1327418275
C  C151  1  0.58260000  0.92550000  0.85250000  1.0 -0.1327418275
C  C152  1  0.34290000  0.41740000  0.51917000  1.0 -0.1327418275
C  C153  1  0.07450000  0.65710000  0.18584000  1.0 -0.1327418275
C  C154  1  0.41740000  0.07450000  0.85250000  1.0 -0.1327418275
C  C155  1  0.65710000  0.58260000  0.51917000  1.0 -0.1327418275
C  C156  1  0.92550000  0.34290000  0.18584000  1.0 -0.1327418275
C  C157  1  0.01480000  0.66170000  0.43662000  1.0 0.0729599328
C  C158  1  0.33830000  0.35310000  0.76995000  1.0 0.0729599328
C  C159  1  0.64690000  0.98520000  0.10329000  1.0 0.0729599328
C  C160  1  0.98520000  0.33830000  0.43662000  1.0 0.0729599328
C  C161  1  0.66170000  0.64690000  0.76995000  1.0 0.0729599328
C  C162  1  0.35310000  0.01480000  0.10329000  1.0 0.0729599328
C  C163  1  0.66170000  0.01480000  0.89671000  1.0 0.0729599328
C  C164  1  0.35310000  0.33830000  0.56338000  1.0 0.0729599328
C  C165  1  0.98520000  0.64690000  0.23005000  1.0 0.0729599328
C  C166  1  0.33830000  0.98520000  0.89671000  1.0 0.0729599328
C  C167  1  0.64690000  0.66170000  0.56338000  1.0 0.0729599328
C  C168  1  0.01480000  0.35310000  0.23005000  1.0 0.0729599328
C  C169  1  0.02090000  0.65000000  0.46586000  1.0 -0.1152819085
C  C170  1  0.35000000  0.37090000  0.79919000  1.0 -0.1144755471
C  C171  1  0.62910000  0.97910000  0.13253000  1.0 -0.1152819085
C  C172  1  0.97910000  0.35000000  0.46586000  1.0 -0.1144755471
C  C173  1  0.65000000  0.62910000  0.79919000  1.0 -0.1144755471
C  C174  1  0.37090000  0.02090000  0.13253000  1.0 -0.1152819085
C  C175  1  0.65000000  0.02090000  0.86747000  1.0 -0.1152819085
C  C176  1  0.37090000  0.35000000  0.53414000  1.0 -0.1144755471
C  C177  1  0.97910000  0.62910000  0.20081000  1.0 -0.1144755471
C  C178  1  0.35000000  0.97910000  0.86747000  1.0 -0.1152819085
C  C179  1  0.62910000  0.65000000  0.53414000  1.0 -0.1144755471
C  C180  1  0.02090000  0.37090000  0.20081000  1.0 -0.1152819085
C  C181  1  0.12220000  0.73360000  0.42032000  1.0 0.1060826915
C  C182  1  0.26640000  0.38860000  0.75365000  1.0 0.1060826915
C  C183  1  0.61140000  0.87780000  0.08699000  1.0 0.1060826915
C  C184  1  0.87780000  0.26640000  0.42032000  1.0 0.1060826915
C  C185  1  0.73360000  0.61140000  0.75365000  1.0 0.1060826915
C  C186  1  0.38860000  0.12220000  0.08699000  1.0 0.1060826915
C  C187  1  0.73360000  0.12220000  0.91301000  1.0 0.1060826915
C  C188  1  0.38860000  0.26640000  0.57968000  1.0 0.1060826915
C  C189  1  0.87780000  0.61140000  0.24635000  1.0 0.1060826915
C  C190  1  0.26640000  0.87780000  0.91301000  1.0 0.1060826915
C  C191  1  0.61140000  0.73360000  0.57968000  1.0 0.1060826915
C  C192  1  0.12220000  0.38860000  0.24635000  1.0 0.1060826915
C  C193  1  0.22750000  0.75610000  0.43055000  1.0 -0.1881859501
C  C194  1  0.24390000  0.47140000  0.76388000  1.0 -0.1881859501
C  C195  1  0.52860000  0.77250000  0.09722000  1.0 -0.1881859501
C  C196  1  0.77250000  0.24390000  0.43055000  1.0 -0.1881859501
C  C197  1  0.75610000  0.52860000  0.76388000  1.0 -0.1881859501
C  C198  1  0.47140000  0.22750000  0.09722000  1.0 -0.1881859501
C  C199  1  0.75610000  0.22750000  0.90278000  1.0 -0.1881859501
C  C200  1  0.47140000  0.24390000  0.56945000  1.0 -0.1881859501
C  C201  1  0.77250000  0.52860000  0.23612000  1.0 -0.1881859501
C  C202  1  0.24390000  0.77250000  0.90278000  1.0 -0.1881859501
C  C203  1  0.52860000  0.75610000  0.56945000  1.0 -0.1881859501
C  C204  1  0.22750000  0.47140000  0.23612000  1.0 -0.1881859501
C  C205  1  0.12460000  0.78490000  0.39515000  1.0 -0.1974927274
C  C206  1  0.21510000  0.33970000  0.72848000  1.0 -0.1974927274
C  C207  1  0.66030000  0.87540000  0.06182000  1.0 -0.1974927274
C  C208  1  0.87540000  0.21510000  0.39515000  1.0 -0.1974927274
C  C209  1  0.78490000  0.66030000  0.72848000  1.0 -0.1974927274
C  C210  1  0.33970000  0.12460000  0.06182000  1.0 -0.1974927274
C  C211  1  0.78490000  0.12460000  0.93818000  1.0 -0.1974927274
C  C212  1  0.33970000  0.21510000  0.60485000  1.0 -0.1974927274
C  C213  1  0.87540000  0.66030000  0.27152000  1.0 -0.1974927274
C  C214  1  0.21510000  0.87540000  0.93818000  1.0 -0.1974927274
C  C215  1  0.66030000  0.78490000  0.60485000  1.0 -0.1974927274
C  C216  1  0.12460000  0.33970000  0.27152000  1.0 -0.1974927274
C  C217  1  0.32820000  0.82590000  0.41541000  1.0 0.0198840466
C  C218  1  0.17410000  0.50230000  0.74874000  1.0 0.0198840466
C  C219  1  0.49770000  0.67180000  0.08208000  1.0 0.0198840466
C  C220  1  0.67180000  0.17410000  0.41541000  1.0 0.0198840466
C  C221  1  0.82590000  0.49770000  0.74874000  1.0 0.0198840466
C  C222  1  0.50230000  0.32820000  0.08208000  1.0 0.0198840466
C  C223  1  0.82590000  0.32820000  0.91792000  1.0 0.0198840466
C  C224  1  0.50230000  0.17410000  0.58459000  1.0 0.0198840466
C  C225  1  0.67180000  0.49770000  0.25126000  1.0 0.0198840466
C  C226  1  0.17410000  0.67180000  0.91792000  1.0 0.0198840466
C  C227  1  0.49770000  0.82590000  0.58459000  1.0 0.0198840466
C  C228  1  0.32820000  0.50230000  0.25126000  1.0 0.0198840466
C  C229  1  0.22850000  0.85130000  0.38141000  1.0 0.0306275127
C  C230  1  0.14870000  0.37720000  0.71474000  1.0 0.0306275127
C  C231  1  0.62280000  0.77150000  0.04808000  1.0 0.0306275127
C  C232  1  0.77150000  0.14870000  0.38141000  1.0 0.0306275127
C  C233  1  0.85130000  0.62280000  0.71474000  1.0 0.0306275127
C  C234  1  0.37720000  0.22850000  0.04808000  1.0 0.0306275127
C  C235  1  0.85130000  0.22850000  0.95192000  1.0 0.0306275127
C  C236  1  0.37720000  0.14870000  0.61859000  1.0 0.0306275127
C  C237  1  0.77150000  0.62280000  0.28526000  1.0 0.0306275127
C  C238  1  0.14870000  0.77150000  0.95192000  1.0 0.0306275127
C  C239  1  0.62280000  0.85130000  0.61859000  1.0 0.0306275127
C  C240  1  0.22850000  0.37720000  0.28526000  1.0 0.0306275127
C  C241  1  0.43100000  0.20390000  0.47326000  1.0 -0.0255269551
C  C242  1  0.79610000  0.22710000  0.80659000  1.0 -0.0255269551
C  C243  1  0.77290000  0.56900000  0.13993000  1.0 -0.0255269551
C  C244  1  0.56900000  0.79610000  0.47326000  1.0 -0.0255269551
C  C245  1  0.20390000  0.77290000  0.80659000  1.0 -0.0255269551
C  C246  1  0.22710000  0.43100000  0.13993000  1.0 -0.0255269551
C  C247  1  0.20390000  0.43100000  0.86007000  1.0 -0.0255269551
C  C248  1  0.22710000  0.79610000  0.52674000  1.0 -0.0255269551
C  C249  1  0.56900000  0.77290000  0.19341000  1.0 -0.0255269551
C  C250  1  0.79610000  0.56900000  0.86007000  1.0 -0.0255269551
C  C251  1  0.77290000  0.20390000  0.52674000  1.0 -0.0255269551
C  C252  1  0.43100000  0.22710000  0.19341000  1.0 -0.0255269551
C  C253  1  0.35440000  0.11150000  0.49030000  1.0 -0.33683624
C  C254  1  0.88850000  0.24290000  0.82363000  1.0 -0.33683624
C  C255  1  0.75710000  0.64560000  0.15697000  1.0 -0.33683624
C  C256  1  0.64560000  0.88850000  0.49030000  1.0 -0.33683624
C  C257  1  0.11150000  0.75710000  0.82363000  1.0 -0.33683624
C  C258  1  0.24290000  0.35440000  0.15697000  1.0 -0.33683624
C  C259  1  0.11150000  0.35440000  0.84303000  1.0 -0.33683624
C  C260  1  0.24290000  0.88850000  0.50970000  1.0 -0.33683624
C  C261  1  0.64560000  0.75710000  0.17637000  1.0 -0.33683624
C  C262  1  0.88850000  0.64560000  0.84303000  1.0 -0.33683624
C  C263  1  0.75710000  0.11150000  0.50970000  1.0 -0.33683624
C  C264  1  0.35440000  0.24290000  0.17637000  1.0 -0.33683624
C  C265  1  0.33730000  0.23000000  0.46490000  1.0 -0.3204930835
C  C266  1  0.77000000  0.10730000  0.79823000  1.0 -0.3204930835
C  C267  1  0.89270000  0.66270000  0.13157000  1.0 -0.3204930835
C  C268  1  0.66270000  0.77000000  0.46490000  1.0 -0.3204930835
C  C269  1  0.23000000  0.89270000  0.79823000  1.0 -0.3204930835
C  C270  1  0.10730000  0.33730000  0.13157000  1.0 -0.3204930835
C  C271  1  0.23000000  0.33730000  0.86843000  1.0 -0.3204930835
C  C272  1  0.10730000  0.77000000  0.53510000  1.0 -0.3204930835
C  C273  1  0.66270000  0.89270000  0.20177000  1.0 -0.3204930835
C  C274  1  0.77000000  0.66270000  0.86843000  1.0 -0.3204930835
C  C275  1  0.89270000  0.23000000  0.53510000  1.0 -0.3204930835
C  C276  1  0.33730000  0.10730000  0.20177000  1.0 -0.3204930835
N  N1  1  0.61460000  0.51280000  0.34210000  1.0 -0.2199762675
N  N2  1  0.48720000  0.10180000  0.67543000  1.0 -0.2199762675
N  N3  1  0.89820000  0.38540000  0.00877000  1.0 -0.2199762675
N  N4  1  0.38540000  0.48720000  0.34210000  1.0 -0.2199762675
N  N5  1  0.51280000  0.89820000  0.67543000  1.0 -0.2199762675
N  N6  1  0.10180000  0.61460000  0.00877000  1.0 -0.2199762675
N  N7  1  0.51280000  0.61460000  0.99123000  1.0 -0.2199762675
N  N8  1  0.10180000  0.48720000  0.65790000  1.0 -0.2199762675
N  N9  1  0.38540000  0.89820000  0.32457000  1.0 -0.2199762675
N  N10  1  0.48720000  0.38540000  0.99123000  1.0 -0.2199762675
N  N11  1  0.89820000  0.51280000  0.65790000  1.0 -0.2199762675
N  N12  1  0.61460000  0.10180000  0.32457000  1.0 -0.2199762675
N  N13  1  0.32930000  0.87120000  0.39103000  1.0 -0.2363609846
N  N14  1  0.12880000  0.45810000  0.72436000  1.0 -0.2363609846
N  N15  1  0.54190000  0.67070000  0.05770000  1.0 -0.2363609846
N  N16  1  0.67070000  0.12880000  0.39103000  1.0 -0.2363609846
N  N17  1  0.87120000  0.54190000  0.72436000  1.0 -0.2363609846
N  N18  1  0.45810000  0.32930000  0.05770000  1.0 -0.2363609846
N  N19  1  0.87120000  0.32930000  0.94230000  1.0 -0.2363609846
N  N20  1  0.45810000  0.12880000  0.60897000  1.0 -0.2363609846
N  N21  1  0.67070000  0.54190000  0.27564000  1.0 -0.2363609846
N  N22  1  0.12880000  0.67070000  0.94230000  1.0 -0.2363609846
N  N23  1  0.54190000  0.87120000  0.60897000  1.0 -0.2363609846
N  N24  1  0.32930000  0.45810000  0.27564000  1.0 -0.2363609846
O  O1  1  0.52120000  0.30250000  0.48618000  1.0 -0.2902251495
O  O2  1  0.69750000  0.21870000  0.81951000  1.0 -0.2902251495
O  O3  1  0.78130000  0.47880000  0.15285000  1.0 -0.2902251495
O  O4  1  0.47880000  0.69750000  0.48618000  1.0 -0.2902251495
O  O5  1  0.30250000  0.78130000  0.81951000  1.0 -0.2902251495
O  O6  1  0.21870000  0.52120000  0.15285000  1.0 -0.2902251495
O  O7  1  0.30250000  0.52120000  0.84715000  1.0 -0.2902251495
O  O8  1  0.21870000  0.69750000  0.51382000  1.0 -0.2902251495
O  O9  1  0.47880000  0.78130000  0.18049000  1.0 -0.2902251495
O  O10  1  0.69750000  0.47880000  0.84715000  1.0 -0.2902251495
O  O11  1  0.78130000  0.30250000  0.51382000  1.0 -0.2902251495
O  O12  1  0.52120000  0.21870000  0.18049000  1.0 -0.2902251495
