# DDEC6 charges by PACMAN v1.1 (https://github.com/mtap-research/PACMAN-charge/)
data_TILHAY_ASR_pacman
_symmetry_space_group_name_H-M   'P 1'
_cell_length_a   10.02600000
_cell_length_b   10.02600000
_cell_length_c   11.33690000
_cell_angle_alpha   73.21280000
_cell_angle_beta   106.78700000
_cell_angle_gamma   94.60020000
_symmetry_Int_Tables_number   1
_chemical_formula_structural   NaCdH8(C2O)8
_chemical_formula_sum   'Na2 Cd2 H16 C32 O16'
_cell_volume   1044.52749572
_cell_formula_units_Z   2
loop_
 _symmetry_equiv_pos_site_id
 _symmetry_equiv_pos_as_xyz
  1  'x, y, z'
loop_
 _atom_site_type_symbol
 _atom_site_label
 _atom_site_symmetry_multiplicity
 _atom_site_fract_x
 _atom_site_fract_y
 _atom_site_fract_z
 _atom_site_occupancy
 _atom_site_charge
Na  Na1  1  0.00000000  0.00000000  0.00000000  1.0 0.8762993617
Na  Na2  1  0.00000000  0.00000000  0.50000000  1.0 0.8762993617
Cd  Cd1  1  0.87233000  0.87233000  0.75000000  1.0 0.9509403213
Cd  Cd2  1  0.12767000  0.12767000  0.25000000  1.0 0.9509403213
H  H1  1  0.40540000  0.87160000  0.78540000  1.0 0.1365902601
H  H2  1  0.87160000  0.40540000  0.71460000  1.0 0.1365902601
H  H3  1  0.59460000  0.12840000  0.21460000  1.0 0.1365902601
H  H4  1  0.12840000  0.59460000  0.28540000  1.0 0.1365902601
H  H5  1  0.68180000  0.78620000  0.13330000  1.0 0.1257680031
H  H6  1  0.78620000  0.68180000  0.36670000  1.0 0.1257680031
H  H7  1  0.31820000  0.21380000  0.86670000  1.0 0.1257680031
H  H8  1  0.21380000  0.31820000  0.63330000  1.0 0.1257680031
H  H9  1  0.27290000  0.79090000  0.10060000  1.0 0.1365902601
H  H10  1  0.79090000  0.27290000  0.39940000  1.0 0.1365902601
H  H11  1  0.72710000  0.20910000  0.89940000  1.0 0.1365902601
H  H12  1  0.20910000  0.72710000  0.60060000  1.0 0.1365902601
H  H13  1  0.50120000  0.75640000  0.22660000  1.0 0.1249228596
H  H14  1  0.75640000  0.50120000  0.27340000  1.0 0.1249228596
H  H15  1  0.49880000  0.24360000  0.77340000  1.0 0.1249228596
H  H16  1  0.24360000  0.49880000  0.72660000  1.0 0.1249228596
C  C1  1  0.16840000  0.86220000  0.84570000  1.0 0.5863416149
C  C2  1  0.86220000  0.16840000  0.65430000  1.0 0.5863416149
C  C3  1  0.83160000  0.13780000  0.15430000  1.0 0.5863416149
C  C4  1  0.13780000  0.83160000  0.34570000  1.0 0.5863416149
C  C5  1  0.31620000  0.83680000  0.92970000  1.0 -0.0157622834
C  C6  1  0.83680000  0.31620000  0.57030000  1.0 -0.0157622834
C  C7  1  0.68380000  0.16320000  0.07030000  1.0 -0.0157622834
C  C8  1  0.16320000  0.68380000  0.42970000  1.0 -0.0157622834
C  C9  1  0.42480000  0.85020000  0.87410000  1.0 -0.0889142863
C  C10  1  0.85020000  0.42480000  0.62590000  1.0 -0.0889142863
C  C11  1  0.57520000  0.14980000  0.12590000  1.0 -0.0889142863
C  C12  1  0.14980000  0.57520000  0.37410000  1.0 -0.0889142863
C  C13  1  0.56210000  0.83190000  0.94930000  1.0 -0.0092581559
C  C14  1  0.83190000  0.56210000  0.55070000  1.0 -0.0092581559
C  C15  1  0.43790000  0.16810000  0.05070000  1.0 -0.0092581559
C  C16  1  0.16810000  0.43790000  0.44930000  1.0 -0.0092581559
C  C17  1  0.68000000  0.85020000  0.88850000  1.0 0.5656471654
C  C18  1  0.85020000  0.68000000  0.61150000  1.0 0.5656471654
C  C19  1  0.32000000  0.14980000  0.11150000  1.0 0.5656471654
C  C20  1  0.14980000  0.32000000  0.38850000  1.0 0.5656471654
C  C21  1  0.59010000  0.79790000  0.08200000  1.0 -0.0889142863
C  C22  1  0.79790000  0.59010000  0.41800000  1.0 -0.0889142863
C  C23  1  0.40990000  0.20210000  0.91800000  1.0 -0.0889142863
C  C24  1  0.20210000  0.40990000  0.58200000  1.0 -0.0889142863
C  C25  1  0.34500000  0.80120000  0.06250000  1.0 -0.0889142863
C  C26  1  0.80120000  0.34500000  0.43750000  1.0 -0.0889142863
C  C27  1  0.65500000  0.19880000  0.93750000  1.0 -0.0889142863
C  C28  1  0.19880000  0.65500000  0.56250000  1.0 -0.0889142863
C  C29  1  0.48200000  0.78120000  0.13770000  1.0 -0.0889142863
C  C30  1  0.78120000  0.48200000  0.36230000  1.0 -0.0889142863
C  C31  1  0.51800000  0.21880000  0.86230000  1.0 -0.0889142863
C  C32  1  0.21880000  0.51800000  0.63770000  1.0 -0.0889142863
O  O1  1  0.07350000  0.84410000  0.90400000  1.0 -0.5792024927
O  O2  1  0.84410000  0.07350000  0.59600000  1.0 -0.5792024927
O  O3  1  0.92650000  0.15590000  0.09600000  1.0 -0.5792024927
O  O4  1  0.15590000  0.92650000  0.40400000  1.0 -0.5792024927
O  O5  1  0.14230000  0.89570000  0.72700000  1.0 -0.5701193855
O  O6  1  0.89570000  0.14230000  0.77300000  1.0 -0.5701193855
O  O7  1  0.85770000  0.10430000  0.27300000  1.0 -0.5701193855
O  O8  1  0.10430000  0.85770000  0.22700000  1.0 -0.5701193855
O  O9  1  0.80210000  0.85190000  0.95540000  1.0 -0.5701193855
O  O10  1  0.85190000  0.80210000  0.54460000  1.0 -0.5701193855
O  O11  1  0.19790000  0.14810000  0.04460000  1.0 -0.5701193855
O  O12  1  0.14810000  0.19790000  0.45540000  1.0 -0.5701193855
O  O13  1  0.65140000  0.86200000  0.77070000  1.0 -0.4893611566
O  O14  1  0.86200000  0.65140000  0.72930000  1.0 -0.4893611566
O  O15  1  0.34860000  0.13800000  0.22930000  1.0 -0.4893611566
O  O16  1  0.13800000  0.34860000  0.27070000  1.0 -0.4893611566
