# DDEC6 charges by PACMAN v1.1 (https://github.com/mtap-research/PACMAN-charge/)
data_TILPUA_FSR_pacman
_symmetry_space_group_name_H-M   'P 1'
_cell_length_a   17.56320000
_cell_length_b   17.56320000
_cell_length_c   17.56320000
_cell_angle_alpha   90.00000000
_cell_angle_beta   90.00000000
_cell_angle_gamma   90.00000000
_symmetry_Int_Tables_number   1
_chemical_formula_structural   Al14P24H210C36N6O77
_chemical_formula_sum   'Al28 P48 H420 C72 N12 O154'
_cell_volume   5417.64995004
_cell_formula_units_Z   2
loop_
 _symmetry_equiv_pos_site_id
 _symmetry_equiv_pos_as_xyz
  1  'x, y, z'
loop_
 _atom_site_type_symbol
 _atom_site_label
 _atom_site_symmetry_multiplicity
 _atom_site_fract_x
 _atom_site_fract_y
 _atom_site_fract_z
 _atom_site_occupancy
 _atom_site_charge
Al  Al1  1  0.23632000  0.76368000  0.76368000  1.0 1.7123218648
Al  Al2  1  0.76368000  0.76368000  0.23632000  1.0 1.7123218648
Al  Al3  1  0.76368000  0.23632000  0.76368000  1.0 1.7123218648
Al  Al4  1  0.23632000  0.23632000  0.23632000  1.0 1.7123218648
Al  Al5  1  0.31801000  0.92304000  0.56191000  1.0 1.2182096732
Al  Al6  1  0.92304000  0.56191000  0.31801000  1.0 1.2182096732
Al  Al7  1  0.56191000  0.31801000  0.92304000  1.0 1.2182096732
Al  Al8  1  0.92304000  0.68199000  0.43809000  1.0 1.2182096732
Al  Al9  1  0.56191000  0.07696000  0.68199000  1.0 1.2182096732
Al  Al10  1  0.31801000  0.43809000  0.07696000  1.0 1.2105727897
Al  Al11  1  0.68199000  0.07696000  0.56191000  1.0 1.2182096732
Al  Al12  1  0.43809000  0.31801000  0.07696000  1.0 1.2105727897
Al  Al13  1  0.68199000  0.92304000  0.43809000  1.0 1.2182096732
Al  Al14  1  0.07696000  0.43809000  0.31801000  1.0 1.2105727897
Al  Al15  1  0.43809000  0.68199000  0.92304000  1.0 1.2105727897
Al  Al16  1  0.07696000  0.31801000  0.43809000  1.0 1.2105727897
Al  Al17  1  0.43809000  0.92304000  0.68199000  1.0 1.2182096732
Al  Al18  1  0.68199000  0.56191000  0.07696000  1.0 1.2182096732
Al  Al19  1  0.07696000  0.56191000  0.68199000  1.0 1.2105727897
Al  Al20  1  0.56191000  0.92304000  0.31801000  1.0 1.2182096732
Al  Al21  1  0.31801000  0.56191000  0.92304000  1.0 1.2182096732
Al  Al22  1  0.92304000  0.31801000  0.56191000  1.0 1.2182096732
Al  Al23  1  0.92304000  0.43809000  0.68199000  1.0 1.2182096732
Al  Al24  1  0.07696000  0.68199000  0.56191000  1.0 1.2105727897
Al  Al25  1  0.43809000  0.07696000  0.31801000  1.0 1.2105727897
Al  Al26  1  0.68199000  0.43809000  0.92304000  1.0 1.2182096732
Al  Al27  1  0.31801000  0.07696000  0.43809000  1.0 1.2105727897
Al  Al28  1  0.56191000  0.68199000  0.07696000  1.0 1.2182096732
P  P1  1  0.19518000  0.80482000  0.58967000  1.0 0.3572366707
P  P2  1  0.80482000  0.58967000  0.19518000  1.0 0.3572366707
P  P3  1  0.58967000  0.19518000  0.80482000  1.0 0.3572366707
P  P4  1  0.80482000  0.80482000  0.41033000  1.0 0.3572366707
P  P5  1  0.19518000  0.41033000  0.19518000  1.0 0.3572366707
P  P6  1  0.80482000  0.19518000  0.58967000  1.0 0.3572366707
P  P7  1  0.41033000  0.19518000  0.19518000  1.0 0.3572366707
P  P8  1  0.41033000  0.80482000  0.80482000  1.0 0.3572366707
P  P9  1  0.19518000  0.19518000  0.41033000  1.0 0.3572366707
P  P10  1  0.19518000  0.58967000  0.80482000  1.0 0.3547981553
P  P11  1  0.58967000  0.80482000  0.19518000  1.0 0.3572366707
P  P12  1  0.80482000  0.41033000  0.80482000  1.0 0.3572366707
P  P13  1  0.26979000  0.94465000  0.73021000  1.0 1.3136380784
P  P14  1  0.94465000  0.73021000  0.26979000  1.0 1.3136380784
P  P15  1  0.73021000  0.26979000  0.94465000  1.0 1.3136380784
P  P16  1  0.73021000  0.05535000  0.73021000  1.0 1.3136380784
P  P17  1  0.26979000  0.26979000  0.05535000  1.0 1.3136380784
P  P18  1  0.73021000  0.94465000  0.26979000  1.0 1.3136380784
P  P19  1  0.05535000  0.26979000  0.26979000  1.0 1.3136380784
P  P20  1  0.26979000  0.73021000  0.94465000  1.0 1.3136380784
P  P21  1  0.73021000  0.73021000  0.05535000  1.0 1.3136380784
P  P22  1  0.05535000  0.73021000  0.73021000  1.0 1.3136380784
P  P23  1  0.94465000  0.26979000  0.73021000  1.0 1.3136380784
P  P24  1  0.26979000  0.05535000  0.26979000  1.0 1.3136380784
P  P25  1  0.40229000  0.07897000  0.59771000  1.0 0.0404075492
P  P26  1  0.07897000  0.59771000  0.40229000  1.0 0.0404075492
P  P27  1  0.59771000  0.40229000  0.07897000  1.0 0.0404075492
P  P28  1  0.59771000  0.92103000  0.59771000  1.0 0.0404075492
P  P29  1  0.40229000  0.40229000  0.92103000  1.0 0.0404075492
P  P30  1  0.59771000  0.07897000  0.40229000  1.0 0.0404075492
P  P31  1  0.92103000  0.40229000  0.40229000  1.0 0.0404075492
P  P32  1  0.40229000  0.59771000  0.07897000  1.0 0.0404075492
P  P33  1  0.59771000  0.59771000  0.92103000  1.0 0.0404075492
P  P34  1  0.92103000  0.59771000  0.59771000  1.0 0.0404075492
P  P35  1  0.07897000  0.40229000  0.59771000  1.0 0.0404075492
P  P36  1  0.40229000  0.92103000  0.40229000  1.0 0.0404075492
P  P37  1  0.43790000  0.05930000  0.56210000  1.0 0.0806008699
P  P38  1  0.05930000  0.56210000  0.43790000  1.0 0.0806008699
P  P39  1  0.56210000  0.43790000  0.05930000  1.0 0.0806008699
P  P40  1  0.56210000  0.94070000  0.56210000  1.0 0.0806008699
P  P41  1  0.43790000  0.43790000  0.94070000  1.0 0.0806008699
P  P42  1  0.56210000  0.05930000  0.43790000  1.0 0.0806008699
P  P43  1  0.94070000  0.43790000  0.43790000  1.0 0.0806008699
P  P44  1  0.43790000  0.56210000  0.05930000  1.0 0.0806008699
P  P45  1  0.56210000  0.56210000  0.94070000  1.0 0.0806008699
P  P46  1  0.94070000  0.56210000  0.56210000  1.0 0.0806008699
P  P47  1  0.05930000  0.43790000  0.56210000  1.0 0.0806008699
P  P48  1  0.43790000  0.94070000  0.43790000  1.0 0.0806008699
H  H1  1  0.52030000  0.47970000  0.80360000  1.0 -0.0301569967
H  H2  1  0.47970000  0.80360000  0.52030000  1.0 -0.0301569967
H  H3  1  0.80360000  0.52030000  0.47970000  1.0 -0.0301569967
H  H4  1  0.47970000  0.47970000  0.19640000  1.0 -0.0301569967
H  H5  1  0.52030000  0.19640000  0.52030000  1.0 -0.0301569967
H  H6  1  0.47970000  0.52030000  0.80360000  1.0 -0.0301569967
H  H7  1  0.19640000  0.52030000  0.52030000  1.0 -0.0301569967
H  H8  1  0.19640000  0.47970000  0.47970000  1.0 -0.0301569967
H  H9  1  0.52030000  0.52030000  0.19640000  1.0 -0.0301569967
H  H10  1  0.52030000  0.80360000  0.47970000  1.0 -0.0301569967
H  H11  1  0.80360000  0.47970000  0.52030000  1.0 -0.0301569967
H  H12  1  0.47970000  0.19640000  0.47970000  1.0 -0.0301569967
H  H13  1  0.47780000  0.46300000  0.73350000  1.0 0.105959169
H  H14  1  0.46300000  0.73350000  0.47780000  1.0 0.105959169
H  H15  1  0.73350000  0.47780000  0.46300000  1.0 0.105959169
H  H16  1  0.46300000  0.52220000  0.26650000  1.0 0.105959169
H  H17  1  0.73350000  0.53700000  0.52220000  1.0 0.105959169
H  H18  1  0.47780000  0.26650000  0.53700000  1.0 0.105959169
H  H19  1  0.52220000  0.53700000  0.73350000  1.0 0.105959169
H  H20  1  0.26650000  0.47780000  0.53700000  1.0 0.105959169
H  H21  1  0.52220000  0.46300000  0.26650000  1.0 0.105959169
H  H22  1  0.53700000  0.26650000  0.47780000  1.0 0.105959169
H  H23  1  0.26650000  0.52220000  0.46300000  1.0 0.105959169
H  H24  1  0.53700000  0.47780000  0.26650000  1.0 0.105959169
H  H25  1  0.26650000  0.46300000  0.52220000  1.0 0.105959169
H  H26  1  0.52220000  0.73350000  0.53700000  1.0 0.105959169
H  H27  1  0.53700000  0.73350000  0.52220000  1.0 0.105959169
H  H28  1  0.73350000  0.46300000  0.47780000  1.0 0.105959169
H  H29  1  0.47780000  0.73350000  0.46300000  1.0 0.105959169
H  H30  1  0.46300000  0.47780000  0.73350000  1.0 0.105959169
H  H31  1  0.46300000  0.26650000  0.52220000  1.0 0.105959169
H  H32  1  0.53700000  0.52220000  0.73350000  1.0 0.105959169
H  H33  1  0.26650000  0.53700000  0.47780000  1.0 0.105959169
H  H34  1  0.52220000  0.26650000  0.46300000  1.0 0.105959169
H  H35  1  0.47780000  0.53700000  0.26650000  1.0 0.105959169
H  H36  1  0.73350000  0.52220000  0.53700000  1.0 0.105959169
H  H37  1  0.14410000  0.45970000  0.49100000  1.0 0.0983380805
H  H38  1  0.45970000  0.49100000  0.14410000  1.0 0.0983380805
H  H39  1  0.49100000  0.14410000  0.45970000  1.0 0.0983380805
H  H40  1  0.45970000  0.85590000  0.50900000  1.0 0.0983380805
H  H41  1  0.49100000  0.54030000  0.85590000  1.0 0.0983380805
H  H42  1  0.14410000  0.50900000  0.54030000  1.0 0.0983380805
H  H43  1  0.85590000  0.54030000  0.49100000  1.0 0.0983380805
H  H44  1  0.50900000  0.14410000  0.54030000  1.0 0.0983380805
H  H45  1  0.85590000  0.45970000  0.50900000  1.0 0.0983380805
H  H46  1  0.54030000  0.50900000  0.14410000  1.0 0.0983380805
H  H47  1  0.50900000  0.85590000  0.45970000  1.0 0.0983380805
H  H48  1  0.54030000  0.14410000  0.50900000  1.0 0.0983380805
H  H49  1  0.50900000  0.45970000  0.85590000  1.0 0.0983380805
H  H50  1  0.85590000  0.49100000  0.54030000  1.0 0.0983380805
H  H51  1  0.54030000  0.49100000  0.85590000  1.0 0.0983380805
H  H52  1  0.49100000  0.45970000  0.14410000  1.0 0.0983380805
H  H53  1  0.14410000  0.49100000  0.45970000  1.0 0.0983380805
H  H54  1  0.45970000  0.14410000  0.49100000  1.0 0.0983380805
H  H55  1  0.45970000  0.50900000  0.85590000  1.0 0.0983380805
H  H56  1  0.54030000  0.85590000  0.49100000  1.0 0.0983380805
H  H57  1  0.50900000  0.54030000  0.14410000  1.0 0.0983380805
H  H58  1  0.85590000  0.50900000  0.45970000  1.0 0.0983380805
H  H59  1  0.14410000  0.54030000  0.50900000  1.0 0.0983380805
H  H60  1  0.49100000  0.85590000  0.54030000  1.0 0.0983380805
H  H61  1  0.15310000  0.52970000  0.52970000  1.0 0.1277464733
H  H62  1  0.52970000  0.52970000  0.15310000  1.0 0.1277464733
H  H63  1  0.52970000  0.15310000  0.52970000  1.0 0.1277464733
H  H64  1  0.52970000  0.84690000  0.47030000  1.0 0.1277464733
H  H65  1  0.52970000  0.47030000  0.84690000  1.0 0.1277464733
H  H66  1  0.15310000  0.47030000  0.47030000  1.0 0.1277464733
H  H67  1  0.84690000  0.47030000  0.52970000  1.0 0.1249496065
H  H68  1  0.47030000  0.15310000  0.47030000  1.0 0.1277464733
H  H69  1  0.84690000  0.52970000  0.47030000  1.0 0.1249496065
H  H70  1  0.47030000  0.47030000  0.15310000  1.0 0.1277464733
H  H71  1  0.47030000  0.84690000  0.52970000  1.0 0.1277464733
H  H72  1  0.47030000  0.52970000  0.84690000  1.0 0.1277464733
H  H73  1  0.18030000  0.52690000  0.45680000  1.0 0.0627258927
H  H74  1  0.52690000  0.45680000  0.18030000  1.0 0.0627258927
H  H75  1  0.45680000  0.18030000  0.52690000  1.0 0.0627258927
H  H76  1  0.52690000  0.81970000  0.54320000  1.0 0.0627258927
H  H77  1  0.45680000  0.47310000  0.81970000  1.0 0.0627258927
H  H78  1  0.18030000  0.54320000  0.47310000  1.0 0.0627258927
H  H79  1  0.81970000  0.47310000  0.45680000  1.0 0.0627258927
H  H80  1  0.54320000  0.18030000  0.47310000  1.0 0.0627258927
H  H81  1  0.81970000  0.52690000  0.54320000  1.0 0.0627258927
H  H82  1  0.47310000  0.54320000  0.18030000  1.0 0.0627258927
H  H83  1  0.54320000  0.81970000  0.52690000  1.0 0.0627258927
H  H84  1  0.47310000  0.18030000  0.54320000  1.0 0.0627258927
H  H85  1  0.54320000  0.52690000  0.81970000  1.0 0.0627258927
H  H86  1  0.81970000  0.45680000  0.47310000  1.0 0.0627258927
H  H87  1  0.47310000  0.45680000  0.81970000  1.0 0.0627258927
H  H88  1  0.45680000  0.52690000  0.18030000  1.0 0.0627258927
H  H89  1  0.18030000  0.45680000  0.52690000  1.0 0.0627258927
H  H90  1  0.52690000  0.18030000  0.45680000  1.0 0.0627258927
H  H91  1  0.52690000  0.54320000  0.81970000  1.0 0.0627258927
H  H92  1  0.47310000  0.81970000  0.45680000  1.0 0.0627258927
H  H93  1  0.54320000  0.47310000  0.18030000  1.0 0.0627258927
H  H94  1  0.81970000  0.54320000  0.52690000  1.0 0.0627258927
H  H95  1  0.18030000  0.47310000  0.54320000  1.0 0.0627258927
H  H96  1  0.45680000  0.81970000  0.47310000  1.0 0.0627258927
H  H97  1  0.46290000  0.59780000  0.79220000  1.0 0.0983380805
H  H98  1  0.59780000  0.79220000  0.46290000  1.0 0.0983380805
H  H99  1  0.79220000  0.46290000  0.59780000  1.0 0.0983380805
H  H100  1  0.59780000  0.53710000  0.20780000  1.0 0.0983380805
H  H101  1  0.79220000  0.40220000  0.53710000  1.0 0.0983380805
H  H102  1  0.46290000  0.20780000  0.40220000  1.0 0.0983380805
H  H103  1  0.53710000  0.40220000  0.79220000  1.0 0.0983380805
H  H104  1  0.20780000  0.46290000  0.40220000  1.0 0.0983380805
H  H105  1  0.53710000  0.59780000  0.20780000  1.0 0.0983380805
H  H106  1  0.40220000  0.20780000  0.46290000  1.0 0.0983380805
H  H107  1  0.20780000  0.53710000  0.59780000  1.0 0.0983380805
H  H108  1  0.40220000  0.46290000  0.20780000  1.0 0.0983380805
H  H109  1  0.20780000  0.59780000  0.53710000  1.0 0.0983380805
H  H110  1  0.53710000  0.79220000  0.40220000  1.0 0.0983380805
H  H111  1  0.40220000  0.79220000  0.53710000  1.0 0.0983380805
H  H112  1  0.79220000  0.59780000  0.46290000  1.0 0.0983380805
H  H113  1  0.46290000  0.79220000  0.59780000  1.0 0.0983380805
H  H114  1  0.59780000  0.46290000  0.79220000  1.0 0.0983380805
H  H115  1  0.59780000  0.20780000  0.53710000  1.0 0.0983380805
H  H116  1  0.40220000  0.53710000  0.79220000  1.0 0.0983380805
H  H117  1  0.20780000  0.40220000  0.46290000  1.0 0.0983380805
H  H118  1  0.53710000  0.20780000  0.59780000  1.0 0.0983380805
H  H119  1  0.46290000  0.40220000  0.20780000  1.0 0.0983380805
H  H120  1  0.79220000  0.53710000  0.40220000  1.0 0.0983380805
H  H121  1  0.40020000  0.53510000  0.79220000  1.0 0.0983380805
H  H122  1  0.53510000  0.79220000  0.40020000  1.0 0.0983380805
H  H123  1  0.79220000  0.40020000  0.53510000  1.0 0.0983380805
H  H124  1  0.53510000  0.59980000  0.20780000  1.0 0.0983380805
H  H125  1  0.79220000  0.46490000  0.59980000  1.0 0.0983380805
H  H126  1  0.40020000  0.20780000  0.46490000  1.0 0.0983380805
H  H127  1  0.59980000  0.46490000  0.79220000  1.0 0.0983380805
H  H128  1  0.20780000  0.40020000  0.46490000  1.0 0.0983380805
H  H129  1  0.59980000  0.53510000  0.20780000  1.0 0.0983380805
H  H130  1  0.46490000  0.20780000  0.40020000  1.0 0.0983380805
H  H131  1  0.20780000  0.59980000  0.53510000  1.0 0.0983380805
H  H132  1  0.46490000  0.40020000  0.20780000  1.0 0.0983380805
H  H133  1  0.20780000  0.53510000  0.59980000  1.0 0.0983380805
H  H134  1  0.59980000  0.79220000  0.46490000  1.0 0.0983380805
H  H135  1  0.46490000  0.79220000  0.59980000  1.0 0.0983380805
H  H136  1  0.79220000  0.53510000  0.40020000  1.0 0.0983380805
H  H137  1  0.40020000  0.79220000  0.53510000  1.0 0.0983380805
H  H138  1  0.53510000  0.40020000  0.79220000  1.0 0.0983380805
H  H139  1  0.53510000  0.20780000  0.59980000  1.0 0.0983380805
H  H140  1  0.46490000  0.59980000  0.79220000  1.0 0.0983380805
H  H141  1  0.20780000  0.46490000  0.40020000  1.0 0.0983380805
H  H142  1  0.59980000  0.20780000  0.53510000  1.0 0.0983380805
H  H143  1  0.40020000  0.46490000  0.20780000  1.0 0.0983380805
H  H144  1  0.79220000  0.59980000  0.46490000  1.0 0.0983380805
H  H145  1  0.43780000  0.56220000  0.63650000  1.0 0.091096022
H  H146  1  0.56220000  0.63650000  0.43780000  1.0 0.091096022
H  H147  1  0.63650000  0.43780000  0.56220000  1.0 0.091096022
H  H148  1  0.56220000  0.56220000  0.36350000  1.0 0.091096022
H  H149  1  0.43780000  0.36350000  0.43780000  1.0 0.091096022
H  H150  1  0.56220000  0.43780000  0.63650000  1.0 0.091096022
H  H151  1  0.36350000  0.43780000  0.43780000  1.0 0.091096022
H  H152  1  0.36350000  0.56220000  0.56220000  1.0 0.091096022
H  H153  1  0.43780000  0.43780000  0.36350000  1.0 0.091096022
H  H154  1  0.43780000  0.63650000  0.56220000  1.0 0.091096022
H  H155  1  0.63650000  0.56220000  0.43780000  1.0 0.091096022
H  H156  1  0.56220000  0.36350000  0.56220000  1.0 0.091096022
H  H157  1  0.43300000  0.64480000  0.67550000  1.0 0.0404075492
H  H158  1  0.64480000  0.67550000  0.43300000  1.0 0.0404075492
H  H159  1  0.67550000  0.43300000  0.64480000  1.0 0.0404075492
H  H160  1  0.64480000  0.56700000  0.32450000  1.0 0.0404075492
H  H161  1  0.67550000  0.35520000  0.56700000  1.0 0.0404075492
H  H162  1  0.43300000  0.32450000  0.35520000  1.0 0.0404075492
H  H163  1  0.56700000  0.35520000  0.67550000  1.0 0.0404075492
H  H164  1  0.32450000  0.43300000  0.35520000  1.0 0.0404075492
H  H165  1  0.56700000  0.64480000  0.32450000  1.0 0.0404075492
H  H166  1  0.35520000  0.32450000  0.43300000  1.0 0.0404075492
H  H167  1  0.32450000  0.56700000  0.64480000  1.0 0.0404075492
H  H168  1  0.35520000  0.43300000  0.32450000  1.0 0.0404075492
H  H169  1  0.32450000  0.64480000  0.56700000  1.0 0.0404075492
H  H170  1  0.56700000  0.67550000  0.35520000  1.0 0.0404075492
H  H171  1  0.35520000  0.67550000  0.56700000  1.0 0.0404075492
H  H172  1  0.67550000  0.64480000  0.43300000  1.0 0.0404075492
H  H173  1  0.43300000  0.67550000  0.64480000  1.0 0.0404075492
H  H174  1  0.64480000  0.43300000  0.67550000  1.0 0.0404075492
H  H175  1  0.64480000  0.32450000  0.56700000  1.0 0.0404075492
H  H176  1  0.35520000  0.56700000  0.67550000  1.0 0.0404075492
H  H177  1  0.32450000  0.35520000  0.43300000  1.0 0.0404075492
H  H178  1  0.56700000  0.32450000  0.64480000  1.0 0.0404075492
H  H179  1  0.43300000  0.35520000  0.32450000  1.0 0.0404075492
H  H180  1  0.67550000  0.56700000  0.35520000  1.0 0.0404075492
H  H181  1  0.31860000  0.58860000  0.71280000  1.0 0.091096022
H  H182  1  0.58860000  0.71280000  0.31860000  1.0 0.091096022
H  H183  1  0.71280000  0.31860000  0.58860000  1.0 0.091096022
H  H184  1  0.58860000  0.68140000  0.28720000  1.0 0.091096022
H  H185  1  0.71280000  0.41140000  0.68140000  1.0 0.091096022
H  H186  1  0.31860000  0.28720000  0.41140000  1.0 0.091096022
H  H187  1  0.68140000  0.41140000  0.71280000  1.0 0.091096022
H  H188  1  0.28720000  0.31860000  0.41140000  1.0 0.091096022
H  H189  1  0.68140000  0.58860000  0.28720000  1.0 0.091096022
H  H190  1  0.41140000  0.28720000  0.31860000  1.0 0.091096022
H  H191  1  0.28720000  0.68140000  0.58860000  1.0 0.091096022
H  H192  1  0.41140000  0.31860000  0.28720000  1.0 0.091096022
H  H193  1  0.28720000  0.58860000  0.68140000  1.0 0.091096022
H  H194  1  0.68140000  0.71280000  0.41140000  1.0 0.091096022
H  H195  1  0.41140000  0.71280000  0.68140000  1.0 0.091096022
H  H196  1  0.71280000  0.58860000  0.31860000  1.0 0.091096022
H  H197  1  0.31860000  0.71280000  0.58860000  1.0 0.091096022
H  H198  1  0.58860000  0.31860000  0.71280000  1.0 0.091096022
H  H199  1  0.58860000  0.28720000  0.68140000  1.0 0.091096022
H  H200  1  0.41140000  0.68140000  0.71280000  1.0 0.091096022
H  H201  1  0.28720000  0.41140000  0.31860000  1.0 0.091096022
H  H202  1  0.68140000  0.28720000  0.58860000  1.0 0.091096022
H  H203  1  0.31860000  0.41140000  0.28720000  1.0 0.091096022
H  H204  1  0.71280000  0.68140000  0.41140000  1.0 0.091096022
H  H205  1  0.32460000  0.50150000  0.69210000  1.0 0.0983380805
H  H206  1  0.50150000  0.69210000  0.32460000  1.0 0.0983380805
H  H207  1  0.69210000  0.32460000  0.50150000  1.0 0.0983380805
H  H208  1  0.50150000  0.67540000  0.30790000  1.0 0.0983380805
H  H209  1  0.69210000  0.49850000  0.67540000  1.0 0.0983380805
H  H210  1  0.32460000  0.30790000  0.49850000  1.0 0.0983380805
H  H211  1  0.67540000  0.49850000  0.69210000  1.0 0.0983380805
H  H212  1  0.30790000  0.32460000  0.49850000  1.0 0.0983380805
H  H213  1  0.67540000  0.50150000  0.30790000  1.0 0.0983380805
H  H214  1  0.49850000  0.30790000  0.32460000  1.0 0.0983380805
H  H215  1  0.30790000  0.67540000  0.50150000  1.0 0.0983380805
H  H216  1  0.49850000  0.32460000  0.30790000  1.0 0.0983380805
H  H217  1  0.30790000  0.50150000  0.67540000  1.0 0.0983380805
H  H218  1  0.67540000  0.69210000  0.49850000  1.0 0.0983380805
H  H219  1  0.49850000  0.69210000  0.67540000  1.0 0.0983380805
H  H220  1  0.69210000  0.50150000  0.32460000  1.0 0.0983380805
H  H221  1  0.32460000  0.69210000  0.50150000  1.0 0.0983380805
H  H222  1  0.50150000  0.32460000  0.69210000  1.0 0.0983380805
H  H223  1  0.50150000  0.30790000  0.67540000  1.0 0.0983380805
H  H224  1  0.49850000  0.67540000  0.69210000  1.0 0.0983380805
H  H225  1  0.30790000  0.49850000  0.32460000  1.0 0.0983380805
H  H226  1  0.67540000  0.30790000  0.50150000  1.0 0.0983380805
H  H227  1  0.32460000  0.49850000  0.30790000  1.0 0.0983380805
H  H228  1  0.69210000  0.67540000  0.49850000  1.0 0.0983380805
H  H229  1  0.31980000  0.63600000  0.58160000  1.0 0.091096022
H  H230  1  0.63600000  0.58160000  0.31980000  1.0 0.091096022
H  H231  1  0.58160000  0.31980000  0.63600000  1.0 0.091096022
H  H232  1  0.63600000  0.68020000  0.41840000  1.0 0.091096022
H  H233  1  0.58160000  0.36400000  0.68020000  1.0 0.091096022
H  H234  1  0.31980000  0.41840000  0.36400000  1.0 0.091096022
H  H235  1  0.68020000  0.36400000  0.58160000  1.0 0.091096022
H  H236  1  0.41840000  0.31980000  0.36400000  1.0 0.091096022
H  H237  1  0.68020000  0.63600000  0.41840000  1.0 0.091096022
H  H238  1  0.36400000  0.41840000  0.31980000  1.0 0.091096022
H  H239  1  0.41840000  0.68020000  0.63600000  1.0 0.091096022
H  H240  1  0.36400000  0.31980000  0.41840000  1.0 0.091096022
H  H241  1  0.41840000  0.63600000  0.68020000  1.0 0.091096022
H  H242  1  0.68020000  0.58160000  0.36400000  1.0 0.091096022
H  H243  1  0.36400000  0.58160000  0.68020000  1.0 0.091096022
H  H244  1  0.58160000  0.63600000  0.31980000  1.0 0.091096022
H  H245  1  0.31980000  0.58160000  0.63600000  1.0 0.091096022
H  H246  1  0.63600000  0.31980000  0.58160000  1.0 0.091096022
H  H247  1  0.63600000  0.41840000  0.68020000  1.0 0.091096022
H  H248  1  0.36400000  0.68020000  0.58160000  1.0 0.091096022
H  H249  1  0.41840000  0.36400000  0.31980000  1.0 0.091096022
H  H250  1  0.68020000  0.41840000  0.63600000  1.0 0.091096022
H  H251  1  0.31980000  0.36400000  0.41840000  1.0 0.091096022
H  H252  1  0.58160000  0.68020000  0.36400000  1.0 0.091096022
H  H253  1  0.25710000  0.57560000  0.59790000  1.0 0.0045926705
H  H254  1  0.57560000  0.59790000  0.25710000  1.0 0.0045926705
H  H255  1  0.59790000  0.25710000  0.57560000  1.0 0.0045926705
H  H256  1  0.57560000  0.74290000  0.40210000  1.0 0.0053655155
H  H257  1  0.59790000  0.42440000  0.74290000  1.0 0.0053655155
H  H258  1  0.25710000  0.40210000  0.42440000  1.0 0.0053655155
H  H259  1  0.74290000  0.42440000  0.59790000  1.0 0.0053655155
H  H260  1  0.40210000  0.25710000  0.42440000  1.0 0.0053655155
H  H261  1  0.74290000  0.57560000  0.40210000  1.0 0.0053655155
H  H262  1  0.42440000  0.40210000  0.25710000  1.0 0.0053655155
H  H263  1  0.40210000  0.74290000  0.57560000  1.0 0.0053655155
H  H264  1  0.42440000  0.25710000  0.40210000  1.0 0.0053655155
H  H265  1  0.40210000  0.57560000  0.74290000  1.0 0.0053655155
H  H266  1  0.74290000  0.59790000  0.42440000  1.0 0.0053655155
H  H267  1  0.42440000  0.59790000  0.74290000  1.0 0.0053655155
H  H268  1  0.59790000  0.57560000  0.25710000  1.0 0.0045926705
H  H269  1  0.25710000  0.59790000  0.57560000  1.0 0.0045926705
H  H270  1  0.57560000  0.25710000  0.59790000  1.0 0.0045926705
H  H271  1  0.57560000  0.40210000  0.74290000  1.0 0.0053655155
H  H272  1  0.42440000  0.74290000  0.59790000  1.0 0.0053655155
H  H273  1  0.40210000  0.42440000  0.25710000  1.0 0.0053655155
H  H274  1  0.74290000  0.40210000  0.57560000  1.0 0.0053655155
H  H275  1  0.25710000  0.42440000  0.40210000  1.0 0.0053655155
H  H276  1  0.59790000  0.74290000  0.42440000  1.0 0.0053655155
H  H277  1  0.35960000  0.50620000  0.56360000  1.0 0.070505964
H  H278  1  0.50620000  0.56360000  0.35960000  1.0 0.070505964
H  H279  1  0.56360000  0.35960000  0.50620000  1.0 0.070505964
H  H280  1  0.50620000  0.64040000  0.43640000  1.0 0.070505964
H  H281  1  0.56360000  0.49380000  0.64040000  1.0 0.070505964
H  H282  1  0.35960000  0.43640000  0.49380000  1.0 0.070505964
H  H283  1  0.64040000  0.49380000  0.56360000  1.0 0.070505964
H  H284  1  0.43640000  0.35960000  0.49380000  1.0 0.070505964
H  H285  1  0.64040000  0.50620000  0.43640000  1.0 0.070505964
H  H286  1  0.49380000  0.43640000  0.35960000  1.0 0.070505964
H  H287  1  0.43640000  0.64040000  0.50620000  1.0 0.070505964
H  H288  1  0.49380000  0.35960000  0.43640000  1.0 0.070505964
H  H289  1  0.43640000  0.50620000  0.64040000  1.0 0.070505964
H  H290  1  0.64040000  0.56360000  0.49380000  1.0 0.070505964
H  H291  1  0.49380000  0.56360000  0.64040000  1.0 0.070505964
H  H292  1  0.56360000  0.50620000  0.35960000  1.0 0.070505964
H  H293  1  0.35960000  0.56360000  0.50620000  1.0 0.070505964
H  H294  1  0.50620000  0.35960000  0.56360000  1.0 0.070505964
H  H295  1  0.50620000  0.43640000  0.64040000  1.0 0.070505964
H  H296  1  0.49380000  0.64040000  0.56360000  1.0 0.070505964
H  H297  1  0.43640000  0.49380000  0.35960000  1.0 0.070505964
H  H298  1  0.64040000  0.43640000  0.50620000  1.0 0.070505964
H  H299  1  0.35960000  0.49380000  0.43640000  1.0 0.070505964
H  H300  1  0.56360000  0.64040000  0.49380000  1.0 0.070505964
H  H301  1  0.32250000  0.54840000  0.49530000  1.0 0.0806008699
H  H302  1  0.54840000  0.49530000  0.32250000  1.0 0.0806008699
H  H303  1  0.49530000  0.32250000  0.54840000  1.0 0.0806008699
H  H304  1  0.54840000  0.67750000  0.50470000  1.0 0.0806008699
H  H305  1  0.49530000  0.45160000  0.67750000  1.0 0.0806008699
H  H306  1  0.32250000  0.50470000  0.45160000  1.0 0.0806008699
H  H307  1  0.67750000  0.45160000  0.49530000  1.0 0.0806008699
H  H308  1  0.50470000  0.32250000  0.45160000  1.0 0.0806008699
H  H309  1  0.67750000  0.54840000  0.50470000  1.0 0.0806008699
H  H310  1  0.45160000  0.50470000  0.32250000  1.0 0.0806008699
H  H311  1  0.50470000  0.67750000  0.54840000  1.0 0.0806008699
H  H312  1  0.45160000  0.32250000  0.50470000  1.0 0.0806008699
H  H313  1  0.50470000  0.54840000  0.67750000  1.0 0.0806008699
H  H314  1  0.67750000  0.49530000  0.45160000  1.0 0.0806008699
H  H315  1  0.45160000  0.49530000  0.67750000  1.0 0.0806008699
H  H316  1  0.49530000  0.54840000  0.32250000  1.0 0.0806008699
H  H317  1  0.32250000  0.49530000  0.54840000  1.0 0.0806008699
H  H318  1  0.54840000  0.32250000  0.49530000  1.0 0.0806008699
H  H319  1  0.54840000  0.50470000  0.67750000  1.0 0.0806008699
H  H320  1  0.45160000  0.67750000  0.49530000  1.0 0.0806008699
H  H321  1  0.50470000  0.45160000  0.32250000  1.0 0.0806008699
H  H322  1  0.67750000  0.50470000  0.54840000  1.0 0.0806008699
H  H323  1  0.32250000  0.45160000  0.50470000  1.0 0.0806008699
H  H324  1  0.49530000  0.67750000  0.45160000  1.0 0.0806008699
H  H325  1  0.26870000  0.43440000  0.48940000  1.0 0.0627258927
H  H326  1  0.43440000  0.48940000  0.26870000  1.0 0.0627258927
H  H327  1  0.48940000  0.26870000  0.43440000  1.0 0.0627258927
H  H328  1  0.43440000  0.73130000  0.51060000  1.0 0.0627258927
H  H329  1  0.48940000  0.56560000  0.73130000  1.0 0.0627258927
H  H330  1  0.26870000  0.51060000  0.56560000  1.0 0.0627258927
H  H331  1  0.73130000  0.56560000  0.48940000  1.0 0.0627258927
H  H332  1  0.51060000  0.26870000  0.56560000  1.0 0.0627258927
H  H333  1  0.73130000  0.43440000  0.51060000  1.0 0.0627258927
H  H334  1  0.56560000  0.51060000  0.26870000  1.0 0.0627258927
H  H335  1  0.51060000  0.73130000  0.43440000  1.0 0.0627258927
H  H336  1  0.56560000  0.26870000  0.51060000  1.0 0.0627258927
H  H337  1  0.51060000  0.43440000  0.73130000  1.0 0.0627258927
H  H338  1  0.73130000  0.48940000  0.56560000  1.0 0.0627258927
H  H339  1  0.56560000  0.48940000  0.73130000  1.0 0.0627258927
H  H340  1  0.48940000  0.43440000  0.26870000  1.0 0.0627258927
H  H341  1  0.26870000  0.48940000  0.43440000  1.0 0.0627258927
H  H342  1  0.43440000  0.26870000  0.48940000  1.0 0.0627258927
H  H343  1  0.43440000  0.51060000  0.73130000  1.0 0.0627258927
H  H344  1  0.56560000  0.73130000  0.48940000  1.0 0.0627258927
H  H345  1  0.51060000  0.56560000  0.26870000  1.0 0.0627258927
H  H346  1  0.73130000  0.51060000  0.43440000  1.0 0.0627258927
H  H347  1  0.26870000  0.56560000  0.51060000  1.0 0.0627258927
H  H348  1  0.48940000  0.73130000  0.56560000  1.0 0.0627258927
H  H349  1  0.23990000  0.43740000  0.57310000  1.0 0.1277464733
H  H350  1  0.43740000  0.57310000  0.23990000  1.0 0.1277464733
H  H351  1  0.57310000  0.23990000  0.43740000  1.0 0.1277464733
H  H352  1  0.43740000  0.76010000  0.42690000  1.0 0.1277464733
H  H353  1  0.57310000  0.56260000  0.76010000  1.0 0.1277464733
H  H354  1  0.23990000  0.42690000  0.56260000  1.0 0.1277464733
H  H355  1  0.76010000  0.56260000  0.57310000  1.0 0.1277464733
H  H356  1  0.42690000  0.23990000  0.56260000  1.0 0.1277464733
H  H357  1  0.76010000  0.43740000  0.42690000  1.0 0.1277464733
H  H358  1  0.56260000  0.42690000  0.23990000  1.0 0.1277464733
H  H359  1  0.42690000  0.76010000  0.43740000  1.0 0.1277464733
H  H360  1  0.56260000  0.23990000  0.42690000  1.0 0.1277464733
H  H361  1  0.42690000  0.43740000  0.76010000  1.0 0.1277464733
H  H362  1  0.76010000  0.57310000  0.56260000  1.0 0.1277464733
H  H363  1  0.56260000  0.57310000  0.76010000  1.0 0.1277464733
H  H364  1  0.57310000  0.43740000  0.23990000  1.0 0.1277464733
H  H365  1  0.23990000  0.57310000  0.43740000  1.0 0.1277464733
H  H366  1  0.43740000  0.23990000  0.57310000  1.0 0.1277464733
H  H367  1  0.43740000  0.42690000  0.76010000  1.0 0.1277464733
H  H368  1  0.56260000  0.76010000  0.57310000  1.0 0.1277464733
H  H369  1  0.42690000  0.56260000  0.23990000  1.0 0.1277464733
H  H370  1  0.76010000  0.42690000  0.43740000  1.0 0.1277464733
H  H371  1  0.23990000  0.56260000  0.42690000  1.0 0.1277464733
H  H372  1  0.57310000  0.76010000  0.56260000  1.0 0.1277464733
H  H373  1  0.14810000  0.85190000  0.62130000  1.0 -0.0605814722
H  H374  1  0.85190000  0.62130000  0.14810000  1.0 -0.0484108912
H  H375  1  0.62130000  0.14810000  0.85190000  1.0 -0.0484108912
H  H376  1  0.85190000  0.85190000  0.37870000  1.0 -0.0605814722
H  H377  1  0.14810000  0.37870000  0.14810000  1.0 -0.0605814722
H  H378  1  0.85190000  0.14810000  0.62130000  1.0 -0.0484108912
H  H379  1  0.37870000  0.14810000  0.14810000  1.0 -0.0605814722
H  H380  1  0.37870000  0.85190000  0.85190000  1.0 -0.0605814722
H  H381  1  0.14810000  0.14810000  0.37870000  1.0 -0.0605814722
H  H382  1  0.14810000  0.62130000  0.85190000  1.0 -0.0605814722
H  H383  1  0.62130000  0.85190000  0.14810000  1.0 -0.0484108912
H  H384  1  0.85190000  0.37870000  0.85190000  1.0 -0.0605814722
H  H385  1  0.23540000  0.00120000  0.76460000  1.0 -0.2523738273
H  H386  1  0.00120000  0.76460000  0.23540000  1.0 -0.2523738273
H  H387  1  0.76460000  0.23540000  0.00120000  1.0 -0.2523738273
H  H388  1  0.76460000  0.99880000  0.76460000  1.0 -0.2523738273
H  H389  1  0.23540000  0.23540000  0.99880000  1.0 -0.2523738273
H  H390  1  0.76460000  0.00120000  0.23540000  1.0 -0.2523738273
H  H391  1  0.99880000  0.23540000  0.23540000  1.0 -0.2523738273
H  H392  1  0.23540000  0.76460000  0.00120000  1.0 -0.2523738273
H  H393  1  0.76460000  0.76460000  0.99880000  1.0 -0.2523738273
H  H394  1  0.99880000  0.76460000  0.76460000  1.0 -0.2523738273
H  H395  1  0.00120000  0.23540000  0.76460000  1.0 -0.2523738273
H  H396  1  0.23540000  0.99880000  0.23540000  1.0 -0.2523738273
H  H397  1  0.35310000  0.10450000  0.64690000  1.0 -0.0071978052
H  H398  1  0.10450000  0.64690000  0.35310000  1.0 -0.0071978052
H  H399  1  0.64690000  0.35310000  0.10450000  1.0 -0.0071978052
H  H400  1  0.64690000  0.89550000  0.64690000  1.0 -0.0071978052
H  H401  1  0.35310000  0.35310000  0.89550000  1.0 -0.0071978052
H  H402  1  0.64690000  0.10450000  0.35310000  1.0 -0.0071978052
H  H403  1  0.89550000  0.35310000  0.35310000  1.0 -0.0071978052
H  H404  1  0.35310000  0.64690000  0.10450000  1.0 -0.0071978052
H  H405  1  0.64690000  0.64690000  0.89550000  1.0 -0.0071978052
H  H406  1  0.89550000  0.64690000  0.64690000  1.0 -0.0071978052
H  H407  1  0.10450000  0.35310000  0.64690000  1.0 -0.0071978052
H  H408  1  0.35310000  0.89550000  0.35310000  1.0 -0.0071978052
H  H409  1  0.48600000  0.03120000  0.51400000  1.0 -0.0605814722
H  H410  1  0.03120000  0.51400000  0.48600000  1.0 -0.0605814722
H  H411  1  0.51400000  0.48600000  0.03120000  1.0 -0.0605814722
H  H412  1  0.51400000  0.96880000  0.51400000  1.0 -0.0605814722
H  H413  1  0.48600000  0.48600000  0.96880000  1.0 -0.0605814722
H  H414  1  0.51400000  0.03120000  0.48600000  1.0 -0.0605814722
H  H415  1  0.96880000  0.48600000  0.48600000  1.0 -0.0605814722
H  H416  1  0.48600000  0.51400000  0.03120000  1.0 -0.0605814722
H  H417  1  0.51400000  0.51400000  0.96880000  1.0 -0.0605814722
H  H418  1  0.96880000  0.51400000  0.51400000  1.0 -0.0605814722
H  H419  1  0.03120000  0.48600000  0.51400000  1.0 -0.0605814722
H  H420  1  0.48600000  0.96880000  0.48600000  1.0 -0.0605814722
C  C1  1  0.43970000  0.56030000  0.76240000  1.0 -0.0484108912
C  C2  1  0.56030000  0.76240000  0.43970000  1.0 -0.0484108912
C  C3  1  0.76240000  0.43970000  0.56030000  1.0 -0.0484108912
C  C4  1  0.56030000  0.56030000  0.23760000  1.0 -0.0484108912
C  C5  1  0.43970000  0.23760000  0.43970000  1.0 -0.0484108912
C  C6  1  0.56030000  0.43970000  0.76240000  1.0 -0.0484108912
C  C7  1  0.23760000  0.43970000  0.43970000  1.0 -0.0484108912
C  C8  1  0.23760000  0.56030000  0.56030000  1.0 -0.0484108912
C  C9  1  0.43970000  0.43970000  0.23760000  1.0 -0.0484108912
C  C10  1  0.43970000  0.76240000  0.56030000  1.0 -0.0484108912
C  C11  1  0.76240000  0.56030000  0.43970000  1.0 -0.0484108912
C  C12  1  0.56030000  0.23760000  0.56030000  1.0 -0.0484108912
C  C13  1  0.41840000  0.58160000  0.68000000  1.0 -0.1282705493
C  C14  1  0.58160000  0.68000000  0.41840000  1.0 -0.1282705493
C  C15  1  0.68000000  0.41840000  0.58160000  1.0 -0.1282705493
C  C16  1  0.58160000  0.58160000  0.32000000  1.0 -0.1282705493
C  C17  1  0.41840000  0.32000000  0.41840000  1.0 -0.1282705493
C  C18  1  0.58160000  0.41840000  0.68000000  1.0 -0.1282705493
C  C19  1  0.32000000  0.41840000  0.41840000  1.0 -0.1282705493
C  C20  1  0.32000000  0.58160000  0.58160000  1.0 -0.1282705493
C  C21  1  0.41840000  0.41840000  0.32000000  1.0 -0.1282705493
C  C22  1  0.41840000  0.68000000  0.58160000  1.0 -0.1282705493
C  C23  1  0.68000000  0.58160000  0.41840000  1.0 -0.1282705493
C  C24  1  0.58160000  0.32000000  0.58160000  1.0 -0.1282705493
C  C25  1  0.33900000  0.55100000  0.66100000  1.0 -0.110905306
C  C26  1  0.55100000  0.66100000  0.33900000  1.0 -0.110905306
C  C27  1  0.66100000  0.33900000  0.55100000  1.0 -0.110905306
C  C28  1  0.66100000  0.44900000  0.66100000  1.0 -0.110905306
C  C29  1  0.33900000  0.33900000  0.44900000  1.0 -0.110905306
C  C30  1  0.66100000  0.55100000  0.33900000  1.0 -0.110905306
C  C31  1  0.44900000  0.33900000  0.33900000  1.0 -0.110905306
C  C32  1  0.33900000  0.66100000  0.55100000  1.0 -0.110905306
C  C33  1  0.66100000  0.66100000  0.44900000  1.0 -0.110905306
C  C34  1  0.44900000  0.66100000  0.66100000  1.0 -0.110905306
C  C35  1  0.55100000  0.33900000  0.66100000  1.0 -0.110905306
C  C36  1  0.33900000  0.44900000  0.33900000  1.0 -0.110905306
C  C37  1  0.31100000  0.58450000  0.58450000  1.0 -0.1398646437
C  C38  1  0.58450000  0.58450000  0.31100000  1.0 -0.1398646437
C  C39  1  0.58450000  0.31100000  0.58450000  1.0 -0.1398646437
C  C40  1  0.58450000  0.68900000  0.41550000  1.0 -0.1398646437
C  C41  1  0.58450000  0.41550000  0.68900000  1.0 -0.1398646437
C  C42  1  0.31100000  0.41550000  0.41550000  1.0 -0.1398646437
C  C43  1  0.68900000  0.41550000  0.58450000  1.0 -0.1398646437
C  C44  1  0.41550000  0.31100000  0.41550000  1.0 -0.1398646437
C  C45  1  0.68900000  0.58450000  0.41550000  1.0 -0.1398646437
C  C46  1  0.41550000  0.41550000  0.31100000  1.0 -0.1398646437
C  C47  1  0.41550000  0.68900000  0.58450000  1.0 -0.1398646437
C  C48  1  0.41550000  0.58450000  0.68900000  1.0 -0.1398646437
C  C49  1  0.31200000  0.52280000  0.52280000  1.0 -0.0191043928
C  C50  1  0.52280000  0.52280000  0.31200000  1.0 -0.0191043928
C  C51  1  0.52280000  0.31200000  0.52280000  1.0 -0.0191043928
C  C52  1  0.52280000  0.68800000  0.47720000  1.0 -0.0191043928
C  C53  1  0.52280000  0.47720000  0.68800000  1.0 -0.0191043928
C  C54  1  0.31200000  0.47720000  0.47720000  1.0 -0.0191043928
C  C55  1  0.68800000  0.47720000  0.52280000  1.0 -0.0191043928
C  C56  1  0.47720000  0.31200000  0.47720000  1.0 -0.0191043928
C  C57  1  0.68800000  0.52280000  0.47720000  1.0 -0.0191043928
C  C58  1  0.47720000  0.47720000  0.31200000  1.0 -0.0191043928
C  C59  1  0.47720000  0.68800000  0.52280000  1.0 -0.0191043928
C  C60  1  0.47720000  0.52280000  0.68800000  1.0 -0.0191043928
C  C61  1  0.24600000  0.46650000  0.53350000  1.0 0.1492941402
C  C62  1  0.46650000  0.53350000  0.24600000  1.0 0.1492941402
C  C63  1  0.53350000  0.24600000  0.46650000  1.0 0.1492941402
C  C64  1  0.46650000  0.75400000  0.46650000  1.0 0.1492941402
C  C65  1  0.53350000  0.53350000  0.75400000  1.0 0.1492941402
C  C66  1  0.75400000  0.53350000  0.53350000  1.0 0.1492941402
C  C67  1  0.46650000  0.24600000  0.53350000  1.0 0.1492941402
C  C68  1  0.75400000  0.46650000  0.46650000  1.0 0.1492941402
C  C69  1  0.53350000  0.46650000  0.24600000  1.0 0.1492941402
C  C70  1  0.46650000  0.46650000  0.75400000  1.0 0.1492941402
C  C71  1  0.24600000  0.53350000  0.46650000  1.0 0.1492941402
C  C72  1  0.53350000  0.75400000  0.53350000  1.0 0.1492941402
N  N1  1  0.50000000  0.50000000  0.76100000  1.0 0.0983380805
N  N2  1  0.50000000  0.76100000  0.50000000  1.0 0.0983380805
N  N3  1  0.76100000  0.50000000  0.50000000  1.0 0.0983380805
N  N4  1  0.50000000  0.50000000  0.23900000  1.0 0.0983380805
N  N5  1  0.50000000  0.23900000  0.50000000  1.0 0.0983380805
N  N6  1  0.23900000  0.50000000  0.50000000  1.0 0.0983380805
N  N7  1  0.17400000  0.50000000  0.50000000  1.0 -0.1189753913
N  N8  1  0.50000000  0.50000000  0.17400000  1.0 -0.1189753913
N  N9  1  0.50000000  0.17400000  0.50000000  1.0 -0.1189753913
N  N10  1  0.50000000  0.82600000  0.50000000  1.0 -0.1189753913
N  N11  1  0.50000000  0.50000000  0.82600000  1.0 -0.1189753913
N  N12  1  0.82600000  0.50000000  0.50000000  1.0 -0.1189753913
O  O1  1  0.37010000  0.62990000  0.62990000  1.0 -0.0301569967
O  O2  1  0.62990000  0.62990000  0.37010000  1.0 -0.0301569967
O  O3  1  0.62990000  0.37010000  0.62990000  1.0 -0.0301569967
O  O4  1  0.37010000  0.37010000  0.37010000  1.0 -0.0301569967
O  O5  1  0.50000000  0.50000000  0.78280000  1.0 -0.0071978052
O  O6  1  0.50000000  0.78280000  0.50000000  1.0 -0.0071978052
O  O7  1  0.78280000  0.50000000  0.50000000  1.0 -0.0071978052
O  O8  1  0.50000000  0.50000000  0.21720000  1.0 -0.0071978052
O  O9  1  0.50000000  0.21720000  0.50000000  1.0 -0.0071978052
O  O10  1  0.21720000  0.50000000  0.50000000  1.0 -0.0071978052
O  O11  1  0.45460000  0.45460000  0.72500000  1.0 -0.101043694
O  O12  1  0.45460000  0.72500000  0.45460000  1.0 -0.101043694
O  O13  1  0.72500000  0.45460000  0.45460000  1.0 -0.101043694
O  O14  1  0.45460000  0.54540000  0.27500000  1.0 -0.101043694
O  O15  1  0.72500000  0.54540000  0.54540000  1.0 -0.101043694
O  O16  1  0.45460000  0.27500000  0.54540000  1.0 -0.101043694
O  O17  1  0.54540000  0.54540000  0.72500000  1.0 -0.101043694
O  O18  1  0.27500000  0.45460000  0.54540000  1.0 -0.101043694
O  O19  1  0.54540000  0.45460000  0.27500000  1.0 -0.101043694
O  O20  1  0.54540000  0.27500000  0.45460000  1.0 -0.101043694
O  O21  1  0.27500000  0.54540000  0.45460000  1.0 -0.101043694
O  O22  1  0.54540000  0.72500000  0.54540000  1.0 -0.101043694
O  O23  1  0.39825000  0.99090000  0.60175000  1.0 -0.5393255381
O  O24  1  0.99090000  0.60175000  0.39825000  1.0 -0.5393255381
O  O25  1  0.60175000  0.39825000  0.99090000  1.0 -0.5393255381
O  O26  1  0.60175000  0.00910000  0.60175000  1.0 -0.5393255381
O  O27  1  0.39825000  0.39825000  0.00910000  1.0 -0.5393255381
O  O28  1  0.60175000  0.99090000  0.39825000  1.0 -0.5393255381
O  O29  1  0.00910000  0.39825000  0.39825000  1.0 -0.5393255381
O  O30  1  0.39825000  0.60175000  0.99090000  1.0 -0.5393255381
O  O31  1  0.60175000  0.60175000  0.00910000  1.0 -0.5393255381
O  O32  1  0.00910000  0.60175000  0.60175000  1.0 -0.5393255381
O  O33  1  0.99090000  0.39825000  0.60175000  1.0 -0.5393255381
O  O34  1  0.39825000  0.00910000  0.39825000  1.0 -0.5393255381
O  O35  1  0.23720000  0.76280000  0.65380000  1.0 -0.4575615255
O  O36  1  0.76280000  0.65380000  0.23720000  1.0 -0.4575615255
O  O37  1  0.65380000  0.23720000  0.76280000  1.0 -0.4575615255
O  O38  1  0.76280000  0.76280000  0.34620000  1.0 -0.4575615255
O  O39  1  0.23720000  0.34620000  0.23720000  1.0 -0.4575615255
O  O40  1  0.76280000  0.23720000  0.65380000  1.0 -0.4575615255
O  O41  1  0.34620000  0.23720000  0.23720000  1.0 -0.4575615255
O  O42  1  0.34620000  0.76280000  0.76280000  1.0 -0.4575615255
O  O43  1  0.23720000  0.23720000  0.34620000  1.0 -0.4575615255
O  O44  1  0.23720000  0.65380000  0.76280000  1.0 -0.4575615255
O  O45  1  0.65380000  0.76280000  0.23720000  1.0 -0.4575615255
O  O46  1  0.76280000  0.34620000  0.76280000  1.0 -0.4575615255
O  O47  1  0.25388000  0.95530000  0.64490000  1.0 -0.690506836
O  O48  1  0.95530000  0.64490000  0.25388000  1.0 -0.690506836
O  O49  1  0.64490000  0.25388000  0.95530000  1.0 -0.690506836
O  O50  1  0.95530000  0.74612000  0.35510000  1.0 -0.690506836
O  O51  1  0.64490000  0.04470000  0.74612000  1.0 -0.690506836
O  O52  1  0.25388000  0.35510000  0.04470000  1.0 -0.690506836
O  O53  1  0.74612000  0.04470000  0.64490000  1.0 -0.690506836
O  O54  1  0.35510000  0.25388000  0.04470000  1.0 -0.690506836
O  O55  1  0.74612000  0.95530000  0.35510000  1.0 -0.690506836
O  O56  1  0.04470000  0.35510000  0.25388000  1.0 -0.690506836
O  O57  1  0.35510000  0.74612000  0.95530000  1.0 -0.690506836
O  O58  1  0.04470000  0.25388000  0.35510000  1.0 -0.690506836
O  O59  1  0.35510000  0.95530000  0.74612000  1.0 -0.690506836
O  O60  1  0.74612000  0.64490000  0.04470000  1.0 -0.690506836
O  O61  1  0.04470000  0.64490000  0.74612000  1.0 -0.690506836
O  O62  1  0.64490000  0.95530000  0.25388000  1.0 -0.690506836
O  O63  1  0.25388000  0.64490000  0.95530000  1.0 -0.690506836
O  O64  1  0.95530000  0.25388000  0.64490000  1.0 -0.690506836
O  O65  1  0.95530000  0.35510000  0.74612000  1.0 -0.690506836
O  O66  1  0.04470000  0.74612000  0.64490000  1.0 -0.690506836
O  O67  1  0.35510000  0.04470000  0.25388000  1.0 -0.690506836
O  O68  1  0.74612000  0.35510000  0.95530000  1.0 -0.690506836
O  O69  1  0.25388000  0.04470000  0.35510000  1.0 -0.690506836
O  O70  1  0.64490000  0.74612000  0.04470000  1.0 -0.690506836
O  O71  1  0.48010000  0.10760000  0.62020000  1.0 -0.4446686931
O  O72  1  0.10760000  0.62020000  0.48010000  1.0 -0.4446686931
O  O73  1  0.62020000  0.48010000  0.10760000  1.0 -0.4446686931
O  O74  1  0.10760000  0.51990000  0.37980000  1.0 -0.4446686931
O  O75  1  0.62020000  0.89240000  0.51990000  1.0 -0.4453449078
O  O76  1  0.48010000  0.37980000  0.89240000  1.0 -0.4446686931
O  O77  1  0.51990000  0.89240000  0.62020000  1.0 -0.4453449078
O  O78  1  0.37980000  0.48010000  0.89240000  1.0 -0.4446686931
O  O79  1  0.51990000  0.10760000  0.37980000  1.0 -0.4446686931
O  O80  1  0.89240000  0.37980000  0.48010000  1.0 -0.4453449078
O  O81  1  0.37980000  0.51990000  0.10760000  1.0 -0.4446686931
O  O82  1  0.89240000  0.48010000  0.37980000  1.0 -0.4453449078
O  O83  1  0.37980000  0.10760000  0.51990000  1.0 -0.4446686931
O  O84  1  0.51990000  0.62020000  0.89240000  1.0 -0.4446686931
O  O85  1  0.89240000  0.62020000  0.51990000  1.0 -0.4453449078
O  O86  1  0.62020000  0.10760000  0.48010000  1.0 -0.4446686931
O  O87  1  0.48010000  0.62020000  0.10760000  1.0 -0.4446686931
O  O88  1  0.10760000  0.48010000  0.62020000  1.0 -0.4446686931
O  O89  1  0.10760000  0.37980000  0.51990000  1.0 -0.4446686931
O  O90  1  0.89240000  0.51990000  0.62020000  1.0 -0.4453449078
O  O91  1  0.37980000  0.89240000  0.48010000  1.0 -0.4453449078
O  O92  1  0.51990000  0.37980000  0.10760000  1.0 -0.4446686931
O  O93  1  0.48010000  0.89240000  0.37980000  1.0 -0.4453449078
O  O94  1  0.62020000  0.51990000  0.89240000  1.0 -0.4446686931
O  O95  1  0.37390000  0.85930000  0.62610000  1.0 -0.5957534962
O  O96  1  0.85930000  0.62610000  0.37390000  1.0 -0.5957534962
O  O97  1  0.62610000  0.37390000  0.85930000  1.0 -0.5948202439
O  O98  1  0.62610000  0.14070000  0.62610000  1.0 -0.5948202439
O  O99  1  0.37390000  0.37390000  0.14070000  1.0 -0.5957534962
O  O100  1  0.62610000  0.85930000  0.37390000  1.0 -0.5957534962
O  O101  1  0.14070000  0.37390000  0.37390000  1.0 -0.5957534962
O  O102  1  0.37390000  0.62610000  0.85930000  1.0 -0.5948202439
O  O103  1  0.62610000  0.62610000  0.14070000  1.0 -0.5957534962
O  O104  1  0.14070000  0.62610000  0.62610000  1.0 -0.5957534962
O  O105  1  0.85930000  0.37390000  0.62610000  1.0 -0.5957534962
O  O106  1  0.37390000  0.14070000  0.37390000  1.0 -0.5948202439
O  O107  1  0.24810000  0.84880000  0.53710000  1.0 -0.5604298887
O  O108  1  0.84880000  0.53710000  0.24810000  1.0 -0.5604298887
O  O109  1  0.53710000  0.24810000  0.84880000  1.0 -0.5604298887
O  O110  1  0.84880000  0.75190000  0.46290000  1.0 -0.5604298887
O  O111  1  0.53710000  0.15120000  0.75190000  1.0 -0.5604298887
O  O112  1  0.24810000  0.46290000  0.15120000  1.0 -0.5604298887
O  O113  1  0.75190000  0.15120000  0.53710000  1.0 -0.5604298887
O  O114  1  0.46290000  0.24810000  0.15120000  1.0 -0.5604298887
O  O115  1  0.75190000  0.84880000  0.46290000  1.0 -0.5604298887
O  O116  1  0.15120000  0.46290000  0.24810000  1.0 -0.5604298887
O  O117  1  0.46290000  0.75190000  0.84880000  1.0 -0.5604298887
O  O118  1  0.15120000  0.24810000  0.46290000  1.0 -0.5604298887
O  O119  1  0.46290000  0.84880000  0.75190000  1.0 -0.5604298887
O  O120  1  0.75190000  0.53710000  0.15120000  1.0 -0.5604298887
O  O121  1  0.15120000  0.53710000  0.75190000  1.0 -0.5604298887
O  O122  1  0.53710000  0.84880000  0.24810000  1.0 -0.5604298887
O  O123  1  0.24810000  0.53710000  0.84880000  1.0 -0.5604298887
O  O124  1  0.84880000  0.24810000  0.53710000  1.0 -0.5604298887
O  O125  1  0.84880000  0.46290000  0.75190000  1.0 -0.5604298887
O  O126  1  0.15120000  0.75190000  0.53710000  1.0 -0.5604298887
O  O127  1  0.46290000  0.15120000  0.24810000  1.0 -0.5604298887
O  O128  1  0.75190000  0.46290000  0.84880000  1.0 -0.5604298887
O  O129  1  0.24810000  0.15120000  0.46290000  1.0 -0.5604298887
O  O130  1  0.53710000  0.75190000  0.15120000  1.0 -0.5604298887
O  O131  1  0.27580000  0.00000000  0.50000000  1.0 -0.7083212562
O  O132  1  0.00000000  0.50000000  0.27580000  1.0 -0.7083212562
O  O133  1  0.50000000  0.27580000  0.00000000  1.0 -0.7083212562
O  O134  1  0.00000000  0.72420000  0.50000000  1.0 -0.7083212562
O  O135  1  0.50000000  0.00000000  0.72420000  1.0 -0.7083212562
O  O136  1  0.27580000  0.50000000  0.00000000  1.0 -0.7083212562
O  O137  1  0.72420000  0.00000000  0.50000000  1.0 -0.7083212562
O  O138  1  0.50000000  0.72420000  0.00000000  1.0 -0.7083212562
O  O139  1  0.00000000  0.27580000  0.50000000  1.0 -0.7083212562
O  O140  1  0.72420000  0.50000000  0.00000000  1.0 -0.7083212562
O  O141  1  0.00000000  0.50000000  0.72420000  1.0 -0.7083212562
O  O142  1  0.50000000  0.00000000  0.27580000  1.0 -0.7083212562
O  O143  1  0.23700000  0.87150000  0.76300000  1.0 -0.7528765925
O  O144  1  0.87150000  0.76300000  0.23700000  1.0 -0.7528765925
O  O145  1  0.76300000  0.23700000  0.87150000  1.0 -0.7528765925
O  O146  1  0.76300000  0.12850000  0.76300000  1.0 -0.7528765925
O  O147  1  0.23700000  0.23700000  0.12850000  1.0 -0.7528765925
O  O148  1  0.76300000  0.87150000  0.23700000  1.0 -0.7528765925
O  O149  1  0.12850000  0.23700000  0.23700000  1.0 -0.7528765925
O  O150  1  0.23700000  0.76300000  0.87150000  1.0 -0.7528765925
O  O151  1  0.76300000  0.76300000  0.12850000  1.0 -0.7528765925
O  O152  1  0.12850000  0.76300000  0.76300000  1.0 -0.7528765925
O  O153  1  0.87150000  0.23700000  0.76300000  1.0 -0.7528765925
O  O154  1  0.23700000  0.12850000  0.23700000  1.0 -0.7528765925
