# DDEC6 charges by PACMAN v1.1 (https://github.com/mtap-research/PACMAN-charge/)
data_TILWAM_ASR_pacman
_symmetry_space_group_name_H-M   'P 1'
_cell_length_a   9.12400000
_cell_length_b   9.12400000
_cell_length_c   11.33500000
_cell_angle_alpha   90.00000000
_cell_angle_beta   90.00000000
_cell_angle_gamma   90.00000000
_symmetry_Int_Tables_number   1
_chemical_formula_structural   CdC4
_chemical_formula_sum   'Cd4 C16'
_cell_volume   943.60900696
_cell_formula_units_Z   4
loop_
 _symmetry_equiv_pos_site_id
 _symmetry_equiv_pos_as_xyz
  1  'x, y, z'
loop_
 _atom_site_type_symbol
 _atom_site_label
 _atom_site_symmetry_multiplicity
 _atom_site_fract_x
 _atom_site_fract_y
 _atom_site_fract_z
 _atom_site_occupancy
 _atom_site_charge
Cd  Cd1  1  0.31790000  0.31790000  0.00000000  1.0 0.850085818
Cd  Cd2  1  0.18210000  0.81790000  0.25000000  1.0 0.850085818
Cd  Cd3  1  0.81790000  0.18210000  0.75000000  1.0 0.850085818
Cd  Cd4  1  0.68210000  0.68210000  0.50000000  1.0 0.850085818
C  C1  1  0.27400000  0.13900000  0.11600000  1.0 -0.2814654142
C  C2  1  0.36100000  0.77400000  0.36600000  1.0 -0.2814654142
C  C3  1  0.77400000  0.36100000  0.63400000  1.0 -0.2814654142
C  C4  1  0.72600000  0.86100000  0.61600000  1.0 -0.2814654142
C  C5  1  0.13900000  0.27400000  0.88400000  1.0 -0.2814654142
C  C6  1  0.63900000  0.22600000  0.86600000  1.0 -0.2814654142
C  C7  1  0.22600000  0.63900000  0.13400000  1.0 -0.2814654142
C  C8  1  0.86100000  0.72600000  0.38400000  1.0 -0.2814654142
C  C9  1  0.52900000  0.25800000  0.91800000  1.0 -0.1457125686
C  C10  1  0.24200000  0.02900000  0.16800000  1.0 -0.1457125686
C  C11  1  0.02900000  0.24200000  0.83200000  1.0 -0.1414424211
C  C12  1  0.47100000  0.74200000  0.41800000  1.0 -0.1414424211
C  C13  1  0.25800000  0.52900000  0.08200000  1.0 -0.1457125686
C  C14  1  0.75800000  0.97100000  0.66800000  1.0 -0.1414424211
C  C15  1  0.97100000  0.75800000  0.33200000  1.0 -0.1457125686
C  C16  1  0.74200000  0.47100000  0.58200000  1.0 -0.1414424211
