# DDEC6 charges by PACMAN v1.1 (https://github.com/mtap-research/PACMAN-charge/)
data_TILYIA_ASR_pacman
_symmetry_space_group_name_H-M   'P 1'
_cell_length_a   16.48600000
_cell_length_b   18.50000000
_cell_length_c   32.39400000
_cell_angle_alpha   90.00000000
_cell_angle_beta   90.00000000
_cell_angle_gamma   90.00000000
_symmetry_Int_Tables_number   1
_chemical_formula_structural   Tb4H36C70N3O32
_chemical_formula_sum   'Tb16 H144 C280 N12 O128'
_cell_volume   9879.87845400
_cell_formula_units_Z   4
loop_
 _symmetry_equiv_pos_site_id
 _symmetry_equiv_pos_as_xyz
  1  'x, y, z'
loop_
 _atom_site_type_symbol
 _atom_site_label
 _atom_site_symmetry_multiplicity
 _atom_site_fract_x
 _atom_site_fract_y
 _atom_site_fract_z
 _atom_site_occupancy
 _atom_site_charge
Tb  Tb1  1  0.40397000  0.61648000  0.67583000  1.0 2.0786566398
Tb  Tb2  1  0.90397000  0.38352000  0.82417000  1.0 2.0786566398
Tb  Tb3  1  0.59603000  0.11648000  0.32417000  1.0 2.0786566398
Tb  Tb4  1  0.09603000  0.88352000  0.17583000  1.0 2.0786566398
Tb  Tb5  1  0.59603000  0.38352000  0.32417000  1.0 2.0786566398
Tb  Tb6  1  0.09603000  0.61648000  0.17583000  1.0 2.0786566398
Tb  Tb7  1  0.40397000  0.88352000  0.67583000  1.0 2.0786566398
Tb  Tb8  1  0.90397000  0.11648000  0.82417000  1.0 2.0786566398
Tb  Tb9  1  0.62217000  0.07227000  0.02535000  1.0 2.0326532088
Tb  Tb10  1  0.12217000  0.92773000  0.47465000  1.0 2.0326532088
Tb  Tb11  1  0.37783000  0.57227000  0.97465000  1.0 2.0326532088
Tb  Tb12  1  0.87783000  0.42773000  0.52535000  1.0 2.0326532088
Tb  Tb13  1  0.37783000  0.92773000  0.97465000  1.0 2.0326532088
Tb  Tb14  1  0.87783000  0.07227000  0.52535000  1.0 2.0326532088
Tb  Tb15  1  0.62217000  0.42773000  0.02535000  1.0 2.0326532088
Tb  Tb16  1  0.12217000  0.57227000  0.47465000  1.0 2.0326532088
H  H1  1  0.36457000  0.27990000  0.55115000  1.0 0.1307846605
H  H2  1  0.86457000  0.72010000  0.94885000  1.0 0.1307846605
H  H3  1  0.63543000  0.77990000  0.44885000  1.0 0.1307846605
H  H4  1  0.13543000  0.22010000  0.05115000  1.0 0.1307846605
H  H5  1  0.63543000  0.72010000  0.44885000  1.0 0.1307846605
H  H6  1  0.13543000  0.27990000  0.05115000  1.0 0.1307846605
H  H7  1  0.36457000  0.22010000  0.55115000  1.0 0.1307846605
H  H8  1  0.86457000  0.77990000  0.94885000  1.0 0.1307846605
H  H9  1  0.90608000  0.70730000  0.68019000  1.0 0.1470043393
H  H10  1  0.40608000  0.29270000  0.81981000  1.0 0.1470043393
H  H11  1  0.09392000  0.20730000  0.31981000  1.0 0.1470043393
H  H12  1  0.59392000  0.79270000  0.18019000  1.0 0.1470043393
H  H13  1  0.09392000  0.29270000  0.31981000  1.0 0.1470043393
H  H14  1  0.59392000  0.70730000  0.18019000  1.0 0.1470043393
H  H15  1  0.90608000  0.79270000  0.68019000  1.0 0.1470043393
H  H16  1  0.40608000  0.20730000  0.81981000  1.0 0.1470043393
H  H17  1  0.36826000  0.55412000  0.56491000  1.0 0.1408280343
H  H18  1  0.86826000  0.44588000  0.93509000  1.0 0.1408280343
H  H19  1  0.63174000  0.05412000  0.43509000  1.0 0.1408280343
H  H20  1  0.13174000  0.94588000  0.06491000  1.0 0.1470043393
H  H21  1  0.63174000  0.44588000  0.43509000  1.0 0.1408280343
H  H22  1  0.13174000  0.55412000  0.06491000  1.0 0.1470043393
H  H23  1  0.36826000  0.94588000  0.56491000  1.0 0.1470043393
H  H24  1  0.86826000  0.05412000  0.93509000  1.0 0.1408280343
H  H25  1  0.34992000  0.41280000  0.47086000  1.0 0.1470043393
H  H26  1  0.84992000  0.58720000  0.02914000  1.0 0.1470043393
H  H27  1  0.65008000  0.91280000  0.52914000  1.0 0.1470043393
H  H28  1  0.15008000  0.08720000  0.97086000  1.0 0.1470043393
H  H29  1  0.65008000  0.58720000  0.52914000  1.0 0.1470043393
H  H30  1  0.15008000  0.41280000  0.97086000  1.0 0.1470043393
H  H31  1  0.34992000  0.08720000  0.47086000  1.0 0.1470043393
H  H32  1  0.84992000  0.91280000  0.02914000  1.0 0.1470043393
H  H33  1  0.51477000  0.38292000  0.55925000  1.0 0.1408280343
H  H34  1  0.01477000  0.61708000  0.94075000  1.0 0.1408280343
H  H35  1  0.48523000  0.88292000  0.44075000  1.0 0.1408280343
H  H36  1  0.98523000  0.11708000  0.05925000  1.0 0.1408280343
H  H37  1  0.48523000  0.61708000  0.44075000  1.0 0.1408280343
H  H38  1  0.98523000  0.38292000  0.05925000  1.0 0.1408280343
H  H39  1  0.51477000  0.11708000  0.55925000  1.0 0.1408280343
H  H40  1  0.01477000  0.88292000  0.94075000  1.0 0.1408280343
H  H41  1  0.50522000  0.35867000  0.44062000  1.0 0.1470043393
H  H42  1  0.00522000  0.64133000  0.05938000  1.0 0.1470043393
H  H43  1  0.49478000  0.85867000  0.55938000  1.0 0.1470043393
H  H44  1  0.99478000  0.14133000  0.94062000  1.0 0.1470043393
H  H45  1  0.49478000  0.64133000  0.55938000  1.0 0.1470043393
H  H46  1  0.99478000  0.35867000  0.94062000  1.0 0.1470043393
H  H47  1  0.50522000  0.14133000  0.44062000  1.0 0.1470043393
H  H48  1  0.00522000  0.85867000  0.05938000  1.0 0.1470043393
H  H49  1  0.89770000  0.43892000  0.67366000  1.0 0.1470043393
H  H50  1  0.39770000  0.56108000  0.82634000  1.0 0.1470043393
H  H51  1  0.10230000  0.93892000  0.32634000  1.0 0.1470043393
H  H52  1  0.60230000  0.06108000  0.17366000  1.0 0.1470043393
H  H53  1  0.10230000  0.56108000  0.32634000  1.0 0.1470043393
H  H54  1  0.60230000  0.43892000  0.17366000  1.0 0.1470043393
H  H55  1  0.89770000  0.06108000  0.67366000  1.0 0.1470043393
H  H56  1  0.39770000  0.93892000  0.82634000  1.0 0.1470043393
H  H57  1  0.01970000  0.58419000  0.74189000  1.0 0.1470043393
H  H58  1  0.51970000  0.41581000  0.75811000  1.0 0.1470043393
H  H59  1  0.98030000  0.08419000  0.25811000  1.0 0.1470043393
H  H60  1  0.48030000  0.91581000  0.24189000  1.0 0.1470043393
H  H61  1  0.98030000  0.41581000  0.25811000  1.0 0.1470043393
H  H62  1  0.48030000  0.58419000  0.24189000  1.0 0.1470043393
H  H63  1  0.01970000  0.91581000  0.74189000  1.0 0.1470043393
H  H64  1  0.51970000  0.08419000  0.75811000  1.0 0.1470043393
H  H65  1  0.98286000  0.61831000  0.62130000  1.0 0.1408280343
H  H66  1  0.48286000  0.38169000  0.87870000  1.0 0.1408280343
H  H67  1  0.01714000  0.11831000  0.37870000  1.0 0.1408280343
H  H68  1  0.51714000  0.88169000  0.12130000  1.0 0.1408280343
H  H69  1  0.01714000  0.38169000  0.37870000  1.0 0.1408280343
H  H70  1  0.51714000  0.61831000  0.12130000  1.0 0.1408280343
H  H71  1  0.98286000  0.88169000  0.62130000  1.0 0.1408280343
H  H72  1  0.48286000  0.11831000  0.87870000  1.0 0.1408280343
H  H73  1  0.16240000  0.64201000  0.69543000  1.0 0.1470043393
H  H74  1  0.66240000  0.35799000  0.80457000  1.0 0.1470043393
H  H75  1  0.83760000  0.14201000  0.30457000  1.0 0.1470043393
H  H76  1  0.33760000  0.85799000  0.19543000  1.0 0.1470043393
H  H77  1  0.83760000  0.35799000  0.30457000  1.0 0.1470043393
H  H78  1  0.33760000  0.64201000  0.19543000  1.0 0.1470043393
H  H79  1  0.16240000  0.85799000  0.69543000  1.0 0.1470043393
H  H80  1  0.66240000  0.14201000  0.80457000  1.0 0.1470043393
H  H81  1  0.68027000  0.03078000  0.91558000  1.0 0.1470043393
H  H82  1  0.18027000  0.96922000  0.58442000  1.0 0.1470043393
H  H83  1  0.31973000  0.53078000  0.08442000  1.0 0.1470043393
H  H84  1  0.81973000  0.46922000  0.41558000  1.0 0.1470043393
H  H85  1  0.31973000  0.96922000  0.08442000  1.0 0.1470043393
H  H86  1  0.81973000  0.03078000  0.41558000  1.0 0.1470043393
H  H87  1  0.68027000  0.46922000  0.91558000  1.0 0.1470043393
H  H88  1  0.18027000  0.53078000  0.58442000  1.0 0.1470043393
H  H89  1  0.70236000  0.92976000  0.80690000  1.0 0.1470043393
H  H90  1  0.20236000  0.07024000  0.69310000  1.0 0.1470043393
H  H91  1  0.29764000  0.42976000  0.19310000  1.0 0.1470043393
H  H92  1  0.79764000  0.57024000  0.30690000  1.0 0.1470043393
H  H93  1  0.29764000  0.07024000  0.19310000  1.0 0.1470043393
H  H94  1  0.79764000  0.92976000  0.30690000  1.0 0.1470043393
H  H95  1  0.70236000  0.57024000  0.80690000  1.0 0.1470043393
H  H96  1  0.20236000  0.42976000  0.69310000  1.0 0.1470043393
H  H97  1  0.54382000  0.85802000  0.89033000  1.0 0.1307846605
H  H98  1  0.04382000  0.14198000  0.60967000  1.0 0.1307846605
H  H99  1  0.45618000  0.35802000  0.10967000  1.0 0.1307846605
H  H100  1  0.95618000  0.64198000  0.39033000  1.0 0.1307846605
H  H101  1  0.45618000  0.14198000  0.10967000  1.0 0.1307846605
H  H102  1  0.95618000  0.85802000  0.39033000  1.0 0.1307846605
H  H103  1  0.54382000  0.64198000  0.89033000  1.0 0.1307846605
H  H104  1  0.04382000  0.35802000  0.60967000  1.0 0.1307846605
H  H105  1  0.56273000  0.85850000  0.76698000  1.0 0.1470043393
H  H106  1  0.06273000  0.14150000  0.73302000  1.0 0.1470043393
H  H107  1  0.43727000  0.35850000  0.23302000  1.0 0.1470043393
H  H108  1  0.93727000  0.64150000  0.26698000  1.0 0.1470043393
H  H109  1  0.43727000  0.14150000  0.23302000  1.0 0.1470043393
H  H110  1  0.93727000  0.85850000  0.26698000  1.0 0.1470043393
H  H111  1  0.56273000  0.64150000  0.76698000  1.0 0.1470043393
H  H112  1  0.06273000  0.35850000  0.73302000  1.0 0.1470043393
H  H113  1  0.71249000  0.72471000  0.87465000  1.0 0.1621912381
H  H114  1  0.21249000  0.27529000  0.62535000  1.0 0.1621912381
H  H115  1  0.28751000  0.22471000  0.12535000  1.0 0.1621912381
H  H116  1  0.78751000  0.77529000  0.37465000  1.0 0.1621912381
H  H117  1  0.28751000  0.27529000  0.12535000  1.0 0.1621912381
H  H118  1  0.78751000  0.72471000  0.37465000  1.0 0.1621912381
H  H119  1  0.71249000  0.77529000  0.87465000  1.0 0.1621912381
H  H120  1  0.21249000  0.22471000  0.62535000  1.0 0.1621912381
H  H121  1  0.38696000  0.20725000  0.55693000  1.0 0.1919943652
H  H122  1  0.88696000  0.79275000  0.94307000  1.0 0.1919943652
H  H123  1  0.61304000  0.70725000  0.44307000  1.0 0.1919943652
H  H124  1  0.11304000  0.29275000  0.05693000  1.0 0.1919943652
H  H125  1  0.61304000  0.79275000  0.44307000  1.0 0.1919943652
H  H126  1  0.11304000  0.20725000  0.05693000  1.0 0.1919943652
H  H127  1  0.38696000  0.29275000  0.55693000  1.0 0.1919943652
H  H128  1  0.88696000  0.70725000  0.94307000  1.0 0.1919943652
H  H129  1  0.91519000  0.76234000  0.65054000  1.0 0.1470043393
H  H130  1  0.41519000  0.23766000  0.84946000  1.0 0.1470043393
H  H131  1  0.08481000  0.26234000  0.34946000  1.0 0.1470043393
H  H132  1  0.58481000  0.73766000  0.15054000  1.0 0.1470043393
H  H133  1  0.08481000  0.23766000  0.34946000  1.0 0.1470043393
H  H134  1  0.58481000  0.76234000  0.15054000  1.0 0.1470043393
H  H135  1  0.91519000  0.73766000  0.65054000  1.0 0.1470043393
H  H136  1  0.41519000  0.26234000  0.84946000  1.0 0.1470043393
H  H137  1  0.63813000  0.73079000  0.89615000  1.0 0.1408280343
H  H138  1  0.13813000  0.26921000  0.60385000  1.0 0.1408280343
H  H139  1  0.36187000  0.23079000  0.10385000  1.0 0.1408280343
H  H140  1  0.86187000  0.76921000  0.39615000  1.0 0.1408280343
H  H141  1  0.36187000  0.26921000  0.10385000  1.0 0.1408280343
H  H142  1  0.86187000  0.73079000  0.39615000  1.0 0.1408280343
H  H143  1  0.63813000  0.76921000  0.89615000  1.0 0.1408280343
H  H144  1  0.13813000  0.23079000  0.60385000  1.0 0.1408280343
C  C1  1  0.44860000  0.47240000  0.56788000  1.0 -0.0243703987
C  C2  1  0.94860000  0.52760000  0.93212000  1.0 -0.0243703987
C  C3  1  0.55140000  0.97240000  0.43212000  1.0 -0.0243703987
C  C4  1  0.05140000  0.02760000  0.06788000  1.0 -0.0243703987
C  C5  1  0.55140000  0.52760000  0.43212000  1.0 -0.0243703987
C  C6  1  0.05140000  0.47240000  0.06788000  1.0 -0.0243703987
C  C7  1  0.44860000  0.02760000  0.56788000  1.0 -0.0243703987
C  C8  1  0.94860000  0.97240000  0.93212000  1.0 -0.0243703987
C  C9  1  0.38560000  0.51250000  0.55143000  1.0 -0.1108362247
C  C10  1  0.88560000  0.48750000  0.94857000  1.0 -0.1108362247
C  C11  1  0.61440000  0.01250000  0.44857000  1.0 -0.1108362247
C  C12  1  0.11440000  0.98750000  0.05143000  1.0 -0.1108362247
C  C13  1  0.61440000  0.48750000  0.44857000  1.0 -0.1108362247
C  C14  1  0.11440000  0.51250000  0.05143000  1.0 -0.1108362247
C  C15  1  0.38560000  0.98750000  0.55143000  1.0 -0.1108362247
C  C16  1  0.88560000  0.01250000  0.94857000  1.0 -0.1108362247
C  C17  1  0.34730000  0.49110000  0.51453000  1.0 0.0241729151
C  C18  1  0.84730000  0.50890000  0.98547000  1.0 0.0241729151
C  C19  1  0.65270000  0.99110000  0.48547000  1.0 0.0241729151
C  C20  1  0.15270000  0.00890000  0.01453000  1.0 0.0241729151
C  C21  1  0.65270000  0.50890000  0.48547000  1.0 0.0241729151
C  C22  1  0.15270000  0.49110000  0.01453000  1.0 0.0241729151
C  C23  1  0.34730000  0.00890000  0.51453000  1.0 0.0241729151
C  C24  1  0.84730000  0.99110000  0.98547000  1.0 0.0241729151
C  C25  1  0.37430000  0.42750000  0.49535000  1.0 -0.1370688427
C  C26  1  0.87430000  0.57250000  0.00465000  1.0 -0.1370688427
C  C27  1  0.62570000  0.92750000  0.50465000  1.0 -0.1370688427
C  C28  1  0.12570000  0.07250000  0.99535000  1.0 -0.1370688427
C  C29  1  0.62570000  0.57250000  0.50465000  1.0 -0.1370688427
C  C30  1  0.12570000  0.42750000  0.99535000  1.0 -0.1370688427
C  C31  1  0.37430000  0.07250000  0.49535000  1.0 -0.1370688427
C  C32  1  0.87430000  0.92750000  0.00465000  1.0 -0.1370688427
C  C33  1  0.43660000  0.38570000  0.51189000  1.0 0.0601972881
C  C34  1  0.93660000  0.61430000  0.98811000  1.0 0.0601972881
C  C35  1  0.56340000  0.88570000  0.48811000  1.0 0.0601972881
C  C36  1  0.06340000  0.11430000  0.01189000  1.0 0.0601972881
C  C37  1  0.56340000  0.61430000  0.48811000  1.0 0.0601972881
C  C38  1  0.06340000  0.38570000  0.01189000  1.0 0.0601972881
C  C39  1  0.43660000  0.11430000  0.51189000  1.0 0.0601972881
C  C40  1  0.93660000  0.88570000  0.98811000  1.0 0.0601972881
C  C41  1  0.47260000  0.40990000  0.54800000  1.0 -0.148326759
C  C42  1  0.97260000  0.59010000  0.95200000  1.0 -0.148326759
C  C43  1  0.52740000  0.90990000  0.45200000  1.0 -0.148326759
C  C44  1  0.02740000  0.09010000  0.04800000  1.0 -0.148326759
C  C45  1  0.52740000  0.59010000  0.45200000  1.0 -0.148326759
C  C46  1  0.02740000  0.40990000  0.04800000  1.0 -0.148326759
C  C47  1  0.47260000  0.09010000  0.54800000  1.0 -0.148326759
C  C48  1  0.97260000  0.90990000  0.95200000  1.0 -0.148326759
C  C49  1  0.48890000  0.49450000  0.60730000  1.0 0.6134983561
C  C50  1  0.98890000  0.50550000  0.89270000  1.0 0.6134983561
C  C51  1  0.51110000  0.99450000  0.39270000  1.0 0.6134983561
C  C52  1  0.01110000  0.00550000  0.10730000  1.0 0.6134983561
C  C53  1  0.51110000  0.50550000  0.39270000  1.0 0.6134983561
C  C54  1  0.01110000  0.49450000  0.10730000  1.0 0.6134983561
C  C55  1  0.48890000  0.00550000  0.60730000  1.0 0.6134983561
C  C56  1  0.98890000  0.99450000  0.89270000  1.0 0.6134983561
C  C57  1  0.27530000  0.53130000  0.49700000  1.0 0.5707572064
C  C58  1  0.77530000  0.46870000  0.00300000  1.0 0.5707572064
C  C59  1  0.72470000  0.03130000  0.50300000  1.0 0.5707572064
C  C60  1  0.22470000  0.96870000  0.99700000  1.0 0.5707572064
C  C61  1  0.72470000  0.46870000  0.50300000  1.0 0.5707572064
C  C62  1  0.22470000  0.53130000  0.99700000  1.0 0.5707572064
C  C63  1  0.27530000  0.96870000  0.49700000  1.0 0.5707572064
C  C64  1  0.77530000  0.03130000  0.00300000  1.0 0.5707572064
C  C65  1  0.45890000  0.31580000  0.49184000  1.0 -0.0019782512
C  C66  1  0.95890000  0.68420000  0.00816000  1.0 -0.0019782512
C  C67  1  0.54110000  0.81580000  0.50816000  1.0 -0.0019782512
C  C68  1  0.04110000  0.18420000  0.99184000  1.0 -0.0019782512
C  C69  1  0.54110000  0.68420000  0.50816000  1.0 -0.0019782512
C  C70  1  0.04110000  0.31580000  0.99184000  1.0 -0.0019782512
C  C71  1  0.45890000  0.18420000  0.49184000  1.0 -0.0019782512
C  C72  1  0.95890000  0.81580000  0.00816000  1.0 -0.0019782512
C  C73  1  0.44100000  0.25000000  0.51150000  1.0 0.1225049308
C  C74  1  0.94100000  0.75000000  0.98850000  1.0 0.1225049308
C  C75  1  0.55900000  0.75000000  0.48850000  1.0 0.1225049308
C  C76  1  0.05900000  0.25000000  0.01150000  1.0 0.1225049308
C  C77  1  0.49430000  0.31510000  0.45375000  1.0 -0.1206401187
C  C78  1  0.99430000  0.68490000  0.04625000  1.0 -0.1206401187
C  C79  1  0.50570000  0.81510000  0.54625000  1.0 -0.1206401187
C  C80  1  0.00570000  0.18490000  0.95375000  1.0 -0.1206401187
C  C81  1  0.50570000  0.68490000  0.54625000  1.0 -0.1206401187
C  C82  1  0.00570000  0.31510000  0.95375000  1.0 -0.1206401187
C  C83  1  0.49430000  0.18490000  0.45375000  1.0 -0.1206401187
C  C84  1  0.99430000  0.81510000  0.04625000  1.0 -0.1206401187
C  C85  1  0.51440000  0.25000000  0.43390000  1.0 -0.0090674721
C  C86  1  0.01440000  0.75000000  0.06610000  1.0 -0.0090674721
C  C87  1  0.48560000  0.75000000  0.56610000  1.0 -0.0090674721
C  C88  1  0.98560000  0.25000000  0.93390000  1.0 -0.0090674721
C  C89  1  0.55820000  0.25000000  0.39390000  1.0 0.655354943
C  C90  1  0.05820000  0.75000000  0.10610000  1.0 0.655354943
C  C91  1  0.44180000  0.75000000  0.60610000  1.0 0.655354943
C  C92  1  0.94180000  0.25000000  0.89390000  1.0 0.655354943
C  C93  1  0.93700000  0.52400000  0.64141000  1.0 -0.0090674721
C  C94  1  0.43700000  0.47600000  0.85859000  1.0 -0.0090674721
C  C95  1  0.06300000  0.02400000  0.35859000  1.0 -0.0090674721
C  C96  1  0.56300000  0.97600000  0.14141000  1.0 -0.0090674721
C  C97  1  0.06300000  0.47600000  0.35859000  1.0 -0.0090674721
C  C98  1  0.56300000  0.52400000  0.14141000  1.0 -0.0090674721
C  C99  1  0.93700000  0.97600000  0.64141000  1.0 -0.0090674721
C  C100  1  0.43700000  0.02400000  0.85859000  1.0 -0.0090674721
C  C101  1  0.92570000  0.48240000  0.67580000  1.0 -0.1108362247
C  C102  1  0.42570000  0.51760000  0.82420000  1.0 -0.1108362247
C  C103  1  0.07430000  0.98240000  0.32420000  1.0 -0.1108362247
C  C104  1  0.57430000  0.01760000  0.17580000  1.0 -0.1108362247
C  C105  1  0.07430000  0.51760000  0.32420000  1.0 -0.1108362247
C  C106  1  0.57430000  0.48240000  0.17580000  1.0 -0.1108362247
C  C107  1  0.92570000  0.01760000  0.67580000  1.0 -0.1108362247
C  C108  1  0.42570000  0.98240000  0.82420000  1.0 -0.1108362247
C  C109  1  0.95590000  0.50430000  0.71405000  1.0 -0.0019782512
C  C110  1  0.45590000  0.49570000  0.78595000  1.0 -0.0019782512
C  C111  1  0.04410000  0.00430000  0.28595000  1.0 -0.0019782512
C  C112  1  0.54410000  0.99570000  0.21405000  1.0 -0.0019782512
C  C113  1  0.04410000  0.49570000  0.28595000  1.0 -0.0019782512
C  C114  1  0.54410000  0.50430000  0.21405000  1.0 -0.0019782512
C  C115  1  0.95590000  0.99570000  0.71405000  1.0 -0.0019782512
C  C116  1  0.45590000  0.00430000  0.78595000  1.0 -0.0019782512
C  C117  1  0.99800000  0.56960000  0.71674000  1.0 -0.1307421104
C  C118  1  0.49800000  0.43040000  0.78326000  1.0 -0.1307421104
C  C119  1  0.00200000  0.06960000  0.28326000  1.0 -0.1307421104
C  C120  1  0.50200000  0.93040000  0.21674000  1.0 -0.1307421104
C  C121  1  0.00200000  0.43040000  0.28326000  1.0 -0.1307421104
C  C122  1  0.50200000  0.56960000  0.21674000  1.0 -0.1307421104
C  C123  1  0.99800000  0.93040000  0.71674000  1.0 -0.1307421104
C  C124  1  0.49800000  0.06960000  0.78326000  1.0 -0.1307421104
C  C125  1  0.00760000  0.61340000  0.68181000  1.0 0.0541224721
C  C126  1  0.50760000  0.38660000  0.81819000  1.0 0.0541224721
C  C127  1  0.99240000  0.11340000  0.31819000  1.0 0.0541224721
C  C128  1  0.49240000  0.88660000  0.18181000  1.0 0.0541224721
C  C129  1  0.99240000  0.38660000  0.31819000  1.0 0.0541224721
C  C130  1  0.49240000  0.61340000  0.18181000  1.0 0.0541224721
C  C131  1  0.00760000  0.88660000  0.68181000  1.0 0.0541224721
C  C132  1  0.50760000  0.11340000  0.81819000  1.0 0.0541224721
C  C133  1  0.97680000  0.58960000  0.64468000  1.0 -0.148326759
C  C134  1  0.47680000  0.41040000  0.85532000  1.0 -0.1560872214
C  C135  1  0.02320000  0.08960000  0.35532000  1.0 -0.1560872214
C  C136  1  0.52320000  0.91040000  0.14468000  1.0 -0.1560872214
C  C137  1  0.02320000  0.41040000  0.35532000  1.0 -0.1560872214
C  C138  1  0.52320000  0.58960000  0.14468000  1.0 -0.1560872214
C  C139  1  0.97680000  0.91040000  0.64468000  1.0 -0.1560872214
C  C140  1  0.47680000  0.08960000  0.85532000  1.0 -0.1560872214
C  C141  1  0.90890000  0.49530000  0.60040000  1.0 0.5794164798
C  C142  1  0.40890000  0.50470000  0.89960000  1.0 0.5794164798
C  C143  1  0.09110000  0.99530000  0.39960000  1.0 0.5794164798
C  C144  1  0.59110000  0.00470000  0.10040000  1.0 0.5794164798
C  C145  1  0.09110000  0.50470000  0.39960000  1.0 0.5794164798
C  C146  1  0.59110000  0.49530000  0.10040000  1.0 0.5794164798
C  C147  1  0.90890000  0.00470000  0.60040000  1.0 0.5794164798
C  C148  1  0.40890000  0.99530000  0.89960000  1.0 0.5794164798
C  C149  1  0.94370000  0.45770000  0.75091000  1.0 0.5596750676
C  C150  1  0.44370000  0.54230000  0.74909000  1.0 0.5596750676
C  C151  1  0.05630000  0.95770000  0.24909000  1.0 0.5596750676
C  C152  1  0.55630000  0.04230000  0.25091000  1.0 0.5596750676
C  C153  1  0.05630000  0.54230000  0.24909000  1.0 0.5596750676
C  C154  1  0.55630000  0.45770000  0.25091000  1.0 0.5596750676
C  C155  1  0.94370000  0.04230000  0.75091000  1.0 0.5596750676
C  C156  1  0.44370000  0.95770000  0.74909000  1.0 0.5596750676
C  C157  1  0.05200000  0.68410000  0.68568000  1.0 0.0034212245
C  C158  1  0.55200000  0.31590000  0.81432000  1.0 0.0034212245
C  C159  1  0.94800000  0.18410000  0.31432000  1.0 0.0034212245
C  C160  1  0.44800000  0.81590000  0.18568000  1.0 0.0034212245
C  C161  1  0.94800000  0.31590000  0.31432000  1.0 0.0034212245
C  C162  1  0.44800000  0.68410000  0.18568000  1.0 0.0034212245
C  C163  1  0.05200000  0.81590000  0.68568000  1.0 0.0034212245
C  C164  1  0.55200000  0.18410000  0.81432000  1.0 0.0034212245
C  C165  1  0.01080000  0.75000000  0.68180000  1.0 0.1062440256
C  C166  1  0.51080000  0.25000000  0.81820000  1.0 0.1062440256
C  C167  1  0.98920000  0.25000000  0.31820000  1.0 0.1062440256
C  C168  1  0.48920000  0.75000000  0.18180000  1.0 0.1062440256
C  C169  1  0.13490000  0.68560000  0.69267000  1.0 -0.148326759
C  C170  1  0.63490000  0.31440000  0.80733000  1.0 -0.148326759
C  C171  1  0.86510000  0.18560000  0.30733000  1.0 -0.148326759
C  C172  1  0.36510000  0.81440000  0.19267000  1.0 -0.148326759
C  C173  1  0.86510000  0.31440000  0.30733000  1.0 -0.148326759
C  C174  1  0.36510000  0.68560000  0.19267000  1.0 -0.148326759
C  C175  1  0.13490000  0.81440000  0.69267000  1.0 -0.148326759
C  C176  1  0.63490000  0.18560000  0.80733000  1.0 -0.148326759
C  C177  1  0.17890000  0.75000000  0.69570000  1.0 -0.0090674721
C  C178  1  0.67890000  0.25000000  0.80430000  1.0 -0.0090674721
C  C179  1  0.82110000  0.25000000  0.30430000  1.0 -0.0090674721
C  C180  1  0.32110000  0.75000000  0.19570000  1.0 -0.0090674721
C  C181  1  0.26990000  0.75000000  0.69830000  1.0 0.6701813898
C  C182  1  0.76990000  0.25000000  0.80170000  1.0 0.6701813898
C  C183  1  0.73010000  0.25000000  0.30170000  1.0 0.6701813898
C  C184  1  0.23010000  0.75000000  0.19830000  1.0 0.6701813898
C  C185  1  0.60590000  0.94410000  0.90992000  1.0 -0.0284767711
C  C186  1  0.10590000  0.05590000  0.59008000  1.0 -0.0284767711
C  C187  1  0.39410000  0.44410000  0.09008000  1.0 -0.0284767711
C  C188  1  0.89410000  0.55590000  0.40992000  1.0 -0.0284767711
C  C189  1  0.39410000  0.05590000  0.09008000  1.0 -0.0284767711
C  C190  1  0.89410000  0.94410000  0.40992000  1.0 -0.0284767711
C  C191  1  0.60590000  0.55590000  0.90992000  1.0 -0.0284767711
C  C192  1  0.10590000  0.44410000  0.59008000  1.0 -0.0284767711
C  C193  1  0.66500000  0.99400000  0.89761000  1.0 -0.1043208708
C  C194  1  0.16500000  0.00600000  0.60239000  1.0 -0.1043208708
C  C195  1  0.33500000  0.49400000  0.10239000  1.0 -0.1043208708
C  C196  1  0.83500000  0.50600000  0.39761000  1.0 -0.1043208708
C  C197  1  0.33500000  0.00600000  0.10239000  1.0 -0.1043208708
C  C198  1  0.83500000  0.99400000  0.39761000  1.0 -0.1043208708
C  C199  1  0.66500000  0.50600000  0.89761000  1.0 -0.1043208708
C  C200  1  0.16500000  0.49400000  0.60239000  1.0 -0.1043208708
C  C201  1  0.70090000  0.98950000  0.85929000  1.0 0.0034212245
C  C202  1  0.20090000  0.01050000  0.64071000  1.0 0.0034212245
C  C203  1  0.29910000  0.48950000  0.14071000  1.0 0.0034212245
C  C204  1  0.79910000  0.51050000  0.35929000  1.0 0.0034212245
C  C205  1  0.29910000  0.01050000  0.14071000  1.0 0.0034212245
C  C206  1  0.79910000  0.98950000  0.35929000  1.0 0.0034212245
C  C207  1  0.70090000  0.51050000  0.85929000  1.0 0.0034212245
C  C208  1  0.20090000  0.48950000  0.64071000  1.0 0.0034212245
C  C209  1  0.67820000  0.93320000  0.83276000  1.0 -0.1307421104
C  C210  1  0.17820000  0.06680000  0.66724000  1.0 -0.1307421104
C  C211  1  0.32180000  0.43320000  0.16724000  1.0 -0.1307421104
C  C212  1  0.82180000  0.56680000  0.33276000  1.0 -0.1307421104
C  C213  1  0.32180000  0.06680000  0.16724000  1.0 -0.1307421104
C  C214  1  0.82180000  0.93320000  0.33276000  1.0 -0.1307421104
C  C215  1  0.67820000  0.56680000  0.83276000  1.0 -0.1307421104
C  C216  1  0.17820000  0.43320000  0.66724000  1.0 -0.1307421104
C  C217  1  0.62080000  0.88260000  0.84411000  1.0 0.0669652986
C  C218  1  0.12080000  0.11740000  0.65589000  1.0 0.0669652986
C  C219  1  0.37920000  0.38260000  0.15589000  1.0 0.0669652986
C  C220  1  0.87920000  0.61740000  0.34411000  1.0 0.0669652986
C  C221  1  0.37920000  0.11740000  0.15589000  1.0 0.0669652986
C  C222  1  0.87920000  0.88260000  0.34411000  1.0 0.0669652986
C  C223  1  0.62080000  0.61740000  0.84411000  1.0 0.0669652986
C  C224  1  0.12080000  0.38260000  0.65589000  1.0 0.0669652986
C  C225  1  0.58430000  0.89040000  0.88270000  1.0 -0.148326759
C  C226  1  0.08430000  0.10960000  0.61730000  1.0 -0.148326759
C  C227  1  0.41570000  0.39040000  0.11730000  1.0 -0.148326759
C  C228  1  0.91570000  0.60960000  0.38270000  1.0 -0.148326759
C  C229  1  0.41570000  0.10960000  0.11730000  1.0 -0.148326759
C  C230  1  0.91570000  0.89040000  0.38270000  1.0 -0.148326759
C  C231  1  0.58430000  0.60960000  0.88270000  1.0 -0.148326759
C  C232  1  0.08430000  0.39040000  0.61730000  1.0 -0.148326759
C  C233  1  0.56810000  0.94570000  0.95160000  1.0 0.6789506934
C  C234  1  0.06810000  0.05430000  0.54840000  1.0 0.6789506934
C  C235  1  0.43190000  0.44570000  0.04840000  1.0 0.6789506934
C  C236  1  0.93190000  0.55430000  0.45160000  1.0 0.6789506934
C  C237  1  0.43190000  0.05430000  0.04840000  1.0 0.6789506934
C  C238  1  0.93190000  0.94570000  0.45160000  1.0 0.6789506934
C  C239  1  0.56810000  0.55430000  0.95160000  1.0 0.6789506934
C  C240  1  0.06810000  0.44570000  0.54840000  1.0 0.6789506934
C  C241  1  0.76830000  0.03850000  0.84690000  1.0 0.5596750676
C  C242  1  0.26830000  0.96150000  0.65310000  1.0 0.5596750676
C  C243  1  0.23170000  0.53850000  0.15310000  1.0 0.5596750676
C  C244  1  0.73170000  0.46150000  0.34690000  1.0 0.5596750676
C  C245  1  0.23170000  0.96150000  0.15310000  1.0 0.5596750676
C  C246  1  0.73170000  0.03850000  0.34690000  1.0 0.5596750676
C  C247  1  0.76830000  0.46150000  0.84690000  1.0 0.5596750676
C  C248  1  0.26830000  0.53850000  0.65310000  1.0 0.5596750676
C  C249  1  0.60580000  0.81610000  0.81959000  1.0 0.0034212245
C  C250  1  0.10580000  0.18390000  0.68041000  1.0 0.0034212245
C  C251  1  0.39420000  0.31610000  0.18041000  1.0 0.0034212245
C  C252  1  0.89420000  0.68390000  0.31959000  1.0 0.0034212245
C  C253  1  0.39420000  0.18390000  0.18041000  1.0 0.0034212245
C  C254  1  0.89420000  0.81610000  0.31959000  1.0 0.0034212245
C  C255  1  0.60580000  0.68390000  0.81959000  1.0 0.0034212245
C  C256  1  0.10580000  0.31610000  0.68041000  1.0 0.0034212245
C  C257  1  0.62560000  0.75000000  0.83980000  1.0 0.1004438306
C  C258  1  0.12560000  0.25000000  0.66020000  1.0 0.1004438306
C  C259  1  0.37440000  0.25000000  0.16020000  1.0 0.1004438306
C  C260  1  0.87440000  0.75000000  0.33980000  1.0 0.1004438306
C  C261  1  0.57380000  0.81500000  0.78024000  1.0 -0.1370688427
C  C262  1  0.07380000  0.18500000  0.71976000  1.0 -0.1370688427
C  C263  1  0.42620000  0.31500000  0.21976000  1.0 -0.1370688427
C  C264  1  0.92620000  0.68500000  0.28024000  1.0 -0.1370688427
C  C265  1  0.42620000  0.18500000  0.21976000  1.0 -0.1370688427
C  C266  1  0.92620000  0.81500000  0.28024000  1.0 -0.1370688427
C  C267  1  0.57380000  0.68500000  0.78024000  1.0 -0.1370688427
C  C268  1  0.07380000  0.31500000  0.71976000  1.0 -0.1370688427
C  C269  1  0.55760000  0.75000000  0.75990000  1.0 0.0034212245
C  C270  1  0.05760000  0.25000000  0.74010000  1.0 -0.0019782512
C  C271  1  0.44240000  0.25000000  0.24010000  1.0 0.0034212245
C  C272  1  0.94240000  0.75000000  0.25990000  1.0 0.0034212245
C  C273  1  0.51890000  0.75000000  0.71740000  1.0 0.6701813898
C  C274  1  0.01890000  0.25000000  0.78260000  1.0 0.6701813898
C  C275  1  0.48110000  0.25000000  0.28260000  1.0 0.6701813898
C  C276  1  0.98110000  0.75000000  0.21740000  1.0 0.6701813898
C  C277  1  0.61010000  0.25000000  0.04340000  1.0 0.7906132451
C  C278  1  0.11010000  0.75000000  0.45660000  1.0 0.7906132451
C  C279  1  0.38990000  0.75000000  0.95660000  1.0 0.7906132451
C  C280  1  0.88990000  0.25000000  0.54340000  1.0 0.7906132451
N  N1  1  0.40470000  0.25000000  0.55140000  1.0 -0.4121645877
N  N2  1  0.90470000  0.75000000  0.94860000  1.0 -0.4121645877
N  N3  1  0.59530000  0.75000000  0.44860000  1.0 -0.4121645877
N  N4  1  0.09530000  0.25000000  0.05140000  1.0 -0.4121645877
N  N5  1  0.92540000  0.75000000  0.67570000  1.0 -0.3358965554
N  N6  1  0.42540000  0.25000000  0.82430000  1.0 -0.3341274896
N  N7  1  0.07460000  0.25000000  0.32430000  1.0 -0.3358965554
N  N8  1  0.57460000  0.75000000  0.17570000  1.0 -0.3358965554
N  N9  1  0.66840000  0.75000000  0.87720000  1.0 -0.4372007438
N  N10  1  0.16840000  0.25000000  0.62280000  1.0 -0.4372007438
N  N11  1  0.33160000  0.25000000  0.12280000  1.0 -0.4372007438
N  N12  1  0.83160000  0.75000000  0.37720000  1.0 -0.4372007438
O  O1  1  0.46510000  0.54620000  0.62775000  1.0 -0.6315012464
O  O2  1  0.96510000  0.45380000  0.87225000  1.0 -0.6315012464
O  O3  1  0.53490000  0.04620000  0.37225000  1.0 -0.6315012464
O  O4  1  0.03490000  0.95380000  0.12775000  1.0 -0.6315012464
O  O5  1  0.53490000  0.45380000  0.37225000  1.0 -0.6315012464
O  O6  1  0.03490000  0.54620000  0.12775000  1.0 -0.6315012464
O  O7  1  0.46510000  0.95380000  0.62775000  1.0 -0.6315012464
O  O8  1  0.96510000  0.04620000  0.87225000  1.0 -0.6315012464
O  O9  1  0.55080000  0.45830000  0.61830000  1.0 -0.4511477464
O  O10  1  0.05080000  0.54170000  0.88170000  1.0 -0.4511477464
O  O11  1  0.44920000  0.95830000  0.38170000  1.0 -0.4511477464
O  O12  1  0.94920000  0.04170000  0.11830000  1.0 -0.4511477464
O  O13  1  0.44920000  0.54170000  0.38170000  1.0 -0.4511477464
O  O14  1  0.94920000  0.45830000  0.11830000  1.0 -0.4511477464
O  O15  1  0.55080000  0.04170000  0.61830000  1.0 -0.4511477464
O  O16  1  0.05080000  0.95830000  0.88170000  1.0 -0.4511477464
O  O17  1  0.24690000  0.58600000  0.51506000  1.0 -0.6177251824
O  O18  1  0.74690000  0.41400000  0.98494000  1.0 -0.6177251824
O  O19  1  0.75310000  0.08600000  0.48494000  1.0 -0.6177251824
O  O20  1  0.25310000  0.91400000  0.01506000  1.0 -0.6177251824
O  O21  1  0.75310000  0.41400000  0.48494000  1.0 -0.6177251824
O  O22  1  0.25310000  0.58600000  0.01506000  1.0 -0.6177251824
O  O23  1  0.24690000  0.91400000  0.51506000  1.0 -0.6177251824
O  O24  1  0.74690000  0.08600000  0.98494000  1.0 -0.6177251824
O  O25  1  0.24280000  0.50640000  0.46467000  1.0 -0.6108541471
O  O26  1  0.74280000  0.49360000  0.03533000  1.0 -0.6108541471
O  O27  1  0.75720000  0.00640000  0.53533000  1.0 -0.6108541471
O  O28  1  0.25720000  0.99360000  0.96467000  1.0 -0.6108541471
O  O29  1  0.75720000  0.49360000  0.53533000  1.0 -0.6108541471
O  O30  1  0.25720000  0.50640000  0.96467000  1.0 -0.6108541471
O  O31  1  0.24280000  0.99360000  0.46467000  1.0 -0.6108541471
O  O32  1  0.74280000  0.00640000  0.03533000  1.0 -0.6108541471
O  O33  1  0.57900000  0.19120000  0.37865000  1.0 -0.639317114
O  O34  1  0.07900000  0.80880000  0.12135000  1.0 -0.639317114
O  O35  1  0.42100000  0.69120000  0.62135000  1.0 -0.639317114
O  O36  1  0.92100000  0.30880000  0.87865000  1.0 -0.639317114
O  O37  1  0.42100000  0.80880000  0.62135000  1.0 -0.639317114
O  O38  1  0.92100000  0.19120000  0.87865000  1.0 -0.639317114
O  O39  1  0.57900000  0.30880000  0.37865000  1.0 -0.639317114
O  O40  1  0.07900000  0.69120000  0.12135000  1.0 -0.639317114
O  O41  1  0.98120000  0.47160000  0.78415000  1.0 -0.602522459
O  O42  1  0.48120000  0.52840000  0.71585000  1.0 -0.602522459
O  O43  1  0.01880000  0.97160000  0.21585000  1.0 -0.602522459
O  O44  1  0.51880000  0.02840000  0.28415000  1.0 -0.602522459
O  O45  1  0.01880000  0.52840000  0.21585000  1.0 -0.602522459
O  O46  1  0.51880000  0.47160000  0.28415000  1.0 -0.602522459
O  O47  1  0.98120000  0.02840000  0.78415000  1.0 -0.602522459
O  O48  1  0.48120000  0.97160000  0.71585000  1.0 -0.602522459
O  O49  1  0.89520000  0.40410000  0.74881000  1.0 -0.6177251824
O  O50  1  0.39520000  0.59590000  0.75119000  1.0 -0.6177251824
O  O51  1  0.10480000  0.90410000  0.25119000  1.0 -0.6177251824
O  O52  1  0.60480000  0.09590000  0.24881000  1.0 -0.6177251824
O  O53  1  0.10480000  0.59590000  0.25119000  1.0 -0.6177251824
O  O54  1  0.60480000  0.40410000  0.24881000  1.0 -0.6177251824
O  O55  1  0.89520000  0.09590000  0.74881000  1.0 -0.6177251824
O  O56  1  0.39520000  0.90410000  0.75119000  1.0 -0.6177251824
O  O57  1  0.87300000  0.43590000  0.59838000  1.0 -0.6108541471
O  O58  1  0.37300000  0.56410000  0.90162000  1.0 -0.6108541471
O  O59  1  0.12700000  0.93590000  0.40162000  1.0 -0.6108541471
O  O60  1  0.62700000  0.06410000  0.09838000  1.0 -0.6108541471
O  O61  1  0.12700000  0.56410000  0.40162000  1.0 -0.6108541471
O  O62  1  0.62700000  0.43590000  0.09838000  1.0 -0.6108541471
O  O63  1  0.87300000  0.06410000  0.59838000  1.0 -0.6108541471
O  O64  1  0.37300000  0.93590000  0.90162000  1.0 -0.6108541471
O  O65  1  0.92580000  0.53060000  0.56744000  1.0 -0.6108541471
O  O66  1  0.42580000  0.46940000  0.93256000  1.0 -0.6108541471
O  O67  1  0.07420000  0.03060000  0.43256000  1.0 -0.6108541471
O  O68  1  0.57420000  0.96940000  0.06744000  1.0 -0.6108541471
O  O69  1  0.07420000  0.46940000  0.43256000  1.0 -0.6108541471
O  O70  1  0.57420000  0.53060000  0.06744000  1.0 -0.6108541471
O  O71  1  0.92580000  0.96940000  0.56744000  1.0 -0.6108541471
O  O72  1  0.42580000  0.03060000  0.93256000  1.0 -0.6108541471
O  O73  1  0.30560000  0.69030000  0.69980000  1.0 -0.6509263703
O  O74  1  0.80560000  0.30970000  0.80020000  1.0 -0.6509263703
O  O75  1  0.69440000  0.19030000  0.30020000  1.0 -0.6509263703
O  O76  1  0.19440000  0.80970000  0.19980000  1.0 -0.6509263703
O  O77  1  0.69440000  0.30970000  0.30020000  1.0 -0.6509263703
O  O78  1  0.19440000  0.69030000  0.19980000  1.0 -0.6509263703
O  O79  1  0.30560000  0.80970000  0.69980000  1.0 -0.6509263703
O  O80  1  0.80560000  0.19030000  0.80020000  1.0 -0.6509263703
O  O81  1  0.59780000  0.98850000  0.97756000  1.0 -0.6606989988
O  O82  1  0.09780000  0.01150000  0.52244000  1.0 -0.6606989988
O  O83  1  0.40220000  0.48850000  0.02244000  1.0 -0.6606989988
O  O84  1  0.90220000  0.51150000  0.47756000  1.0 -0.6606989988
O  O85  1  0.40220000  0.01150000  0.02244000  1.0 -0.6606989988
O  O86  1  0.90220000  0.98850000  0.47756000  1.0 -0.6606989988
O  O87  1  0.59780000  0.51150000  0.97756000  1.0 -0.6606989988
O  O88  1  0.09780000  0.48850000  0.52244000  1.0 -0.6606989988
O  O89  1  0.51020000  0.90460000  0.95886000  1.0 -0.6606989988
O  O90  1  0.01020000  0.09540000  0.54114000  1.0 -0.6606989988
O  O91  1  0.48980000  0.40460000  0.04114000  1.0 -0.6606989988
O  O92  1  0.98980000  0.59540000  0.45886000  1.0 -0.6606989988
O  O93  1  0.48980000  0.09540000  0.04114000  1.0 -0.6606989988
O  O94  1  0.98980000  0.90460000  0.45886000  1.0 -0.6606989988
O  O95  1  0.51020000  0.59540000  0.95886000  1.0 -0.6606989988
O  O96  1  0.01020000  0.40460000  0.54114000  1.0 -0.6606989988
O  O97  1  0.78610000  0.09150000  0.86879000  1.0 -0.5836039075
O  O98  1  0.28610000  0.90850000  0.63121000  1.0 -0.5836039075
O  O99  1  0.21390000  0.59150000  0.13121000  1.0 -0.5836039075
O  O100  1  0.71390000  0.40850000  0.36879000  1.0 -0.5836039075
O  O101  1  0.21390000  0.90850000  0.13121000  1.0 -0.5836039075
O  O102  1  0.71390000  0.09150000  0.36879000  1.0 -0.5836039075
O  O103  1  0.78610000  0.40850000  0.86879000  1.0 -0.5836039075
O  O104  1  0.28610000  0.59150000  0.63121000  1.0 -0.5836039075
O  O105  1  0.80810000  0.02310000  0.81462000  1.0 -0.6108541471
O  O106  1  0.30810000  0.97690000  0.68538000  1.0 -0.6108541471
O  O107  1  0.19190000  0.52310000  0.18538000  1.0 -0.6108541471
O  O108  1  0.69190000  0.47690000  0.31462000  1.0 -0.6108541471
O  O109  1  0.19190000  0.97690000  0.18538000  1.0 -0.6108541471
O  O110  1  0.69190000  0.02310000  0.31462000  1.0 -0.6108541471
O  O111  1  0.80810000  0.47690000  0.81462000  1.0 -0.6108541471
O  O112  1  0.30810000  0.52310000  0.68538000  1.0 -0.6108541471
O  O113  1  0.50360000  0.68970000  0.70168000  1.0 -0.6509263703
O  O114  1  0.00360000  0.31030000  0.79832000  1.0 -0.6509263703
O  O115  1  0.49640000  0.18970000  0.29832000  1.0 -0.6509263703
O  O116  1  0.99640000  0.81030000  0.20168000  1.0 -0.6509263703
O  O117  1  0.49640000  0.31030000  0.29832000  1.0 -0.6509263703
O  O118  1  0.99640000  0.68970000  0.20168000  1.0 -0.6509263703
O  O119  1  0.50360000  0.81030000  0.70168000  1.0 -0.6509263703
O  O120  1  0.00360000  0.18970000  0.79832000  1.0 -0.6509263703
O  O121  1  0.64620000  0.19040000  0.04063000  1.0 -0.639317114
O  O122  1  0.14620000  0.80960000  0.45937000  1.0 -0.639317114
O  O123  1  0.35380000  0.69040000  0.95937000  1.0 -0.639317114
O  O124  1  0.85380000  0.30960000  0.54063000  1.0 -0.639317114
O  O125  1  0.35380000  0.80960000  0.95937000  1.0 -0.639317114
O  O126  1  0.85380000  0.19040000  0.54063000  1.0 -0.639317114
O  O127  1  0.64620000  0.30960000  0.04063000  1.0 -0.639317114
O  O128  1  0.14620000  0.69040000  0.45937000  1.0 -0.639317114
