# DDEC6 charges by PACMAN v1.1 (https://github.com/mtap-research/PACMAN-charge/)
data_TIMMEI_ASR_pacman
_symmetry_space_group_name_H-M   'P 1'
_cell_length_a   24.21100000
_cell_length_b   24.21100000
_cell_length_c   23.32700000
_cell_angle_alpha   90.00000000
_cell_angle_beta   90.00000000
_cell_angle_gamma   90.00000000
_symmetry_Int_Tables_number   1
_chemical_formula_structural   Ag5H44C52(N5O3)4
_chemical_formula_sum   'Ag40 H352 C416 N160 O96'
_cell_volume   13673.64639737
_cell_formula_units_Z   8
loop_
 _symmetry_equiv_pos_site_id
 _symmetry_equiv_pos_as_xyz
  1  'x, y, z'
loop_
 _atom_site_type_symbol
 _atom_site_label
 _atom_site_symmetry_multiplicity
 _atom_site_fract_x
 _atom_site_fract_y
 _atom_site_fract_z
 _atom_site_occupancy
 _atom_site_charge
Ag  Ag1  1  0.25000000  0.92065000  0.00000000  1.0 0.2962047415
Ag  Ag2  1  0.75000000  0.07935000  0.00000000  1.0 0.2962047415
Ag  Ag3  1  0.25000000  0.07935000  0.50000000  1.0 0.2962047415
Ag  Ag4  1  0.75000000  0.92065000  0.50000000  1.0 0.2962047415
Ag  Ag5  1  0.32935000  0.00000000  0.25000000  1.0 0.2962047415
Ag  Ag6  1  0.67065000  0.00000000  0.75000000  1.0 0.2962047415
Ag  Ag7  1  0.17065000  0.00000000  0.75000000  1.0 0.2962047415
Ag  Ag8  1  0.82935000  0.00000000  0.25000000  1.0 0.2962047415
Ag  Ag9  1  0.75000000  0.42065000  0.50000000  1.0 0.2962047415
Ag  Ag10  1  0.25000000  0.57935000  0.50000000  1.0 0.2962047415
Ag  Ag11  1  0.75000000  0.57935000  0.00000000  1.0 0.2962047415
Ag  Ag12  1  0.25000000  0.42065000  0.00000000  1.0 0.2962047415
Ag  Ag13  1  0.82935000  0.50000000  0.75000000  1.0 0.2962047415
Ag  Ag14  1  0.17065000  0.50000000  0.25000000  1.0 0.2962047415
Ag  Ag15  1  0.67065000  0.50000000  0.25000000  1.0 0.2962047415
Ag  Ag16  1  0.32935000  0.50000000  0.75000000  1.0 0.2962047415
Ag  Ag17  1  0.00000000  0.75000000  0.99495000  1.0 0.3082135743
Ag  Ag18  1  0.00000000  0.25000000  0.00505000  1.0 0.3082135743
Ag  Ag19  1  0.50000000  0.25000000  0.49495000  1.0 0.3082135743
Ag  Ag20  1  0.50000000  0.75000000  0.50505000  1.0 0.3082135743
Ag  Ag21  1  0.50000000  0.75000000  0.24495000  1.0 0.3082135743
Ag  Ag22  1  0.50000000  0.25000000  0.75505000  1.0 0.3082135743
Ag  Ag23  1  0.00000000  0.25000000  0.74495000  1.0 0.3082135743
Ag  Ag24  1  0.00000000  0.75000000  0.25505000  1.0 0.3082135743
Ag  Ag25  1  0.50000000  0.75000000  0.00505000  1.0 0.3082135743
Ag  Ag26  1  0.50000000  0.25000000  0.99495000  1.0 0.3082135743
Ag  Ag27  1  0.00000000  0.25000000  0.50505000  1.0 0.3082135743
Ag  Ag28  1  0.00000000  0.75000000  0.49495000  1.0 0.3082135743
Ag  Ag29  1  0.00000000  0.75000000  0.75505000  1.0 0.3082135743
Ag  Ag30  1  0.00000000  0.25000000  0.24495000  1.0 0.3082135743
Ag  Ag31  1  0.50000000  0.25000000  0.25505000  1.0 0.3082135743
Ag  Ag32  1  0.50000000  0.75000000  0.74495000  1.0 0.3082135743
Ag  Ag33  1  0.00000000  0.75000000  0.12500000  1.0 0.4579388717
Ag  Ag34  1  0.00000000  0.25000000  0.87500000  1.0 0.4579388717
Ag  Ag35  1  0.50000000  0.25000000  0.62500000  1.0 0.4579388717
Ag  Ag36  1  0.50000000  0.75000000  0.37500000  1.0 0.4579388717
Ag  Ag37  1  0.50000000  0.75000000  0.87500000  1.0 0.4579388717
Ag  Ag38  1  0.50000000  0.25000000  0.12500000  1.0 0.4579388717
Ag  Ag39  1  0.00000000  0.25000000  0.37500000  1.0 0.4579388717
Ag  Ag40  1  0.00000000  0.75000000  0.62500000  1.0 0.4579388717
H  H1  1  0.20376000  0.80265000  0.05705000  1.0 0.1002591494
H  H2  1  0.79624000  0.19735000  0.94295000  1.0 0.1002591494
H  H3  1  0.29624000  0.19735000  0.55705000  1.0 0.1002591494
H  H4  1  0.70376000  0.80265000  0.44295000  1.0 0.1002591494
H  H5  1  0.44735000  0.95376000  0.30705000  1.0 0.1002591494
H  H6  1  0.55265000  0.04624000  0.69295000  1.0 0.1002591494
H  H7  1  0.05265000  0.04624000  0.80705000  1.0 0.1002591494
H  H8  1  0.94735000  0.95376000  0.19295000  1.0 0.1002591494
H  H9  1  0.29624000  0.80265000  0.94295000  1.0 0.1002591494
H  H10  1  0.70376000  0.19735000  0.05705000  1.0 0.1002591494
H  H11  1  0.20376000  0.19735000  0.44295000  1.0 0.1002591494
H  H12  1  0.79624000  0.80265000  0.55705000  1.0 0.1002591494
H  H13  1  0.05265000  0.95376000  0.69295000  1.0 0.1002591494
H  H14  1  0.94735000  0.04624000  0.30705000  1.0 0.1002591494
H  H15  1  0.44735000  0.04624000  0.19295000  1.0 0.1002591494
H  H16  1  0.55265000  0.95376000  0.80705000  1.0 0.1002591494
H  H17  1  0.70376000  0.30265000  0.55705000  1.0 0.1002591494
H  H18  1  0.29624000  0.69735000  0.44295000  1.0 0.1002591494
H  H19  1  0.79624000  0.69735000  0.05705000  1.0 0.1002591494
H  H20  1  0.20376000  0.30265000  0.94295000  1.0 0.1002591494
H  H21  1  0.94735000  0.45376000  0.80705000  1.0 0.1002591494
H  H22  1  0.05265000  0.54624000  0.19295000  1.0 0.1002591494
H  H23  1  0.55265000  0.54624000  0.30705000  1.0 0.1002591494
H  H24  1  0.44735000  0.45376000  0.69295000  1.0 0.1002591494
H  H25  1  0.79624000  0.30265000  0.44295000  1.0 0.1002591494
H  H26  1  0.20376000  0.69735000  0.55705000  1.0 0.1002591494
H  H27  1  0.70376000  0.69735000  0.94295000  1.0 0.1002591494
H  H28  1  0.29624000  0.30265000  0.05705000  1.0 0.1002591494
H  H29  1  0.55265000  0.45376000  0.19295000  1.0 0.1002591494
H  H30  1  0.44735000  0.54624000  0.80705000  1.0 0.1002591494
H  H31  1  0.94735000  0.54624000  0.69295000  1.0 0.1002591494
H  H32  1  0.05265000  0.45376000  0.30705000  1.0 0.1002591494
H  H33  1  0.11928000  0.74244000  0.05103000  1.0 0.1120033906
H  H34  1  0.88072000  0.25756000  0.94897000  1.0 0.1120033906
H  H35  1  0.38072000  0.25756000  0.55103000  1.0 0.1120033906
H  H36  1  0.61928000  0.74244000  0.44897000  1.0 0.1120033906
H  H37  1  0.50756000  0.86928000  0.30103000  1.0 0.1120033906
H  H38  1  0.49244000  0.13072000  0.69897000  1.0 0.1120033906
H  H39  1  0.99244000  0.13072000  0.80103000  1.0 0.1120033906
H  H40  1  0.00756000  0.86928000  0.19897000  1.0 0.1120033906
H  H41  1  0.38072000  0.74244000  0.94897000  1.0 0.1120033906
H  H42  1  0.61928000  0.25756000  0.05103000  1.0 0.1120033906
H  H43  1  0.11928000  0.25756000  0.44897000  1.0 0.1120033906
H  H44  1  0.88072000  0.74244000  0.55103000  1.0 0.1120033906
H  H45  1  0.99244000  0.86928000  0.69897000  1.0 0.1120033906
H  H46  1  0.00756000  0.13072000  0.30103000  1.0 0.1120033906
H  H47  1  0.50756000  0.13072000  0.19897000  1.0 0.1120033906
H  H48  1  0.49244000  0.86928000  0.80103000  1.0 0.1120033906
H  H49  1  0.61928000  0.24244000  0.55103000  1.0 0.1120033906
H  H50  1  0.38072000  0.75756000  0.44897000  1.0 0.1120033906
H  H51  1  0.88072000  0.75756000  0.05103000  1.0 0.1120033906
H  H52  1  0.11928000  0.24244000  0.94897000  1.0 0.1120033906
H  H53  1  0.00756000  0.36928000  0.80103000  1.0 0.1120033906
H  H54  1  0.99244000  0.63072000  0.19897000  1.0 0.1120033906
H  H55  1  0.49244000  0.63072000  0.30103000  1.0 0.1120033906
H  H56  1  0.50756000  0.36928000  0.69897000  1.0 0.1120033906
H  H57  1  0.88072000  0.24244000  0.44897000  1.0 0.1120033906
H  H58  1  0.11928000  0.75756000  0.55103000  1.0 0.1120033906
H  H59  1  0.61928000  0.75756000  0.94897000  1.0 0.1120033906
H  H60  1  0.38072000  0.24244000  0.05103000  1.0 0.1120033906
H  H61  1  0.49244000  0.36928000  0.19897000  1.0 0.1120033906
H  H62  1  0.50756000  0.63072000  0.80103000  1.0 0.1120033906
H  H63  1  0.00756000  0.63072000  0.69897000  1.0 0.1120033906
H  H64  1  0.99244000  0.36928000  0.30103000  1.0 0.1120033906
H  H65  1  0.04718000  0.85893000  0.94036000  1.0 0.1002591494
H  H66  1  0.95282000  0.14107000  0.05964000  1.0 0.1002591494
H  H67  1  0.45282000  0.14107000  0.44036000  1.0 0.1002591494
H  H68  1  0.54718000  0.85893000  0.55964000  1.0 0.1002591494
H  H69  1  0.39107000  0.79718000  0.19036000  1.0 0.1002591494
H  H70  1  0.60893000  0.20282000  0.80964000  1.0 0.1002591494
H  H71  1  0.10893000  0.20282000  0.69036000  1.0 0.1002591494
H  H72  1  0.89107000  0.79718000  0.30964000  1.0 0.1002591494
H  H73  1  0.45282000  0.85893000  0.05964000  1.0 0.1002591494
H  H74  1  0.54718000  0.14107000  0.94036000  1.0 0.1002591494
H  H75  1  0.04718000  0.14107000  0.55964000  1.0 0.1002591494
H  H76  1  0.95282000  0.85893000  0.44036000  1.0 0.1002591494
H  H77  1  0.10893000  0.79718000  0.80964000  1.0 0.1002591494
H  H78  1  0.89107000  0.20282000  0.19036000  1.0 0.1002591494
H  H79  1  0.39107000  0.20282000  0.30964000  1.0 0.1002591494
H  H80  1  0.60893000  0.79718000  0.69036000  1.0 0.1002591494
H  H81  1  0.54718000  0.35893000  0.44036000  1.0 0.1002591494
H  H82  1  0.45282000  0.64107000  0.55964000  1.0 0.1002591494
H  H83  1  0.95282000  0.64107000  0.94036000  1.0 0.1002591494
H  H84  1  0.04718000  0.35893000  0.05964000  1.0 0.1002591494
H  H85  1  0.89107000  0.29718000  0.69036000  1.0 0.1002591494
H  H86  1  0.10893000  0.70282000  0.30964000  1.0 0.1002591494
H  H87  1  0.60893000  0.70282000  0.19036000  1.0 0.1002591494
H  H88  1  0.39107000  0.29718000  0.80964000  1.0 0.1002591494
H  H89  1  0.95282000  0.35893000  0.55964000  1.0 0.1002591494
H  H90  1  0.04718000  0.64107000  0.44036000  1.0 0.1002591494
H  H91  1  0.54718000  0.64107000  0.05964000  1.0 0.1002591494
H  H92  1  0.45282000  0.35893000  0.94036000  1.0 0.1002591494
H  H93  1  0.60893000  0.29718000  0.30964000  1.0 0.1002591494
H  H94  1  0.39107000  0.70282000  0.69036000  1.0 0.1002591494
H  H95  1  0.89107000  0.70282000  0.80964000  1.0 0.1002591494
H  H96  1  0.10893000  0.29718000  0.19036000  1.0 0.1002591494
H  H97  1  0.09449000  0.99459000  0.89088000  1.0 0.149037532
H  H98  1  0.90551000  0.00541000  0.10912000  1.0 0.149037532
H  H99  1  0.40551000  0.00541000  0.39088000  1.0 0.149037532
H  H100  1  0.59449000  0.99459000  0.60912000  1.0 0.149037532
H  H101  1  0.25541000  0.84449000  0.14088000  1.0 0.149037532
H  H102  1  0.74459000  0.15551000  0.85912000  1.0 0.149037532
H  H103  1  0.24459000  0.15551000  0.64088000  1.0 0.149037532
H  H104  1  0.75541000  0.84449000  0.35912000  1.0 0.149037532
H  H105  1  0.40551000  0.99459000  0.10912000  1.0 0.149037532
H  H106  1  0.59449000  0.00541000  0.89088000  1.0 0.149037532
H  H107  1  0.09449000  0.00541000  0.60912000  1.0 0.149037532
H  H108  1  0.90551000  0.99459000  0.39088000  1.0 0.149037532
H  H109  1  0.24459000  0.84449000  0.85912000  1.0 0.149037532
H  H110  1  0.75541000  0.15551000  0.14088000  1.0 0.149037532
H  H111  1  0.25541000  0.15551000  0.35912000  1.0 0.149037532
H  H112  1  0.74459000  0.84449000  0.64088000  1.0 0.149037532
H  H113  1  0.59449000  0.49459000  0.39088000  1.0 0.149037532
H  H114  1  0.40551000  0.50541000  0.60912000  1.0 0.149037532
H  H115  1  0.90551000  0.50541000  0.89088000  1.0 0.149037532
H  H116  1  0.09449000  0.49459000  0.10912000  1.0 0.149037532
H  H117  1  0.75541000  0.34449000  0.64088000  1.0 0.149037532
H  H118  1  0.24459000  0.65551000  0.35912000  1.0 0.149037532
H  H119  1  0.74459000  0.65551000  0.14088000  1.0 0.149037532
H  H120  1  0.25541000  0.34449000  0.85912000  1.0 0.149037532
H  H121  1  0.90551000  0.49459000  0.60912000  1.0 0.149037532
H  H122  1  0.09449000  0.50541000  0.39088000  1.0 0.149037532
H  H123  1  0.59449000  0.50541000  0.10912000  1.0 0.149037532
H  H124  1  0.40551000  0.49459000  0.89088000  1.0 0.149037532
H  H125  1  0.74459000  0.34449000  0.35912000  1.0 0.149037532
H  H126  1  0.25541000  0.65551000  0.64088000  1.0 0.149037532
H  H127  1  0.75541000  0.65551000  0.85912000  1.0 0.149037532
H  H128  1  0.24459000  0.34449000  0.14088000  1.0 0.149037532
H  H129  1  0.05083000  0.96349000  0.94571000  1.0 0.149037532
H  H130  1  0.94917000  0.03651000  0.05429000  1.0 0.149037532
H  H131  1  0.44917000  0.03651000  0.44571000  1.0 0.149037532
H  H132  1  0.55083000  0.96349000  0.55429000  1.0 0.149037532
H  H133  1  0.28651000  0.80083000  0.19571000  1.0 0.149037532
H  H134  1  0.71349000  0.19917000  0.80429000  1.0 0.149037532
H  H135  1  0.21349000  0.19917000  0.69571000  1.0 0.149037532
H  H136  1  0.78651000  0.80083000  0.30429000  1.0 0.149037532
H  H137  1  0.44917000  0.96349000  0.05429000  1.0 0.149037532
H  H138  1  0.55083000  0.03651000  0.94571000  1.0 0.149037532
H  H139  1  0.05083000  0.03651000  0.55429000  1.0 0.149037532
H  H140  1  0.94917000  0.96349000  0.44571000  1.0 0.149037532
H  H141  1  0.21349000  0.80083000  0.80429000  1.0 0.149037532
H  H142  1  0.78651000  0.19917000  0.19571000  1.0 0.149037532
H  H143  1  0.28651000  0.19917000  0.30429000  1.0 0.149037532
H  H144  1  0.71349000  0.80083000  0.69571000  1.0 0.149037532
H  H145  1  0.55083000  0.46349000  0.44571000  1.0 0.149037532
H  H146  1  0.44917000  0.53651000  0.55429000  1.0 0.149037532
H  H147  1  0.94917000  0.53651000  0.94571000  1.0 0.149037532
H  H148  1  0.05083000  0.46349000  0.05429000  1.0 0.149037532
H  H149  1  0.78651000  0.30083000  0.69571000  1.0 0.149037532
H  H150  1  0.21349000  0.69917000  0.30429000  1.0 0.149037532
H  H151  1  0.71349000  0.69917000  0.19571000  1.0 0.149037532
H  H152  1  0.28651000  0.30083000  0.80429000  1.0 0.149037532
H  H153  1  0.94917000  0.46349000  0.55429000  1.0 0.149037532
H  H154  1  0.05083000  0.53651000  0.44571000  1.0 0.149037532
H  H155  1  0.55083000  0.53651000  0.05429000  1.0 0.149037532
H  H156  1  0.44917000  0.46349000  0.94571000  1.0 0.149037532
H  H157  1  0.71349000  0.30083000  0.30429000  1.0 0.149037532
H  H158  1  0.28651000  0.69917000  0.69571000  1.0 0.149037532
H  H159  1  0.78651000  0.69917000  0.80429000  1.0 0.149037532
H  H160  1  0.21349000  0.30083000  0.19571000  1.0 0.149037532
H  H161  1  0.06541000  0.92541000  0.87987000  1.0 0.1333901802
H  H162  1  0.93459000  0.07459000  0.12013000  1.0 0.1333901802
H  H163  1  0.43459000  0.07459000  0.37987000  1.0 0.1333901802
H  H164  1  0.56541000  0.92541000  0.62013000  1.0 0.1333901802
H  H165  1  0.32459000  0.81541000  0.12987000  1.0 0.1333901802
H  H166  1  0.67541000  0.18459000  0.87013000  1.0 0.1333901802
H  H167  1  0.17541000  0.18459000  0.62987000  1.0 0.1333901802
H  H168  1  0.82459000  0.81541000  0.37013000  1.0 0.1333901802
H  H169  1  0.43459000  0.92541000  0.12013000  1.0 0.1333901802
H  H170  1  0.56541000  0.07459000  0.87987000  1.0 0.1333901802
H  H171  1  0.06541000  0.07459000  0.62013000  1.0 0.1333901802
H  H172  1  0.93459000  0.92541000  0.37987000  1.0 0.1333901802
H  H173  1  0.17541000  0.81541000  0.87013000  1.0 0.1333901802
H  H174  1  0.82459000  0.18459000  0.12987000  1.0 0.1333901802
H  H175  1  0.32459000  0.18459000  0.37013000  1.0 0.1333901802
H  H176  1  0.67541000  0.81541000  0.62987000  1.0 0.1333901802
H  H177  1  0.56541000  0.42541000  0.37987000  1.0 0.1333901802
H  H178  1  0.43459000  0.57459000  0.62013000  1.0 0.1333901802
H  H179  1  0.93459000  0.57459000  0.87987000  1.0 0.1333901802
H  H180  1  0.06541000  0.42541000  0.12013000  1.0 0.1333901802
H  H181  1  0.82459000  0.31541000  0.62987000  1.0 0.1333901802
H  H182  1  0.17541000  0.68459000  0.37013000  1.0 0.1333901802
H  H183  1  0.67541000  0.68459000  0.12987000  1.0 0.1333901802
H  H184  1  0.32459000  0.31541000  0.87013000  1.0 0.1333901802
H  H185  1  0.93459000  0.42541000  0.62013000  1.0 0.1333901802
H  H186  1  0.06541000  0.57459000  0.37987000  1.0 0.1333901802
H  H187  1  0.56541000  0.57459000  0.12013000  1.0 0.1333901802
H  H188  1  0.43459000  0.42541000  0.87987000  1.0 0.1333901802
H  H189  1  0.67541000  0.31541000  0.37013000  1.0 0.1333901802
H  H190  1  0.32459000  0.68459000  0.62987000  1.0 0.1333901802
H  H191  1  0.82459000  0.68459000  0.87013000  1.0 0.1333901802
H  H192  1  0.17541000  0.31541000  0.12987000  1.0 0.1333901802
H  H193  1  0.29820000  0.04859000  0.80302000  1.0 0.1002591494
H  H194  1  0.70180000  0.95141000  0.19698000  1.0 0.1002591494
H  H195  1  0.20180000  0.95141000  0.30302000  1.0 0.1002591494
H  H196  1  0.79820000  0.04859000  0.69698000  1.0 0.1002591494
H  H197  1  0.20141000  0.04820000  0.05302000  1.0 0.1002591494
H  H198  1  0.79859000  0.95180000  0.94698000  1.0 0.1002591494
H  H199  1  0.29859000  0.95180000  0.55302000  1.0 0.1002591494
H  H200  1  0.70141000  0.04820000  0.44698000  1.0 0.1002591494
H  H201  1  0.20180000  0.04859000  0.19698000  1.0 0.1002591494
H  H202  1  0.79820000  0.95141000  0.80302000  1.0 0.1002591494
H  H203  1  0.29820000  0.95141000  0.69698000  1.0 0.1002591494
H  H204  1  0.70180000  0.04859000  0.30302000  1.0 0.1002591494
H  H205  1  0.29859000  0.04820000  0.94698000  1.0 0.1002591494
H  H206  1  0.70141000  0.95180000  0.05302000  1.0 0.1002591494
H  H207  1  0.20141000  0.95180000  0.44698000  1.0 0.1002591494
H  H208  1  0.79859000  0.04820000  0.55302000  1.0 0.1002591494
H  H209  1  0.79820000  0.54859000  0.30302000  1.0 0.1002591494
H  H210  1  0.20180000  0.45141000  0.69698000  1.0 0.1002591494
H  H211  1  0.70180000  0.45141000  0.80302000  1.0 0.1002591494
H  H212  1  0.29820000  0.54859000  0.19698000  1.0 0.1002591494
H  H213  1  0.70141000  0.54820000  0.55302000  1.0 0.1002591494
H  H214  1  0.29859000  0.45180000  0.44698000  1.0 0.1002591494
H  H215  1  0.79859000  0.45180000  0.05302000  1.0 0.1002591494
H  H216  1  0.20141000  0.54820000  0.94698000  1.0 0.1002591494
H  H217  1  0.70180000  0.54859000  0.69698000  1.0 0.1002591494
H  H218  1  0.29820000  0.45141000  0.30302000  1.0 0.1002591494
H  H219  1  0.79820000  0.45141000  0.19698000  1.0 0.1002591494
H  H220  1  0.20180000  0.54859000  0.80302000  1.0 0.1002591494
H  H221  1  0.79859000  0.54820000  0.44698000  1.0 0.1002591494
H  H222  1  0.20141000  0.45180000  0.55302000  1.0 0.1002591494
H  H223  1  0.70141000  0.45180000  0.94698000  1.0 0.1002591494
H  H224  1  0.29859000  0.54820000  0.05302000  1.0 0.1002591494
H  H225  1  0.30922000  0.14528000  0.76438000  1.0 0.1002591494
H  H226  1  0.69078000  0.85472000  0.23562000  1.0 0.1002591494
H  H227  1  0.19078000  0.85472000  0.26438000  1.0 0.1002591494
H  H228  1  0.80922000  0.14528000  0.73562000  1.0 0.1002591494
H  H229  1  0.10472000  0.05922000  0.01438000  1.0 0.1002591494
H  H230  1  0.89528000  0.94078000  0.98562000  1.0 0.1002591494
H  H231  1  0.39528000  0.94078000  0.51438000  1.0 0.1002591494
H  H232  1  0.60472000  0.05922000  0.48562000  1.0 0.1002591494
H  H233  1  0.19078000  0.14528000  0.23562000  1.0 0.1002591494
H  H234  1  0.80922000  0.85472000  0.76438000  1.0 0.1002591494
H  H235  1  0.30922000  0.85472000  0.73562000  1.0 0.1002591494
H  H236  1  0.69078000  0.14528000  0.26438000  1.0 0.1002591494
H  H237  1  0.39528000  0.05922000  0.98562000  1.0 0.1002591494
H  H238  1  0.60472000  0.94078000  0.01438000  1.0 0.1002591494
H  H239  1  0.10472000  0.94078000  0.48562000  1.0 0.1002591494
H  H240  1  0.89528000  0.05922000  0.51438000  1.0 0.1002591494
H  H241  1  0.80922000  0.64528000  0.26438000  1.0 0.1002591494
H  H242  1  0.19078000  0.35472000  0.73562000  1.0 0.1002591494
H  H243  1  0.69078000  0.35472000  0.76438000  1.0 0.1002591494
H  H244  1  0.30922000  0.64528000  0.23562000  1.0 0.1002591494
H  H245  1  0.60472000  0.55922000  0.51438000  1.0 0.1002591494
H  H246  1  0.39528000  0.44078000  0.48562000  1.0 0.1002591494
H  H247  1  0.89528000  0.44078000  0.01438000  1.0 0.1002591494
H  H248  1  0.10472000  0.55922000  0.98562000  1.0 0.1002591494
H  H249  1  0.69078000  0.64528000  0.73562000  1.0 0.1002591494
H  H250  1  0.30922000  0.35472000  0.26438000  1.0 0.1002591494
H  H251  1  0.80922000  0.35472000  0.23562000  1.0 0.1002591494
H  H252  1  0.19078000  0.64528000  0.76438000  1.0 0.1002591494
H  H253  1  0.89528000  0.55922000  0.48562000  1.0 0.1002591494
H  H254  1  0.10472000  0.44078000  0.51438000  1.0 0.1002591494
H  H255  1  0.60472000  0.44078000  0.98562000  1.0 0.1002591494
H  H256  1  0.39528000  0.55922000  0.01438000  1.0 0.1002591494
H  H257  1  0.24432000  0.21924000  0.79478000  1.0 0.1002591494
H  H258  1  0.75568000  0.78076000  0.20522000  1.0 0.1002591494
H  H259  1  0.25568000  0.78076000  0.29478000  1.0 0.1002591494
H  H260  1  0.74432000  0.21924000  0.70522000  1.0 0.1002591494
H  H261  1  0.03076000  0.99432000  0.04478000  1.0 0.1002591494
H  H262  1  0.96924000  0.00568000  0.95522000  1.0 0.1002591494
H  H263  1  0.46924000  0.00568000  0.54478000  1.0 0.1002591494
H  H264  1  0.53076000  0.99432000  0.45522000  1.0 0.1002591494
H  H265  1  0.25568000  0.21924000  0.20522000  1.0 0.1002591494
H  H266  1  0.74432000  0.78076000  0.79478000  1.0 0.1002591494
H  H267  1  0.24432000  0.78076000  0.70522000  1.0 0.1002591494
H  H268  1  0.75568000  0.21924000  0.29478000  1.0 0.1002591494
H  H269  1  0.46924000  0.99432000  0.95522000  1.0 0.1002591494
H  H270  1  0.53076000  0.00568000  0.04478000  1.0 0.1002591494
H  H271  1  0.03076000  0.00568000  0.45522000  1.0 0.1002591494
H  H272  1  0.96924000  0.99432000  0.54478000  1.0 0.1002591494
H  H273  1  0.74432000  0.71924000  0.29478000  1.0 0.1002591494
H  H274  1  0.25568000  0.28076000  0.70522000  1.0 0.1002591494
H  H275  1  0.75568000  0.28076000  0.79478000  1.0 0.1002591494
H  H276  1  0.24432000  0.71924000  0.20522000  1.0 0.1002591494
H  H277  1  0.53076000  0.49432000  0.54478000  1.0 0.1002591494
H  H278  1  0.46924000  0.50568000  0.45522000  1.0 0.1002591494
H  H279  1  0.96924000  0.50568000  0.04478000  1.0 0.1002591494
H  H280  1  0.03076000  0.49432000  0.95522000  1.0 0.1002591494
H  H281  1  0.75568000  0.71924000  0.70522000  1.0 0.1002591494
H  H282  1  0.24432000  0.28076000  0.29478000  1.0 0.1002591494
H  H283  1  0.74432000  0.28076000  0.20522000  1.0 0.1002591494
H  H284  1  0.25568000  0.71924000  0.79478000  1.0 0.1002591494
H  H285  1  0.96924000  0.49432000  0.45522000  1.0 0.1002591494
H  H286  1  0.03076000  0.50568000  0.54478000  1.0 0.1002591494
H  H287  1  0.53076000  0.50568000  0.95522000  1.0 0.1002591494
H  H288  1  0.46924000  0.49432000  0.04478000  1.0 0.1002591494
H  H289  1  0.16965000  0.19975000  0.86730000  1.0 0.1002591494
H  H290  1  0.83035000  0.80025000  0.13270000  1.0 0.1002591494
H  H291  1  0.33035000  0.80025000  0.36730000  1.0 0.1002591494
H  H292  1  0.66965000  0.19975000  0.63270000  1.0 0.1002591494
H  H293  1  0.05025000  0.91965000  0.11730000  1.0 0.1002591494
H  H294  1  0.94975000  0.08035000  0.88270000  1.0 0.1002591494
H  H295  1  0.44975000  0.08035000  0.61730000  1.0 0.1002591494
H  H296  1  0.55025000  0.91965000  0.38270000  1.0 0.1002591494
H  H297  1  0.33035000  0.19975000  0.13270000  1.0 0.1002591494
H  H298  1  0.66965000  0.80025000  0.86730000  1.0 0.1002591494
H  H299  1  0.16965000  0.80025000  0.63270000  1.0 0.1002591494
H  H300  1  0.83035000  0.19975000  0.36730000  1.0 0.1002591494
H  H301  1  0.44975000  0.91965000  0.88270000  1.0 0.1002591494
H  H302  1  0.55025000  0.08035000  0.11730000  1.0 0.1002591494
H  H303  1  0.05025000  0.08035000  0.38270000  1.0 0.1002591494
H  H304  1  0.94975000  0.91965000  0.61730000  1.0 0.1002591494
H  H305  1  0.66965000  0.69975000  0.36730000  1.0 0.1002591494
H  H306  1  0.33035000  0.30025000  0.63270000  1.0 0.1002591494
H  H307  1  0.83035000  0.30025000  0.86730000  1.0 0.1002591494
H  H308  1  0.16965000  0.69975000  0.13270000  1.0 0.1002591494
H  H309  1  0.55025000  0.41965000  0.61730000  1.0 0.1002591494
H  H310  1  0.44975000  0.58035000  0.38270000  1.0 0.1002591494
H  H311  1  0.94975000  0.58035000  0.11730000  1.0 0.1002591494
H  H312  1  0.05025000  0.41965000  0.88270000  1.0 0.1002591494
H  H313  1  0.83035000  0.69975000  0.63270000  1.0 0.1002591494
H  H314  1  0.16965000  0.30025000  0.36730000  1.0 0.1002591494
H  H315  1  0.66965000  0.30025000  0.13270000  1.0 0.1002591494
H  H316  1  0.33035000  0.69975000  0.86730000  1.0 0.1002591494
H  H317  1  0.94975000  0.41965000  0.38270000  1.0 0.1002591494
H  H318  1  0.05025000  0.58035000  0.61730000  1.0 0.1002591494
H  H319  1  0.55025000  0.58035000  0.88270000  1.0 0.1002591494
H  H320  1  0.44975000  0.41965000  0.11730000  1.0 0.1002591494
H  H321  1  0.15997000  0.10399000  0.90712000  1.0 0.1151049132
H  H322  1  0.84003000  0.89601000  0.09288000  1.0 0.1151049132
H  H323  1  0.34003000  0.89601000  0.40712000  1.0 0.1151049132
H  H324  1  0.65997000  0.10399000  0.59288000  1.0 0.1151049132
H  H325  1  0.14601000  0.90997000  0.15712000  1.0 0.1151049132
H  H326  1  0.85399000  0.09003000  0.84288000  1.0 0.1151049132
H  H327  1  0.35399000  0.09003000  0.65712000  1.0 0.1151049132
H  H328  1  0.64601000  0.90997000  0.34288000  1.0 0.1151049132
H  H329  1  0.34003000  0.10399000  0.09288000  1.0 0.1151049132
H  H330  1  0.65997000  0.89601000  0.90712000  1.0 0.1151049132
H  H331  1  0.15997000  0.89601000  0.59288000  1.0 0.1151049132
H  H332  1  0.84003000  0.10399000  0.40712000  1.0 0.1151049132
H  H333  1  0.35399000  0.90997000  0.84288000  1.0 0.1151049132
H  H334  1  0.64601000  0.09003000  0.15712000  1.0 0.1151049132
H  H335  1  0.14601000  0.09003000  0.34288000  1.0 0.1151049132
H  H336  1  0.85399000  0.90997000  0.65712000  1.0 0.1151049132
H  H337  1  0.65997000  0.60399000  0.40712000  1.0 0.1151049132
H  H338  1  0.34003000  0.39601000  0.59288000  1.0 0.1151049132
H  H339  1  0.84003000  0.39601000  0.90712000  1.0 0.1151049132
H  H340  1  0.15997000  0.60399000  0.09288000  1.0 0.1151049132
H  H341  1  0.64601000  0.40997000  0.65712000  1.0 0.1151049132
H  H342  1  0.35399000  0.59003000  0.34288000  1.0 0.1151049132
H  H343  1  0.85399000  0.59003000  0.15712000  1.0 0.1151049132
H  H344  1  0.14601000  0.40997000  0.84288000  1.0 0.1151049132
H  H345  1  0.84003000  0.60399000  0.59288000  1.0 0.1151049132
H  H346  1  0.15997000  0.39601000  0.40712000  1.0 0.1151049132
H  H347  1  0.65997000  0.39601000  0.09288000  1.0 0.1151049132
H  H348  1  0.34003000  0.60399000  0.90712000  1.0 0.1151049132
H  H349  1  0.85399000  0.40997000  0.34288000  1.0 0.1151049132
H  H350  1  0.14601000  0.59003000  0.65712000  1.0 0.1151049132
H  H351  1  0.64601000  0.59003000  0.84288000  1.0 0.1151049132
H  H352  1  0.35399000  0.40997000  0.15712000  1.0 0.1151049132
C  C1  1  0.16891000  0.81670000  0.03096000  1.0 0.0700733731
C  C2  1  0.83109000  0.18330000  0.96904000  1.0 0.0700733731
C  C3  1  0.33109000  0.18330000  0.53096000  1.0 0.0700733731
C  C4  1  0.66891000  0.81670000  0.46904000  1.0 0.0700733731
C  C5  1  0.43330000  0.91891000  0.28096000  1.0 0.0700733731
C  C6  1  0.56670000  0.08109000  0.71904000  1.0 0.0700733731
C  C7  1  0.06670000  0.08109000  0.78096000  1.0 0.0700733731
C  C8  1  0.93330000  0.91891000  0.21904000  1.0 0.0700733731
C  C9  1  0.33109000  0.81670000  0.96904000  1.0 0.0700733731
C  C10  1  0.66891000  0.18330000  0.03096000  1.0 0.0700733731
C  C11  1  0.16891000  0.18330000  0.46904000  1.0 0.0700733731
C  C12  1  0.83109000  0.81670000  0.53096000  1.0 0.0700733731
C  C13  1  0.06670000  0.91891000  0.71904000  1.0 0.0700733731
C  C14  1  0.93330000  0.08109000  0.28096000  1.0 0.0700733731
C  C15  1  0.43330000  0.08109000  0.21904000  1.0 0.0700733731
C  C16  1  0.56670000  0.91891000  0.78096000  1.0 0.0700733731
C  C17  1  0.66891000  0.31670000  0.53096000  1.0 0.0700733731
C  C18  1  0.33109000  0.68330000  0.46904000  1.0 0.0700733731
C  C19  1  0.83109000  0.68330000  0.03096000  1.0 0.0700733731
C  C20  1  0.16891000  0.31670000  0.96904000  1.0 0.0700733731
C  C21  1  0.93330000  0.41891000  0.78096000  1.0 0.0700733731
C  C22  1  0.06670000  0.58109000  0.21904000  1.0 0.0700733731
C  C23  1  0.56670000  0.58109000  0.28096000  1.0 0.0700733731
C  C24  1  0.43330000  0.41891000  0.71904000  1.0 0.0700733731
C  C25  1  0.83109000  0.31670000  0.46904000  1.0 0.0700733731
C  C26  1  0.16891000  0.68330000  0.53096000  1.0 0.0700733731
C  C27  1  0.66891000  0.68330000  0.96904000  1.0 0.0700733731
C  C28  1  0.33109000  0.31670000  0.03096000  1.0 0.0700733731
C  C29  1  0.56670000  0.41891000  0.21904000  1.0 0.0700733731
C  C30  1  0.43330000  0.58109000  0.78096000  1.0 0.0700733731
C  C31  1  0.93330000  0.58109000  0.71904000  1.0 0.0700733731
C  C32  1  0.06670000  0.41891000  0.28096000  1.0 0.0700733731
C  C33  1  0.12166000  0.78183000  0.02750000  1.0 0.0236266032
C  C34  1  0.87834000  0.21817000  0.97250000  1.0 0.0236266032
C  C35  1  0.37834000  0.21817000  0.52750000  1.0 0.0236266032
C  C36  1  0.62166000  0.78183000  0.47250000  1.0 0.0236266032
C  C37  1  0.46817000  0.87166000  0.27750000  1.0 0.0236266032
C  C38  1  0.53183000  0.12834000  0.72250000  1.0 0.0236266032
C  C39  1  0.03183000  0.12834000  0.77750000  1.0 0.0236266032
C  C40  1  0.96817000  0.87166000  0.22250000  1.0 0.0236266032
C  C41  1  0.37834000  0.78183000  0.97250000  1.0 0.0236266032
C  C42  1  0.62166000  0.21817000  0.02750000  1.0 0.0236266032
C  C43  1  0.12166000  0.21817000  0.47250000  1.0 0.0236266032
C  C44  1  0.87834000  0.78183000  0.52750000  1.0 0.0236266032
C  C45  1  0.03183000  0.87166000  0.72250000  1.0 0.0236266032
C  C46  1  0.96817000  0.12834000  0.27750000  1.0 0.0236266032
C  C47  1  0.46817000  0.12834000  0.22250000  1.0 0.0236266032
C  C48  1  0.53183000  0.87166000  0.77750000  1.0 0.0236266032
C  C49  1  0.62166000  0.28183000  0.52750000  1.0 0.0236266032
C  C50  1  0.37834000  0.71817000  0.47250000  1.0 0.0236266032
C  C51  1  0.87834000  0.71817000  0.02750000  1.0 0.0236266032
C  C52  1  0.12166000  0.28183000  0.97250000  1.0 0.0236266032
C  C53  1  0.96817000  0.37166000  0.77750000  1.0 0.0236266032
C  C54  1  0.03183000  0.62834000  0.22250000  1.0 0.0236266032
C  C55  1  0.53183000  0.62834000  0.27750000  1.0 0.0236266032
C  C56  1  0.46817000  0.37166000  0.72250000  1.0 0.0236266032
C  C57  1  0.87834000  0.28183000  0.47250000  1.0 0.0236266032
C  C58  1  0.12166000  0.71817000  0.52750000  1.0 0.0236266032
C  C59  1  0.62166000  0.71817000  0.97250000  1.0 0.0236266032
C  C60  1  0.37834000  0.28183000  0.02750000  1.0 0.0236266032
C  C61  1  0.53183000  0.37166000  0.22250000  1.0 0.0236266032
C  C62  1  0.46817000  0.62834000  0.77750000  1.0 0.0236266032
C  C63  1  0.96817000  0.62834000  0.72250000  1.0 0.0236266032
C  C64  1  0.03183000  0.37166000  0.27750000  1.0 0.0236266032
C  C65  1  0.08225000  0.84614000  0.96688000  1.0 0.0107695552
C  C66  1  0.91775000  0.15386000  0.03312000  1.0 0.0107695552
C  C67  1  0.41775000  0.15386000  0.46688000  1.0 0.0107695552
C  C68  1  0.58225000  0.84614000  0.53312000  1.0 0.0107695552
C  C69  1  0.40386000  0.83225000  0.21688000  1.0 0.0107695552
C  C70  1  0.59614000  0.16775000  0.78312000  1.0 0.0107695552
C  C71  1  0.09614000  0.16775000  0.71688000  1.0 0.0107695552
C  C72  1  0.90386000  0.83225000  0.28312000  1.0 0.0107695552
C  C73  1  0.41775000  0.84614000  0.03312000  1.0 0.0107695552
C  C74  1  0.58225000  0.15386000  0.96688000  1.0 0.0107695552
C  C75  1  0.08225000  0.15386000  0.53312000  1.0 0.0107695552
C  C76  1  0.91775000  0.84614000  0.46688000  1.0 0.0107695552
C  C77  1  0.09614000  0.83225000  0.78312000  1.0 0.0107695552
C  C78  1  0.90386000  0.16775000  0.21688000  1.0 0.0107695552
C  C79  1  0.40386000  0.16775000  0.28312000  1.0 0.0107695552
C  C80  1  0.59614000  0.83225000  0.71688000  1.0 0.0107695552
C  C81  1  0.58225000  0.34614000  0.46688000  1.0 0.0107695552
C  C82  1  0.41775000  0.65386000  0.53312000  1.0 0.0107695552
C  C83  1  0.91775000  0.65386000  0.96688000  1.0 0.0107695552
C  C84  1  0.08225000  0.34614000  0.03312000  1.0 0.0107695552
C  C85  1  0.90386000  0.33225000  0.71688000  1.0 0.0107695552
C  C86  1  0.09614000  0.66775000  0.28312000  1.0 0.0107695552
C  C87  1  0.59614000  0.66775000  0.21688000  1.0 0.0107695552
C  C88  1  0.40386000  0.33225000  0.78312000  1.0 0.0107695552
C  C89  1  0.91775000  0.34614000  0.53312000  1.0 0.0107695552
C  C90  1  0.08225000  0.65386000  0.46688000  1.0 0.0107695552
C  C91  1  0.58225000  0.65386000  0.03312000  1.0 0.0107695552
C  C92  1  0.41775000  0.34614000  0.96688000  1.0 0.0107695552
C  C93  1  0.59614000  0.33225000  0.28312000  1.0 0.0107695552
C  C94  1  0.40386000  0.66775000  0.71688000  1.0 0.0107695552
C  C95  1  0.90386000  0.66775000  0.78312000  1.0 0.0107695552
C  C96  1  0.09614000  0.33225000  0.21688000  1.0 0.0107695552
C  C97  1  0.12938000  0.87958000  0.97149000  1.0 0.0751325557
C  C98  1  0.87062000  0.12042000  0.02851000  1.0 0.0751325557
C  C99  1  0.37062000  0.12042000  0.47149000  1.0 0.0751325557
C  C100  1  0.62938000  0.87958000  0.52851000  1.0 0.0751325557
C  C101  1  0.37042000  0.87938000  0.22149000  1.0 0.0751325557
C  C102  1  0.62958000  0.12062000  0.77851000  1.0 0.0751325557
C  C103  1  0.12958000  0.12062000  0.72149000  1.0 0.0751325557
C  C104  1  0.87042000  0.87938000  0.27851000  1.0 0.0751325557
C  C105  1  0.37062000  0.87958000  0.02851000  1.0 0.0751325557
C  C106  1  0.62938000  0.12042000  0.97149000  1.0 0.0751325557
C  C107  1  0.12938000  0.12042000  0.52851000  1.0 0.0751325557
C  C108  1  0.87062000  0.87958000  0.47149000  1.0 0.0751325557
C  C109  1  0.12958000  0.87938000  0.77851000  1.0 0.0751325557
C  C110  1  0.87042000  0.12062000  0.22149000  1.0 0.0751325557
C  C111  1  0.37042000  0.12062000  0.27851000  1.0 0.0751325557
C  C112  1  0.62958000  0.87938000  0.72149000  1.0 0.0751325557
C  C113  1  0.62938000  0.37958000  0.47149000  1.0 0.0751325557
C  C114  1  0.37062000  0.62042000  0.52851000  1.0 0.0751325557
C  C115  1  0.87062000  0.62042000  0.97149000  1.0 0.0751325557
C  C116  1  0.12938000  0.37958000  0.02851000  1.0 0.0751325557
C  C117  1  0.87042000  0.37938000  0.72149000  1.0 0.0751325557
C  C118  1  0.12958000  0.62062000  0.27851000  1.0 0.0751325557
C  C119  1  0.62958000  0.62062000  0.22149000  1.0 0.0751325557
C  C120  1  0.37042000  0.37938000  0.77851000  1.0 0.0751325557
C  C121  1  0.87062000  0.37958000  0.52851000  1.0 0.0751325557
C  C122  1  0.12938000  0.62042000  0.47149000  1.0 0.0751325557
C  C123  1  0.62938000  0.62042000  0.02851000  1.0 0.0751325557
C  C124  1  0.37062000  0.37958000  0.97149000  1.0 0.0751325557
C  C125  1  0.62958000  0.37938000  0.27851000  1.0 0.0751325557
C  C126  1  0.37042000  0.62062000  0.72149000  1.0 0.0751325557
C  C127  1  0.87042000  0.62062000  0.77851000  1.0 0.0751325557
C  C128  1  0.12958000  0.37938000  0.22149000  1.0 0.0751325557
C  C129  1  0.13450000  0.93130000  0.94102000  1.0 0.2209051284
C  C130  1  0.86550000  0.06870000  0.05898000  1.0 0.2209051284
C  C131  1  0.36550000  0.06870000  0.44102000  1.0 0.2209051284
C  C132  1  0.63450000  0.93130000  0.55898000  1.0 0.2209051284
C  C133  1  0.31870000  0.88450000  0.19102000  1.0 0.2209051284
C  C134  1  0.68130000  0.11550000  0.80898000  1.0 0.2209051284
C  C135  1  0.18130000  0.11550000  0.69102000  1.0 0.2209051284
C  C136  1  0.81870000  0.88450000  0.30898000  1.0 0.2209051284
C  C137  1  0.36550000  0.93130000  0.05898000  1.0 0.2209051284
C  C138  1  0.63450000  0.06870000  0.94102000  1.0 0.2209051284
C  C139  1  0.13450000  0.06870000  0.55898000  1.0 0.2209051284
C  C140  1  0.86550000  0.93130000  0.44102000  1.0 0.2209051284
C  C141  1  0.18130000  0.88450000  0.80898000  1.0 0.2209051284
C  C142  1  0.81870000  0.11550000  0.19102000  1.0 0.2209051284
C  C143  1  0.31870000  0.11550000  0.30898000  1.0 0.2209051284
C  C144  1  0.68130000  0.88450000  0.69102000  1.0 0.2209051284
C  C145  1  0.63450000  0.43130000  0.44102000  1.0 0.2209051284
C  C146  1  0.36550000  0.56870000  0.55898000  1.0 0.2209051284
C  C147  1  0.86550000  0.56870000  0.94102000  1.0 0.2209051284
C  C148  1  0.13450000  0.43130000  0.05898000  1.0 0.2209051284
C  C149  1  0.81870000  0.38450000  0.69102000  1.0 0.2209051284
C  C150  1  0.18130000  0.61550000  0.30898000  1.0 0.2209051284
C  C151  1  0.68130000  0.61550000  0.19102000  1.0 0.2209051284
C  C152  1  0.31870000  0.38450000  0.80898000  1.0 0.2209051284
C  C153  1  0.86550000  0.43130000  0.55898000  1.0 0.2209051284
C  C154  1  0.13450000  0.56870000  0.44102000  1.0 0.2209051284
C  C155  1  0.63450000  0.56870000  0.05898000  1.0 0.2209051284
C  C156  1  0.36550000  0.43130000  0.94102000  1.0 0.2209051284
C  C157  1  0.68130000  0.38450000  0.30898000  1.0 0.2209051284
C  C158  1  0.31870000  0.61550000  0.69102000  1.0 0.2209051284
C  C159  1  0.81870000  0.61550000  0.80898000  1.0 0.2209051284
C  C160  1  0.18130000  0.38450000  0.19102000  1.0 0.2209051284
C  C161  1  0.08242000  0.95527000  0.91178000  1.0 -0.4371770421
C  C162  1  0.91758000  0.04473000  0.08822000  1.0 -0.4371770421
C  C163  1  0.41758000  0.04473000  0.41178000  1.0 -0.4371770421
C  C164  1  0.58242000  0.95527000  0.58822000  1.0 -0.4371770421
C  C165  1  0.29473000  0.83242000  0.16178000  1.0 -0.4371770421
C  C166  1  0.70527000  0.16758000  0.83822000  1.0 -0.4371770421
C  C167  1  0.20527000  0.16758000  0.66178000  1.0 -0.4371770421
C  C168  1  0.79473000  0.83242000  0.33822000  1.0 -0.4371770421
C  C169  1  0.41758000  0.95527000  0.08822000  1.0 -0.4371770421
C  C170  1  0.58242000  0.04473000  0.91178000  1.0 -0.4371770421
C  C171  1  0.08242000  0.04473000  0.58822000  1.0 -0.4371770421
C  C172  1  0.91758000  0.95527000  0.41178000  1.0 -0.4371770421
C  C173  1  0.20527000  0.83242000  0.83822000  1.0 -0.4371770421
C  C174  1  0.79473000  0.16758000  0.16178000  1.0 -0.4371770421
C  C175  1  0.29473000  0.16758000  0.33822000  1.0 -0.4371770421
C  C176  1  0.70527000  0.83242000  0.66178000  1.0 -0.4371770421
C  C177  1  0.58242000  0.45527000  0.41178000  1.0 -0.4371770421
C  C178  1  0.41758000  0.54473000  0.58822000  1.0 -0.4371770421
C  C179  1  0.91758000  0.54473000  0.91178000  1.0 -0.4371770421
C  C180  1  0.08242000  0.45527000  0.08822000  1.0 -0.4371770421
C  C181  1  0.79473000  0.33242000  0.66178000  1.0 -0.4371770421
C  C182  1  0.20527000  0.66758000  0.33822000  1.0 -0.4371770421
C  C183  1  0.70527000  0.66758000  0.16178000  1.0 -0.4371770421
C  C184  1  0.29473000  0.33242000  0.83822000  1.0 -0.4371770421
C  C185  1  0.91758000  0.45527000  0.58822000  1.0 -0.4371770421
C  C186  1  0.08242000  0.54473000  0.41178000  1.0 -0.4371770421
C  C187  1  0.58242000  0.54473000  0.08822000  1.0 -0.4371770421
C  C188  1  0.41758000  0.45527000  0.91178000  1.0 -0.4371770421
C  C189  1  0.70527000  0.33242000  0.33822000  1.0 -0.4371770421
C  C190  1  0.29473000  0.66758000  0.66178000  1.0 -0.4371770421
C  C191  1  0.79473000  0.66758000  0.83822000  1.0 -0.4371770421
C  C192  1  0.20527000  0.33242000  0.16178000  1.0 -0.4371770421
C  C193  1  0.22416000  0.01501000  0.88295000  1.0 0.1002591494
C  C194  1  0.77584000  0.98499000  0.11705000  1.0 0.1002591494
C  C195  1  0.27584000  0.98499000  0.38295000  1.0 0.1002591494
C  C196  1  0.72416000  0.01501000  0.61705000  1.0 0.1002591494
C  C197  1  0.23499000  0.97416000  0.13295000  1.0 0.1002591494
C  C198  1  0.76501000  0.02584000  0.86705000  1.0 0.1002591494
C  C199  1  0.26501000  0.02584000  0.63295000  1.0 0.1002591494
C  C200  1  0.73499000  0.97416000  0.36705000  1.0 0.1002591494
C  C201  1  0.27584000  0.01501000  0.11705000  1.0 0.1002591494
C  C202  1  0.72416000  0.98499000  0.88295000  1.0 0.1002591494
C  C203  1  0.22416000  0.98499000  0.61705000  1.0 0.1002591494
C  C204  1  0.77584000  0.01501000  0.38295000  1.0 0.1002591494
C  C205  1  0.26501000  0.97416000  0.86705000  1.0 0.1002591494
C  C206  1  0.73499000  0.02584000  0.13295000  1.0 0.1002591494
C  C207  1  0.23499000  0.02584000  0.36705000  1.0 0.1002591494
C  C208  1  0.76501000  0.97416000  0.63295000  1.0 0.1002591494
C  C209  1  0.72416000  0.51501000  0.38295000  1.0 0.1002591494
C  C210  1  0.27584000  0.48499000  0.61705000  1.0 0.1002591494
C  C211  1  0.77584000  0.48499000  0.88295000  1.0 0.1002591494
C  C212  1  0.22416000  0.51501000  0.11705000  1.0 0.1002591494
C  C213  1  0.73499000  0.47416000  0.63295000  1.0 0.1002591494
C  C214  1  0.26501000  0.52584000  0.36705000  1.0 0.1002591494
C  C215  1  0.76501000  0.52584000  0.13295000  1.0 0.1002591494
C  C216  1  0.23499000  0.47416000  0.86705000  1.0 0.1002591494
C  C217  1  0.77584000  0.51501000  0.61705000  1.0 0.1002591494
C  C218  1  0.22416000  0.48499000  0.38295000  1.0 0.1002591494
C  C219  1  0.72416000  0.48499000  0.11705000  1.0 0.1002591494
C  C220  1  0.27584000  0.51501000  0.88295000  1.0 0.1002591494
C  C221  1  0.76501000  0.47416000  0.36705000  1.0 0.1002591494
C  C222  1  0.23499000  0.52584000  0.63295000  1.0 0.1002591494
C  C223  1  0.73499000  0.52584000  0.86705000  1.0 0.1002591494
C  C224  1  0.26501000  0.47416000  0.13295000  1.0 0.1002591494
C  C225  1  0.22968000  0.07011000  0.85865000  1.0 0.0323588452
C  C226  1  0.77032000  0.92989000  0.14135000  1.0 0.0323588452
C  C227  1  0.27032000  0.92989000  0.35865000  1.0 0.0323588452
C  C228  1  0.72968000  0.07011000  0.64135000  1.0 0.0323588452
C  C229  1  0.17989000  0.97968000  0.10865000  1.0 0.0323588452
C  C230  1  0.82011000  0.02032000  0.89135000  1.0 0.0323588452
C  C231  1  0.32011000  0.02032000  0.60865000  1.0 0.0323588452
C  C232  1  0.67989000  0.97968000  0.39135000  1.0 0.0323588452
C  C233  1  0.27032000  0.07011000  0.14135000  1.0 0.0323588452
C  C234  1  0.72968000  0.92989000  0.85865000  1.0 0.0323588452
C  C235  1  0.22968000  0.92989000  0.64135000  1.0 0.0323588452
C  C236  1  0.77032000  0.07011000  0.35865000  1.0 0.0323588452
C  C237  1  0.32011000  0.97968000  0.89135000  1.0 0.0323588452
C  C238  1  0.67989000  0.02032000  0.10865000  1.0 0.0323588452
C  C239  1  0.17989000  0.02032000  0.39135000  1.0 0.0323588452
C  C240  1  0.82011000  0.97968000  0.60865000  1.0 0.0323588452
C  C241  1  0.72968000  0.57011000  0.35865000  1.0 0.0323588452
C  C242  1  0.27032000  0.42989000  0.64135000  1.0 0.0323588452
C  C243  1  0.77032000  0.42989000  0.85865000  1.0 0.0323588452
C  C244  1  0.22968000  0.57011000  0.14135000  1.0 0.0323588452
C  C245  1  0.67989000  0.47968000  0.60865000  1.0 0.0323588452
C  C246  1  0.32011000  0.52032000  0.39135000  1.0 0.0323588452
C  C247  1  0.82011000  0.52032000  0.10865000  1.0 0.0323588452
C  C248  1  0.17989000  0.47968000  0.89135000  1.0 0.0323588452
C  C249  1  0.77032000  0.57011000  0.64135000  1.0 0.0323588452
C  C250  1  0.22968000  0.42989000  0.35865000  1.0 0.0323588452
C  C251  1  0.72968000  0.42989000  0.14135000  1.0 0.0323588452
C  C252  1  0.27032000  0.57011000  0.85865000  1.0 0.0323588452
C  C253  1  0.82011000  0.47968000  0.39135000  1.0 0.0323588452
C  C254  1  0.17989000  0.52032000  0.60865000  1.0 0.0323588452
C  C255  1  0.67989000  0.52032000  0.89135000  1.0 0.0323588452
C  C256  1  0.32011000  0.47968000  0.10865000  1.0 0.0323588452
C  C257  1  0.27114000  0.08213000  0.81752000  1.0 -0.1227197718
C  C258  1  0.72886000  0.91787000  0.18248000  1.0 -0.1227197718
C  C259  1  0.22886000  0.91787000  0.31752000  1.0 -0.1227197718
C  C260  1  0.77114000  0.08213000  0.68248000  1.0 -0.1227197718
C  C261  1  0.16787000  0.02114000  0.06752000  1.0 -0.1227197718
C  C262  1  0.83213000  0.97886000  0.93248000  1.0 -0.1227197718
C  C263  1  0.33213000  0.97886000  0.56752000  1.0 -0.1227197718
C  C264  1  0.66787000  0.02114000  0.43248000  1.0 -0.1227197718
C  C265  1  0.22886000  0.08213000  0.18248000  1.0 -0.1227197718
C  C266  1  0.77114000  0.91787000  0.81752000  1.0 -0.1227197718
C  C267  1  0.27114000  0.91787000  0.68248000  1.0 -0.1227197718
C  C268  1  0.72886000  0.08213000  0.31752000  1.0 -0.1227197718
C  C269  1  0.33213000  0.02114000  0.93248000  1.0 -0.1227197718
C  C270  1  0.66787000  0.97886000  0.06752000  1.0 -0.1227197718
C  C271  1  0.16787000  0.97886000  0.43248000  1.0 -0.1227197718
C  C272  1  0.83213000  0.02114000  0.56752000  1.0 -0.1227197718
C  C273  1  0.77114000  0.58213000  0.31752000  1.0 -0.1227197718
C  C274  1  0.22886000  0.41787000  0.68248000  1.0 -0.1227197718
C  C275  1  0.72886000  0.41787000  0.81752000  1.0 -0.1227197718
C  C276  1  0.27114000  0.58213000  0.18248000  1.0 -0.1227197718
C  C277  1  0.66787000  0.52114000  0.56752000  1.0 -0.1227197718
C  C278  1  0.33213000  0.47886000  0.43248000  1.0 -0.1227197718
C  C279  1  0.83213000  0.47886000  0.06752000  1.0 -0.1227197718
C  C280  1  0.16787000  0.52114000  0.93248000  1.0 -0.1227197718
C  C281  1  0.72886000  0.58213000  0.68248000  1.0 -0.1227197718
C  C282  1  0.27114000  0.41787000  0.31752000  1.0 -0.1227197718
C  C283  1  0.77114000  0.41787000  0.18248000  1.0 -0.1227197718
C  C284  1  0.22886000  0.58213000  0.81752000  1.0 -0.1227197718
C  C285  1  0.83213000  0.52114000  0.43248000  1.0 -0.1227197718
C  C286  1  0.16787000  0.47886000  0.56752000  1.0 -0.1227197718
C  C287  1  0.66787000  0.47886000  0.93248000  1.0 -0.1227197718
C  C288  1  0.33213000  0.52114000  0.06752000  1.0 -0.1227197718
C  C289  1  0.27623000  0.13424000  0.79644000  1.0 -0.0589835116
C  C290  1  0.72377000  0.86576000  0.20356000  1.0 -0.0589835116
C  C291  1  0.22377000  0.86576000  0.29644000  1.0 -0.0589835116
C  C292  1  0.77623000  0.13424000  0.70356000  1.0 -0.0589835116
C  C293  1  0.11576000  0.02623000  0.04644000  1.0 -0.0589835116
C  C294  1  0.88424000  0.97377000  0.95356000  1.0 -0.0589835116
C  C295  1  0.38424000  0.97377000  0.54644000  1.0 -0.0589835116
C  C296  1  0.61576000  0.02623000  0.45356000  1.0 -0.0589835116
C  C297  1  0.22377000  0.13424000  0.20356000  1.0 -0.0589835116
C  C298  1  0.77623000  0.86576000  0.79644000  1.0 -0.0589835116
C  C299  1  0.27623000  0.86576000  0.70356000  1.0 -0.0589835116
C  C300  1  0.72377000  0.13424000  0.29644000  1.0 -0.0589835116
C  C301  1  0.38424000  0.02623000  0.95356000  1.0 -0.0589835116
C  C302  1  0.61576000  0.97377000  0.04644000  1.0 -0.0589835116
C  C303  1  0.11576000  0.97377000  0.45356000  1.0 -0.0589835116
C  C304  1  0.88424000  0.02623000  0.54644000  1.0 -0.0589835116
C  C305  1  0.77623000  0.63424000  0.29644000  1.0 -0.0589835116
C  C306  1  0.22377000  0.36576000  0.70356000  1.0 -0.0589835116
C  C307  1  0.72377000  0.36576000  0.79644000  1.0 -0.0589835116
C  C308  1  0.27623000  0.63424000  0.20356000  1.0 -0.0589835116
C  C309  1  0.61576000  0.52623000  0.54644000  1.0 -0.0589835116
C  C310  1  0.38424000  0.47377000  0.45356000  1.0 -0.0589835116
C  C311  1  0.88424000  0.47377000  0.04644000  1.0 -0.0589835116
C  C312  1  0.11576000  0.52623000  0.95356000  1.0 -0.0589835116
C  C313  1  0.72377000  0.63424000  0.70356000  1.0 -0.0589835116
C  C314  1  0.27623000  0.36576000  0.29644000  1.0 -0.0589835116
C  C315  1  0.77623000  0.36576000  0.20356000  1.0 -0.0589835116
C  C316  1  0.22377000  0.63424000  0.79644000  1.0 -0.0589835116
C  C317  1  0.88424000  0.52623000  0.45356000  1.0 -0.0589835116
C  C318  1  0.11576000  0.47377000  0.54644000  1.0 -0.0589835116
C  C319  1  0.61576000  0.47377000  0.95356000  1.0 -0.0589835116
C  C320  1  0.38424000  0.52623000  0.04644000  1.0 -0.0589835116
C  C321  1  0.24049000  0.17786000  0.81292000  1.0 -0.0822441039
C  C322  1  0.75951000  0.82214000  0.18708000  1.0 -0.0822441039
C  C323  1  0.25951000  0.82214000  0.31292000  1.0 -0.0822441039
C  C324  1  0.74049000  0.17786000  0.68708000  1.0 -0.0822441039
C  C325  1  0.07214000  0.99049000  0.06292000  1.0 -0.0822441039
C  C326  1  0.92786000  0.00951000  0.93708000  1.0 -0.0822441039
C  C327  1  0.42786000  0.00951000  0.56292000  1.0 -0.0822441039
C  C328  1  0.57214000  0.99049000  0.43708000  1.0 -0.0822441039
C  C329  1  0.25951000  0.17786000  0.18708000  1.0 -0.0822441039
C  C330  1  0.74049000  0.82214000  0.81292000  1.0 -0.0822441039
C  C331  1  0.24049000  0.82214000  0.68708000  1.0 -0.0822441039
C  C332  1  0.75951000  0.17786000  0.31292000  1.0 -0.0822441039
C  C333  1  0.42786000  0.99049000  0.93708000  1.0 -0.0822441039
C  C334  1  0.57214000  0.00951000  0.06292000  1.0 -0.0822441039
C  C335  1  0.07214000  0.00951000  0.43708000  1.0 -0.0822441039
C  C336  1  0.92786000  0.99049000  0.56292000  1.0 -0.0822441039
C  C337  1  0.74049000  0.67786000  0.31292000  1.0 -0.0822441039
C  C338  1  0.25951000  0.32214000  0.68708000  1.0 -0.0822441039
C  C339  1  0.75951000  0.32214000  0.81292000  1.0 -0.0822441039
C  C340  1  0.24049000  0.67786000  0.18708000  1.0 -0.0822441039
C  C341  1  0.57214000  0.49049000  0.56292000  1.0 -0.0822441039
C  C342  1  0.42786000  0.50951000  0.43708000  1.0 -0.0822441039
C  C343  1  0.92786000  0.50951000  0.06292000  1.0 -0.0822441039
C  C344  1  0.07214000  0.49049000  0.93708000  1.0 -0.0822441039
C  C345  1  0.75951000  0.67786000  0.68708000  1.0 -0.0822441039
C  C346  1  0.24049000  0.32214000  0.31292000  1.0 -0.0822441039
C  C347  1  0.74049000  0.32214000  0.18708000  1.0 -0.0822441039
C  C348  1  0.25951000  0.67786000  0.81292000  1.0 -0.0822441039
C  C349  1  0.92786000  0.49049000  0.43708000  1.0 -0.0822441039
C  C350  1  0.07214000  0.50951000  0.56292000  1.0 -0.0822441039
C  C351  1  0.57214000  0.50951000  0.93708000  1.0 -0.0822441039
C  C352  1  0.42786000  0.49049000  0.06292000  1.0 -0.0822441039
C  C353  1  0.19784000  0.16467000  0.85460000  1.0 -0.0589835116
C  C354  1  0.80216000  0.83533000  0.14540000  1.0 -0.0589835116
C  C355  1  0.30216000  0.83533000  0.35460000  1.0 -0.0589835116
C  C356  1  0.69784000  0.16467000  0.64540000  1.0 -0.0589835116
C  C357  1  0.08533000  0.94784000  0.10460000  1.0 -0.0589835116
C  C358  1  0.91467000  0.05216000  0.89540000  1.0 -0.0589835116
C  C359  1  0.41467000  0.05216000  0.60460000  1.0 -0.0589835116
C  C360  1  0.58533000  0.94784000  0.39540000  1.0 -0.0589835116
C  C361  1  0.30216000  0.16467000  0.14540000  1.0 -0.0589835116
C  C362  1  0.69784000  0.83533000  0.85460000  1.0 -0.0589835116
C  C363  1  0.19784000  0.83533000  0.64540000  1.0 -0.0589835116
C  C364  1  0.80216000  0.16467000  0.35460000  1.0 -0.0589835116
C  C365  1  0.41467000  0.94784000  0.89540000  1.0 -0.0589835116
C  C366  1  0.58533000  0.05216000  0.10460000  1.0 -0.0589835116
C  C367  1  0.08533000  0.05216000  0.39540000  1.0 -0.0589835116
C  C368  1  0.91467000  0.94784000  0.60460000  1.0 -0.0589835116
C  C369  1  0.69784000  0.66467000  0.35460000  1.0 -0.0589835116
C  C370  1  0.30216000  0.33533000  0.64540000  1.0 -0.0589835116
C  C371  1  0.80216000  0.33533000  0.85460000  1.0 -0.0589835116
C  C372  1  0.19784000  0.66467000  0.14540000  1.0 -0.0589835116
C  C373  1  0.58533000  0.44784000  0.60460000  1.0 -0.0589835116
C  C374  1  0.41467000  0.55216000  0.39540000  1.0 -0.0589835116
C  C375  1  0.91467000  0.55216000  0.10460000  1.0 -0.0589835116
C  C376  1  0.08533000  0.44784000  0.89540000  1.0 -0.0589835116
C  C377  1  0.80216000  0.66467000  0.64540000  1.0 -0.0589835116
C  C378  1  0.19784000  0.33533000  0.35460000  1.0 -0.0589835116
C  C379  1  0.69784000  0.33533000  0.14540000  1.0 -0.0589835116
C  C380  1  0.30216000  0.66467000  0.85460000  1.0 -0.0589835116
C  C381  1  0.91467000  0.44784000  0.39540000  1.0 -0.0589835116
C  C382  1  0.08533000  0.55216000  0.60460000  1.0 -0.0589835116
C  C383  1  0.58533000  0.55216000  0.89540000  1.0 -0.0589835116
C  C384  1  0.41467000  0.44784000  0.10460000  1.0 -0.0589835116
C  C385  1  0.19217000  0.11460000  0.87628000  1.0 -0.1002427396
C  C386  1  0.80783000  0.88540000  0.12372000  1.0 -0.1002427396
C  C387  1  0.30783000  0.88540000  0.37628000  1.0 -0.1002427396
C  C388  1  0.69217000  0.11460000  0.62372000  1.0 -0.1002427396
C  C389  1  0.13540000  0.94217000  0.12628000  1.0 -0.1002427396
C  C390  1  0.86460000  0.05783000  0.87372000  1.0 -0.1002427396
C  C391  1  0.36460000  0.05783000  0.62628000  1.0 -0.1002427396
C  C392  1  0.63540000  0.94217000  0.37372000  1.0 -0.1002427396
C  C393  1  0.30783000  0.11460000  0.12372000  1.0 -0.1002427396
C  C394  1  0.69217000  0.88540000  0.87628000  1.0 -0.1002427396
C  C395  1  0.19217000  0.88540000  0.62372000  1.0 -0.1002427396
C  C396  1  0.80783000  0.11460000  0.37628000  1.0 -0.1002427396
C  C397  1  0.36460000  0.94217000  0.87372000  1.0 -0.1002427396
C  C398  1  0.63540000  0.05783000  0.12628000  1.0 -0.1002427396
C  C399  1  0.13540000  0.05783000  0.37372000  1.0 -0.1002427396
C  C400  1  0.86460000  0.94217000  0.62628000  1.0 -0.1002427396
C  C401  1  0.69217000  0.61460000  0.37628000  1.0 -0.1002427396
C  C402  1  0.30783000  0.38540000  0.62372000  1.0 -0.1002427396
C  C403  1  0.80783000  0.38540000  0.87628000  1.0 -0.1002427396
C  C404  1  0.19217000  0.61460000  0.12372000  1.0 -0.1002427396
C  C405  1  0.63540000  0.44217000  0.62628000  1.0 -0.1002427396
C  C406  1  0.36460000  0.55783000  0.37372000  1.0 -0.1002427396
C  C407  1  0.86460000  0.55783000  0.12628000  1.0 -0.1002427396
C  C408  1  0.13540000  0.44217000  0.87372000  1.0 -0.1002427396
C  C409  1  0.80783000  0.61460000  0.62372000  1.0 -0.1002427396
C  C410  1  0.19217000  0.38540000  0.37628000  1.0 -0.1002427396
C  C411  1  0.69217000  0.38540000  0.12372000  1.0 -0.1002427396
C  C412  1  0.30783000  0.61460000  0.87628000  1.0 -0.1002427396
C  C413  1  0.86460000  0.44217000  0.37372000  1.0 -0.1002427396
C  C414  1  0.13540000  0.55783000  0.62628000  1.0 -0.1002427396
C  C415  1  0.63540000  0.55783000  0.87372000  1.0 -0.1002427396
C  C416  1  0.36460000  0.44217000  0.12628000  1.0 -0.1002427396
N  N1  1  0.17515000  0.86578000  0.00517000  1.0 -0.215481632
N  N2  1  0.82485000  0.13422000  0.99483000  1.0 -0.214904808
N  N3  1  0.32485000  0.13422000  0.50517000  1.0 -0.215481632
N  N4  1  0.67515000  0.86578000  0.49483000  1.0 -0.215481632
N  N5  1  0.38422000  0.92515000  0.25517000  1.0 -0.214904808
N  N6  1  0.61578000  0.07485000  0.74483000  1.0 -0.214904808
N  N7  1  0.11578000  0.07485000  0.75517000  1.0 -0.215481632
N  N8  1  0.88422000  0.92515000  0.24483000  1.0 -0.215481632
N  N9  1  0.32485000  0.86578000  0.99483000  1.0 -0.214904808
N  N10  1  0.67515000  0.13422000  0.00517000  1.0 -0.215481632
N  N11  1  0.17515000  0.13422000  0.49483000  1.0 -0.215481632
N  N12  1  0.82485000  0.86578000  0.50517000  1.0 -0.215481632
N  N13  1  0.11578000  0.92515000  0.74483000  1.0 -0.215481632
N  N14  1  0.88422000  0.07485000  0.25517000  1.0 -0.214904808
N  N15  1  0.38422000  0.07485000  0.24483000  1.0 -0.215481632
N  N16  1  0.61578000  0.92515000  0.75517000  1.0 -0.215481632
N  N17  1  0.67515000  0.36578000  0.50517000  1.0 -0.215481632
N  N18  1  0.32485000  0.63422000  0.49483000  1.0 -0.215481632
N  N19  1  0.82485000  0.63422000  0.00517000  1.0 -0.215481632
N  N20  1  0.17515000  0.36578000  0.99483000  1.0 -0.215481632
N  N21  1  0.88422000  0.42515000  0.75517000  1.0 -0.214904808
N  N22  1  0.11578000  0.57485000  0.24483000  1.0 -0.215481632
N  N23  1  0.61578000  0.57485000  0.25517000  1.0 -0.215481632
N  N24  1  0.38422000  0.42515000  0.74483000  1.0 -0.214904808
N  N25  1  0.82485000  0.36578000  0.49483000  1.0 -0.214904808
N  N26  1  0.17515000  0.63422000  0.50517000  1.0 -0.215481632
N  N27  1  0.67515000  0.63422000  0.99483000  1.0 -0.214904808
N  N28  1  0.32485000  0.36578000  0.00517000  1.0 -0.215481632
N  N29  1  0.61578000  0.42515000  0.24483000  1.0 -0.215481632
N  N30  1  0.38422000  0.57485000  0.75517000  1.0 -0.215481632
N  N31  1  0.88422000  0.57485000  0.74483000  1.0 -0.215481632
N  N32  1  0.11578000  0.42515000  0.25517000  1.0 -0.215481632
N  N33  1  0.07640000  0.79714000  0.99416000  1.0 -0.1489364413
N  N34  1  0.92360000  0.20286000  0.00584000  1.0 -0.1489364413
N  N35  1  0.42360000  0.20286000  0.49416000  1.0 -0.1489364413
N  N36  1  0.57640000  0.79714000  0.50584000  1.0 -0.1489364413
N  N37  1  0.45286000  0.82640000  0.24416000  1.0 -0.1489364413
N  N38  1  0.54714000  0.17360000  0.75584000  1.0 -0.1489364413
N  N39  1  0.04714000  0.17360000  0.74416000  1.0 -0.1489364413
N  N40  1  0.95286000  0.82640000  0.25584000  1.0 -0.1489364413
N  N41  1  0.42360000  0.79714000  0.00584000  1.0 -0.1489364413
N  N42  1  0.57640000  0.20286000  0.99416000  1.0 -0.1489364413
N  N43  1  0.07640000  0.20286000  0.50584000  1.0 -0.1489364413
N  N44  1  0.92360000  0.79714000  0.49416000  1.0 -0.1489364413
N  N45  1  0.04714000  0.82640000  0.75584000  1.0 -0.1489364413
N  N46  1  0.95286000  0.17360000  0.24416000  1.0 -0.1489364413
N  N47  1  0.45286000  0.17360000  0.25584000  1.0 -0.1489364413
N  N48  1  0.54714000  0.82640000  0.74416000  1.0 -0.1489364413
N  N49  1  0.57640000  0.29714000  0.49416000  1.0 -0.1489364413
N  N50  1  0.42360000  0.70286000  0.50584000  1.0 -0.1489364413
N  N51  1  0.92360000  0.70286000  0.99416000  1.0 -0.1489364413
N  N52  1  0.07640000  0.29714000  0.00584000  1.0 -0.1489364413
N  N53  1  0.95286000  0.32640000  0.74416000  1.0 -0.1489364413
N  N54  1  0.04714000  0.67360000  0.25584000  1.0 -0.1489364413
N  N55  1  0.54714000  0.67360000  0.24416000  1.0 -0.1489364413
N  N56  1  0.45286000  0.32640000  0.75584000  1.0 -0.1489364413
N  N57  1  0.92360000  0.29714000  0.50584000  1.0 -0.1489364413
N  N58  1  0.07640000  0.70286000  0.49416000  1.0 -0.1489364413
N  N59  1  0.57640000  0.70286000  0.00584000  1.0 -0.1489364413
N  N60  1  0.42360000  0.29714000  0.99416000  1.0 -0.1489364413
N  N61  1  0.54714000  0.32640000  0.25584000  1.0 -0.1489364413
N  N62  1  0.45286000  0.67360000  0.74416000  1.0 -0.1489364413
N  N63  1  0.95286000  0.67360000  0.75584000  1.0 -0.1489364413
N  N64  1  0.04714000  0.32640000  0.24416000  1.0 -0.1489364413
N  N65  1  0.18279000  0.95573000  0.93988000  1.0 -0.1567949383
N  N66  1  0.81721000  0.04427000  0.06012000  1.0 -0.1567949383
N  N67  1  0.31721000  0.04427000  0.43988000  1.0 -0.1567949383
N  N68  1  0.68279000  0.95573000  0.56012000  1.0 -0.1567949383
N  N69  1  0.29427000  0.93279000  0.18988000  1.0 -0.1567949383
N  N70  1  0.70573000  0.06721000  0.81012000  1.0 -0.1567949383
N  N71  1  0.20573000  0.06721000  0.68988000  1.0 -0.1567949383
N  N72  1  0.79427000  0.93279000  0.31012000  1.0 -0.1567949383
N  N73  1  0.31721000  0.95573000  0.06012000  1.0 -0.1567949383
N  N74  1  0.68279000  0.04427000  0.93988000  1.0 -0.1567949383
N  N75  1  0.18279000  0.04427000  0.56012000  1.0 -0.1567949383
N  N76  1  0.81721000  0.95573000  0.43988000  1.0 -0.1567949383
N  N77  1  0.20573000  0.93279000  0.81012000  1.0 -0.1567949383
N  N78  1  0.79427000  0.06721000  0.18988000  1.0 -0.1567949383
N  N79  1  0.29427000  0.06721000  0.31012000  1.0 -0.1567949383
N  N80  1  0.70573000  0.93279000  0.68988000  1.0 -0.1567949383
N  N81  1  0.68279000  0.45573000  0.43988000  1.0 -0.1567949383
N  N82  1  0.31721000  0.54427000  0.56012000  1.0 -0.1567949383
N  N83  1  0.81721000  0.54427000  0.93988000  1.0 -0.1567949383
N  N84  1  0.18279000  0.45573000  0.06012000  1.0 -0.1567949383
N  N85  1  0.79427000  0.43279000  0.68988000  1.0 -0.1567949383
N  N86  1  0.20573000  0.56721000  0.31012000  1.0 -0.1567949383
N  N87  1  0.70573000  0.56721000  0.18988000  1.0 -0.1567949383
N  N88  1  0.29427000  0.43279000  0.81012000  1.0 -0.1567949383
N  N89  1  0.81721000  0.45573000  0.56012000  1.0 -0.1567949383
N  N90  1  0.18279000  0.54427000  0.43988000  1.0 -0.1567949383
N  N91  1  0.68279000  0.54427000  0.06012000  1.0 -0.1567949383
N  N92  1  0.31721000  0.45573000  0.93988000  1.0 -0.1567949383
N  N93  1  0.70573000  0.43279000  0.31012000  1.0 -0.1567949383
N  N94  1  0.29427000  0.56721000  0.68988000  1.0 -0.1567949383
N  N95  1  0.79427000  0.56721000  0.81012000  1.0 -0.1567949383
N  N96  1  0.20573000  0.43279000  0.18988000  1.0 -0.1567949383
N  N97  1  0.18186000  0.00619000  0.91467000  1.0 -0.1369604828
N  N98  1  0.81814000  0.99381000  0.08533000  1.0 -0.1369604828
N  N99  1  0.31814000  0.99381000  0.41467000  1.0 -0.1369604828
N  N100  1  0.68186000  0.00619000  0.58533000  1.0 -0.1369604828
N  N101  1  0.24381000  0.93186000  0.16467000  1.0 -0.1369604828
N  N102  1  0.75619000  0.06814000  0.83533000  1.0 -0.1369604828
N  N103  1  0.25619000  0.06814000  0.66467000  1.0 -0.1369604828
N  N104  1  0.74381000  0.93186000  0.33533000  1.0 -0.1369604828
N  N105  1  0.31814000  0.00619000  0.08533000  1.0 -0.1369604828
N  N106  1  0.68186000  0.99381000  0.91467000  1.0 -0.1369604828
N  N107  1  0.18186000  0.99381000  0.58533000  1.0 -0.1369604828
N  N108  1  0.81814000  0.00619000  0.41467000  1.0 -0.1369604828
N  N109  1  0.25619000  0.93186000  0.83533000  1.0 -0.1369604828
N  N110  1  0.74381000  0.06814000  0.16467000  1.0 -0.1369604828
N  N111  1  0.24381000  0.06814000  0.33533000  1.0 -0.1369604828
N  N112  1  0.75619000  0.93186000  0.66467000  1.0 -0.1369604828
N  N113  1  0.68186000  0.50619000  0.41467000  1.0 -0.1369604828
N  N114  1  0.31814000  0.49381000  0.58533000  1.0 -0.1369604828
N  N115  1  0.81814000  0.49381000  0.91467000  1.0 -0.1369604828
N  N116  1  0.18186000  0.50619000  0.08533000  1.0 -0.1369604828
N  N117  1  0.74381000  0.43186000  0.66467000  1.0 -0.1369604828
N  N118  1  0.25619000  0.56814000  0.33533000  1.0 -0.1369604828
N  N119  1  0.75619000  0.56814000  0.16467000  1.0 -0.1369604828
N  N120  1  0.24381000  0.43186000  0.83533000  1.0 -0.1369604828
N  N121  1  0.81814000  0.50619000  0.58533000  1.0 -0.1369604828
N  N122  1  0.18186000  0.49381000  0.41467000  1.0 -0.1369604828
N  N123  1  0.68186000  0.49381000  0.08533000  1.0 -0.1369604828
N  N124  1  0.31814000  0.50619000  0.91467000  1.0 -0.1369604828
N  N125  1  0.75619000  0.43186000  0.33533000  1.0 -0.1369604828
N  N126  1  0.24381000  0.56814000  0.66467000  1.0 -0.1369604828
N  N127  1  0.74381000  0.56814000  0.83533000  1.0 -0.1369604828
N  N128  1  0.25619000  0.43186000  0.16467000  1.0 -0.1369604828
N  N129  1  0.96010000  0.86207000  0.06099000  1.0 0.7128863627
N  N130  1  0.03990000  0.13793000  0.93901000  1.0 0.7128863627
N  N131  1  0.53990000  0.13793000  0.56099000  1.0 0.7128863627
N  N132  1  0.46010000  0.86207000  0.43901000  1.0 0.7128863627
N  N133  1  0.38793000  0.71010000  0.31099000  1.0 0.7128863627
N  N134  1  0.61207000  0.28990000  0.68901000  1.0 0.7128863627
N  N135  1  0.11207000  0.28990000  0.81099000  1.0 0.7128863627
N  N136  1  0.88793000  0.71010000  0.18901000  1.0 0.7128863627
N  N137  1  0.53990000  0.86207000  0.93901000  1.0 0.7128863627
N  N138  1  0.46010000  0.13793000  0.06099000  1.0 0.7128863627
N  N139  1  0.96010000  0.13793000  0.43901000  1.0 0.7128863627
N  N140  1  0.03990000  0.86207000  0.56099000  1.0 0.7128863627
N  N141  1  0.11207000  0.71010000  0.68901000  1.0 0.7128863627
N  N142  1  0.88793000  0.28990000  0.31099000  1.0 0.7128863627
N  N143  1  0.38793000  0.28990000  0.18901000  1.0 0.7128863627
N  N144  1  0.61207000  0.71010000  0.81099000  1.0 0.7128863627
N  N145  1  0.46010000  0.36207000  0.56099000  1.0 0.7128863627
N  N146  1  0.53990000  0.63793000  0.43901000  1.0 0.7128863627
N  N147  1  0.03990000  0.63793000  0.06099000  1.0 0.7128863627
N  N148  1  0.96010000  0.36207000  0.93901000  1.0 0.7128863627
N  N149  1  0.88793000  0.21010000  0.81099000  1.0 0.7128863627
N  N150  1  0.11207000  0.78990000  0.18901000  1.0 0.7128863627
N  N151  1  0.61207000  0.78990000  0.31099000  1.0 0.7128863627
N  N152  1  0.38793000  0.21010000  0.68901000  1.0 0.7128863627
N  N153  1  0.03990000  0.36207000  0.43901000  1.0 0.7128863627
N  N154  1  0.96010000  0.63793000  0.56099000  1.0 0.7128863627
N  N155  1  0.46010000  0.63793000  0.93901000  1.0 0.7128863627
N  N156  1  0.53990000  0.36207000  0.06099000  1.0 0.7128863627
N  N157  1  0.61207000  0.21010000  0.18901000  1.0 0.7128863627
N  N158  1  0.38793000  0.78990000  0.81099000  1.0 0.7128863627
N  N159  1  0.88793000  0.78990000  0.68901000  1.0 0.7128863627
N  N160  1  0.11207000  0.21010000  0.31099000  1.0 0.7128863627
O  O1  1  0.95333000  0.91443000  0.06242000  1.0 -0.4545806615
O  O2  1  0.04667000  0.08557000  0.93758000  1.0 -0.4545806615
O  O3  1  0.54667000  0.08557000  0.56242000  1.0 -0.4545806615
O  O4  1  0.45333000  0.91443000  0.43758000  1.0 -0.4545806615
O  O5  1  0.33557000  0.70333000  0.31242000  1.0 -0.4545806615
O  O6  1  0.66443000  0.29667000  0.68758000  1.0 -0.4545806615
O  O7  1  0.16443000  0.29667000  0.81242000  1.0 -0.4553134968
O  O8  1  0.83557000  0.70333000  0.18758000  1.0 -0.4545806615
O  O9  1  0.54667000  0.91443000  0.93758000  1.0 -0.4545806615
O  O10  1  0.45333000  0.08557000  0.06242000  1.0 -0.4545806615
O  O11  1  0.95333000  0.08557000  0.43758000  1.0 -0.4545806615
O  O12  1  0.04667000  0.91443000  0.56242000  1.0 -0.4553134968
O  O13  1  0.16443000  0.70333000  0.68758000  1.0 -0.4553134968
O  O14  1  0.83557000  0.29667000  0.31242000  1.0 -0.4545806615
O  O15  1  0.33557000  0.29667000  0.18758000  1.0 -0.4553134968
O  O16  1  0.66443000  0.70333000  0.81242000  1.0 -0.4545806615
O  O17  1  0.45333000  0.41443000  0.56242000  1.0 -0.4545806615
O  O18  1  0.54667000  0.58557000  0.43758000  1.0 -0.4545806615
O  O19  1  0.04667000  0.58557000  0.06242000  1.0 -0.4553134968
O  O20  1  0.95333000  0.41443000  0.93758000  1.0 -0.4545806615
O  O21  1  0.83557000  0.20333000  0.81242000  1.0 -0.4545806615
O  O22  1  0.16443000  0.79667000  0.18758000  1.0 -0.4553134968
O  O23  1  0.66443000  0.79667000  0.31242000  1.0 -0.4545806615
O  O24  1  0.33557000  0.20333000  0.68758000  1.0 -0.4545806615
O  O25  1  0.04667000  0.41443000  0.43758000  1.0 -0.4553134968
O  O26  1  0.95333000  0.58557000  0.56242000  1.0 -0.4545806615
O  O27  1  0.45333000  0.58557000  0.93758000  1.0 -0.4545806615
O  O28  1  0.54667000  0.41443000  0.06242000  1.0 -0.4545806615
O  O29  1  0.66443000  0.20333000  0.18758000  1.0 -0.4545806615
O  O30  1  0.33557000  0.79667000  0.81242000  1.0 -0.4545806615
O  O31  1  0.83557000  0.79667000  0.68758000  1.0 -0.4545806615
O  O32  1  0.16443000  0.20333000  0.31242000  1.0 -0.4553134968
O  O33  1  0.99879000  0.84028000  0.09458000  1.0 -0.4821599355
O  O34  1  0.00121000  0.15972000  0.90542000  1.0 -0.4821599355
O  O35  1  0.50121000  0.15972000  0.59458000  1.0 -0.4821599355
O  O36  1  0.49879000  0.84028000  0.40542000  1.0 -0.4821599355
O  O37  1  0.40972000  0.74879000  0.34458000  1.0 -0.4821599355
O  O38  1  0.59028000  0.25121000  0.65542000  1.0 -0.4821599355
O  O39  1  0.09028000  0.25121000  0.84458000  1.0 -0.4821599355
O  O40  1  0.90972000  0.74879000  0.15542000  1.0 -0.4821599355
O  O41  1  0.50121000  0.84028000  0.90542000  1.0 -0.4821599355
O  O42  1  0.49879000  0.15972000  0.09458000  1.0 -0.4821599355
O  O43  1  0.99879000  0.15972000  0.40542000  1.0 -0.4821599355
O  O44  1  0.00121000  0.84028000  0.59458000  1.0 -0.4821599355
O  O45  1  0.09028000  0.74879000  0.65542000  1.0 -0.4821599355
O  O46  1  0.90972000  0.25121000  0.34458000  1.0 -0.4821599355
O  O47  1  0.40972000  0.25121000  0.15542000  1.0 -0.4821599355
O  O48  1  0.59028000  0.74879000  0.84458000  1.0 -0.4821599355
O  O49  1  0.49879000  0.34028000  0.59458000  1.0 -0.4821599355
O  O50  1  0.50121000  0.65972000  0.40542000  1.0 -0.4821599355
O  O51  1  0.00121000  0.65972000  0.09458000  1.0 -0.4821599355
O  O52  1  0.99879000  0.34028000  0.90542000  1.0 -0.4821599355
O  O53  1  0.90972000  0.24879000  0.84458000  1.0 -0.4821599355
O  O54  1  0.09028000  0.75121000  0.15542000  1.0 -0.4821599355
O  O55  1  0.59028000  0.75121000  0.34458000  1.0 -0.4821599355
O  O56  1  0.40972000  0.24879000  0.65542000  1.0 -0.4821599355
O  O57  1  0.00121000  0.34028000  0.40542000  1.0 -0.4821599355
O  O58  1  0.99879000  0.65972000  0.59458000  1.0 -0.4821599355
O  O59  1  0.49879000  0.65972000  0.90542000  1.0 -0.4821599355
O  O60  1  0.50121000  0.34028000  0.09458000  1.0 -0.4821599355
O  O61  1  0.59028000  0.24879000  0.15542000  1.0 -0.4821599355
O  O62  1  0.40972000  0.75121000  0.84458000  1.0 -0.4821599355
O  O63  1  0.90972000  0.75121000  0.65542000  1.0 -0.4821599355
O  O64  1  0.09028000  0.24879000  0.34458000  1.0 -0.4821599355
O  O65  1  0.92799000  0.83018000  0.03142000  1.0 -0.4675481446
O  O66  1  0.07201000  0.16982000  0.96858000  1.0 -0.4675481446
O  O67  1  0.57201000  0.16982000  0.53142000  1.0 -0.4675481446
O  O68  1  0.42799000  0.83018000  0.46858000  1.0 -0.4675481446
O  O69  1  0.41982000  0.67799000  0.28142000  1.0 -0.4675481446
O  O70  1  0.58018000  0.32201000  0.71858000  1.0 -0.4675481446
O  O71  1  0.08018000  0.32201000  0.78142000  1.0 -0.4675481446
O  O72  1  0.91982000  0.67799000  0.21858000  1.0 -0.4675481446
O  O73  1  0.57201000  0.83018000  0.96858000  1.0 -0.4675481446
O  O74  1  0.42799000  0.16982000  0.03142000  1.0 -0.4675481446
O  O75  1  0.92799000  0.16982000  0.46858000  1.0 -0.4675481446
O  O76  1  0.07201000  0.83018000  0.53142000  1.0 -0.4675481446
O  O77  1  0.08018000  0.67799000  0.71858000  1.0 -0.4675481446
O  O78  1  0.91982000  0.32201000  0.28142000  1.0 -0.4675481446
O  O79  1  0.41982000  0.32201000  0.21858000  1.0 -0.4675481446
O  O80  1  0.58018000  0.67799000  0.78142000  1.0 -0.4675481446
O  O81  1  0.42799000  0.33018000  0.53142000  1.0 -0.4675481446
O  O82  1  0.57201000  0.66982000  0.46858000  1.0 -0.4675481446
O  O83  1  0.07201000  0.66982000  0.03142000  1.0 -0.4675481446
O  O84  1  0.92799000  0.33018000  0.96858000  1.0 -0.4675481446
O  O85  1  0.91982000  0.17799000  0.78142000  1.0 -0.4675481446
O  O86  1  0.08018000  0.82201000  0.21858000  1.0 -0.4675481446
O  O87  1  0.58018000  0.82201000  0.28142000  1.0 -0.4675481446
O  O88  1  0.41982000  0.17799000  0.71858000  1.0 -0.4675481446
O  O89  1  0.07201000  0.33018000  0.46858000  1.0 -0.4675481446
O  O90  1  0.92799000  0.66982000  0.53142000  1.0 -0.4675481446
O  O91  1  0.42799000  0.66982000  0.96858000  1.0 -0.4675481446
O  O92  1  0.57201000  0.33018000  0.03142000  1.0 -0.4675481446
O  O93  1  0.58018000  0.17799000  0.21858000  1.0 -0.4675481446
O  O94  1  0.41982000  0.82201000  0.78142000  1.0 -0.4675481446
O  O95  1  0.91982000  0.82201000  0.71858000  1.0 -0.4675481446
O  O96  1  0.08018000  0.17799000  0.28142000  1.0 -0.4675481446
