# DDEC6 charges by PACMAN v1.1 (https://github.com/mtap-research/PACMAN-charge/)
data_TIMMIM_ion_pacman
_symmetry_space_group_name_H-M   'P 1'
_cell_length_a   23.16700000
_cell_length_b   23.16700000
_cell_length_c   26.46000000
_cell_angle_alpha   86.53220000
_cell_angle_beta   93.46780000
_cell_angle_gamma   95.07660000
_symmetry_Int_Tables_number   1
_chemical_formula_structural   Ag13B14H184C208N64(OF14)4
_chemical_formula_sum   'Ag26 B28 H368 C416 N128 O8 F112'
_cell_volume   14098.00777663
_cell_formula_units_Z   2
loop_
 _symmetry_equiv_pos_site_id
 _symmetry_equiv_pos_as_xyz
  1  'x, y, z'
loop_
 _atom_site_type_symbol
 _atom_site_label
 _atom_site_symmetry_multiplicity
 _atom_site_fract_x
 _atom_site_fract_y
 _atom_site_fract_z
 _atom_site_occupancy
 _atom_site_charge
Ag  Ag1  1  0.00095000  0.75453000  0.06461000  1.0 0.2883583175
Ag  Ag2  1  0.75453000  0.00095000  0.43539000  1.0 0.2883583175
Ag  Ag3  1  0.99905000  0.24547000  0.93539000  1.0 0.2883583175
Ag  Ag4  1  0.24547000  0.99905000  0.56461000  1.0 0.2883583175
Ag  Ag5  1  0.99167000  0.76025000  0.93574000  1.0 0.2883583175
Ag  Ag6  1  0.76025000  0.99167000  0.56426000  1.0 0.2883583175
Ag  Ag7  1  0.00833000  0.23975000  0.06426000  1.0 0.2883583175
Ag  Ag8  1  0.23975000  0.00833000  0.43574000  1.0 0.2883583175
Ag  Ag9  1  0.80896000  0.50736000  0.53422000  1.0 0.2788619043
Ag  Ag10  1  0.50736000  0.80896000  0.96578000  1.0 0.2788619043
Ag  Ag11  1  0.19104000  0.49264000  0.46578000  1.0 0.2788619043
Ag  Ag12  1  0.49264000  0.19104000  0.03422000  1.0 0.2788619043
Ag  Ag13  1  0.67843000  0.47237000  0.52676000  1.0 0.2883583175
Ag  Ag14  1  0.47237000  0.67843000  0.97324000  1.0 0.2883583175
Ag  Ag15  1  0.32157000  0.52763000  0.47324000  1.0 0.2883583175
Ag  Ag16  1  0.52763000  0.32157000  0.02676000  1.0 0.2883583175
Ag  Ag17  1  0.53308000  0.40060000  0.28690000  1.0 0.3578429611
Ag  Ag18  1  0.40060000  0.53308000  0.21310000  1.0 0.3578429611
Ag  Ag19  1  0.46692000  0.59940000  0.71310000  1.0 0.3578429611
Ag  Ag20  1  0.59940000  0.46692000  0.78690000  1.0 0.3578429611
Ag  Ag21  1  0.98238000  0.51528000  0.77081000  1.0 0.344023362
Ag  Ag22  1  0.51528000  0.98238000  0.72919000  1.0 0.3483469577
Ag  Ag23  1  0.01762000  0.48472000  0.22919000  1.0 0.3483469577
Ag  Ag24  1  0.48472000  0.01762000  0.27081000  1.0 0.3483469577
Ag  Ag25  1  0.97948000  0.97948000  0.25000000  1.0 0.3278243285
Ag  Ag26  1  0.02052000  0.02052000  0.75000000  1.0 0.3278243285
B  B1  1  0.43020000  0.67000000  0.38660000  1.0 1.067269543
B  B2  1  0.67000000  0.43020000  0.11340000  1.0 1.0616642775
B  B3  1  0.56980000  0.33000000  0.61340000  1.0 1.0616642775
B  B4  1  0.33000000  0.56980000  0.88660000  1.0 1.0616642775
B  B5  1  0.01267000  0.08765000  0.40937000  1.0 1.0398407073
B  B6  1  0.08765000  0.01267000  0.09063000  1.0 1.0398407073
B  B7  1  0.98733000  0.91235000  0.59063000  1.0 1.0398407073
B  B8  1  0.91235000  0.98733000  0.90937000  1.0 1.0398407073
B  B9  1  0.36314000  0.69272000  0.22176000  1.0 1.0296079459
B  B10  1  0.69272000  0.36314000  0.27824000  1.0 1.0296079459
B  B11  1  0.63686000  0.30728000  0.77824000  1.0 1.0296079459
B  B12  1  0.30728000  0.63686000  0.72176000  1.0 1.0296079459
B  B13  1  0.19356000  0.50010000  0.17750000  1.0 1.0296079459
B  B14  1  0.50010000  0.19356000  0.32250000  1.0 1.0296079459
B  B15  1  0.80644000  0.49990000  0.82250000  1.0 1.0296079459
B  B16  1  0.49990000  0.80644000  0.67750000  1.0 1.0296079459
B  B17  1  0.99287000  0.19087000  0.65760000  1.0 1.0616642775
B  B18  1  0.19087000  0.99287000  0.84240000  1.0 1.0616642775
B  B19  1  0.00713000  0.80913000  0.34240000  1.0 1.067269543
B  B20  1  0.80913000  0.00713000  0.15760000  1.0 1.0616642775
B  B21  1  0.36542000  0.01182000  0.14781000  1.0 1.0546945127
B  B22  1  0.01182000  0.36542000  0.35219000  1.0 1.0616642775
B  B23  1  0.63458000  0.98818000  0.85219000  1.0 1.0616642775
B  B24  1  0.98818000  0.63458000  0.64781000  1.0 1.0546945127
B  B25  1  0.48944000  0.89494000  0.41211000  1.0 1.0067583414
B  B26  1  0.89494000  0.48944000  0.08789000  1.0 1.0067583414
B  B27  1  0.51056000  0.10506000  0.58789000  1.0 1.0067583414
B  B28  1  0.10506000  0.51056000  0.91211000  1.0 1.0067583414
H  H1  1  0.04920000  0.71800000  0.82900000  1.0 0.1375745629
H  H2  1  0.71800000  0.04920000  0.67100000  1.0 0.1375745629
H  H3  1  0.95080000  0.28200000  0.17100000  1.0 0.1375745629
H  H4  1  0.28200000  0.95080000  0.32900000  1.0 0.1375745629
H  H5  1  0.04460000  0.63960000  0.78280000  1.0 0.1375745629
H  H6  1  0.63960000  0.04460000  0.71720000  1.0 0.1375745629
H  H7  1  0.95540000  0.36040000  0.21720000  1.0 0.1375745629
H  H8  1  0.36040000  0.95540000  0.28280000  1.0 0.1375745629
H  H9  1  0.93190000  0.55770000  0.87210000  1.0 0.1285968324
H  H10  1  0.55770000  0.93190000  0.62790000  1.0 0.1285968324
H  H11  1  0.06810000  0.44230000  0.12790000  1.0 0.1285968324
H  H12  1  0.44230000  0.06810000  0.37210000  1.0 0.1285968324
H  H13  1  0.87380000  0.58460000  0.98770000  1.0 0.1615324736
H  H14  1  0.58460000  0.87380000  0.51230000  1.0 0.1615324736
H  H15  1  0.12620000  0.41540000  0.01230000  1.0 0.1615324736
H  H16  1  0.41540000  0.12620000  0.48770000  1.0 0.1615324736
H  H17  1  0.91790000  0.54750000  0.96440000  1.0 0.1615324736
H  H18  1  0.54750000  0.91790000  0.53560000  1.0 0.1615324736
H  H19  1  0.08210000  0.45250000  0.03560000  1.0 0.1615324736
H  H20  1  0.45250000  0.08210000  0.46440000  1.0 0.1615324736
H  H21  1  0.86360000  0.56660000  0.93150000  1.0 0.1615324736
H  H22  1  0.56660000  0.86360000  0.56850000  1.0 0.1615324736
H  H23  1  0.13640000  0.43340000  0.06850000  1.0 0.1615324736
H  H24  1  0.43340000  0.13640000  0.43150000  1.0 0.1615324736
H  H25  1  0.87070000  0.64070000  0.09160000  1.0 0.1285968324
H  H26  1  0.64070000  0.87070000  0.40840000  1.0 0.1215035434
H  H27  1  0.12930000  0.35930000  0.90840000  1.0 0.1215035434
H  H28  1  0.35930000  0.12930000  0.59160000  1.0 0.1215035434
H  H29  1  0.82000000  0.63540000  0.16530000  1.0 0.1285968324
H  H30  1  0.63540000  0.82000000  0.33470000  1.0 0.1285968324
H  H31  1  0.18000000  0.36460000  0.83470000  1.0 0.1285968324
H  H32  1  0.36460000  0.18000000  0.66530000  1.0 0.1285968324
H  H33  1  0.76330000  0.70950000  0.18090000  1.0 0.1107405838
H  H34  1  0.70950000  0.76330000  0.31910000  1.0 0.1107405838
H  H35  1  0.23670000  0.29050000  0.81910000  1.0 0.1107405838
H  H36  1  0.29050000  0.23670000  0.68090000  1.0 0.1107405838
H  H37  1  0.75380000  0.78660000  0.12120000  1.0 0.1215035434
H  H38  1  0.78660000  0.75380000  0.37880000  1.0 0.1215035434
H  H39  1  0.24620000  0.21340000  0.87880000  1.0 0.1215035434
H  H40  1  0.21340000  0.24620000  0.62120000  1.0 0.1215035434
H  H41  1  0.80340000  0.79040000  0.04730000  1.0 0.1215035434
H  H42  1  0.79040000  0.80340000  0.45270000  1.0 0.1215035434
H  H43  1  0.19660000  0.20960000  0.95270000  1.0 0.1215035434
H  H44  1  0.20960000  0.19660000  0.54730000  1.0 0.1215035434
H  H45  1  0.86910000  0.85250000  0.90460000  1.0 0.1285968324
H  H46  1  0.85250000  0.86910000  0.59540000  1.0 0.1285968324
H  H47  1  0.13090000  0.14750000  0.09540000  1.0 0.1285968324
H  H48  1  0.14750000  0.13090000  0.40460000  1.0 0.1285968324
H  H49  1  0.81550000  0.84850000  0.82540000  1.0 0.1215035434
H  H50  1  0.84850000  0.81550000  0.67460000  1.0 0.1215035434
H  H51  1  0.18450000  0.15150000  0.17460000  1.0 0.1215035434
H  H52  1  0.15150000  0.18450000  0.32540000  1.0 0.1215035434
H  H53  1  0.75370000  0.76550000  0.80860000  1.0 0.1215035434
H  H54  1  0.76550000  0.75370000  0.69140000  1.0 0.1215035434
H  H55  1  0.24630000  0.23450000  0.19140000  1.0 0.1215035434
H  H56  1  0.23450000  0.24630000  0.30860000  1.0 0.1215035434
H  H57  1  0.74400000  0.69240000  0.86940000  1.0 0.1215035434
H  H58  1  0.69240000  0.74400000  0.63060000  1.0 0.1215035434
H  H59  1  0.25600000  0.30760000  0.13060000  1.0 0.1215035434
H  H60  1  0.30760000  0.25600000  0.36940000  1.0 0.1215035434
H  H61  1  0.80150000  0.69010000  0.94080000  1.0 0.1285968324
H  H62  1  0.69010000  0.80150000  0.55920000  1.0 0.1215035434
H  H63  1  0.19850000  0.30990000  0.05920000  1.0 0.1215035434
H  H64  1  0.30990000  0.19850000  0.44080000  1.0 0.1215035434
H  H65  1  0.86870000  0.90230000  0.02160000  1.0 0.1685521059
H  H66  1  0.90230000  0.86870000  0.47840000  1.0 0.1685521059
H  H67  1  0.13130000  0.09770000  0.97840000  1.0 0.1685521059
H  H68  1  0.09770000  0.13130000  0.52160000  1.0 0.1685521059
H  H69  1  0.90510000  0.94690000  0.05560000  1.0 0.1685521059
H  H70  1  0.94690000  0.90510000  0.44440000  1.0 0.1685521059
H  H71  1  0.09490000  0.05310000  0.94440000  1.0 0.1685521059
H  H72  1  0.05310000  0.09490000  0.55560000  1.0 0.1685521059
H  H73  1  0.85740000  0.90280000  0.07930000  1.0 0.1615324736
H  H74  1  0.90280000  0.85740000  0.42070000  1.0 0.1615324736
H  H75  1  0.14260000  0.09720000  0.92070000  1.0 0.1615324736
H  H76  1  0.09720000  0.14260000  0.57930000  1.0 0.1615324736
H  H77  1  0.92850000  0.93190000  0.14000000  1.0 0.1285968324
H  H78  1  0.93190000  0.92850000  0.36000000  1.0 0.1285968324
H  H79  1  0.07150000  0.06810000  0.86000000  1.0 0.1285968324
H  H80  1  0.06810000  0.07150000  0.64000000  1.0 0.1285968324
H  H81  1  0.04850000  0.86990000  0.23480000  1.0 0.1285968324
H  H82  1  0.86990000  0.04850000  0.26520000  1.0 0.1285968324
H  H83  1  0.95150000  0.13010000  0.76520000  1.0 0.1285968324
H  H84  1  0.13010000  0.95150000  0.73480000  1.0 0.1285968324
H  H85  1  0.05540000  0.79660000  0.17770000  1.0 0.1215035434
H  H86  1  0.79660000  0.05540000  0.32230000  1.0 0.1215035434
H  H87  1  0.94460000  0.20340000  0.82230000  1.0 0.1215035434
H  H88  1  0.20340000  0.94460000  0.67770000  1.0 0.1215035434
H  H89  1  0.30090000  0.04810000  0.67930000  1.0 0.1215035434
H  H90  1  0.04810000  0.30090000  0.82070000  1.0 0.1215035434
H  H91  1  0.69910000  0.95190000  0.32070000  1.0 0.1215035434
H  H92  1  0.95190000  0.69910000  0.17930000  1.0 0.1215035434
H  H93  1  0.39020000  0.04380000  0.73060000  1.0 0.1285968324
H  H94  1  0.04380000  0.39020000  0.76940000  1.0 0.1285968324
H  H95  1  0.60980000  0.95620000  0.26940000  1.0 0.1285968324
H  H96  1  0.95620000  0.60980000  0.23060000  1.0 0.1285968324
H  H97  1  0.45170000  0.95430000  0.63050000  1.0 0.1285968324
H  H98  1  0.95430000  0.45170000  0.86950000  1.0 0.1285968324
H  H99  1  0.54830000  0.04570000  0.36950000  1.0 0.1285968324
H  H100  1  0.04570000  0.54830000  0.13050000  1.0 0.1285968324
H  H101  1  0.40620000  0.90520000  0.51060000  1.0 0.1685521059
H  H102  1  0.90520000  0.40620000  0.98940000  1.0 0.1685521059
H  H103  1  0.59380000  0.09480000  0.48940000  1.0 0.1685521059
H  H104  1  0.09480000  0.59380000  0.01060000  1.0 0.1685521059
H  H105  1  0.44800000  0.95200000  0.53770000  1.0 0.1685521059
H  H106  1  0.95200000  0.44800000  0.96230000  1.0 0.1685521059
H  H107  1  0.55200000  0.04800000  0.46230000  1.0 0.1685521059
H  H108  1  0.04800000  0.55200000  0.03770000  1.0 0.1685521059
H  H109  1  0.42950000  0.89290000  0.56670000  1.0 0.1685521059
H  H110  1  0.89290000  0.42950000  0.93330000  1.0 0.1685521059
H  H111  1  0.57050000  0.10710000  0.43330000  1.0 0.1685521059
H  H112  1  0.10710000  0.57050000  0.06670000  1.0 0.1685521059
H  H113  1  0.17960000  0.81260000  0.44490000  1.0 0.1215035434
H  H114  1  0.81260000  0.17960000  0.05510000  1.0 0.1215035434
H  H115  1  0.82040000  0.18740000  0.55510000  1.0 0.1215035434
H  H116  1  0.18740000  0.82040000  0.94490000  1.0 0.1215035434
H  H117  1  0.18400000  0.75900000  0.37290000  1.0 0.1215035434
H  H118  1  0.75900000  0.18400000  0.12710000  1.0 0.1215035434
H  H119  1  0.81600000  0.24100000  0.62710000  1.0 0.1215035434
H  H120  1  0.24100000  0.81600000  0.87290000  1.0 0.1215035434
H  H121  1  0.25780000  0.76900000  0.32040000  1.0 0.1285968324
H  H122  1  0.76900000  0.25780000  0.17960000  1.0 0.1285968324
H  H123  1  0.74220000  0.23100000  0.67960000  1.0 0.1285968324
H  H124  1  0.23100000  0.74220000  0.82040000  1.0 0.1285968324
H  H125  1  0.34470000  0.81810000  0.35050000  1.0 0.1375745629
H  H126  1  0.81810000  0.34470000  0.14950000  1.0 0.1375745629
H  H127  1  0.65530000  0.18190000  0.64950000  1.0 0.1375745629
H  H128  1  0.18190000  0.65530000  0.85050000  1.0 0.1375745629
H  H129  1  0.34910000  0.87630000  0.41990000  1.0 0.1215035434
H  H130  1  0.87630000  0.34910000  0.08010000  1.0 0.1285968324
H  H131  1  0.65090000  0.12370000  0.58010000  1.0 0.1215035434
H  H132  1  0.12370000  0.65090000  0.91990000  1.0 0.1215035434
H  H133  1  0.13830000  0.86970000  0.58660000  1.0 0.1285968324
H  H134  1  0.86970000  0.13830000  0.91340000  1.0 0.1285968324
H  H135  1  0.86170000  0.13030000  0.41340000  1.0 0.1285968324
H  H136  1  0.13030000  0.86170000  0.08660000  1.0 0.1285968324
H  H137  1  0.14030000  0.81090000  0.66390000  1.0 0.1285968324
H  H138  1  0.81090000  0.14030000  0.83610000  1.0 0.1285968324
H  H139  1  0.85970000  0.18910000  0.33610000  1.0 0.1285968324
H  H140  1  0.18910000  0.85970000  0.16390000  1.0 0.1285968324
H  H141  1  0.22430000  0.77290000  0.69330000  1.0 0.1285968324
H  H142  1  0.77290000  0.22430000  0.80670000  1.0 0.1285968324
H  H143  1  0.77570000  0.22710000  0.30670000  1.0 0.1285968324
H  H144  1  0.22710000  0.77570000  0.19330000  1.0 0.1285968324
H  H145  1  0.29980000  0.76660000  0.64180000  1.0 0.1215035434
H  H146  1  0.76660000  0.29980000  0.85820000  1.0 0.1215035434
H  H147  1  0.70020000  0.23340000  0.35820000  1.0 0.1215035434
H  H148  1  0.23340000  0.70020000  0.14180000  1.0 0.1215035434
H  H149  1  0.29700000  0.81840000  0.55840000  1.0 0.1215035434
H  H150  1  0.81840000  0.29700000  0.94160000  1.0 0.1215035434
H  H151  1  0.70300000  0.18160000  0.44160000  1.0 0.1215035434
H  H152  1  0.18160000  0.70300000  0.05840000  1.0 0.1215035434
H  H153  1  0.08250000  0.87030000  0.47820000  1.0 0.1685521059
H  H154  1  0.87030000  0.08250000  0.02180000  1.0 0.1685521059
H  H155  1  0.91750000  0.12970000  0.52180000  1.0 0.1685521059
H  H156  1  0.12970000  0.91750000  0.97820000  1.0 0.1685521059
H  H157  1  0.03750000  0.90770000  0.44780000  1.0 0.1685521059
H  H158  1  0.90770000  0.03750000  0.05220000  1.0 0.1685521059
H  H159  1  0.96250000  0.09230000  0.55220000  1.0 0.1685521059
H  H160  1  0.09230000  0.96250000  0.94780000  1.0 0.1685521059
H  H161  1  0.06460000  0.85840000  0.42140000  1.0 0.1615324736
H  H162  1  0.85840000  0.06460000  0.07860000  1.0 0.1615324736
H  H163  1  0.93540000  0.14160000  0.57860000  1.0 0.1615324736
H  H164  1  0.14160000  0.93540000  0.92140000  1.0 0.1615324736
H  H165  1  0.04050000  0.93030000  0.35560000  1.0 0.1285968324
H  H166  1  0.93030000  0.04050000  0.14440000  1.0 0.1215035434
H  H167  1  0.95950000  0.06970000  0.64440000  1.0 0.1215035434
H  H168  1  0.06970000  0.95950000  0.85560000  1.0 0.1285968324
H  H169  1  0.11330000  0.04310000  0.25840000  1.0 0.1215035434
H  H170  1  0.04310000  0.11330000  0.24160000  1.0 0.1215035434
H  H171  1  0.88670000  0.95690000  0.74160000  1.0 0.1215035434
H  H172  1  0.95690000  0.88670000  0.75840000  1.0 0.1215035434
H  H173  1  0.19060000  0.05860000  0.31680000  1.0 0.1215035434
H  H174  1  0.05860000  0.19060000  0.18320000  1.0 0.1215035434
H  H175  1  0.80940000  0.94140000  0.68320000  1.0 0.1215035434
H  H176  1  0.94140000  0.80940000  0.81680000  1.0 0.1215035434
H  H177  1  0.55570000  0.40050000  0.48430000  1.0 0.1375745629
H  H178  1  0.40050000  0.55570000  0.01570000  1.0 0.1375745629
H  H179  1  0.44430000  0.59950000  0.51570000  1.0 0.1375745629
H  H180  1  0.59950000  0.44430000  0.98430000  1.0 0.1375745629
H  H181  1  0.51310000  0.37690000  0.40420000  1.0 0.1215035434
H  H182  1  0.37690000  0.51310000  0.09580000  1.0 0.1215035434
H  H183  1  0.48690000  0.62310000  0.59580000  1.0 0.1215035434
H  H184  1  0.62310000  0.48690000  0.90420000  1.0 0.1215035434
H  H185  1  0.62680000  0.48900000  0.33630000  1.0 0.1285968324
H  H186  1  0.48900000  0.62680000  0.16370000  1.0 0.1285968324
H  H187  1  0.37320000  0.51100000  0.66370000  1.0 0.1285968324
H  H188  1  0.51100000  0.37320000  0.83630000  1.0 0.1285968324
H  H189  1  0.74560000  0.58400000  0.38010000  1.0 0.1514896196
H  H190  1  0.58400000  0.74560000  0.11990000  1.0 0.1514896196
H  H191  1  0.25440000  0.41600000  0.61990000  1.0 0.1514896196
H  H192  1  0.41600000  0.25440000  0.88010000  1.0 0.1514896196
H  H193  1  0.73430000  0.52550000  0.35290000  1.0 0.1685521059
H  H194  1  0.52550000  0.73430000  0.14710000  1.0 0.1685521059
H  H195  1  0.26570000  0.47450000  0.64710000  1.0 0.1685521059
H  H196  1  0.47450000  0.26570000  0.85290000  1.0 0.1685521059
H  H197  1  0.68850000  0.57170000  0.34610000  1.0 0.1615324736
H  H198  1  0.57170000  0.68850000  0.15390000  1.0 0.1615324736
H  H199  1  0.31150000  0.42830000  0.65390000  1.0 0.1615324736
H  H200  1  0.42830000  0.31150000  0.84610000  1.0 0.1615324736
H  H201  1  0.83560000  0.65000000  0.42540000  1.0 0.1215035434
H  H202  1  0.65000000  0.83560000  0.07460000  1.0 0.1215035434
H  H203  1  0.16440000  0.35000000  0.57460000  1.0 0.1215035434
H  H204  1  0.35000000  0.16440000  0.92540000  1.0 0.1215035434
H  H205  1  0.91790000  0.71410000  0.43020000  1.0 0.1215035434
H  H206  1  0.71410000  0.91790000  0.06980000  1.0 0.1215035434
H  H207  1  0.08210000  0.28590000  0.56980000  1.0 0.1215035434
H  H208  1  0.28590000  0.08210000  0.93020000  1.0 0.1215035434
H  H209  1  0.94110000  0.76490000  0.50190000  1.0 0.1285968324
H  H210  1  0.76490000  0.94110000  0.99810000  1.0 0.1285968324
H  H211  1  0.05890000  0.23510000  0.49810000  1.0 0.1285968324
H  H212  1  0.23510000  0.05890000  0.00190000  1.0 0.1285968324
H  H213  1  0.88110000  0.75290000  0.56940000  1.0 0.1215035434
H  H214  1  0.75290000  0.88110000  0.93060000  1.0 0.1215035434
H  H215  1  0.11890000  0.24710000  0.43060000  1.0 0.1215035434
H  H216  1  0.24710000  0.11890000  0.06940000  1.0 0.1215035434
H  H217  1  0.79890000  0.68730000  0.56590000  1.0 0.1215035434
H  H218  1  0.68730000  0.79890000  0.93410000  1.0 0.1215035434
H  H219  1  0.20110000  0.31270000  0.43410000  1.0 0.1215035434
H  H220  1  0.31270000  0.20110000  0.06590000  1.0 0.1215035434
H  H221  1  0.67890000  0.67050000  0.44830000  1.0 0.1107405838
H  H222  1  0.67050000  0.67890000  0.05170000  1.0 0.1107405838
H  H223  1  0.32110000  0.32950000  0.55170000  1.0 0.1107405838
H  H224  1  0.32950000  0.32110000  0.94830000  1.0 0.1107405838
H  H225  1  0.60680000  0.73940000  0.42710000  1.0 0.1285968324
H  H226  1  0.73940000  0.60680000  0.07290000  1.0 0.1285968324
H  H227  1  0.39320000  0.26060000  0.57290000  1.0 0.1285968324
H  H228  1  0.26060000  0.39320000  0.92710000  1.0 0.1285968324
H  H229  1  0.54640000  0.75080000  0.49010000  1.0 0.1375745629
H  H230  1  0.75080000  0.54640000  0.00990000  1.0 0.1375745629
H  H231  1  0.45360000  0.24920000  0.50990000  1.0 0.1375745629
H  H232  1  0.24920000  0.45360000  0.99010000  1.0 0.1375745629
H  H233  1  0.55480000  0.70540000  0.56850000  1.0 0.1107405838
H  H234  1  0.70540000  0.55480000  0.93150000  1.0 0.1107405838
H  H235  1  0.44520000  0.29460000  0.43150000  1.0 0.1107405838
H  H236  1  0.29460000  0.44520000  0.06850000  1.0 0.1107405838
H  H237  1  0.63170000  0.65070000  0.59140000  1.0 0.1107405838
H  H238  1  0.65070000  0.63170000  0.90860000  1.0 0.1107405838
H  H239  1  0.36830000  0.34930000  0.40860000  1.0 0.1107405838
H  H240  1  0.34930000  0.36830000  0.09140000  1.0 0.1107405838
H  H241  1  0.73490000  0.61950000  0.66040000  1.0 0.1514896196
H  H242  1  0.61950000  0.73490000  0.83960000  1.0 0.1514896196
H  H243  1  0.26510000  0.38050000  0.33960000  1.0 0.1514896196
H  H244  1  0.38050000  0.26510000  0.16040000  1.0 0.1514896196
H  H245  1  0.75390000  0.57230000  0.70160000  1.0 0.1615324736
H  H246  1  0.57230000  0.75390000  0.79840000  1.0 0.1615324736
H  H247  1  0.24610000  0.42770000  0.29840000  1.0 0.1685521059
H  H248  1  0.42770000  0.24610000  0.20160000  1.0 0.1685521059
H  H249  1  0.79680000  0.62640000  0.68770000  1.0 0.1615324736
H  H250  1  0.62640000  0.79680000  0.81230000  1.0 0.1615324736
H  H251  1  0.20320000  0.37360000  0.31230000  1.0 0.1615324736
H  H252  1  0.37360000  0.20320000  0.18770000  1.0 0.1615324736
H  H253  1  0.86680000  0.56260000  0.71500000  1.0 0.1375745629
H  H254  1  0.56260000  0.86680000  0.78500000  1.0 0.1375745629
H  H255  1  0.13320000  0.43740000  0.28500000  1.0 0.1375745629
H  H256  1  0.43740000  0.13320000  0.21500000  1.0 0.1375745629
H  H257  1  0.96270000  0.44390000  0.67420000  1.0 0.1285968324
H  H258  1  0.44390000  0.96270000  0.82580000  1.0 0.1285968324
H  H259  1  0.03730000  0.55610000  0.32580000  1.0 0.1285968324
H  H260  1  0.55610000  0.03730000  0.17420000  1.0 0.1285968324
H  H261  1  0.89970000  0.42610000  0.60780000  1.0 0.1215035434
H  H262  1  0.42610000  0.89970000  0.89220000  1.0 0.1215035434
H  H263  1  0.10030000  0.57390000  0.39220000  1.0 0.1215035434
H  H264  1  0.57390000  0.10030000  0.10780000  1.0 0.1215035434
H  H265  1  0.59660000  0.52500000  0.59430000  1.0 0.1107405838
H  H266  1  0.52500000  0.59660000  0.90570000  1.0 0.1107405838
H  H267  1  0.40340000  0.47500000  0.40570000  1.0 0.1107405838
H  H268  1  0.47500000  0.40340000  0.09430000  1.0 0.1107405838
H  H269  1  0.57220000  0.53220000  0.68110000  1.0 0.1107405838
H  H270  1  0.53220000  0.57220000  0.81890000  1.0 0.1107405838
H  H271  1  0.42780000  0.46780000  0.31890000  1.0 0.1107405838
H  H272  1  0.46780000  0.42780000  0.18110000  1.0 0.1107405838
H  H273  1  0.68340000  0.41720000  0.72020000  1.0 0.1375745629
H  H274  1  0.41720000  0.68340000  0.77980000  1.0 0.1375745629
H  H275  1  0.31660000  0.58280000  0.27980000  1.0 0.1375745629
H  H276  1  0.58280000  0.31660000  0.22020000  1.0 0.1375745629
H  H277  1  0.78870000  0.35210000  0.66030000  1.0 0.1615324736
H  H278  1  0.35210000  0.78870000  0.83970000  1.0 0.1615324736
H  H279  1  0.21130000  0.64790000  0.33970000  1.0 0.1615324736
H  H280  1  0.64790000  0.21130000  0.16030000  1.0 0.1615324736
H  H281  1  0.77360000  0.39840000  0.69720000  1.0 0.1615324736
H  H282  1  0.39840000  0.77360000  0.80280000  1.0 0.1615324736
H  H283  1  0.22640000  0.60160000  0.30280000  1.0 0.1615324736
H  H284  1  0.60160000  0.22640000  0.19720000  1.0 0.1615324736
H  H285  1  0.72960000  0.34460000  0.68670000  1.0 0.1685521059
H  H286  1  0.34460000  0.72960000  0.81330000  1.0 0.1685521059
H  H287  1  0.27040000  0.65540000  0.31330000  1.0 0.1685521059
H  H288  1  0.65540000  0.27040000  0.18670000  1.0 0.1685521059
H  H289  1  0.87690000  0.33290000  0.58560000  1.0 0.1107405838
H  H290  1  0.33290000  0.87690000  0.91440000  1.0 0.1107405838
H  H291  1  0.12310000  0.66710000  0.41440000  1.0 0.1107405838
H  H292  1  0.66710000  0.12310000  0.08560000  1.0 0.1107405838
H  H293  1  0.95430000  0.28110000  0.56870000  1.0 0.1215035434
H  H294  1  0.28110000  0.95430000  0.93130000  1.0 0.1215035434
H  H295  1  0.04570000  0.71890000  0.43130000  1.0 0.1285968324
H  H296  1  0.71890000  0.04570000  0.06870000  1.0 0.1285968324
H  H297  1  0.95880000  0.24480000  0.48990000  1.0 0.1285968324
H  H298  1  0.24480000  0.95880000  0.01010000  1.0 0.1285968324
H  H299  1  0.04120000  0.75520000  0.51010000  1.0 0.1285968324
H  H300  1  0.75520000  0.04120000  0.98990000  1.0 0.1285968324
H  H301  1  0.88730000  0.26110000  0.42670000  1.0 0.1215035434
H  H302  1  0.26110000  0.88730000  0.07330000  1.0 0.1215035434
H  H303  1  0.11270000  0.73890000  0.57330000  1.0 0.1215035434
H  H304  1  0.73890000  0.11270000  0.92670000  1.0 0.1215035434
H  H305  1  0.80900000  0.31140000  0.44390000  1.0 0.1215035434
H  H306  1  0.31140000  0.80900000  0.05610000  1.0 0.1215035434
H  H307  1  0.19100000  0.68860000  0.55610000  1.0 0.1215035434
H  H308  1  0.68860000  0.19100000  0.94390000  1.0 0.1215035434
H  H309  1  0.68370000  0.35310000  0.39790000  1.0 0.1215035434
H  H310  1  0.35310000  0.68370000  0.10210000  1.0 0.1215035434
H  H311  1  0.31630000  0.64690000  0.60210000  1.0 0.1215035434
H  H312  1  0.64690000  0.31630000  0.89790000  1.0 0.1215035434
H  H313  1  0.60290000  0.28950000  0.38310000  1.0 0.1285968324
H  H314  1  0.28950000  0.60290000  0.11690000  1.0 0.1285968324
H  H315  1  0.39710000  0.71050000  0.61690000  1.0 0.1285968324
H  H316  1  0.71050000  0.39710000  0.88310000  1.0 0.1285968324
H  H317  1  0.56458000  0.23122000  0.44940000  1.0 0.1215035434
H  H318  1  0.23122000  0.56458000  0.05060000  1.0 0.1215035434
H  H319  1  0.43542000  0.76878000  0.55060000  1.0 0.1215035434
H  H320  1  0.76878000  0.43542000  0.94940000  1.0 0.1215035434
H  H321  1  0.60840000  0.23560000  0.53010000  1.0 0.1285968324
H  H322  1  0.23560000  0.60840000  0.96990000  1.0 0.1285968324
H  H323  1  0.39160000  0.76440000  0.46990000  1.0 0.1285968324
H  H324  1  0.76440000  0.39160000  0.03010000  1.0 0.1285968324
H  H325  1  0.69050000  0.29830000  0.54510000  1.0 0.1285968324
H  H326  1  0.29830000  0.69050000  0.95490000  1.0 0.1285968324
H  H327  1  0.30950000  0.70170000  0.45490000  1.0 0.1285968324
H  H328  1  0.70170000  0.30950000  0.04510000  1.0 0.1285968324
H  H329  1  0.80670000  0.41770000  0.37170000  1.0 0.1770878078
H  H330  1  0.41770000  0.80670000  0.12830000  1.0 0.1770878078
H  H331  1  0.19330000  0.58230000  0.62830000  1.0 0.1770878078
H  H332  1  0.58230000  0.19330000  0.87170000  1.0 0.1770878078
H  H333  1  0.84240000  0.47480000  0.35290000  1.0 0.1514896196
H  H334  1  0.47480000  0.84240000  0.14710000  1.0 0.1514896196
H  H335  1  0.15760000  0.52520000  0.64710000  1.0 0.1514896196
H  H336  1  0.52520000  0.15760000  0.85290000  1.0 0.1514896196
H  H337  1  0.87470000  0.42150000  0.37510000  1.0 0.1615324736
H  H338  1  0.42150000  0.87470000  0.12490000  1.0 0.1615324736
H  H339  1  0.12530000  0.57850000  0.62490000  1.0 0.1615324736
H  H340  1  0.57850000  0.12530000  0.87510000  1.0 0.1615324736
H  H341  1  0.93650000  0.49690000  0.38810000  1.0 0.1285968324
H  H342  1  0.49690000  0.93650000  0.11190000  1.0 0.1285968324
H  H343  1  0.06350000  0.50310000  0.61190000  1.0 0.1285968324
H  H344  1  0.50310000  0.06350000  0.88810000  1.0 0.1285968324
H  H345  1  0.01540000  0.59920000  0.48510000  1.0 0.1215035434
H  H346  1  0.59920000  0.01540000  0.01490000  1.0 0.1215035434
H  H347  1  0.98460000  0.40080000  0.51490000  1.0 0.1215035434
H  H348  1  0.40080000  0.98460000  0.98510000  1.0 0.1215035434
H  H349  1  0.93540000  0.58820000  0.53190000  1.0 0.1375745629
H  H350  1  0.58820000  0.93540000  0.96810000  1.0 0.1375745629
H  H351  1  0.06460000  0.41180000  0.46810000  1.0 0.1375745629
H  H352  1  0.41180000  0.06460000  0.03190000  1.0 0.1375745629
H  H353  1  0.07230000  0.55150000  0.70020000  1.0 0.3483469577
H  H354  1  0.55150000  0.07230000  0.79980000  1.0 0.3483469577
H  H355  1  0.92770000  0.44850000  0.29980000  1.0 0.3483469577
H  H356  1  0.44850000  0.92770000  0.20020000  1.0 0.3483469577
H  H357  1  0.10120000  0.52060000  0.73900000  1.0 0.3578429611
H  H358  1  0.52060000  0.10120000  0.76100000  1.0 0.3578429611
H  H359  1  0.89880000  0.47940000  0.26100000  1.0 0.3578429611
H  H360  1  0.47940000  0.89880000  0.23900000  1.0 0.3578429611
H  H361  1  0.54640000  0.68080000  0.70140000  1.0 0.3278243285
H  H362  1  0.68080000  0.54640000  0.79860000  1.0 0.3278243285
H  H363  1  0.45360000  0.31920000  0.29860000  1.0 0.3278243285
H  H364  1  0.31920000  0.45360000  0.20140000  1.0 0.3278243285
H  H365  1  0.56320000  0.69420000  0.65230000  1.0 0.344023362
H  H366  1  0.69420000  0.56320000  0.84770000  1.0 0.344023362
H  H367  1  0.43680000  0.30580000  0.34770000  1.0 0.344023362
H  H368  1  0.30580000  0.43680000  0.15230000  1.0 0.344023362
C  C1  1  0.02538000  0.68508000  0.83832000  1.0 0.0213302842
C  C2  1  0.68508000  0.02538000  0.66168000  1.0 0.0213302842
C  C3  1  0.97462000  0.31492000  0.16168000  1.0 0.0213302842
C  C4  1  0.31492000  0.97462000  0.33832000  1.0 0.0213302842
C  C5  1  0.02215000  0.63833000  0.81087000  1.0 0.0667158717
C  C6  1  0.63833000  0.02215000  0.68913000  1.0 0.0667158717
C  C7  1  0.97785000  0.36167000  0.18913000  1.0 0.0667158717
C  C8  1  0.36167000  0.97785000  0.31087000  1.0 0.0667158717
C  C9  1  0.95675000  0.59043000  0.86423000  1.0 -0.037272787
C  C10  1  0.59043000  0.95675000  0.63577000  1.0 -0.037272787
C  C11  1  0.04325000  0.40957000  0.13577000  1.0 -0.037272787
C  C12  1  0.40957000  0.04325000  0.36423000  1.0 -0.037272787
C  C13  1  0.96046000  0.63528000  0.89414000  1.0 0.1010157805
C  C14  1  0.63528000  0.96046000  0.60586000  1.0 0.1010157805
C  C15  1  0.03954000  0.36472000  0.10586000  1.0 0.1010157805
C  C16  1  0.36472000  0.03954000  0.39414000  1.0 0.1010157805
C  C17  1  0.92856000  0.63496000  0.93897000  1.0 0.2587241274
C  C18  1  0.63496000  0.92856000  0.56103000  1.0 0.2587241274
C  C19  1  0.07144000  0.36504000  0.06103000  1.0 0.2587241274
C  C20  1  0.36504000  0.07144000  0.43897000  1.0 0.2587241274
C  C21  1  0.89246000  0.57790000  0.95744000  1.0 -0.4995849675
C  C22  1  0.57790000  0.89246000  0.54256000  1.0 -0.4995849675
C  C23  1  0.10754000  0.42210000  0.04256000  1.0 -0.4995849675
C  C24  1  0.42210000  0.10754000  0.45744000  1.0 -0.4995849675
C  C25  1  0.87329000  0.71957000  0.01598000  1.0 0.1107405838
C  C26  1  0.71957000  0.87329000  0.48402000  1.0 0.1107405838
C  C27  1  0.12671000  0.28043000  0.98402000  1.0 0.1107405838
C  C28  1  0.28043000  0.12671000  0.51598000  1.0 0.1107405838
C  C29  1  0.84136000  0.71608000  0.06236000  1.0 0.0395438072
C  C30  1  0.71608000  0.84136000  0.43764000  1.0 0.0395438072
C  C31  1  0.15864000  0.28392000  0.93764000  1.0 0.0395438072
C  C32  1  0.28392000  0.15864000  0.56236000  1.0 0.0395438072
C  C33  1  0.84697000  0.66971000  0.09757000  1.0 -0.1109307587
C  C34  1  0.66971000  0.84697000  0.40243000  1.0 -0.1109307587
C  C35  1  0.15303000  0.33029000  0.90243000  1.0 -0.1109307587
C  C36  1  0.33029000  0.15303000  0.59757000  1.0 -0.1109307587
C  C37  1  0.81701000  0.66679000  0.14189000  1.0 -0.0980858641
C  C38  1  0.66679000  0.81701000  0.35811000  1.0 -0.0980858641
C  C39  1  0.18299000  0.33321000  0.85811000  1.0 -0.0980858641
C  C40  1  0.33321000  0.18299000  0.64189000  1.0 -0.0980858641
C  C41  1  0.78269000  0.71093000  0.15097000  1.0 -0.0980858641
C  C42  1  0.71093000  0.78269000  0.34903000  1.0 -0.0980858641
C  C43  1  0.21731000  0.28907000  0.84903000  1.0 -0.0980858641
C  C44  1  0.28907000  0.21731000  0.65097000  1.0 -0.0980858641
C  C45  1  0.77721000  0.75731000  0.11535000  1.0 -0.0810248712
C  C46  1  0.75731000  0.77721000  0.38465000  1.0 -0.0810248712
C  C47  1  0.22279000  0.24269000  0.88465000  1.0 -0.0810248712
C  C48  1  0.24269000  0.22279000  0.61535000  1.0 -0.0810248712
C  C49  1  0.80683000  0.75955000  0.07112000  1.0 -0.1231983983
C  C50  1  0.75955000  0.80683000  0.42888000  1.0 -0.1231983983
C  C51  1  0.19317000  0.24045000  0.92888000  1.0 -0.1231983983
C  C52  1  0.24045000  0.19317000  0.57112000  1.0 -0.1231983983
C  C53  1  0.84500000  0.81974000  0.89640000  1.0 -0.1109307587
C  C54  1  0.81974000  0.84500000  0.60360000  1.0 -0.1109307587
C  C55  1  0.15500000  0.18026000  0.10360000  1.0 -0.1109307587
C  C56  1  0.18026000  0.15500000  0.39640000  1.0 -0.1109307587
C  C57  1  0.81230000  0.81744000  0.84937000  1.0 -0.0896796714
C  C58  1  0.81744000  0.81230000  0.65063000  1.0 -0.0896796714
C  C59  1  0.18770000  0.18256000  0.15063000  1.0 -0.0896796714
C  C60  1  0.18256000  0.18770000  0.34937000  1.0 -0.0896796714
C  C61  1  0.77512000  0.76798000  0.83938000  1.0 -0.0980858641
C  C62  1  0.76798000  0.77512000  0.66062000  1.0 -0.0980858641
C  C63  1  0.22488000  0.23202000  0.16062000  1.0 -0.0980858641
C  C64  1  0.23202000  0.22488000  0.33938000  1.0 -0.0980858641
C  C65  1  0.77095000  0.72375000  0.87529000  1.0 -0.0810248712
C  C66  1  0.72375000  0.77095000  0.62471000  1.0 -0.0810248712
C  C67  1  0.22905000  0.27625000  0.12471000  1.0 -0.0810248712
C  C68  1  0.27625000  0.22905000  0.37529000  1.0 -0.0810248712
C  C69  1  0.80340000  0.72280000  0.91859000  1.0 -0.1286579373
C  C70  1  0.72280000  0.80340000  0.58141000  1.0 -0.1286579373
C  C71  1  0.19660000  0.27720000  0.08141000  1.0 -0.1286579373
C  C72  1  0.27720000  0.19660000  0.41859000  1.0 -0.1286579373
C  C73  1  0.83970000  0.77086000  0.92987000  1.0 0.0395438072
C  C74  1  0.77086000  0.83970000  0.57013000  1.0 0.0395438072
C  C75  1  0.16030000  0.22914000  0.07013000  1.0 0.0395438072
C  C76  1  0.22914000  0.16030000  0.42987000  1.0 0.0395438072
C  C77  1  0.87269000  0.77281000  0.98008000  1.0 0.1215035434
C  C78  1  0.77281000  0.87269000  0.51992000  1.0 0.1215035434
C  C79  1  0.12731000  0.22719000  0.01992000  1.0 0.1215035434
C  C80  1  0.22719000  0.12731000  0.48008000  1.0 0.1215035434
C  C81  1  0.93062000  0.86558000  0.06680000  1.0 0.2883583175
C  C82  1  0.86558000  0.93062000  0.43320000  1.0 0.2883583175
C  C83  1  0.06938000  0.13442000  0.93320000  1.0 0.2883583175
C  C84  1  0.13442000  0.06938000  0.56680000  1.0 0.2883583175
C  C85  1  0.88652000  0.90818000  0.05476000  1.0 -0.4995849675
C  C86  1  0.90818000  0.88652000  0.44524000  1.0 -0.4995849675
C  C87  1  0.11348000  0.09182000  0.94524000  1.0 -0.4995849675
C  C88  1  0.09182000  0.11348000  0.55476000  1.0 -0.4995849675
C  C89  1  0.96489000  0.86517000  0.11582000  1.0 0.1010157805
C  C90  1  0.86517000  0.96489000  0.38418000  1.0 0.1010157805
C  C91  1  0.03511000  0.13483000  0.88418000  1.0 0.1010157805
C  C92  1  0.13483000  0.03511000  0.61582000  1.0 0.1010157805
C  C93  1  0.95587000  0.90537000  0.14828000  1.0 0.0091199137
C  C94  1  0.90537000  0.95587000  0.35172000  1.0 0.0091199137
C  C95  1  0.04413000  0.09463000  0.85172000  1.0 0.0091199137
C  C96  1  0.09463000  0.04413000  0.64828000  1.0 0.0091199137
C  C97  1  0.02554000  0.86890000  0.20471000  1.0 0.0667158717
C  C98  1  0.86890000  0.02554000  0.29529000  1.0 0.0667158717
C  C99  1  0.97446000  0.13110000  0.79529000  1.0 0.0667158717
C  C100  1  0.13110000  0.97446000  0.70471000  1.0 0.0667158717
C  C101  1  0.03075000  0.82567000  0.16876000  1.0 0.0593389094
C  C102  1  0.82567000  0.03075000  0.33124000  1.0 0.0593389094
C  C103  1  0.96925000  0.17433000  0.83124000  1.0 0.0593389094
C  C104  1  0.17433000  0.96925000  0.66876000  1.0 0.0593389094
C  C105  1  0.33115000  0.02889000  0.66851000  1.0 0.0503984002
C  C106  1  0.02889000  0.33115000  0.83149000  1.0 0.0503984002
C  C107  1  0.66885000  0.97111000  0.33149000  1.0 0.0503984002
C  C108  1  0.97111000  0.66885000  0.16851000  1.0 0.0503984002
C  C109  1  0.38550000  0.02552000  0.70012000  1.0 0.0298695007
C  C110  1  0.02552000  0.38550000  0.79988000  1.0 0.0298695007
C  C111  1  0.61450000  0.97448000  0.29988000  1.0 0.0298695007
C  C112  1  0.97448000  0.61450000  0.20012000  1.0 0.0298695007
C  C113  1  0.42174000  0.97374000  0.64148000  1.0 0.0298695007
C  C114  1  0.97374000  0.42174000  0.85852000  1.0 0.0298695007
C  C115  1  0.57826000  0.02626000  0.35852000  1.0 0.0298695007
C  C116  1  0.02626000  0.57826000  0.14148000  1.0 0.0298695007
C  C117  1  0.37084000  0.97800000  0.61033000  1.0 0.1375745629
C  C118  1  0.97800000  0.37084000  0.88967000  1.0 0.1375745629
C  C119  1  0.62916000  0.02200000  0.38967000  1.0 0.1375745629
C  C120  1  0.02200000  0.62916000  0.11033000  1.0 0.1375745629
C  C121  1  0.36522000  0.94848000  0.56130000  1.0 0.2587241274
C  C122  1  0.94848000  0.36522000  0.93870000  1.0 0.2587241274
C  C123  1  0.63478000  0.05152000  0.43870000  1.0 0.2587241274
C  C124  1  0.05152000  0.63478000  0.06130000  1.0 0.2587241274
C  C125  1  0.41697000  0.92227000  0.54230000  1.0 -0.4995849675
C  C126  1  0.92227000  0.41697000  0.95770000  1.0 -0.4995849675
C  C127  1  0.58303000  0.07773000  0.45770000  1.0 -0.4995849675
C  C128  1  0.07773000  0.58303000  0.04230000  1.0 -0.4995849675
C  C129  1  0.26708000  0.88322000  0.48371000  1.0 0.1215035434
C  C130  1  0.88322000  0.26708000  0.01629000  1.0 0.1215035434
C  C131  1  0.73292000  0.11678000  0.51629000  1.0 0.1215035434
C  C132  1  0.11678000  0.73292000  0.98371000  1.0 0.1215035434
C  C133  1  0.26380000  0.85160000  0.43692000  1.0 0.0395438072
C  C134  1  0.85160000  0.26380000  0.06308000  1.0 0.0395438072
C  C135  1  0.73620000  0.14840000  0.56308000  1.0 0.0395438072
C  C136  1  0.14840000  0.73620000  0.93692000  1.0 0.0395438072
C  C137  1  0.21210000  0.81540000  0.42558000  1.0 -0.1286579373
C  C138  1  0.81540000  0.21210000  0.07442000  1.0 -0.1286579373
C  C139  1  0.78790000  0.18460000  0.57442000  1.0 -0.1286579373
C  C140  1  0.18460000  0.78790000  0.92558000  1.0 -0.1286579373
C  C141  1  0.21593000  0.78429000  0.38158000  1.0 -0.0896796714
C  C142  1  0.78429000  0.21593000  0.11842000  1.0 -0.0896796714
C  C143  1  0.78407000  0.21571000  0.61842000  1.0 -0.0896796714
C  C144  1  0.21571000  0.78407000  0.88158000  1.0 -0.0896796714
C  C145  1  0.26044000  0.78720000  0.35099000  1.0 -0.0896796714
C  C146  1  0.78720000  0.26044000  0.14901000  1.0 -0.0896796714
C  C147  1  0.73956000  0.21280000  0.64901000  1.0 -0.0896796714
C  C148  1  0.21280000  0.73956000  0.85099000  1.0 -0.0896796714
C  C149  1  0.31145000  0.81957000  0.36822000  1.0 -0.0523874883
C  C150  1  0.81957000  0.31145000  0.13178000  1.0 -0.0523874883
C  C151  1  0.68855000  0.18043000  0.63178000  1.0 -0.0523874883
C  C152  1  0.18043000  0.68855000  0.86822000  1.0 -0.0523874883
C  C153  1  0.31540000  0.85386000  0.41020000  1.0 -0.1231983983
C  C154  1  0.85386000  0.31540000  0.08980000  1.0 -0.1231983983
C  C155  1  0.68460000  0.14614000  0.58980000  1.0 -0.1231983983
C  C156  1  0.14614000  0.68460000  0.91020000  1.0 -0.1231983983
C  C157  1  0.16934000  0.84836000  0.59716000  1.0 -0.1286579373
C  C158  1  0.84836000  0.16934000  0.90284000  1.0 -0.1286579373
C  C159  1  0.83066000  0.15164000  0.40284000  1.0 -0.1286579373
C  C160  1  0.15164000  0.83066000  0.09716000  1.0 -0.1286579373
C  C161  1  0.17235000  0.81525000  0.64401000  1.0 -0.0980858641
C  C162  1  0.81525000  0.17235000  0.85599000  1.0 -0.0980858641
C  C163  1  0.82765000  0.18475000  0.35599000  1.0 -0.0980858641
C  C164  1  0.18475000  0.82765000  0.14401000  1.0 -0.0980858641
C  C165  1  0.22193000  0.78949000  0.66041000  1.0 -0.0896796714
C  C166  1  0.78949000  0.22193000  0.83959000  1.0 -0.0896796714
C  C167  1  0.77807000  0.21051000  0.33959000  1.0 -0.0896796714
C  C168  1  0.21051000  0.77807000  0.16041000  1.0 -0.0896796714
C  C169  1  0.26838000  0.78718000  0.63039000  1.0 -0.0523874883
C  C170  1  0.78718000  0.26838000  0.86961000  1.0 -0.0523874883
C  C171  1  0.73162000  0.21282000  0.36961000  1.0 -0.0523874883
C  C172  1  0.21282000  0.73162000  0.13039000  1.0 -0.0523874883
C  C173  1  0.26712000  0.81782000  0.58035000  1.0 -0.1109307587
C  C174  1  0.81782000  0.26712000  0.91965000  1.0 -0.1109307587
C  C175  1  0.73288000  0.18218000  0.41965000  1.0 -0.1109307587
C  C176  1  0.18218000  0.73288000  0.08035000  1.0 -0.1109307587
C  C177  1  0.21713000  0.84577000  0.56888000  1.0 0.0395438072
C  C178  1  0.84577000  0.21713000  0.93112000  1.0 0.0395438072
C  C179  1  0.78287000  0.15423000  0.43112000  1.0 0.0395438072
C  C180  1  0.15423000  0.78287000  0.06888000  1.0 0.0395438072
C  C181  1  0.21737000  0.87833000  0.51920000  1.0 0.0830557885
C  C182  1  0.87833000  0.21737000  0.98080000  1.0 0.0830557885
C  C183  1  0.78263000  0.12167000  0.48080000  1.0 0.0830557885
C  C184  1  0.12167000  0.78263000  0.01920000  1.0 0.0830557885
C  C185  1  0.12067000  0.93079000  0.42876000  1.0 0.2652503939
C  C186  1  0.93079000  0.12067000  0.07124000  1.0 0.2652503939
C  C187  1  0.87933000  0.06921000  0.57124000  1.0 0.2652503939
C  C188  1  0.06921000  0.87933000  0.92876000  1.0 0.2652503939
C  C189  1  0.07187000  0.88791000  0.44557000  1.0 -0.5057155697
C  C190  1  0.88791000  0.07187000  0.05443000  1.0 -0.5057155697
C  C191  1  0.92813000  0.11209000  0.55443000  1.0 -0.5057155697
C  C192  1  0.11209000  0.92813000  0.94557000  1.0 -0.5057155697
C  C193  1  0.11839000  0.96445000  0.38136000  1.0 0.1285968324
C  C194  1  0.96445000  0.11839000  0.11864000  1.0 0.1285968324
C  C195  1  0.88161000  0.03555000  0.61864000  1.0 0.1285968324
C  C196  1  0.03555000  0.88161000  0.88136000  1.0 0.1285968324
C  C197  1  0.07134000  0.95674000  0.34682000  1.0 0.0395438072
C  C198  1  0.95674000  0.07134000  0.15318000  1.0 0.0395438072
C  C199  1  0.92866000  0.04326000  0.65318000  1.0 0.0395438072
C  C200  1  0.04326000  0.92866000  0.84682000  1.0 0.0395438072
C  C201  1  0.11319000  0.02311000  0.28992000  1.0 0.0091199137
C  C202  1  0.02311000  0.11319000  0.21008000  1.0 0.0091199137
C  C203  1  0.88681000  0.97689000  0.71008000  1.0 0.0091199137
C  C204  1  0.97689000  0.88681000  0.78992000  1.0 0.0091199137
C  C205  1  0.15978000  0.03218000  0.32548000  1.0 -0.0124257509
C  C206  1  0.03218000  0.15978000  0.17452000  1.0 -0.0124257509
C  C207  1  0.84022000  0.96782000  0.67452000  1.0 -0.0124257509
C  C208  1  0.96782000  0.84022000  0.82548000  1.0 -0.0124257509
C  C209  1  0.57058000  0.41758000  0.45460000  1.0 0.0091199137
C  C210  1  0.41758000  0.57058000  0.04540000  1.0 0.0091199137
C  C211  1  0.42942000  0.58242000  0.54540000  1.0 0.0091199137
C  C212  1  0.58242000  0.42942000  0.95460000  1.0 0.0091199137
C  C213  1  0.54490000  0.40422000  0.40677000  1.0 0.0031803844
C  C214  1  0.40422000  0.54490000  0.09323000  1.0 0.0031803844
C  C215  1  0.45510000  0.59578000  0.59323000  1.0 0.0031803844
C  C216  1  0.59578000  0.45510000  0.90677000  1.0 0.0031803844
C  C217  1  0.61243000  0.46979000  0.36546000  1.0 0.0395438072
C  C218  1  0.46979000  0.61243000  0.13454000  1.0 0.0395438072
C  C219  1  0.38757000  0.53021000  0.63454000  1.0 0.0395438072
C  C220  1  0.53021000  0.38757000  0.86546000  1.0 0.0395438072
C  C221  1  0.63894000  0.48036000  0.41500000  1.0 0.1375745629
C  C222  1  0.48036000  0.63894000  0.08500000  1.0 0.1375745629
C  C223  1  0.36106000  0.51964000  0.58500000  1.0 0.1375745629
C  C224  1  0.51964000  0.36106000  0.91500000  1.0 0.1375745629
C  C225  1  0.68496000  0.52586000  0.41687000  1.0 0.2117172422
C  C226  1  0.52586000  0.68496000  0.08313000  1.0 0.2117172422
C  C227  1  0.31504000  0.47414000  0.58313000  1.0 0.2117172422
C  C228  1  0.47414000  0.31504000  0.91687000  1.0 0.2117172422
C  C229  1  0.71640000  0.55452000  0.36937000  1.0 -0.4605799906
C  C230  1  0.55452000  0.71640000  0.13063000  1.0 -0.4605799906
C  C231  1  0.28360000  0.44548000  0.63063000  1.0 -0.4605799906
C  C232  1  0.44548000  0.28360000  0.86937000  1.0 -0.4605799906
C  C233  1  0.75568000  0.61946000  0.49769000  1.0 0.0923028108
C  C234  1  0.61946000  0.75568000  0.00231000  1.0 0.0923028108
C  C235  1  0.24432000  0.38054000  0.50231000  1.0 0.0923028108
C  C236  1  0.38054000  0.24432000  0.99769000  1.0 0.0923028108
C  C237  1  0.80917000  0.66221000  0.49535000  1.0 0.0503984002
C  C238  1  0.66221000  0.80917000  0.00465000  1.0 0.0503984002
C  C239  1  0.19083000  0.33779000  0.50465000  1.0 0.0503984002
C  C240  1  0.33779000  0.19083000  0.99535000  1.0 0.0503984002
C  C241  1  0.84478000  0.67032000  0.45448000  1.0 -0.1392634457
C  C242  1  0.67032000  0.84478000  0.04552000  1.0 -0.1392634457
C  C243  1  0.15522000  0.32968000  0.54552000  1.0 -0.1392634457
C  C244  1  0.32968000  0.15522000  0.95448000  1.0 -0.1392634457
C  C245  1  0.89400000  0.70880000  0.45737000  1.0 -0.0896796714
C  C246  1  0.70880000  0.89400000  0.04263000  1.0 -0.0896796714
C  C247  1  0.10600000  0.29120000  0.54263000  1.0 -0.0896796714
C  C248  1  0.29120000  0.10600000  0.95737000  1.0 -0.0896796714
C  C249  1  0.90782000  0.73934000  0.50019000  1.0 -0.0810248712
C  C250  1  0.73934000  0.90782000  0.99981000  1.0 -0.0810248712
C  C251  1  0.09218000  0.26066000  0.49981000  1.0 -0.0810248712
C  C252  1  0.26066000  0.09218000  0.00019000  1.0 -0.0810248712
C  C253  1  0.87208000  0.73186000  0.54070000  1.0 -0.0706910971
C  C254  1  0.73186000  0.87208000  0.95930000  1.0 -0.0706910971
C  C255  1  0.12792000  0.26814000  0.45930000  1.0 -0.0706910971
C  C256  1  0.26814000  0.12792000  0.04070000  1.0 -0.0706910971
C  C257  1  0.82264000  0.69280000  0.53855000  1.0 -0.1392634457
C  C258  1  0.69280000  0.82264000  0.96145000  1.0 -0.1392634457
C  C259  1  0.17736000  0.30720000  0.46145000  1.0 -0.1392634457
C  C260  1  0.30720000  0.17736000  0.03855000  1.0 -0.1392634457
C  C261  1  0.65576000  0.68072000  0.47325000  1.0 -0.0980858641
C  C262  1  0.68072000  0.65576000  0.02675000  1.0 -0.0980858641
C  C263  1  0.34424000  0.31928000  0.52675000  1.0 -0.0980858641
C  C264  1  0.31928000  0.34424000  0.97325000  1.0 -0.0980858641
C  C265  1  0.61089000  0.72047000  0.45901000  1.0 -0.0810248712
C  C266  1  0.72047000  0.61089000  0.04099000  1.0 -0.0810248712
C  C267  1  0.38911000  0.27953000  0.54099000  1.0 -0.0810248712
C  C268  1  0.27953000  0.38911000  0.95901000  1.0 -0.0810248712
C  C269  1  0.57644000  0.72680000  0.49679000  1.0 -0.0619749038
C  C270  1  0.72680000  0.57644000  0.00321000  1.0 -0.0619749038
C  C271  1  0.42356000  0.27320000  0.50321000  1.0 -0.0619749038
C  C272  1  0.27320000  0.42356000  0.99679000  1.0 -0.0619749038
C  C273  1  0.58192000  0.70048000  0.54495000  1.0 -0.1109307587
C  C274  1  0.70048000  0.58192000  0.95505000  1.0 -0.1109307587
C  C275  1  0.41808000  0.29952000  0.45505000  1.0 -0.1109307587
C  C276  1  0.29952000  0.41808000  0.04495000  1.0 -0.1109307587
C  C277  1  0.62754000  0.66666667  0.55843000  1.0 -0.1231983983
C  C278  1  0.66666667  0.62754000  0.94157000  1.0 -0.1231983983
C  C279  1  0.37246000  0.33333333  0.44157000  1.0 -0.1231983983
C  C280  1  0.33333333  0.37246000  0.05843000  1.0 -0.1231983983
C  C281  1  0.66562000  0.65674000  0.52465000  1.0 0.0395438072
C  C282  1  0.65674000  0.66562000  0.97535000  1.0 0.0395438072
C  C283  1  0.33438000  0.34326000  0.47535000  1.0 0.0395438072
C  C284  1  0.34326000  0.33438000  0.02465000  1.0 0.0395438072
C  C285  1  0.71351000  0.62449000  0.53108000  1.0 0.0593389094
C  C286  1  0.62449000  0.71351000  0.96892000  1.0 0.0593389094
C  C287  1  0.28649000  0.37551000  0.46892000  1.0 0.0593389094
C  C288  1  0.37551000  0.28649000  0.03108000  1.0 0.0593389094
C  C289  1  0.79046000  0.56602000  0.63401000  1.0 0.2242746146
C  C290  1  0.56602000  0.79046000  0.86599000  1.0 0.2242746146
C  C291  1  0.20954000  0.43398000  0.36599000  1.0 0.2242746146
C  C292  1  0.43398000  0.20954000  0.13401000  1.0 0.2242746146
C  C293  1  0.76687000  0.59907000  0.67470000  1.0 -0.4857691473
C  C294  1  0.59907000  0.76687000  0.82530000  1.0 -0.4857691473
C  C295  1  0.23313000  0.40093000  0.32530000  1.0 -0.4857691473
C  C296  1  0.40093000  0.23313000  0.17470000  1.0 -0.4857691473
C  C297  1  0.83889000  0.53211000  0.64675000  1.0 0.1285968324
C  C298  1  0.53211000  0.83889000  0.85325000  1.0 0.1285968324
C  C299  1  0.16111000  0.46789000  0.35325000  1.0 0.1285968324
C  C300  1  0.46789000  0.16111000  0.14675000  1.0 0.1285968324
C  C301  1  0.87524000  0.53644000  0.69166000  1.0 0.0298695007
C  C302  1  0.53644000  0.87524000  0.80834000  1.0 0.0298695007
C  C303  1  0.12476000  0.46356000  0.30834000  1.0 0.0298695007
C  C304  1  0.46356000  0.12476000  0.19166000  1.0 0.0298695007
C  C305  1  0.93066000  0.46550000  0.66879000  1.0 0.0031803844
C  C306  1  0.46550000  0.93066000  0.83121000  1.0 0.0031803844
C  C307  1  0.06934000  0.53450000  0.33121000  1.0 0.0031803844
C  C308  1  0.53450000  0.06934000  0.16879000  1.0 0.0031803844
C  C309  1  0.89486000  0.45692000  0.62773000  1.0 0.0091199137
C  C310  1  0.45692000  0.89486000  0.87227000  1.0 0.0091199137
C  C311  1  0.10514000  0.54308000  0.37227000  1.0 0.0091199137
C  C312  1  0.54308000  0.10514000  0.12773000  1.0 0.0091199137
C  C313  1  0.61657000  0.50437000  0.61997000  1.0 0.0923028108
C  C314  1  0.50437000  0.61657000  0.88003000  1.0 0.0923028108
C  C315  1  0.38343000  0.49563000  0.38003000  1.0 0.0923028108
C  C316  1  0.49563000  0.38343000  0.11997000  1.0 0.0923028108
C  C317  1  0.59951000  0.50741000  0.67347000  1.0 0.0503984002
C  C318  1  0.50741000  0.59951000  0.82653000  1.0 0.0503984002
C  C319  1  0.40049000  0.49259000  0.32653000  1.0 0.0503984002
C  C320  1  0.49259000  0.40049000  0.17347000  1.0 0.0503984002
C  C321  1  0.66560000  0.44006000  0.69472000  1.0 -0.0124257509
C  C322  1  0.44006000  0.66560000  0.80528000  1.0 -0.0124257509
C  C323  1  0.33440000  0.55994000  0.30528000  1.0 -0.0124257509
C  C324  1  0.55994000  0.33440000  0.19472000  1.0 -0.0124257509
C  C325  1  0.68294000  0.43752000  0.64358000  1.0 0.1375745629
C  C326  1  0.43752000  0.68294000  0.85642000  1.0 0.1375745629
C  C327  1  0.31706000  0.56248000  0.35642000  1.0 0.1375745629
C  C328  1  0.56248000  0.31706000  0.14358000  1.0 0.1375745629
C  C329  1  0.72999000  0.40607000  0.62802000  1.0 0.2587241274
C  C330  1  0.40607000  0.72999000  0.87198000  1.0 0.2587241274
C  C331  1  0.27001000  0.59393000  0.37198000  1.0 0.2587241274
C  C332  1  0.59393000  0.27001000  0.12802000  1.0 0.2587241274
C  C333  1  0.75803000  0.37221000  0.67210000  1.0 -0.4857691473
C  C334  1  0.37221000  0.75803000  0.82790000  1.0 -0.4857691473
C  C335  1  0.24197000  0.62779000  0.32790000  1.0 -0.4857691473
C  C336  1  0.62779000  0.24197000  0.17210000  1.0 -0.4857691473
C  C337  1  0.78908000  0.35868000  0.52916000  1.0 0.1107405838
C  C338  1  0.35868000  0.78908000  0.97084000  1.0 0.1107405838
C  C339  1  0.21092000  0.64132000  0.47084000  1.0 0.1107405838
C  C340  1  0.64132000  0.21092000  0.02916000  1.0 0.1107405838
C  C341  1  0.83495000  0.32731000  0.51648000  1.0 0.0298695007
C  C342  1  0.32731000  0.83495000  0.98352000  1.0 0.0298695007
C  C343  1  0.16505000  0.67269000  0.48352000  1.0 0.0298695007
C  C344  1  0.67269000  0.16505000  0.01648000  1.0 0.0298695007
C  C345  1  0.87866000  0.31828000  0.55386000  1.0 -0.1109307587
C  C346  1  0.31828000  0.87866000  0.94614000  1.0 -0.1109307587
C  C347  1  0.12134000  0.68172000  0.44614000  1.0 -0.1109307587
C  C348  1  0.68172000  0.12134000  0.05386000  1.0 -0.1109307587
C  C349  1  0.92519000  0.28725000  0.54367000  1.0 -0.0896796714
C  C350  1  0.28725000  0.92519000  0.95633000  1.0 -0.0896796714
C  C351  1  0.07481000  0.71275000  0.45633000  1.0 -0.0896796714
C  C352  1  0.71275000  0.07481000  0.04367000  1.0 -0.0896796714
C  C353  1  0.92792000  0.26576000  0.49650000  1.0 -0.0706910971
C  C354  1  0.26576000  0.92792000  0.00350000  1.0 -0.0706910971
C  C355  1  0.07208000  0.73424000  0.50350000  1.0 -0.0706910971
C  C356  1  0.73424000  0.07208000  0.99650000  1.0 -0.0706910971
C  C357  1  0.88486000  0.27510000  0.45866000  1.0 -0.0706910971
C  C358  1  0.27510000  0.88486000  0.04134000  1.0 -0.0706910971
C  C359  1  0.11514000  0.72490000  0.54134000  1.0 -0.0706910971
C  C360  1  0.72490000  0.11514000  0.95866000  1.0 -0.0706910971
C  C361  1  0.83822000  0.30552000  0.46890000  1.0 -0.1109307587
C  C362  1  0.30552000  0.83822000  0.03110000  1.0 -0.1109307587
C  C363  1  0.16178000  0.69448000  0.53110000  1.0 -0.1109307587
C  C364  1  0.69448000  0.16178000  0.96890000  1.0 -0.1109307587
C  C365  1  0.66872000  0.32938000  0.42442000  1.0 -0.1109307587
C  C366  1  0.32938000  0.66872000  0.07558000  1.0 -0.1109307587
C  C367  1  0.33128000  0.67062000  0.57558000  1.0 -0.1109307587
C  C368  1  0.67062000  0.33128000  0.92442000  1.0 -0.1109307587
C  C369  1  0.62028000  0.29156000  0.41558000  1.0 -0.0896796714
C  C370  1  0.29156000  0.62028000  0.08442000  1.0 -0.0896796714
C  C371  1  0.37972000  0.70844000  0.58442000  1.0 -0.0896796714
C  C372  1  0.70844000  0.37972000  0.91558000  1.0 -0.0896796714
C  C373  1  0.59750000  0.25650000  0.45529000  1.0 -0.0896796714
C  C374  1  0.25650000  0.59750000  0.04471000  1.0 -0.0896796714
C  C375  1  0.40250000  0.74350000  0.54471000  1.0 -0.0896796714
C  C376  1  0.74350000  0.40250000  0.95529000  1.0 -0.0896796714
C  C377  1  0.62373000  0.25919000  0.50359000  1.0 -0.0810248712
C  C378  1  0.25919000  0.62373000  0.99641000  1.0 -0.0810248712
C  C379  1  0.37627000  0.74081000  0.49641000  1.0 -0.0810248712
C  C380  1  0.74081000  0.37627000  0.00359000  1.0 -0.0810248712
C  C381  1  0.67271000  0.29677000  0.51265000  1.0 -0.1109307587
C  C382  1  0.29677000  0.67271000  0.98735000  1.0 -0.1109307587
C  C383  1  0.32729000  0.70323000  0.48735000  1.0 -0.1109307587
C  C384  1  0.70323000  0.32729000  0.01265000  1.0 -0.1109307587
C  C385  1  0.69519000  0.33225000  0.47277000  1.0 0.0395438072
C  C386  1  0.33225000  0.69519000  0.02723000  1.0 0.0395438072
C  C387  1  0.30481000  0.66775000  0.52723000  1.0 0.0395438072
C  C388  1  0.66775000  0.30481000  0.97277000  1.0 0.0395438072
C  C389  1  0.74794000  0.37030000  0.48595000  1.0 0.0923028108
C  C390  1  0.37030000  0.74794000  0.01405000  1.0 0.0923028108
C  C391  1  0.25206000  0.62970000  0.51405000  1.0 0.0923028108
C  C392  1  0.62970000  0.25206000  0.98595000  1.0 0.0923028108
C  C393  1  0.84212000  0.46624000  0.43217000  1.0 0.2460857944
C  C394  1  0.46624000  0.84212000  0.06783000  1.0 0.2460857944
C  C395  1  0.15788000  0.53376000  0.56783000  1.0 0.2460857944
C  C396  1  0.53376000  0.15788000  0.93217000  1.0 0.2460857944
C  C397  1  0.84143000  0.44277000  0.37765000  1.0 -0.4995849675
C  C398  1  0.44277000  0.84143000  0.12235000  1.0 -0.4995849675
C  C399  1  0.15857000  0.55723000  0.62235000  1.0 -0.4995849675
C  C400  1  0.55723000  0.15857000  0.87765000  1.0 -0.4995849675
C  C401  1  0.89187000  0.50459000  0.44625000  1.0 0.1010157805
C  C402  1  0.50459000  0.89187000  0.05375000  1.0 0.1010157805
C  C403  1  0.10813000  0.49541000  0.55375000  1.0 0.1010157805
C  C404  1  0.49541000  0.10813000  0.94625000  1.0 0.1010157805
C  C405  1  0.93717000  0.51547000  0.41832000  1.0 -0.037272787
C  C406  1  0.51547000  0.93717000  0.08168000  1.0 -0.037272787
C  C407  1  0.06283000  0.48453000  0.58168000  1.0 -0.037272787
C  C408  1  0.48453000  0.06283000  0.91832000  1.0 -0.037272787
C  C409  1  0.98301000  0.57579000  0.47391000  1.0 0.0031803844
C  C410  1  0.57579000  0.98301000  0.02609000  1.0 0.0031803844
C  C411  1  0.01699000  0.42421000  0.52609000  1.0 0.0031803844
C  C412  1  0.42421000  0.01699000  0.97391000  1.0 0.0031803844
C  C413  1  0.93646000  0.56800000  0.50268000  1.0 0.0298695007
C  C414  1  0.56800000  0.93646000  0.99732000  1.0 0.0298695007
C  C415  1  0.06354000  0.43200000  0.49732000  1.0 0.0298695007
C  C416  1  0.43200000  0.06354000  0.00268000  1.0 0.0298695007
N  N1  1  0.99396000  0.68416000  0.87956000  1.0 -0.1873990556
N  N2  1  0.68416000  0.99396000  0.62044000  1.0 -0.1873990556
N  N3  1  0.00604000  0.31584000  0.12044000  1.0 -0.1873990556
N  N4  1  0.31584000  0.00604000  0.37956000  1.0 -0.1873990556
N  N5  1  0.98963000  0.59165000  0.82111000  1.0 -0.1508958126
N  N6  1  0.59165000  0.98963000  0.67889000  1.0 -0.1508958126
N  N7  1  0.01037000  0.40835000  0.17889000  1.0 -0.1508958126
N  N8  1  0.40835000  0.01037000  0.32111000  1.0 -0.1508958126
N  N9  1  0.93044000  0.68200000  0.96296000  1.0 -0.1791849567
N  N10  1  0.68200000  0.93044000  0.53704000  1.0 -0.1791849567
N  N11  1  0.06956000  0.31800000  0.03704000  1.0 -0.1791849567
N  N12  1  0.31800000  0.06956000  0.46296000  1.0 -0.1791849567
N  N13  1  0.89818000  0.67526000  0.00648000  1.0 -0.1508958126
N  N14  1  0.67526000  0.89818000  0.49352000  1.0 -0.1508958126
N  N15  1  0.10182000  0.32474000  0.99352000  1.0 -0.1508958126
N  N16  1  0.32474000  0.10182000  0.50648000  1.0 -0.1602264682
N  N17  1  0.90155000  0.82021000  0.99225000  1.0 -0.1286579373
N  N18  1  0.82021000  0.90155000  0.50775000  1.0 -0.1286579373
N  N19  1  0.09845000  0.17979000  0.00775000  1.0 -0.1286579373
N  N20  1  0.17979000  0.09845000  0.49225000  1.0 -0.1286579373
N  N21  1  0.93382000  0.81918000  0.03989000  1.0 -0.1873990556
N  N22  1  0.81918000  0.93382000  0.46011000  1.0 -0.1873990556
N  N23  1  0.06618000  0.18082000  0.96011000  1.0 -0.1873990556
N  N24  1  0.18082000  0.06618000  0.53989000  1.0 -0.1873990556
N  N25  1  0.00329000  0.82487000  0.12510000  1.0 -0.1989658421
N  N26  1  0.82487000  0.00329000  0.37490000  1.0 -0.1989658421
N  N27  1  0.99671000  0.17513000  0.87490000  1.0 -0.1989658421
N  N28  1  0.17513000  0.99671000  0.62510000  1.0 -0.1989658421
N  N29  1  0.98739000  0.90677000  0.19357000  1.0 -0.1392634457
N  N30  1  0.90677000  0.98739000  0.30643000  1.0 -0.1392634457
N  N31  1  0.01261000  0.09323000  0.80643000  1.0 -0.1392634457
N  N32  1  0.09323000  0.01261000  0.69357000  1.0 -0.1392634457
N  N33  1  0.32613000  0.00395000  0.62428000  1.0 -0.1989658421
N  N34  1  0.00395000  0.32613000  0.87572000  1.0 -0.1989658421
N  N35  1  0.67387000  0.99605000  0.37572000  1.0 -0.1989658421
N  N36  1  0.99605000  0.67387000  0.12428000  1.0 -0.1989658421
N  N37  1  0.42765000  0.99663000  0.68537000  1.0 -0.1508958126
N  N38  1  0.99663000  0.42765000  0.81463000  1.0 -0.1508958126
N  N39  1  0.57235000  0.00337000  0.31463000  1.0 -0.1508958126
N  N40  1  0.00337000  0.57235000  0.18537000  1.0 -0.1508958126
N  N41  1  0.31526000  0.94520000  0.53950000  1.0 -0.1696076216
N  N42  1  0.94520000  0.31526000  0.96050000  1.0 -0.1696076216
N  N43  1  0.68474000  0.05480000  0.46050000  1.0 -0.1696076216
N  N44  1  0.05480000  0.68474000  0.03950000  1.0 -0.1696076216
N  N45  1  0.31358000  0.91496000  0.49467000  1.0 -0.1602264682
N  N46  1  0.91496000  0.31358000  0.00533000  1.0 -0.1602264682
N  N47  1  0.68642000  0.08504000  0.50533000  1.0 -0.1602264682
N  N48  1  0.08504000  0.68642000  0.99467000  1.0 -0.1602264682
N  N49  1  0.16953000  0.90589000  0.50453000  1.0 -0.1508958126
N  N50  1  0.90589000  0.16953000  0.99547000  1.0 -0.1508958126
N  N51  1  0.83047000  0.09411000  0.49547000  1.0 -0.1508958126
N  N52  1  0.09411000  0.83047000  0.00453000  1.0 -0.1508958126
N  N53  1  0.16927000  0.93489000  0.45741000  1.0 -0.1508958126
N  N54  1  0.93489000  0.16927000  0.04259000  1.0 -0.1508958126
N  N55  1  0.83073000  0.06511000  0.54259000  1.0 -0.1508958126
N  N56  1  0.06511000  0.83073000  0.95741000  1.0 -0.1508958126
N  N57  1  0.16221000  0.00359000  0.37308000  1.0 -0.1873990556
N  N58  1  0.00359000  0.16221000  0.12692000  1.0 -0.1873990556
N  N59  1  0.83779000  0.99641000  0.62692000  1.0 -0.1873990556
N  N60  1  0.99641000  0.83779000  0.87308000  1.0 -0.1873990556
N  N61  1  0.06822000  0.98520000  0.30182000  1.0 -0.1602264682
N  N62  1  0.98520000  0.06822000  0.19818000  1.0 -0.1602264682
N  N63  1  0.93178000  0.01480000  0.69818000  1.0 -0.1602264682
N  N64  1  0.01480000  0.93178000  0.80182000  1.0 -0.1696076216
N  N65  1  0.61940000  0.45750000  0.45546000  1.0 -0.1696076216
N  N66  1  0.45750000  0.61940000  0.04454000  1.0 -0.1696076216
N  N67  1  0.38060000  0.54250000  0.54454000  1.0 -0.1791849567
N  N68  1  0.54250000  0.38060000  0.95546000  1.0 -0.1791849567
N  N69  1  0.56719000  0.43193000  0.36348000  1.0 -0.1508958126
N  N70  1  0.43193000  0.56719000  0.13652000  1.0 -0.1508958126
N  N71  1  0.43281000  0.56807000  0.63652000  1.0 -0.1508958126
N  N72  1  0.56807000  0.43281000  0.86348000  1.0 -0.1508958126
N  N73  1  0.70302000  0.54620000  0.45975000  1.0 -0.1696076216
N  N74  1  0.54620000  0.70302000  0.04025000  1.0 -0.1696076216
N  N75  1  0.29698000  0.45380000  0.54025000  1.0 -0.1696076216
N  N76  1  0.45380000  0.29698000  0.95975000  1.0 -0.1696076216
N  N77  1  0.75201000  0.58547000  0.45961000  1.0 -0.1791849567
N  N78  1  0.58547000  0.75201000  0.04039000  1.0 -0.1791849567
N  N79  1  0.24799000  0.41453000  0.54039000  1.0 -0.1791849567
N  N80  1  0.41453000  0.24799000  0.95961000  1.0 -0.1791849567
N  N81  1  0.72076000  0.59924000  0.58053000  1.0 -0.1989658421
N  N82  1  0.59924000  0.72076000  0.91947000  1.0 -0.1989658421
N  N83  1  0.27924000  0.40076000  0.41947000  1.0 -0.1989658421
N  N84  1  0.40076000  0.27924000  0.08053000  1.0 -0.1989658421
N  N85  1  0.76812000  0.56800000  0.58939000  1.0 -0.1508958126
N  N86  1  0.56800000  0.76812000  0.91061000  1.0 -0.1508958126
N  N87  1  0.23188000  0.43200000  0.41061000  1.0 -0.1508958126
N  N88  1  0.43200000  0.23188000  0.08939000  1.0 -0.1508958126
N  N89  1  0.85040000  0.49300000  0.61404000  1.0 -0.1873990556
N  N90  1  0.49300000  0.85040000  0.88596000  1.0 -0.1873990556
N  N91  1  0.14960000  0.50700000  0.38596000  1.0 -0.1873990556
N  N92  1  0.50700000  0.14960000  0.11404000  1.0 -0.1873990556
N  N93  1  0.92114000  0.50528000  0.70285000  1.0 -0.1508958126
N  N94  1  0.50528000  0.92114000  0.79715000  1.0 -0.1508958126
N  N95  1  0.07886000  0.49472000  0.29715000  1.0 -0.1508958126
N  N96  1  0.49472000  0.07886000  0.20285000  1.0 -0.1508958126
N  N97  1  0.65697000  0.47495000  0.60803000  1.0 -0.1696076216
N  N98  1  0.47495000  0.65697000  0.89197000  1.0 -0.1696076216
N  N99  1  0.34303000  0.52505000  0.39197000  1.0 -0.1696076216
N  N100  1  0.52505000  0.34303000  0.10803000  1.0 -0.1696076216
N  N101  1  0.62306000  0.47546000  0.70813000  1.0 -0.1508958126
N  N102  1  0.47546000  0.62306000  0.79187000  1.0 -0.1508958126
N  N103  1  0.37694000  0.52454000  0.29187000  1.0 -0.1508958126
N  N104  1  0.52454000  0.37694000  0.20813000  1.0 -0.1508958126
N  N105  1  0.73614000  0.40456000  0.58088000  1.0 -0.2067949531
N  N106  1  0.40456000  0.73614000  0.91912000  1.0 -0.2067949531
N  N107  1  0.26386000  0.59544000  0.41912000  1.0 -0.2067949531
N  N108  1  0.59544000  0.26386000  0.08088000  1.0 -0.2067949531
N  N109  1  0.78402000  0.37148000  0.57333000  1.0 -0.1508958126
N  N110  1  0.37148000  0.78402000  0.92667000  1.0 -0.1508958126
N  N111  1  0.21598000  0.62852000  0.42667000  1.0 -0.1508958126
N  N112  1  0.62852000  0.21598000  0.07333000  1.0 -0.1508958126
N  N113  1  0.75260000  0.41520000  0.45317000  1.0 -0.1989658421
N  N114  1  0.41520000  0.75260000  0.04683000  1.0 -0.1989658421
N  N115  1  0.24740000  0.58480000  0.54683000  1.0 -0.1989658421
N  N116  1  0.58480000  0.24740000  0.95317000  1.0 -0.1989658421
N  N117  1  0.80317000  0.45019000  0.46582000  1.0 -0.1696076216
N  N118  1  0.45019000  0.80317000  0.03418000  1.0 -0.1696076216
N  N119  1  0.19683000  0.54981000  0.53418000  1.0 -0.1696076216
N  N120  1  0.54981000  0.19683000  0.96582000  1.0 -0.1696076216
N  N121  1  0.89171000  0.53075000  0.48847000  1.0 -0.1873990556
N  N122  1  0.53075000  0.89171000  0.01153000  1.0 -0.1873990556
N  N123  1  0.10829000  0.46925000  0.51153000  1.0 -0.1873990556
N  N124  1  0.46925000  0.10829000  0.98847000  1.0 -0.1873990556
N  N125  1  0.98371000  0.55083000  0.42995000  1.0 -0.1989658421
N  N126  1  0.55083000  0.98371000  0.07005000  1.0 -0.1989658421
N  N127  1  0.01629000  0.44917000  0.57005000  1.0 -0.1989658421
N  N128  1  0.44917000  0.01629000  0.92995000  1.0 -0.1989658421
O  O1  1  0.07092000  0.52054000  0.71925000  1.0 -0.690567678
O  O2  1  0.52054000  0.07092000  0.78075000  1.0 -0.690567678
O  O3  1  0.92908000  0.47946000  0.28075000  1.0 -0.690567678
O  O4  1  0.47946000  0.92908000  0.21925000  1.0 -0.690567678
O  O5  1  0.55070000  0.66710000  0.67290000  1.0 -0.7061358698
O  O6  1  0.66710000  0.55070000  0.82710000  1.0 -0.7061358698
O  O7  1  0.44930000  0.33290000  0.32710000  1.0 -0.7045221536
O  O8  1  0.33290000  0.44930000  0.17290000  1.0 -0.7061358698
F  F1  1  0.44512000  0.64038000  0.34581000  1.0 -0.4314327499
F  F2  1  0.37110000  0.67708000  0.37900000  1.0 -0.4403344871
F  F3  1  0.46092000  0.72366000  0.38515000  1.0 -0.4314327499
F  F4  1  0.44063000  0.63915000  0.43000000  1.0 -0.4470084448
F  F5  1  0.64038000  0.44512000  0.15419000  1.0 -0.4314327499
F  F6  1  0.67708000  0.37110000  0.12100000  1.0 -0.4403344871
F  F7  1  0.72366000  0.46092000  0.11485000  1.0 -0.4314327499
F  F8  1  0.63915000  0.44063000  0.07000000  1.0 -0.4470084448
F  F9  1  0.55488000  0.35962000  0.65419000  1.0 -0.4314327499
F  F10  1  0.62890000  0.32292000  0.62100000  1.0 -0.4403344871
F  F11  1  0.53908000  0.27634000  0.61485000  1.0 -0.4314327499
F  F12  1  0.55937000  0.36085000  0.57000000  1.0 -0.4470084448
F  F13  1  0.35962000  0.55488000  0.84581000  1.0 -0.4314327499
F  F14  1  0.32292000  0.62890000  0.87900000  1.0 -0.4403344871
F  F15  1  0.27634000  0.53908000  0.88515000  1.0 -0.4314327499
F  F16  1  0.36085000  0.55937000  0.93000000  1.0 -0.4470084448
F  F17  1  0.06569000  0.06539000  0.41199000  1.0 -0.4470084448
F  F18  1  0.01252000  0.14260000  0.42546000  1.0 -0.4605799906
F  F19  1  0.98920000  0.08652000  0.36014000  1.0 -0.4403344871
F  F20  1  0.97671000  0.04913000  0.43705000  1.0 -0.4314327499
F  F21  1  0.06539000  0.06569000  0.08801000  1.0 -0.4470084448
F  F22  1  0.14260000  0.01252000  0.07454000  1.0 -0.4605799906
F  F23  1  0.08652000  0.98920000  0.13986000  1.0 -0.4403344871
F  F24  1  0.04913000  0.97671000  0.06295000  1.0 -0.4314327499
F  F25  1  0.93431000  0.93461000  0.58801000  1.0 -0.4470084448
F  F26  1  0.98748000  0.85740000  0.57454000  1.0 -0.4605799906
F  F27  1  0.01080000  0.91348000  0.63986000  1.0 -0.4403344871
F  F28  1  0.02329000  0.95087000  0.56295000  1.0 -0.4314327499
F  F29  1  0.93461000  0.93431000  0.91199000  1.0 -0.4470084448
F  F30  1  0.85740000  0.98748000  0.92546000  1.0 -0.4605799906
F  F31  1  0.91348000  0.01080000  0.86014000  1.0 -0.4470084448
F  F32  1  0.95087000  0.02329000  0.93705000  1.0 -0.4314327499
F  F33  1  0.32368000  0.64794000  0.20745000  1.0 -0.4470084448
F  F34  1  0.34318000  0.71608000  0.26297000  1.0 -0.4403344871
F  F35  1  0.36694000  0.73438000  0.18208000  1.0 -0.4605799906
F  F36  1  0.41706000  0.67164000  0.23322000  1.0 -0.4605799906
F  F37  1  0.64794000  0.32368000  0.29255000  1.0 -0.4470084448
F  F38  1  0.71608000  0.34318000  0.23703000  1.0 -0.4403344871
F  F39  1  0.73438000  0.36694000  0.31792000  1.0 -0.4605799906
F  F40  1  0.67164000  0.41706000  0.26678000  1.0 -0.4605799906
F  F41  1  0.67632000  0.35206000  0.79255000  1.0 -0.4470084448
F  F42  1  0.65682000  0.28392000  0.73703000  1.0 -0.4403344871
F  F43  1  0.63306000  0.26562000  0.81792000  1.0 -0.4605799906
F  F44  1  0.58294000  0.32836000  0.76678000  1.0 -0.4605799906
F  F45  1  0.35206000  0.67632000  0.70745000  1.0 -0.4470084448
F  F46  1  0.28392000  0.65682000  0.76297000  1.0 -0.4403344871
F  F47  1  0.26562000  0.63306000  0.68208000  1.0 -0.4605799906
F  F48  1  0.32836000  0.58294000  0.73322000  1.0 -0.4605799906
F  F49  1  0.21286000  0.52566000  0.22161000  1.0 -0.4403344871
F  F50  1  0.15400000  0.53320000  0.15397000  1.0 -0.4403344871
F  F51  1  0.23987000  0.49693000  0.14790000  1.0 -0.4314327499
F  F52  1  0.16883000  0.44503000  0.18871000  1.0 -0.4605799906
F  F53  1  0.52566000  0.21286000  0.27839000  1.0 -0.4403344871
F  F54  1  0.53320000  0.15400000  0.34603000  1.0 -0.4403344871
F  F55  1  0.49693000  0.23987000  0.35210000  1.0 -0.4403344871
F  F56  1  0.44503000  0.16883000  0.31129000  1.0 -0.4605799906
F  F57  1  0.78714000  0.47434000  0.77839000  1.0 -0.4403344871
F  F58  1  0.84600000  0.46680000  0.84603000  1.0 -0.4403344871
F  F59  1  0.76013000  0.50307000  0.85210000  1.0 -0.4403344871
F  F60  1  0.83117000  0.55497000  0.81129000  1.0 -0.4605799906
F  F61  1  0.47434000  0.78714000  0.72161000  1.0 -0.4403344871
F  F62  1  0.46680000  0.84600000  0.65397000  1.0 -0.4403344871
F  F63  1  0.50307000  0.76013000  0.64790000  1.0 -0.4403344871
F  F64  1  0.55497000  0.83117000  0.68871000  1.0 -0.4605799906
F  F65  1  0.00467000  0.20039000  0.60732000  1.0 -0.4605799906
F  F66  1  0.93411000  0.17453000  0.66101000  1.0 -0.4605799906
F  F67  1  0.00617000  0.24071000  0.68267000  1.0 -0.4693215001
F  F68  1  0.02362000  0.14658000  0.67960000  1.0 -0.4693215001
F  F69  1  0.20039000  0.00467000  0.89268000  1.0 -0.4605799906
F  F70  1  0.17453000  0.93411000  0.83899000  1.0 -0.4605799906
F  F71  1  0.24071000  0.00617000  0.81733000  1.0 -0.4693215001
F  F72  1  0.14658000  0.02362000  0.82040000  1.0 -0.4693215001
F  F73  1  0.99533000  0.79961000  0.39268000  1.0 -0.4605799906
F  F74  1  0.06589000  0.82547000  0.33899000  1.0 -0.4605799906
F  F75  1  0.99383000  0.75929000  0.31733000  1.0 -0.4693215001
F  F76  1  0.97638000  0.85342000  0.32040000  1.0 -0.4693215001
F  F77  1  0.79961000  0.99533000  0.10732000  1.0 -0.4605799906
F  F78  1  0.82547000  0.06589000  0.16101000  1.0 -0.4605799906
F  F79  1  0.75929000  0.99383000  0.18267000  1.0 -0.4693215001
F  F80  1  0.85342000  0.97638000  0.17960000  1.0 -0.4693215001
F  F81  1  0.41552000  0.99352000  0.12790000  1.0 -0.4802618755
F  F82  1  0.37555000  0.01511000  0.20154000  1.0 -0.4802618755
F  F83  1  0.31772000  0.97168000  0.13775000  1.0 -0.4693215001
F  F84  1  0.35481000  0.06669000  0.12633000  1.0 -0.4605799906
F  F85  1  0.99352000  0.41552000  0.37210000  1.0 -0.4802618755
F  F86  1  0.01511000  0.37555000  0.29846000  1.0 -0.4802618755
F  F87  1  0.97168000  0.31772000  0.36225000  1.0 -0.4693215001
F  F88  1  0.06669000  0.35481000  0.37367000  1.0 -0.4605799906
F  F89  1  0.58448000  0.00648000  0.87210000  1.0 -0.4802618755
F  F90  1  0.62445000  0.98489000  0.79846000  1.0 -0.4802618755
F  F91  1  0.68228000  0.02832000  0.86225000  1.0 -0.4693215001
F  F92  1  0.64519000  0.93331000  0.87367000  1.0 -0.4605799906
F  F93  1  0.00648000  0.58448000  0.62790000  1.0 -0.4802618755
F  F94  1  0.98489000  0.62445000  0.70154000  1.0 -0.4802618755
F  F95  1  0.02832000  0.68228000  0.63775000  1.0 -0.4693215001
F  F96  1  0.93331000  0.64519000  0.62633000  1.0 -0.4605799906
F  F97  1  0.47775000  0.85429000  0.44892000  1.0 -0.4108876867
F  F98  1  0.53987000  0.92431000  0.42401000  1.0 -0.4197932986
F  F99  1  0.44776000  0.93052000  0.40592000  1.0 -0.4108876867
F  F100  1  0.49440000  0.86892000  0.36857000  1.0 -0.4314327499
F  F101  1  0.85429000  0.47775000  0.05108000  1.0 -0.4108876867
F  F102  1  0.92431000  0.53987000  0.07599000  1.0 -0.4197932986
F  F103  1  0.93052000  0.44776000  0.09408000  1.0 -0.4108876867
F  F104  1  0.86892000  0.49440000  0.13143000  1.0 -0.4314327499
F  F105  1  0.52225000  0.14571000  0.55108000  1.0 -0.4108876867
F  F106  1  0.46013000  0.07569000  0.57599000  1.0 -0.4197932986
F  F107  1  0.55224000  0.06948000  0.59408000  1.0 -0.4108876867
F  F108  1  0.50560000  0.13108000  0.63143000  1.0 -0.4314327499
F  F109  1  0.14571000  0.52225000  0.94892000  1.0 -0.4108876867
F  F110  1  0.07569000  0.46013000  0.92401000  1.0 -0.4197932986
F  F111  1  0.06948000  0.55224000  0.90592000  1.0 -0.4108876867
F  F112  1  0.13108000  0.50560000  0.86857000  1.0 -0.4314327499
