# DDEC6 charges by PACMAN v1.1 (https://github.com/mtap-research/PACMAN-charge/)
data_TIPZUP_FSR_pacman
_symmetry_space_group_name_H-M   'P 1'
_cell_length_a   15.79420000
_cell_length_b   15.79420000
_cell_length_c   14.76320000
_cell_angle_alpha   68.98280000
_cell_angle_beta   111.01700000
_cell_angle_gamma   132.06000000
_symmetry_Int_Tables_number   1
_chemical_formula_structural   Ag9H12C30N2(O10F9)2
_chemical_formula_sum   'Ag18 H24 C60 N4 O40 F36'
_cell_volume   2514.84272475
_cell_formula_units_Z   2
loop_
 _symmetry_equiv_pos_site_id
 _symmetry_equiv_pos_as_xyz
  1  'x, y, z'
loop_
 _atom_site_type_symbol
 _atom_site_label
 _atom_site_symmetry_multiplicity
 _atom_site_fract_x
 _atom_site_fract_y
 _atom_site_fract_z
 _atom_site_occupancy
 _atom_site_charge
Ag  Ag1  1  0.12720000  0.10018000  0.97871000  1.0 0.4323969402
Ag  Ag2  1  0.10018000  0.12720000  0.52129000  1.0 0.4323969402
Ag  Ag3  1  0.87280000  0.89982000  0.02129000  1.0 0.4323969402
Ag  Ag4  1  0.89982000  0.87280000  0.47871000  1.0 0.4323969402
Ag  Ag5  1  0.09906000  0.93296000  0.91130000  1.0 0.4498329789
Ag  Ag6  1  0.93296000  0.09906000  0.58870000  1.0 0.4498329789
Ag  Ag7  1  0.90094000  0.06704000  0.08870000  1.0 0.4498329789
Ag  Ag8  1  0.06704000  0.90094000  0.41130000  1.0 0.4498329789
Ag  Ag9  1  0.12208000  0.95964000  0.68513000  1.0 0.4323969402
Ag  Ag10  1  0.95964000  0.12208000  0.81487000  1.0 0.4323969402
Ag  Ag11  1  0.87792000  0.04036000  0.31487000  1.0 0.4323969402
Ag  Ag12  1  0.04036000  0.87792000  0.18513000  1.0 0.4323969402
Ag  Ag13  1  0.12972000  0.12972000  0.75000000  1.0 0.2205707611
Ag  Ag14  1  0.87028000  0.87028000  0.25000000  1.0 0.2205707611
Ag  Ag15  1  0.77955000  0.16311000  0.38153000  1.0 0.4960024537
Ag  Ag16  1  0.16311000  0.77955000  0.11847000  1.0 0.4960024537
Ag  Ag17  1  0.22045000  0.83689000  0.61847000  1.0 0.4960024537
Ag  Ag18  1  0.83689000  0.22045000  0.88153000  1.0 0.4960024537
H  H1  1  0.74060000  0.75280000  0.82970000  1.0 0.1119291515
H  H2  1  0.75280000  0.74060000  0.67030000  1.0 0.1119291515
H  H3  1  0.25940000  0.24720000  0.17030000  1.0 0.1119291515
H  H4  1  0.24720000  0.25940000  0.32970000  1.0 0.1119291515
H  H5  1  0.74530000  0.84890000  0.74280000  1.0 0.1023630605
H  H6  1  0.84890000  0.74530000  0.75720000  1.0 0.1023630605
H  H7  1  0.25470000  0.15110000  0.25720000  1.0 0.1023630605
H  H8  1  0.15110000  0.25470000  0.24280000  1.0 0.1023630605
H  H9  1  0.44830000  0.19110000  0.22980000  1.0 0.1390189708
H  H10  1  0.19110000  0.44830000  0.27020000  1.0 0.1390189708
H  H11  1  0.55170000  0.80890000  0.77020000  1.0 0.1390189708
H  H12  1  0.80890000  0.55170000  0.72980000  1.0 0.1390189708
H  H13  1  0.61540000  0.22660000  0.33680000  1.0 0.0891953067
H  H14  1  0.22660000  0.61540000  0.16320000  1.0 0.0891953067
H  H15  1  0.38460000  0.77340000  0.66320000  1.0 0.0891953067
H  H16  1  0.77340000  0.38460000  0.83680000  1.0 0.0891953067
H  H17  1  0.42650000  0.98150000  0.11820000  1.0 0.1225877733
H  H18  1  0.98150000  0.42650000  0.38180000  1.0 0.1225877733
H  H19  1  0.57350000  0.01850000  0.88180000  1.0 0.1225877733
H  H20  1  0.01850000  0.57350000  0.61820000  1.0 0.1225877733
H  H21  1  0.59080000  0.02380000  0.21980000  1.0 0.0891953067
H  H22  1  0.02380000  0.59080000  0.28020000  1.0 0.0891953067
H  H23  1  0.40920000  0.97620000  0.78020000  1.0 0.0891953067
H  H24  1  0.97620000  0.40920000  0.71980000  1.0 0.0891953067
C  C1  1  0.99000000  0.98780000  0.86970000  1.0 -0.5542213141
C  C2  1  0.98780000  0.99000000  0.63030000  1.0 -0.5542213141
C  C3  1  0.01000000  0.01220000  0.13030000  1.0 -0.5542213141
C  C4  1  0.01220000  0.01000000  0.36970000  1.0 -0.5542213141
C  C5  1  0.89660000  0.91160000  0.83860000  1.0 0.0720221655
C  C6  1  0.91160000  0.89660000  0.66140000  1.0 0.0720221655
C  C7  1  0.10340000  0.08840000  0.16140000  1.0 0.0720221655
C  C8  1  0.08840000  0.10340000  0.33860000  1.0 0.0720221655
C  C9  1  0.78840000  0.82100000  0.78390000  1.0 -0.1901552138
C  C10  1  0.82100000  0.78840000  0.71610000  1.0 -0.1901552138
C  C11  1  0.21160000  0.17900000  0.21610000  1.0 -0.1901552138
C  C12  1  0.17900000  0.21160000  0.28390000  1.0 -0.1901552138
C  C13  1  0.13280000  0.30740000  0.95680000  1.0 0.3654001237
C  C14  1  0.30740000  0.13280000  0.54320000  1.0 0.3654001237
C  C15  1  0.86720000  0.69260000  0.04320000  1.0 0.3654001237
C  C16  1  0.69260000  0.86720000  0.45680000  1.0 0.3654001237
C  C17  1  0.18300000  0.41900000  0.98420000  1.0 0.4902120114
C  C18  1  0.41900000  0.18300000  0.51580000  1.0 0.4902120114
C  C19  1  0.81700000  0.58100000  0.01580000  1.0 0.4902120114
C  C20  1  0.58100000  0.81700000  0.48420000  1.0 0.4902120114
C  C21  1  0.13250000  0.78030000  0.85900000  1.0 0.4015551985
C  C22  1  0.78030000  0.13250000  0.64100000  1.0 0.4015551985
C  C23  1  0.86750000  0.21970000  0.14100000  1.0 0.4015551985
C  C24  1  0.21970000  0.86750000  0.35900000  1.0 0.4015551985
C  C25  1  0.16530000  0.69990000  0.90470000  1.0 0.5416364999
C  C26  1  0.69990000  0.16530000  0.59530000  1.0 0.5416364999
C  C27  1  0.83470000  0.30010000  0.09530000  1.0 0.5416364999
C  C28  1  0.30010000  0.83470000  0.40470000  1.0 0.5416364999
C  C29  1  0.35460000  0.15400000  0.81500000  1.0 0.3055353047
C  C30  1  0.15400000  0.35460000  0.68500000  1.0 0.3055353047
C  C31  1  0.64540000  0.84600000  0.18500000  1.0 0.3055353047
C  C32  1  0.84600000  0.64540000  0.31500000  1.0 0.3055353047
C  C33  1  0.47910000  0.20890000  0.85100000  1.0 0.2769289867
C  C34  1  0.20890000  0.47910000  0.64900000  1.0 0.2769289867
C  C35  1  0.52090000  0.79110000  0.14900000  1.0 0.2769289867
C  C36  1  0.79110000  0.52090000  0.35100000  1.0 0.2769289867
C  C37  1  0.30700000  0.05600000  0.09320000  1.0 0.5501790227
C  C38  1  0.05600000  0.30700000  0.40680000  1.0 0.5501790227
C  C39  1  0.69300000  0.94400000  0.90680000  1.0 0.5501790227
C  C40  1  0.94400000  0.69300000  0.59320000  1.0 0.5501790227
C  C41  1  0.41800000  0.08120000  0.16160000  1.0 0.0294601054
C  C42  1  0.08120000  0.41800000  0.33840000  1.0 0.0294601054
C  C43  1  0.58200000  0.91880000  0.83840000  1.0 0.0294601054
C  C44  1  0.91880000  0.58200000  0.66160000  1.0 0.0294601054
C  C45  1  0.47620000  0.15560000  0.22770000  1.0 -0.152032411
C  C46  1  0.15560000  0.47620000  0.27230000  1.0 -0.152032411
C  C47  1  0.52380000  0.84440000  0.77230000  1.0 -0.152032411
C  C48  1  0.84440000  0.52380000  0.72770000  1.0 -0.152032411
C  C49  1  0.57700000  0.17740000  0.29160000  1.0 0.0720221655
C  C50  1  0.17740000  0.57700000  0.20840000  1.0 0.0720221655
C  C51  1  0.42300000  0.82260000  0.70840000  1.0 0.0720221655
C  C52  1  0.82260000  0.42300000  0.79160000  1.0 0.0720221655
C  C53  1  0.46350000  0.03250000  0.16130000  1.0 -0.1901552138
C  C54  1  0.03250000  0.46350000  0.33870000  1.0 -0.1901552138
C  C55  1  0.53650000  0.96750000  0.83870000  1.0 -0.1901552138
C  C56  1  0.96750000  0.53650000  0.66130000  1.0 -0.1901552138
C  C57  1  0.56150000  0.05750000  0.22300000  1.0 0.075629081
C  C58  1  0.05750000  0.56150000  0.27700000  1.0 0.075629081
C  C59  1  0.43850000  0.94250000  0.77700000  1.0 0.075629081
C  C60  1  0.94250000  0.43850000  0.72300000  1.0 0.075629081
N  N1  1  0.61850000  0.12690000  0.28750000  1.0 -0.2394874363
N  N2  1  0.12690000  0.61850000  0.21250000  1.0 -0.2394874363
N  N3  1  0.38150000  0.87310000  0.71250000  1.0 -0.2394874363
N  N4  1  0.87310000  0.38150000  0.78750000  1.0 -0.2394874363
O  O1  1  0.02640000  0.24360000  0.92520000  1.0 -0.4989509849
O  O2  1  0.24360000  0.02640000  0.57480000  1.0 -0.4989509849
O  O3  1  0.97360000  0.75640000  0.07480000  1.0 -0.4989509849
O  O4  1  0.75640000  0.97360000  0.42520000  1.0 -0.4989509849
O  O5  1  0.20280000  0.29060000  0.97450000  1.0 -0.4120654731
O  O6  1  0.29060000  0.20280000  0.52550000  1.0 -0.4120654731
O  O7  1  0.79720000  0.70940000  0.02550000  1.0 -0.4120654731
O  O8  1  0.70940000  0.79720000  0.47450000  1.0 -0.4120654731
O  O9  1  0.11680000  0.80200000  0.91990000  1.0 -0.4433593123
O  O10  1  0.80200000  0.11680000  0.58010000  1.0 -0.4433593123
O  O11  1  0.88320000  0.19800000  0.08010000  1.0 -0.4433593123
O  O12  1  0.19800000  0.88320000  0.41990000  1.0 -0.4433593123
O  O13  1  0.12750000  0.81090000  0.77050000  1.0 -0.4326148449
O  O14  1  0.81090000  0.12750000  0.72950000  1.0 -0.4326148449
O  O15  1  0.87250000  0.18910000  0.22950000  1.0 -0.4326148449
O  O16  1  0.18910000  0.87250000  0.27050000  1.0 -0.4326148449
O  O17  1  0.31180000  0.18360000  0.83060000  1.0 -0.0526581576
O  O18  1  0.18360000  0.31180000  0.66940000  1.0 -0.0526581576
O  O19  1  0.68820000  0.81640000  0.16940000  1.0 -0.0526581576
O  O20  1  0.81640000  0.68820000  0.33060000  1.0 -0.0526581576
O  O21  1  0.31440000  0.06620000  0.77350000  1.0 -0.152032411
O  O22  1  0.06620000  0.31440000  0.72650000  1.0 -0.1584821638
O  O23  1  0.68560000  0.93380000  0.22650000  1.0 -0.1584821638
O  O24  1  0.93380000  0.68560000  0.27350000  1.0 -0.1584821638
O  O25  1  0.29430000  0.13110000  0.07580000  1.0 -0.4870741187
O  O26  1  0.13110000  0.29430000  0.42420000  1.0 -0.4870741187
O  O27  1  0.70570000  0.86890000  0.92420000  1.0 -0.4870741187
O  O28  1  0.86890000  0.70570000  0.57580000  1.0 -0.4870741187
O  O29  1  0.24300000  0.96880000  0.05470000  1.0 -0.4989509849
O  O30  1  0.96880000  0.24300000  0.44530000  1.0 -0.4989509849
O  O31  1  0.75700000  0.03120000  0.94530000  1.0 -0.4989509849
O  O32  1  0.03120000  0.75700000  0.55470000  1.0 -0.4989509849
O  O33  1  0.32620000  0.21320000  0.77830000  1.0 -0.0841630387
O  O34  1  0.21320000  0.32620000  0.72170000  1.0 -0.0841630387
O  O35  1  0.67380000  0.78680000  0.22170000  1.0 -0.0841630387
O  O36  1  0.78680000  0.67380000  0.27830000  1.0 -0.0841630387
O  O37  1  0.29210000  0.05630000  0.81970000  1.0 -0.0134991392
O  O38  1  0.05630000  0.29210000  0.68030000  1.0 -0.0134991392
O  O39  1  0.70790000  0.94370000  0.18030000  1.0 -0.0134991392
O  O40  1  0.94370000  0.70790000  0.31970000  1.0 -0.0134991392
F  F1  1  0.22120000  0.42360000  0.07320000  1.0 -0.1584821638
F  F2  1  0.42360000  0.22120000  0.42680000  1.0 -0.1584821638
F  F3  1  0.77880000  0.57640000  0.92680000  1.0 -0.1584821638
F  F4  1  0.57640000  0.77880000  0.57320000  1.0 -0.1584821638
F  F5  1  0.11340000  0.43960000  0.96470000  1.0 -0.1837377624
F  F6  1  0.43960000  0.11340000  0.53530000  1.0 -0.1901552138
F  F7  1  0.88660000  0.56040000  0.03530000  1.0 -0.1837377624
F  F8  1  0.56040000  0.88660000  0.46470000  1.0 -0.1837377624
F  F9  1  0.26680000  0.50560000  0.94700000  1.0 -0.1584821638
F  F10  1  0.50560000  0.26680000  0.55300000  1.0 -0.1584821638
F  F11  1  0.73320000  0.49440000  0.05300000  1.0 -0.1584821638
F  F12  1  0.49440000  0.73320000  0.44700000  1.0 -0.1584821638
F  F13  1  0.26170000  0.74650000  0.96690000  1.0 -0.1901552138
F  F14  1  0.74650000  0.26170000  0.53310000  1.0 -0.1901552138
F  F15  1  0.73830000  0.25350000  0.03310000  1.0 -0.1901552138
F  F16  1  0.25350000  0.73830000  0.46690000  1.0 -0.1901552138
F  F17  1  0.18090000  0.67330000  0.84280000  1.0 -0.1901552138
F  F18  1  0.67330000  0.18090000  0.65720000  1.0 -0.1901552138
F  F19  1  0.81910000  0.32670000  0.15720000  1.0 -0.1901552138
F  F20  1  0.32670000  0.81910000  0.34280000  1.0 -0.1901552138
F  F21  1  0.08720000  0.60460000  0.95230000  1.0 -0.1837377624
F  F22  1  0.60460000  0.08720000  0.54770000  1.0 -0.1837377624
F  F23  1  0.91280000  0.39540000  0.04770000  1.0 -0.1837377624
F  F24  1  0.39540000  0.91280000  0.45230000  1.0 -0.1837377624
F  F25  1  0.51400000  0.24440000  0.93590000  1.0 -0.1066108389
F  F26  1  0.24440000  0.51400000  0.56410000  1.0 -0.1066108389
F  F27  1  0.48600000  0.75560000  0.06410000  1.0 -0.1066108389
F  F28  1  0.75560000  0.48600000  0.43590000  1.0 -0.1066108389
F  F29  1  0.55180000  0.31780000  0.81300000  1.0 -0.1239039197
F  F30  1  0.31780000  0.55180000  0.68700000  1.0 -0.1239039197
F  F31  1  0.44820000  0.68220000  0.18700000  1.0 -0.1239039197
F  F32  1  0.68220000  0.44820000  0.31300000  1.0 -0.1239039197
F  F33  1  0.51570000  0.16230000  0.87000000  1.0 -0.0526581576
F  F34  1  0.16230000  0.51570000  0.63000000  1.0 -0.0526581576
F  F35  1  0.48430000  0.83770000  0.13000000  1.0 -0.0526581576
F  F36  1  0.83770000  0.48430000  0.37000000  1.0 -0.0526581576
