# DDEC6 charges by PACMAN v1.1 (https://github.com/mtap-research/PACMAN-charge/)
data_TIQHIL_FSR_pacman
_symmetry_space_group_name_H-M   'P 1'
_cell_length_a   12.21300000
_cell_length_b   12.21300000
_cell_length_c   12.34500000
_cell_angle_alpha   90.00000000
_cell_angle_beta   90.00000000
_cell_angle_gamma   90.00000000
_symmetry_Int_Tables_number   1
_chemical_formula_structural   Na6DyH24C40S8N8ClO40
_chemical_formula_sum   'Na6 Dy1 H24 C40 S8 N8 Cl1 O40'
_cell_volume   1841.34772030
_cell_formula_units_Z   1
loop_
 _symmetry_equiv_pos_site_id
 _symmetry_equiv_pos_as_xyz
  1  'x, y, z'
loop_
 _atom_site_type_symbol
 _atom_site_label
 _atom_site_symmetry_multiplicity
 _atom_site_fract_x
 _atom_site_fract_y
 _atom_site_fract_z
 _atom_site_occupancy
 _atom_site_charge
Na  Na1  1  0.50000000  0.00000000  0.48790000  1.0 0.9097068278
Na  Na2  1  0.00000000  0.50000000  0.51210000  1.0 0.9097068278
Na  Na3  1  0.72050000  0.52830000  0.49540000  1.0 0.8480090168
Na  Na4  1  0.27950000  0.47170000  0.49540000  1.0 0.8480090168
Na  Na5  1  0.52830000  0.27950000  0.50460000  1.0 0.8480090168
Na  Na6  1  0.47170000  0.72050000  0.50460000  1.0 0.8480090168
Dy  Dy1  1  0.00000000  0.00000000  0.00000000  1.0 1.8856217531
H  H1  1  0.72060000  0.89520000  0.87660000  1.0 0.1381278732
H  H2  1  0.27940000  0.10480000  0.87660000  1.0 0.1381278732
H  H3  1  0.89520000  0.27940000  0.12340000  1.0 0.1381278732
H  H4  1  0.10480000  0.72060000  0.12340000  1.0 0.1381278732
H  H5  1  0.64960000  0.88140000  0.70510000  1.0 0.1506969822
H  H6  1  0.35040000  0.11860000  0.70510000  1.0 0.1506969822
H  H7  1  0.88140000  0.35040000  0.29490000  1.0 0.1506969822
H  H8  1  0.11860000  0.64960000  0.29490000  1.0 0.1506969822
H  H9  1  0.94180000  0.77610000  0.59880000  1.0 0.1609795508
H  H10  1  0.05820000  0.22390000  0.59880000  1.0 0.1609795508
H  H11  1  0.77610000  0.05820000  0.40120000  1.0 0.1609795508
H  H12  1  0.22390000  0.94180000  0.40120000  1.0 0.1609795508
H  H13  1  0.02080000  0.60950000  0.73390000  1.0 0.1609795508
H  H14  1  0.97920000  0.39050000  0.73390000  1.0 0.1609795508
H  H15  1  0.60950000  0.97920000  0.26610000  1.0 0.1609795508
H  H16  1  0.39050000  0.02080000  0.26610000  1.0 0.1609795508
H  H17  1  0.32520000  0.66770000  0.83860000  1.0 0.1506969822
H  H18  1  0.67480000  0.33230000  0.83860000  1.0 0.1506969822
H  H19  1  0.66770000  0.67480000  0.16140000  1.0 0.1506969822
H  H20  1  0.33230000  0.32520000  0.16140000  1.0 0.1506969822
H  H21  1  0.27480000  0.84480000  0.88050000  1.0 0.1381278732
H  H22  1  0.72520000  0.15520000  0.88050000  1.0 0.1381278732
H  H23  1  0.84480000  0.72520000  0.11950000  1.0 0.1381278732
H  H24  1  0.15520000  0.27480000  0.11950000  1.0 0.1381278732
C  C1  1  0.76440000  0.86960000  0.82040000  1.0 0.002501538
C  C2  1  0.23560000  0.13040000  0.82040000  1.0 0.002501538
C  C3  1  0.86960000  0.23560000  0.17960000  1.0 0.002501538
C  C4  1  0.13040000  0.76440000  0.17960000  1.0 0.002501538
C  C5  1  0.72240000  0.86330000  0.71790000  1.0 -0.103620294
C  C6  1  0.27760000  0.13670000  0.71790000  1.0 -0.103620294
C  C7  1  0.86330000  0.27760000  0.28210000  1.0 -0.103620294
C  C8  1  0.13670000  0.72240000  0.28210000  1.0 -0.103620294
C  C9  1  0.78900000  0.82970000  0.63360000  1.0 -0.0294600739
C  C10  1  0.21100000  0.17030000  0.63360000  1.0 -0.0294600739
C  C11  1  0.82970000  0.21100000  0.36640000  1.0 -0.0294600739
C  C12  1  0.17030000  0.78900000  0.36640000  1.0 -0.0294600739
C  C13  1  0.89640000  0.79980000  0.65450000  1.0 -0.1285087834
C  C14  1  0.10360000  0.20020000  0.65450000  1.0 -0.1285087834
C  C15  1  0.79980000  0.10360000  0.34550000  1.0 -0.1285087834
C  C16  1  0.20020000  0.89640000  0.34550000  1.0 -0.1285087834
C  C17  1  0.93490000  0.80580000  0.75990000  1.0 0.1103518647
C  C18  1  0.06510000  0.19420000  0.75990000  1.0 0.1103518647
C  C19  1  0.80580000  0.06510000  0.24010000  1.0 0.1103518647
C  C20  1  0.19420000  0.93490000  0.24010000  1.0 0.1103518647
C  C21  1  0.04450000  0.76420000  0.78750000  1.0 0.103945632
C  C22  1  0.95550000  0.23580000  0.78750000  1.0 0.103945632
C  C23  1  0.76420000  0.95550000  0.21250000  1.0 0.103945632
C  C24  1  0.23580000  0.04450000  0.21250000  1.0 0.103945632
C  C25  1  0.07300000  0.65690000  0.76230000  1.0 -0.1285087834
C  C26  1  0.92700000  0.34310000  0.76230000  1.0 -0.1285087834
C  C27  1  0.65690000  0.92700000  0.23770000  1.0 -0.1285087834
C  C28  1  0.34310000  0.07300000  0.23770000  1.0 -0.1285087834
C  C29  1  0.17890000  0.62060000  0.77930000  1.0 -0.0470191906
C  C30  1  0.82110000  0.37940000  0.77930000  1.0 -0.0470191906
C  C31  1  0.62060000  0.82110000  0.22070000  1.0 -0.0470191906
C  C32  1  0.37940000  0.17890000  0.22070000  1.0 -0.0470191906
C  C33  1  0.25420000  0.69140000  0.82480000  1.0 -0.1095671612
C  C34  1  0.74580000  0.30860000  0.82480000  1.0 -0.1095671612
C  C35  1  0.69140000  0.74580000  0.17520000  1.0 -0.1095671612
C  C36  1  0.30860000  0.25420000  0.17520000  1.0 -0.1095671612
C  C37  1  0.22400000  0.79740000  0.84970000  1.0 0.012526751
C  C38  1  0.77600000  0.20260000  0.84970000  1.0 0.012526751
C  C39  1  0.79740000  0.77600000  0.15030000  1.0 0.012526751
C  C40  1  0.20260000  0.22400000  0.15030000  1.0 0.012526751
S  S1  1  0.73480000  0.81708000  0.50002000  1.0 1.1802265314
S  S2  1  0.26520000  0.18292000  0.50002000  1.0 1.1802265314
S  S3  1  0.81708000  0.26520000  0.49998000  1.0 1.1802265314
S  S4  1  0.18292000  0.73480000  0.49998000  1.0 1.1802265314
S  S5  1  0.21337000  0.48466000  0.74094000  1.0 1.1576186982
S  S6  1  0.78663000  0.51534000  0.74094000  1.0 1.1576186982
S  S7  1  0.48466000  0.78663000  0.25906000  1.0 1.1576186982
S  S8  1  0.51534000  0.21337000  0.25906000  1.0 1.1576186982
N  N1  1  0.86740000  0.83960000  0.84090000  1.0 0.2911865679
N  N2  1  0.13260000  0.16040000  0.84090000  1.0 0.2911865679
N  N3  1  0.83960000  0.13260000  0.15910000  1.0 0.2911865679
N  N4  1  0.16040000  0.86740000  0.15910000  1.0 0.2911865679
N  N5  1  0.12190000  0.83250000  0.83000000  1.0 0.3110161987
N  N6  1  0.87810000  0.16750000  0.83000000  1.0 0.3110161987
N  N7  1  0.83250000  0.87810000  0.17000000  1.0 0.3110161987
N  N8  1  0.16750000  0.12190000  0.17000000  1.0 0.3110161987
Cl  Cl1  1  0.50000000  0.50000000  0.50000000  1.0 -0.3877210053
O  O1  1  0.90510000  0.84530000  0.94170000  1.0 -0.5868895235
O  O2  1  0.09490000  0.15470000  0.94170000  1.0 -0.5868895235
O  O3  1  0.84530000  0.09490000  0.05830000  1.0 -0.5868895235
O  O4  1  0.15470000  0.90510000  0.05830000  1.0 -0.5868895235
O  O5  1  0.09630000  0.93550000  0.84740000  1.0 -0.5572210136
O  O6  1  0.90370000  0.06450000  0.84740000  1.0 -0.5572210136
O  O7  1  0.93550000  0.90370000  0.15260000  1.0 -0.5572210136
O  O8  1  0.06450000  0.09630000  0.15260000  1.0 -0.5572210136
O  O9  1  0.66950000  0.91520000  0.48640000  1.0 -0.6176940533
O  O10  1  0.33050000  0.08480000  0.48640000  1.0 -0.6176940533
O  O11  1  0.91520000  0.33050000  0.51360000  1.0 -0.6176940533
O  O12  1  0.08480000  0.66950000  0.51360000  1.0 -0.6176940533
O  O13  1  0.66850000  0.71770000  0.50260000  1.0 -0.6583710047
O  O14  1  0.33150000  0.28230000  0.50260000  1.0 -0.6583710047
O  O15  1  0.71770000  0.33150000  0.49740000  1.0 -0.6583710047
O  O16  1  0.28230000  0.66850000  0.49740000  1.0 -0.6583710047
O  O17  1  0.82700000  0.80890000  0.42760000  1.0 -0.5210042927
O  O18  1  0.17300000  0.19110000  0.42760000  1.0 -0.5210042927
O  O19  1  0.80890000  0.17300000  0.57240000  1.0 -0.5210042927
O  O20  1  0.19110000  0.82700000  0.57240000  1.0 -0.5210042927
O  O21  1  0.14280000  0.45880000  0.65120000  1.0 -0.6517845723
O  O22  1  0.85720000  0.54120000  0.65120000  1.0 -0.6517845723
O  O23  1  0.45880000  0.85720000  0.34880000  1.0 -0.6517845723
O  O24  1  0.54120000  0.14280000  0.34880000  1.0 -0.6517845723
O  O25  1  0.19350000  0.41740000  0.83420000  1.0 -0.5842832061
O  O26  1  0.80650000  0.58260000  0.83420000  1.0 -0.5842832061
O  O27  1  0.41740000  0.80650000  0.16580000  1.0 -0.5842832061
O  O28  1  0.58260000  0.19350000  0.16580000  1.0 -0.5842832061
O  O29  1  0.32700000  0.49030000  0.70850000  1.0 -0.5309974733
O  O30  1  0.67300000  0.50970000  0.70850000  1.0 -0.5309974733
O  O31  1  0.49030000  0.67300000  0.29150000  1.0 -0.5309974733
O  O32  1  0.50970000  0.32700000  0.29150000  1.0 -0.5309974733
O  O33  1  0.41650000  0.88310000  0.61760000  1.0 -0.5210042927
O  O34  1  0.58350000  0.11690000  0.61760000  1.0 -0.5139707061
O  O35  1  0.88310000  0.58350000  0.38240000  1.0 -0.5210042927
O  O36  1  0.11690000  0.41650000  0.38240000  1.0 -0.5210042927
O  O37  1  0.65630000  0.51120000  0.31970000  1.0 0.0278551099
O  O38  1  0.34370000  0.48880000  0.31970000  1.0 0.0278551099
O  O39  1  0.51120000  0.34370000  0.68030000  1.0 0.0278551099
O  O40  1  0.48880000  0.65630000  0.68030000  1.0 0.0278551099
