# DDEC6 charges by PACMAN v1.1 (https://github.com/mtap-research/PACMAN-charge/)
data_TIQHEH_ASR_pacman
_symmetry_space_group_name_H-M   'P 1'
_cell_length_a   12.24500000
_cell_length_b   12.24500000
_cell_length_c   12.40700000
_cell_angle_alpha   90.00000000
_cell_angle_beta   90.00000000
_cell_angle_gamma   90.00000000
_symmetry_Int_Tables_number   1
_chemical_formula_structural   Na6TbH24C40S8N8ClO36
_chemical_formula_sum   'Na6 Tb1 H24 C40 S8 N8 Cl1 O36'
_cell_volume   1860.30589017
_cell_formula_units_Z   1
loop_
 _symmetry_equiv_pos_site_id
 _symmetry_equiv_pos_as_xyz
  1  'x, y, z'
loop_
 _atom_site_type_symbol
 _atom_site_label
 _atom_site_symmetry_multiplicity
 _atom_site_fract_x
 _atom_site_fract_y
 _atom_site_fract_z
 _atom_site_occupancy
 _atom_site_charge
Na  Na1  1  0.00000000  0.50000000  0.01340000  1.0 0.9021732768
Na  Na2  1  0.50000000  0.00000000  0.98660000  1.0 0.9021732768
Na  Na3  1  0.47160000  0.72690000  0.00620000  1.0 0.8550049028
Na  Na4  1  0.52840000  0.27310000  0.00620000  1.0 0.8544413408
Na  Na5  1  0.72690000  0.52840000  0.99380000  1.0 0.8544413408
Na  Na6  1  0.27310000  0.47160000  0.99380000  1.0 0.8544413408
Tb  Tb1  1  0.00000000  0.00000000  0.50000000  1.0 1.8735180458
H  H1  1  0.15660000  0.27450000  0.61820000  1.0 0.1451044044
H  H2  1  0.84340000  0.72550000  0.61820000  1.0 0.1451044044
H  H3  1  0.27450000  0.84340000  0.38180000  1.0 0.1451044044
H  H4  1  0.72550000  0.15660000  0.38180000  1.0 0.1451044044
H  H5  1  0.33340000  0.32610000  0.66010000  1.0 0.1613856776
H  H6  1  0.66666667  0.67390000  0.66010000  1.0 0.1613856776
H  H7  1  0.32610000  0.66666667  0.33990000  1.0 0.1613856776
H  H8  1  0.67390000  0.33340000  0.33990000  1.0 0.1613856776
H  H9  1  0.39200000  0.01940000  0.76660000  1.0 0.1613856776
H  H10  1  0.60800000  0.98060000  0.76660000  1.0 0.1613856776
H  H11  1  0.01940000  0.60800000  0.23340000  1.0 0.1613856776
H  H12  1  0.98060000  0.39200000  0.23340000  1.0 0.1613856776
H  H13  1  0.22330000  0.94490000  0.90330000  1.0 0.170089986
H  H14  1  0.77670000  0.05510000  0.90330000  1.0 0.170089986
H  H15  1  0.94490000  0.77670000  0.09670000  1.0 0.170089986
H  H16  1  0.05510000  0.22330000  0.09670000  1.0 0.170089986
H  H17  1  0.11200000  0.65040000  0.79790000  1.0 0.1613856776
H  H18  1  0.88800000  0.34960000  0.79790000  1.0 0.1613856776
H  H19  1  0.65040000  0.88800000  0.20210000  1.0 0.1613856776
H  H20  1  0.34960000  0.11200000  0.20210000  1.0 0.1613856776
H  H21  1  0.10320000  0.71940000  0.62330000  1.0 0.1451044044
H  H22  1  0.89680000  0.28060000  0.62330000  1.0 0.1446193418
H  H23  1  0.71940000  0.89680000  0.37670000  1.0 0.1451044044
H  H24  1  0.28060000  0.10320000  0.37670000  1.0 0.1446193418
C  C1  1  0.20450000  0.22280000  0.65020000  1.0 0.0229455492
C  C2  1  0.79550000  0.77720000  0.65020000  1.0 0.0229455492
C  C3  1  0.22280000  0.79550000  0.34980000  1.0 0.0229455492
C  C4  1  0.77720000  0.20450000  0.34980000  1.0 0.0229455492
C  C5  1  0.30930000  0.25390000  0.67470000  1.0 -0.1006435735
C  C6  1  0.69070000  0.74610000  0.67470000  1.0 -0.1006435735
C  C7  1  0.25390000  0.69070000  0.32530000  1.0 -0.1006435735
C  C8  1  0.74610000  0.30930000  0.32530000  1.0 -0.1006435735
C  C9  1  0.37980000  0.17830000  0.72100000  1.0 -0.0295690341
C  C10  1  0.62020000  0.82170000  0.72100000  1.0 -0.0295690341
C  C11  1  0.17830000  0.62020000  0.27900000  1.0 -0.0295690341
C  C12  1  0.82170000  0.37980000  0.27900000  1.0 -0.0295690341
C  C13  1  0.34370000  0.07250000  0.73750000  1.0 -0.1239409486
C  C14  1  0.65630000  0.92750000  0.73750000  1.0 -0.1239409486
C  C15  1  0.07250000  0.65630000  0.26250000  1.0 -0.1239409486
C  C16  1  0.92750000  0.34370000  0.26250000  1.0 -0.1239409486
C  C17  1  0.23590000  0.04350000  0.71140000  1.0 0.103102844
C  C18  1  0.76410000  0.95650000  0.71140000  1.0 0.103102844
C  C19  1  0.04350000  0.76410000  0.28860000  1.0 0.103102844
C  C20  1  0.95650000  0.23590000  0.28860000  1.0 0.103102844
C  C21  1  0.19410000  0.93560000  0.73930000  1.0 0.1219887657
C  C22  1  0.80590000  0.06440000  0.73930000  1.0 0.1219887657
C  C23  1  0.93560000  0.80590000  0.26070000  1.0 0.1219887657
C  C24  1  0.06440000  0.19410000  0.26070000  1.0 0.1219887657
C  C25  1  0.19950000  0.89810000  0.84700000  1.0 -0.1268889943
C  C26  1  0.80050000  0.10190000  0.84700000  1.0 -0.1268889943
C  C27  1  0.89810000  0.80050000  0.15300000  1.0 -0.1268889943
C  C28  1  0.10190000  0.19950000  0.15300000  1.0 -0.1268889943
C  C29  1  0.16900000  0.79100000  0.86810000  1.0 -0.0098433981
C  C30  1  0.83100000  0.20900000  0.86810000  1.0 -0.0098433981
C  C31  1  0.79100000  0.83100000  0.13190000  1.0 -0.0098433981
C  C32  1  0.20900000  0.16900000  0.13190000  1.0 -0.0098433981
C  C33  1  0.13300000  0.72370000  0.78380000  1.0 -0.0896003136
C  C34  1  0.86700000  0.27630000  0.78380000  1.0 -0.0896003136
C  C35  1  0.72370000  0.86700000  0.21620000  1.0 -0.0896003136
C  C36  1  0.27630000  0.13300000  0.21620000  1.0 -0.0896003136
C  C37  1  0.12840000  0.76440000  0.68050000  1.0 0.0020783469
C  C38  1  0.87160000  0.23560000  0.68050000  1.0 0.0020783469
C  C39  1  0.76440000  0.87160000  0.31950000  1.0 0.0020783469
C  C40  1  0.23560000  0.12840000  0.31950000  1.0 0.0020783469
S  S1  1  0.51488000  0.21314000  0.76118000  1.0 1.1599008999
S  S2  1  0.48512000  0.78686000  0.76118000  1.0 1.1599008999
S  S3  1  0.21314000  0.48512000  0.23882000  1.0 1.1599008999
S  S4  1  0.78686000  0.51488000  0.23882000  1.0 1.1599008999
S  S5  1  0.18118000  0.73636000  0.00040000  1.0 1.1754388174
S  S6  1  0.81882000  0.26364000  0.00040000  1.0 1.1754388174
S  S7  1  0.73636000  0.81882000  0.99960000  1.0 1.1754388174
S  S8  1  0.26364000  0.18118000  0.99960000  1.0 1.1746641955
N  N1  1  0.16800000  0.12210000  0.66980000  1.0 0.3196724615
N  N2  1  0.83200000  0.87790000  0.66980000  1.0 0.3196724615
N  N3  1  0.12210000  0.83200000  0.33020000  1.0 0.3196724615
N  N4  1  0.87790000  0.16800000  0.33020000  1.0 0.3196724615
N  N5  1  0.15990000  0.86900000  0.66010000  1.0 0.2942181191
N  N6  1  0.84010000  0.13100000  0.66010000  1.0 0.2942181191
N  N7  1  0.86900000  0.84010000  0.33990000  1.0 0.2942181191
N  N8  1  0.13100000  0.15990000  0.33990000  1.0 0.2942181191
Cl  Cl1  1  0.50000000  0.50000000  0.00000000  1.0 -0.6513062755
O  O1  1  0.06580000  0.09600000  0.65320000  1.0 -0.5438173452
O  O2  1  0.93420000  0.90400000  0.65320000  1.0 -0.5438173452
O  O3  1  0.09600000  0.93420000  0.34680000  1.0 -0.5438173452
O  O4  1  0.90400000  0.06580000  0.34680000  1.0 -0.5438173452
O  O5  1  0.15520000  0.90470000  0.55940000  1.0 -0.582966041
O  O6  1  0.84480000  0.09530000  0.55940000  1.0 -0.582966041
O  O7  1  0.90470000  0.84480000  0.44060000  1.0 -0.582966041
O  O8  1  0.09530000  0.15520000  0.44060000  1.0 -0.582966041
O  O9  1  0.28060000  0.67010000  0.99620000  1.0 -0.6513062755
O  O10  1  0.71940000  0.32990000  0.99620000  1.0 -0.6513062755
O  O11  1  0.67010000  0.71940000  0.00380000  1.0 -0.6513062755
O  O12  1  0.32990000  0.28060000  0.00380000  1.0 -0.6513062755
O  O13  1  0.08370000  0.67070000  0.01400000  1.0 -0.610866938
O  O14  1  0.91630000  0.32930000  0.01400000  1.0 -0.610866938
O  O15  1  0.67070000  0.91630000  0.98600000  1.0 -0.610866938
O  O16  1  0.32930000  0.08370000  0.98600000  1.0 -0.610866938
O  O17  1  0.18810000  0.82860000  0.07140000  1.0 -0.5182488003
O  O18  1  0.81190000  0.17140000  0.07140000  1.0 -0.5182488003
O  O19  1  0.82860000  0.81190000  0.92860000  1.0 -0.5182488003
O  O20  1  0.17140000  0.18810000  0.92860000  1.0 -0.5182488003
O  O21  1  0.58330000  0.19770000  0.66850000  1.0 -0.582966041
O  O22  1  0.41670000  0.80230000  0.66850000  1.0 -0.582966041
O  O23  1  0.19770000  0.41670000  0.33150000  1.0 -0.582966041
O  O24  1  0.80230000  0.58330000  0.33150000  1.0 -0.582966041
O  O25  1  0.50890000  0.32580000  0.79800000  1.0 -0.5696273485
O  O26  1  0.49110000  0.67420000  0.79800000  1.0 -0.5696273485
O  O27  1  0.32580000  0.49110000  0.20200000  1.0 -0.5696273485
O  O28  1  0.67420000  0.50890000  0.20200000  1.0 -0.5696273485
O  O29  1  0.54070000  0.14030000  0.84900000  1.0 -0.6513062755
O  O30  1  0.45930000  0.85970000  0.84900000  1.0 -0.6513062755
O  O31  1  0.14030000  0.45930000  0.15100000  1.0 -0.6513062755
O  O32  1  0.85970000  0.54070000  0.15100000  1.0 -0.6513062755
O  O33  1  0.11500000  0.41510000  0.88420000  1.0 -0.5607854564
O  O34  1  0.88500000  0.58490000  0.88420000  1.0 -0.5607854564
O  O35  1  0.41510000  0.88500000  0.11580000  1.0 -0.5607854564
O  O36  1  0.58490000  0.11500000  0.11580000  1.0 -0.5696273485
