# DDEC6 charges by PACMAN v1.1 (https://github.com/mtap-research/PACMAN-charge/)
data_TIRKEM_ASR_pacman
_symmetry_space_group_name_H-M   'P 1'
_cell_length_a   18.21600000
_cell_length_b   18.21600000
_cell_length_c   16.48300000
_cell_angle_alpha   90.00000000
_cell_angle_beta   90.00000000
_cell_angle_gamma   90.00000000
_symmetry_Int_Tables_number   1
_chemical_formula_structural   CeH44C40N6(ClO5)2
_chemical_formula_sum   'Ce4 H176 C160 N24 Cl8 O40'
_cell_volume   5469.43283885
_cell_formula_units_Z   4
loop_
 _symmetry_equiv_pos_site_id
 _symmetry_equiv_pos_as_xyz
  1  'x, y, z'
loop_
 _atom_site_type_symbol
 _atom_site_label
 _atom_site_symmetry_multiplicity
 _atom_site_fract_x
 _atom_site_fract_y
 _atom_site_fract_z
 _atom_site_occupancy
 _atom_site_charge
Ce  Ce1  1  0.21666000  0.78334000  0.75000000  1.0 1.691481217
Ce  Ce2  1  0.78334000  0.21666000  0.25000000  1.0 1.691481217
Ce  Ce3  1  0.28334000  0.28334000  0.50000000  1.0 1.691481217
Ce  Ce4  1  0.71666000  0.71666000  0.00000000  1.0 1.691481217
H  H1  1  0.30630000  0.55540000  0.00510000  1.0 0.1097744301
H  H2  1  0.69370000  0.44460000  0.50510000  1.0 0.1097744301
H  H3  1  0.05540000  0.19370000  0.75510000  1.0 0.1097744301
H  H4  1  0.94460000  0.80630000  0.25510000  1.0 0.1097744301
H  H5  1  0.80630000  0.94460000  0.74490000  1.0 0.1097744301
H  H6  1  0.19370000  0.05540000  0.24490000  1.0 0.1097744301
H  H7  1  0.55540000  0.30630000  0.99490000  1.0 0.1097744301
H  H8  1  0.44460000  0.69370000  0.49490000  1.0 0.1097744301
H  H9  1  0.35310000  0.49620000  0.05090000  1.0 0.1097744301
H  H10  1  0.64690000  0.50380000  0.55090000  1.0 0.1097744301
H  H11  1  0.99620000  0.14690000  0.80090000  1.0 0.1097744301
H  H12  1  0.00380000  0.85310000  0.30090000  1.0 0.1097744301
H  H13  1  0.85310000  0.00380000  0.69910000  1.0 0.1097744301
H  H14  1  0.14690000  0.99620000  0.19910000  1.0 0.1097744301
H  H15  1  0.49620000  0.35310000  0.94910000  1.0 0.1097744301
H  H16  1  0.50380000  0.64690000  0.44910000  1.0 0.1097744301
H  H17  1  0.42910000  0.48320000  0.93920000  1.0 0.0994075865
H  H18  1  0.57090000  0.51680000  0.43920000  1.0 0.0994075865
H  H19  1  0.98320000  0.07090000  0.68920000  1.0 0.0994075865
H  H20  1  0.01680000  0.92910000  0.18920000  1.0 0.0994075865
H  H21  1  0.92910000  0.01680000  0.81080000  1.0 0.0994075865
H  H22  1  0.07090000  0.98320000  0.31080000  1.0 0.0994075865
H  H23  1  0.48320000  0.42910000  0.06080000  1.0 0.0994075865
H  H24  1  0.51680000  0.57090000  0.56080000  1.0 0.0994075865
H  H25  1  0.34750000  0.46870000  0.91310000  1.0 0.1097744301
H  H26  1  0.65250000  0.53130000  0.41310000  1.0 0.1097744301
H  H27  1  0.96870000  0.15250000  0.66310000  1.0 0.1097744301
H  H28  1  0.03130000  0.84750000  0.16310000  1.0 0.1097744301
H  H29  1  0.84750000  0.03130000  0.83690000  1.0 0.1097744301
H  H30  1  0.15250000  0.96870000  0.33690000  1.0 0.1097744301
H  H31  1  0.46870000  0.34750000  0.08690000  1.0 0.1097744301
H  H32  1  0.53130000  0.65250000  0.58690000  1.0 0.1097744301
H  H33  1  0.59070000  0.78420000  0.71910000  1.0 0.1207236096
H  H34  1  0.40930000  0.21580000  0.21910000  1.0 0.1207236096
H  H35  1  0.28420000  0.90930000  0.46910000  1.0 0.1207236096
H  H36  1  0.71580000  0.09070000  0.96910000  1.0 0.1207236096
H  H37  1  0.09070000  0.71580000  0.03090000  1.0 0.1207236096
H  H38  1  0.90930000  0.28420000  0.53090000  1.0 0.1207236096
H  H39  1  0.78420000  0.59070000  0.28090000  1.0 0.1207236096
H  H40  1  0.21580000  0.40930000  0.78090000  1.0 0.1207236096
H  H41  1  0.58460000  0.86160000  0.61040000  1.0 0.1207236096
H  H42  1  0.41540000  0.13840000  0.11040000  1.0 0.1207236096
H  H43  1  0.36160000  0.91540000  0.36040000  1.0 0.1207236096
H  H44  1  0.63840000  0.08460000  0.86040000  1.0 0.1207236096
H  H45  1  0.08460000  0.63840000  0.13960000  1.0 0.1207236096
H  H46  1  0.91540000  0.36160000  0.63960000  1.0 0.1207236096
H  H47  1  0.86160000  0.58460000  0.38960000  1.0 0.1207236096
H  H48  1  0.13840000  0.41540000  0.88960000  1.0 0.1207236096
H  H49  1  0.40650000  0.54640000  0.81920000  1.0 0.1207236096
H  H50  1  0.59350000  0.45360000  0.31920000  1.0 0.1207236096
H  H51  1  0.04640000  0.09350000  0.56920000  1.0 0.1207236096
H  H52  1  0.95360000  0.90650000  0.06920000  1.0 0.1207236096
H  H53  1  0.90650000  0.95360000  0.93080000  1.0 0.1207236096
H  H54  1  0.09350000  0.04640000  0.43080000  1.0 0.1207236096
H  H55  1  0.54640000  0.40650000  0.18080000  1.0 0.1207236096
H  H56  1  0.45360000  0.59350000  0.68080000  1.0 0.1207236096
H  H57  1  0.33830000  0.58550000  0.85780000  1.0 0.1299669262
H  H58  1  0.66170000  0.41450000  0.35780000  1.0 0.1207236096
H  H59  1  0.08550000  0.16170000  0.60780000  1.0 0.1207236096
H  H60  1  0.91450000  0.83830000  0.10780000  1.0 0.1207236096
H  H61  1  0.83830000  0.91450000  0.89220000  1.0 0.1207236096
H  H62  1  0.16170000  0.08550000  0.39220000  1.0 0.1207236096
H  H63  1  0.58550000  0.33830000  0.14220000  1.0 0.1207236096
H  H64  1  0.41450000  0.66170000  0.64220000  1.0 0.1207236096
H  H65  1  0.38840000  0.61500000  0.09350000  1.0 0.1207236096
H  H66  1  0.61160000  0.38500000  0.59350000  1.0 0.1207236096
H  H67  1  0.11500000  0.11160000  0.84350000  1.0 0.1207236096
H  H68  1  0.88500000  0.88840000  0.34350000  1.0 0.1207236096
H  H69  1  0.88840000  0.88500000  0.65650000  1.0 0.1207236096
H  H70  1  0.11160000  0.11500000  0.15650000  1.0 0.1207236096
H  H71  1  0.61500000  0.38840000  0.90650000  1.0 0.1207236096
H  H72  1  0.38500000  0.61160000  0.40650000  1.0 0.1207236096
H  H73  1  0.45520000  0.57570000  0.05180000  1.0 0.0994075865
H  H74  1  0.54480000  0.42430000  0.55180000  1.0 0.0994075865
H  H75  1  0.07570000  0.04480000  0.80180000  1.0 0.0994075865
H  H76  1  0.92430000  0.95520000  0.30180000  1.0 0.0994075865
H  H77  1  0.95520000  0.92430000  0.69820000  1.0 0.0994075865
H  H78  1  0.04480000  0.07570000  0.19820000  1.0 0.0994075865
H  H79  1  0.57570000  0.45520000  0.94820000  1.0 0.0994075865
H  H80  1  0.42430000  0.54480000  0.44820000  1.0 0.0994075865
H  H81  1  0.36370000  0.85780000  0.61770000  1.0 0.1299669262
H  H82  1  0.63630000  0.14220000  0.11770000  1.0 0.1299669262
H  H83  1  0.35780000  0.13630000  0.36770000  1.0 0.1299669262
H  H84  1  0.64220000  0.86370000  0.86770000  1.0 0.1299669262
H  H85  1  0.86370000  0.64220000  0.13230000  1.0 0.1299669262
H  H86  1  0.13630000  0.35780000  0.63230000  1.0 0.1299669262
H  H87  1  0.85780000  0.36370000  0.38230000  1.0 0.1299669262
H  H88  1  0.14220000  0.63630000  0.88230000  1.0 0.1299669262
H  H89  1  0.47130000  0.90010000  0.56090000  1.0 0.1097744301
H  H90  1  0.52870000  0.09990000  0.06090000  1.0 0.1097744301
H  H91  1  0.40010000  0.02870000  0.31090000  1.0 0.1097744301
H  H92  1  0.59990000  0.97130000  0.81090000  1.0 0.1097744301
H  H93  1  0.97130000  0.59990000  0.18910000  1.0 0.1097744301
H  H94  1  0.02870000  0.40010000  0.68910000  1.0 0.1097744301
H  H95  1  0.90010000  0.47130000  0.43910000  1.0 0.1097744301
H  H96  1  0.09990000  0.52870000  0.93910000  1.0 0.1097744301
H  H97  1  0.48730000  0.61390000  0.90010000  1.0 0.0703571143
H  H98  1  0.51270000  0.38610000  0.40010000  1.0 0.0703571143
H  H99  1  0.11390000  0.01270000  0.65010000  1.0 0.0703571143
H  H100  1  0.88610000  0.98730000  0.15010000  1.0 0.0703571143
H  H101  1  0.98730000  0.88610000  0.84990000  1.0 0.0703571143
H  H102  1  0.01270000  0.11390000  0.34990000  1.0 0.0703571143
H  H103  1  0.61390000  0.48730000  0.09990000  1.0 0.0703571143
H  H104  1  0.38610000  0.51270000  0.59990000  1.0 0.0703571143
H  H105  1  0.36230000  0.68080000  0.97280000  1.0 0.0994075865
H  H106  1  0.63770000  0.31920000  0.47280000  1.0 0.0994075865
H  H107  1  0.18080000  0.13770000  0.72280000  1.0 0.0994075865
H  H108  1  0.81920000  0.86230000  0.22280000  1.0 0.0994075865
H  H109  1  0.86230000  0.81920000  0.77720000  1.0 0.0994075865
H  H110  1  0.13770000  0.18080000  0.27720000  1.0 0.0994075865
H  H111  1  0.68080000  0.36230000  0.02720000  1.0 0.0994075865
H  H112  1  0.31920000  0.63770000  0.52720000  1.0 0.0994075865
H  H113  1  0.38830000  0.78330000  0.03820000  1.0 0.1097744301
H  H114  1  0.61170000  0.21670000  0.53820000  1.0 0.1097744301
H  H115  1  0.28330000  0.11170000  0.78820000  1.0 0.1097744301
H  H116  1  0.71670000  0.88830000  0.28820000  1.0 0.1097744301
H  H117  1  0.88830000  0.71670000  0.71180000  1.0 0.1097744301
H  H118  1  0.11170000  0.28330000  0.21180000  1.0 0.1097744301
H  H119  1  0.78330000  0.38830000  0.96180000  1.0 0.1097744301
H  H120  1  0.21670000  0.61170000  0.46180000  1.0 0.1097744301
H  H121  1  0.53250000  0.70880000  0.81770000  1.0 0.1097744301
H  H122  1  0.46750000  0.29120000  0.31770000  1.0 0.1097744301
H  H123  1  0.20880000  0.96750000  0.56770000  1.0 0.1097744301
H  H124  1  0.79120000  0.03250000  0.06770000  1.0 0.1097744301
H  H125  1  0.03250000  0.79120000  0.93230000  1.0 0.1097744301
H  H126  1  0.96750000  0.20880000  0.43230000  1.0 0.1097744301
H  H127  1  0.70880000  0.53250000  0.18230000  1.0 0.1097744301
H  H128  1  0.29120000  0.46750000  0.68230000  1.0 0.1097744301
H  H129  1  0.65090000  0.88430000  0.11440000  1.0 0.1299669262
H  H130  1  0.34910000  0.11570000  0.61440000  1.0 0.1299669262
H  H131  1  0.38430000  0.84910000  0.86440000  1.0 0.1299669262
H  H132  1  0.61570000  0.15090000  0.36440000  1.0 0.1299669262
H  H133  1  0.15090000  0.61570000  0.63560000  1.0 0.1299669262
H  H134  1  0.84910000  0.38430000  0.13560000  1.0 0.1299669262
H  H135  1  0.88430000  0.65090000  0.88560000  1.0 0.1299669262
H  H136  1  0.11570000  0.34910000  0.38560000  1.0 0.1299669262
H  H137  1  0.39810000  0.89860000  0.10560000  1.0 0.1207236096
H  H138  1  0.60190000  0.10140000  0.60560000  1.0 0.1207236096
H  H139  1  0.39860000  0.10190000  0.85560000  1.0 0.1207236096
H  H140  1  0.60140000  0.89810000  0.35560000  1.0 0.1207236096
H  H141  1  0.89810000  0.60140000  0.64440000  1.0 0.1207236096
H  H142  1  0.10190000  0.39860000  0.14440000  1.0 0.1207236096
H  H143  1  0.89860000  0.39810000  0.89440000  1.0 0.1207236096
H  H144  1  0.10140000  0.60190000  0.39440000  1.0 0.1207236096
H  H145  1  0.46310000  0.98870000  0.16480000  1.0 0.1207236096
H  H146  1  0.53690000  0.01130000  0.66480000  1.0 0.1207236096
H  H147  1  0.48870000  0.03690000  0.91480000  1.0 0.1207236096
H  H148  1  0.51130000  0.96310000  0.41480000  1.0 0.1207236096
H  H149  1  0.96310000  0.51130000  0.58520000  1.0 0.1207236096
H  H150  1  0.03690000  0.48870000  0.08520000  1.0 0.1207236096
H  H151  1  0.98870000  0.46310000  0.83520000  1.0 0.1207236096
H  H152  1  0.01130000  0.53690000  0.33520000  1.0 0.1207236096
H  H153  1  0.58910000  0.98080000  0.16910000  1.0 0.1097744301
H  H154  1  0.41090000  0.01920000  0.66910000  1.0 0.1097744301
H  H155  1  0.48080000  0.91090000  0.91910000  1.0 0.1097744301
H  H156  1  0.51920000  0.08910000  0.41910000  1.0 0.1097744301
H  H157  1  0.08910000  0.51920000  0.58090000  1.0 0.1097744301
H  H158  1  0.91090000  0.48080000  0.08090000  1.0 0.1097744301
H  H159  1  0.98080000  0.58910000  0.83090000  1.0 0.1097744301
H  H160  1  0.01920000  0.41090000  0.33090000  1.0 0.1097744301
H  H161  1  0.50820000  0.70680000  0.00410000  1.0 0.2380770251
H  H162  1  0.49180000  0.29320000  0.50410000  1.0 0.2380770251
H  H163  1  0.20680000  0.99180000  0.75410000  1.0 0.2380770251
H  H164  1  0.79320000  0.00820000  0.25410000  1.0 0.2380770251
H  H165  1  0.00820000  0.79320000  0.74590000  1.0 0.2380770251
H  H166  1  0.99180000  0.20680000  0.24590000  1.0 0.2380770251
H  H167  1  0.70680000  0.50820000  0.99590000  1.0 0.2380770251
H  H168  1  0.29320000  0.49180000  0.49590000  1.0 0.2380770251
H  H169  1  0.38720000  0.70280000  0.82100000  1.0 0.2745030068
H  H170  1  0.61280000  0.29720000  0.32100000  1.0 0.2745030068
H  H171  1  0.20280000  0.11280000  0.57100000  1.0 0.2745030068
H  H172  1  0.79720000  0.88720000  0.07100000  1.0 0.2745030068
H  H173  1  0.88720000  0.79720000  0.92900000  1.0 0.2745030068
H  H174  1  0.11280000  0.20280000  0.42900000  1.0 0.2745030068
H  H175  1  0.70280000  0.38720000  0.17900000  1.0 0.2745030068
H  H176  1  0.29720000  0.61280000  0.67900000  1.0 0.2745030068
C  C1  1  0.35540000  0.53560000  0.01140000  1.0 -0.1604916014
C  C2  1  0.64460000  0.46440000  0.51140000  1.0 -0.1604916014
C  C3  1  0.03560000  0.14460000  0.76140000  1.0 -0.1604916014
C  C4  1  0.96440000  0.85540000  0.26140000  1.0 -0.1604916014
C  C5  1  0.85540000  0.96440000  0.73860000  1.0 -0.1604916014
C  C6  1  0.14460000  0.03560000  0.23860000  1.0 -0.1604916014
C  C7  1  0.53560000  0.35540000  0.98860000  1.0 -0.1604916014
C  C8  1  0.46440000  0.64460000  0.48860000  1.0 -0.1604916014
C  C9  1  0.38140000  0.50600000  0.93210000  1.0 -0.1511201996
C  C10  1  0.61860000  0.49400000  0.43210000  1.0 -0.1511201996
C  C11  1  0.00600000  0.11860000  0.68210000  1.0 -0.1511201996
C  C12  1  0.99400000  0.88140000  0.18210000  1.0 -0.1511201996
C  C13  1  0.88140000  0.99400000  0.81790000  1.0 -0.1511201996
C  C14  1  0.11860000  0.00600000  0.31790000  1.0 -0.1511201996
C  C15  1  0.50600000  0.38140000  0.06790000  1.0 -0.1511201996
C  C16  1  0.49400000  0.61860000  0.56790000  1.0 -0.1511201996
C  C17  1  0.54520000  0.79810000  0.69860000  1.0 -0.1344566799
C  C18  1  0.45480000  0.20190000  0.19860000  1.0 -0.1344566799
C  C19  1  0.29810000  0.95480000  0.44860000  1.0 -0.1391496358
C  C20  1  0.70190000  0.04520000  0.94860000  1.0 -0.1344566799
C  C21  1  0.04520000  0.70190000  0.05140000  1.0 -0.1344566799
C  C22  1  0.95480000  0.29810000  0.55140000  1.0 -0.1344566799
C  C23  1  0.79810000  0.54520000  0.30140000  1.0 -0.1391496358
C  C24  1  0.20190000  0.45480000  0.80140000  1.0 -0.1344566799
C  C25  1  0.54160000  0.84470000  0.63450000  1.0 -0.1391496358
C  C26  1  0.45840000  0.15530000  0.13450000  1.0 -0.1391496358
C  C27  1  0.34470000  0.95840000  0.38450000  1.0 -0.1391496358
C  C28  1  0.65530000  0.04160000  0.88450000  1.0 -0.1391496358
C  C29  1  0.04160000  0.65530000  0.11550000  1.0 -0.1391496358
C  C30  1  0.95840000  0.34470000  0.61550000  1.0 -0.1391496358
C  C31  1  0.84470000  0.54160000  0.36550000  1.0 -0.1391496358
C  C32  1  0.15530000  0.45840000  0.86550000  1.0 -0.1391496358
C  C33  1  0.38710000  0.56680000  0.86910000  1.0 -0.2426716003
C  C34  1  0.61290000  0.43320000  0.36910000  1.0 -0.2426716003
C  C35  1  0.06680000  0.11290000  0.61910000  1.0 -0.2426716003
C  C36  1  0.93320000  0.88710000  0.11910000  1.0 -0.2426716003
C  C37  1  0.88710000  0.93320000  0.88090000  1.0 -0.2426716003
C  C38  1  0.11290000  0.06680000  0.38090000  1.0 -0.2426716003
C  C39  1  0.56680000  0.38710000  0.13090000  1.0 -0.2426716003
C  C40  1  0.43320000  0.61290000  0.63090000  1.0 -0.2426716003
C  C41  1  0.40670000  0.59590000  0.04250000  1.0 -0.2270566549
C  C42  1  0.59330000  0.40410000  0.54250000  1.0 -0.2270566549
C  C43  1  0.09590000  0.09330000  0.79250000  1.0 -0.2270566549
C  C44  1  0.90410000  0.90670000  0.29250000  1.0 -0.2270566549
C  C45  1  0.90670000  0.90410000  0.70750000  1.0 -0.2270566549
C  C46  1  0.09330000  0.09590000  0.20750000  1.0 -0.2270566549
C  C47  1  0.59590000  0.40670000  0.95750000  1.0 -0.2270566549
C  C48  1  0.40410000  0.59330000  0.45750000  1.0 -0.2270566549
C  C49  1  0.40840000  0.84210000  0.63870000  1.0 -0.2472223479
C  C50  1  0.59160000  0.15790000  0.13870000  1.0 -0.2472223479
C  C51  1  0.34210000  0.09160000  0.38870000  1.0 -0.2472223479
C  C52  1  0.65790000  0.90840000  0.88870000  1.0 -0.2472223479
C  C53  1  0.90840000  0.65790000  0.11130000  1.0 -0.2472223479
C  C54  1  0.09160000  0.34210000  0.61130000  1.0 -0.2472223479
C  C55  1  0.84210000  0.40840000  0.36130000  1.0 -0.2472223479
C  C56  1  0.15790000  0.59160000  0.86130000  1.0 -0.2472223479
C  C57  1  0.47320000  0.86760000  0.60430000  1.0 -0.0692125382
C  C58  1  0.52680000  0.13240000  0.10430000  1.0 -0.0692125382
C  C59  1  0.36760000  0.02680000  0.35430000  1.0 -0.0692125382
C  C60  1  0.63240000  0.97320000  0.85430000  1.0 -0.0692125382
C  C61  1  0.97320000  0.63240000  0.14570000  1.0 -0.0692125382
C  C62  1  0.02680000  0.36760000  0.64570000  1.0 -0.0692125382
C  C63  1  0.86760000  0.47320000  0.39570000  1.0 -0.0692125382
C  C64  1  0.13240000  0.52680000  0.89570000  1.0 -0.0692125382
C  C65  1  0.40900000  0.79330000  0.70400000  1.0 0.3204879604
C  C66  1  0.59100000  0.20670000  0.20400000  1.0 0.3204879604
C  C67  1  0.29330000  0.09100000  0.45400000  1.0 0.3204879604
C  C68  1  0.70670000  0.90900000  0.95400000  1.0 0.3204879604
C  C69  1  0.90900000  0.70670000  0.04600000  1.0 0.3204879604
C  C70  1  0.09100000  0.29330000  0.54600000  1.0 0.3204879604
C  C71  1  0.79330000  0.40900000  0.29600000  1.0 0.3204879604
C  C72  1  0.20670000  0.59100000  0.79600000  1.0 0.3204879604
C  C73  1  0.43630000  0.63070000  0.89640000  1.0 0.047716913
C  C74  1  0.56370000  0.36930000  0.39640000  1.0 0.047716913
C  C75  1  0.13070000  0.06370000  0.64640000  1.0 0.047716913
C  C76  1  0.86930000  0.93630000  0.14640000  1.0 0.047716913
C  C77  1  0.93630000  0.86930000  0.85360000  1.0 0.047716913
C  C78  1  0.06370000  0.13070000  0.35360000  1.0 0.047716913
C  C79  1  0.63070000  0.43630000  0.10360000  1.0 0.047716913
C  C80  1  0.36930000  0.56370000  0.60360000  1.0 0.047716913
C  C81  1  0.41110000  0.65880000  0.97870000  1.0 0.047716913
C  C82  1  0.58890000  0.34120000  0.47870000  1.0 0.047716913
C  C83  1  0.15880000  0.08890000  0.72870000  1.0 0.047716913
C  C84  1  0.84120000  0.91110000  0.22870000  1.0 0.047716913
C  C85  1  0.91110000  0.84120000  0.77130000  1.0 0.047716913
C  C86  1  0.08890000  0.15880000  0.27130000  1.0 0.047716913
C  C87  1  0.65880000  0.41110000  0.02130000  1.0 0.047716913
C  C88  1  0.34120000  0.58890000  0.52130000  1.0 0.047716913
C  C89  1  0.48270000  0.83250000  0.07240000  1.0 -0.0608144032
C  C90  1  0.51730000  0.16750000  0.57240000  1.0 -0.0608144032
C  C91  1  0.33250000  0.01730000  0.82240000  1.0 -0.0608144032
C  C92  1  0.66750000  0.98270000  0.32240000  1.0 -0.0608144032
C  C93  1  0.98270000  0.66750000  0.67760000  1.0 -0.0608144032
C  C94  1  0.01730000  0.33250000  0.17760000  1.0 -0.0608144032
C  C95  1  0.83250000  0.48270000  0.92760000  1.0 -0.0608144032
C  C96  1  0.16750000  0.51730000  0.42760000  1.0 -0.0608144032
C  C97  1  0.43880000  0.77570000  0.03830000  1.0 0.088756921
C  C98  1  0.56120000  0.22430000  0.53830000  1.0 0.088756921
C  C99  1  0.27570000  0.06120000  0.78830000  1.0 0.088756921
C  C100  1  0.72430000  0.93880000  0.28830000  1.0 0.088756921
C  C101  1  0.93880000  0.72430000  0.71170000  1.0 0.088756921
C  C102  1  0.06120000  0.27570000  0.21170000  1.0 0.088756921
C  C103  1  0.77570000  0.43880000  0.96170000  1.0 0.088756921
C  C104  1  0.22430000  0.56120000  0.46170000  1.0 0.088756921
C  C105  1  0.48020000  0.77060000  0.73460000  1.0 -0.0692125382
C  C106  1  0.51980000  0.22940000  0.23460000  1.0 -0.0692125382
C  C107  1  0.27060000  0.01980000  0.48460000  1.0 -0.0692125382
C  C108  1  0.72940000  0.98020000  0.98460000  1.0 -0.0692125382
C  C109  1  0.98020000  0.72940000  0.01540000  1.0 -0.0692125382
C  C110  1  0.01980000  0.27060000  0.51540000  1.0 -0.0692125382
C  C111  1  0.77060000  0.48020000  0.26540000  1.0 -0.0692125382
C  C112  1  0.22940000  0.51980000  0.76540000  1.0 -0.0692125382
C  C113  1  0.48570000  0.72030000  0.79910000  1.0 0.0703571143
C  C114  1  0.51430000  0.27970000  0.29910000  1.0 0.0703571143
C  C115  1  0.22030000  0.01430000  0.54910000  1.0 0.0703571143
C  C116  1  0.77970000  0.98570000  0.04910000  1.0 0.0703571143
C  C117  1  0.98570000  0.77970000  0.95090000  1.0 0.0703571143
C  C118  1  0.01430000  0.22030000  0.45090000  1.0 0.0703571143
C  C119  1  0.72030000  0.48570000  0.20090000  1.0 0.0703571143
C  C120  1  0.27970000  0.51430000  0.70090000  1.0 0.0703571143
C  C121  1  0.59990000  0.88540000  0.11160000  1.0 -0.2201569118
C  C122  1  0.40010000  0.11460000  0.61160000  1.0 -0.2201569118
C  C123  1  0.38540000  0.90010000  0.86160000  1.0 -0.2201569118
C  C124  1  0.61460000  0.09990000  0.36160000  1.0 -0.2201569118
C  C125  1  0.09990000  0.61460000  0.63840000  1.0 -0.2201569118
C  C126  1  0.90010000  0.38540000  0.13840000  1.0 -0.2201569118
C  C127  1  0.88540000  0.59990000  0.88840000  1.0 -0.2201569118
C  C128  1  0.11460000  0.40010000  0.38840000  1.0 -0.2201569118
C  C129  1  0.56240000  0.82750000  0.07380000  1.0 0.3491807573
C  C130  1  0.43760000  0.17250000  0.57380000  1.0 0.3491807573
C  C131  1  0.32750000  0.93760000  0.82380000  1.0 0.3491807573
C  C132  1  0.67250000  0.06240000  0.32380000  1.0 0.3491807573
C  C133  1  0.06240000  0.67250000  0.67620000  1.0 0.3491807573
C  C134  1  0.93760000  0.32750000  0.17620000  1.0 0.3491807573
C  C135  1  0.82750000  0.56240000  0.92620000  1.0 0.3491807573
C  C136  1  0.17250000  0.43760000  0.42620000  1.0 0.3491807573
C  C137  1  0.44900000  0.89490000  0.10720000  1.0 -0.1511201996
C  C138  1  0.55100000  0.10510000  0.60720000  1.0 -0.1511201996
C  C139  1  0.39490000  0.05100000  0.85720000  1.0 -0.1511201996
C  C140  1  0.60510000  0.94900000  0.35720000  1.0 -0.1511201996
C  C141  1  0.94900000  0.60510000  0.64280000  1.0 -0.1511201996
C  C142  1  0.05100000  0.39490000  0.14280000  1.0 -0.1511201996
C  C143  1  0.89490000  0.44900000  0.89280000  1.0 -0.1511201996
C  C144  1  0.10510000  0.55100000  0.39280000  1.0 -0.1511201996
C  C145  1  0.48700000  0.94840000  0.14220000  1.0 -0.1344566799
C  C146  1  0.51300000  0.05160000  0.64220000  1.0 -0.1391496358
C  C147  1  0.44840000  0.01300000  0.89220000  1.0 -0.1344566799
C  C148  1  0.55160000  0.98700000  0.39220000  1.0 -0.1391496358
C  C149  1  0.98700000  0.55160000  0.60780000  1.0 -0.1391496358
C  C150  1  0.01300000  0.44840000  0.10780000  1.0 -0.1344566799
C  C151  1  0.94840000  0.48700000  0.85780000  1.0 -0.1391496358
C  C152  1  0.05160000  0.51300000  0.35780000  1.0 -0.1391496358
C  C153  1  0.56260000  0.94340000  0.14440000  1.0 -0.0856927938
C  C154  1  0.43740000  0.05660000  0.64440000  1.0 -0.0843308426
C  C155  1  0.44340000  0.93740000  0.89440000  1.0 -0.0856927938
C  C156  1  0.55660000  0.06260000  0.39440000  1.0 -0.0843308426
C  C157  1  0.06260000  0.55660000  0.60560000  1.0 -0.0856927938
C  C158  1  0.93740000  0.44340000  0.10560000  1.0 -0.0843308426
C  C159  1  0.94340000  0.56260000  0.85560000  1.0 -0.0843308426
C  C160  1  0.05660000  0.43740000  0.35560000  1.0 -0.0856927938
N  N1  1  0.46170000  0.71460000  0.00760000  1.0 -0.2201569118
N  N2  1  0.53830000  0.28540000  0.50760000  1.0 -0.2201569118
N  N3  1  0.21460000  0.03830000  0.75760000  1.0 -0.2201569118
N  N4  1  0.78540000  0.96170000  0.25760000  1.0 -0.2201569118
N  N5  1  0.96170000  0.78540000  0.74240000  1.0 -0.2201569118
N  N6  1  0.03830000  0.21460000  0.24240000  1.0 -0.2201569118
N  N7  1  0.71460000  0.46170000  0.99240000  1.0 -0.2201569118
N  N8  1  0.28540000  0.53830000  0.49240000  1.0 -0.2201569118
N  N9  1  0.43050000  0.68870000  0.83460000  1.0 -0.2201569118
N  N10  1  0.56950000  0.31130000  0.33460000  1.0 -0.2201569118
N  N11  1  0.18870000  0.06950000  0.58460000  1.0 -0.2201569118
N  N12  1  0.81130000  0.93050000  0.08460000  1.0 -0.2201569118
N  N13  1  0.93050000  0.81130000  0.91540000  1.0 -0.2201569118
N  N14  1  0.06950000  0.18870000  0.41540000  1.0 -0.2201569118
N  N15  1  0.68870000  0.43050000  0.16540000  1.0 -0.2201569118
N  N16  1  0.31130000  0.56950000  0.66540000  1.0 -0.2201569118
N  N17  1  0.22330000  0.76370000  0.93380000  1.0 0.7037523531
N  N18  1  0.77670000  0.23630000  0.43380000  1.0 0.7037523531
N  N19  1  0.26370000  0.27670000  0.68380000  1.0 0.7037523531
N  N20  1  0.73630000  0.72330000  0.18380000  1.0 0.7037523531
N  N21  1  0.72330000  0.73630000  0.81620000  1.0 0.7037523531
N  N22  1  0.27670000  0.26370000  0.31620000  1.0 0.7037523531
N  N23  1  0.76370000  0.22330000  0.06620000  1.0 0.7037523531
N  N24  1  0.23630000  0.77670000  0.56620000  1.0 0.7037523531
Cl  Cl1  1  0.11070000  0.89960000  0.74220000  1.0 -0.0993427064
Cl  Cl2  1  0.88930000  0.10040000  0.24220000  1.0 -0.0993427064
Cl  Cl3  1  0.39960000  0.38930000  0.49220000  1.0 -0.0993427064
Cl  Cl4  1  0.60040000  0.61070000  0.99220000  1.0 -0.0993427064
Cl  Cl5  1  0.61070000  0.60040000  0.00780000  1.0 -0.0993427064
Cl  Cl6  1  0.38930000  0.39960000  0.50780000  1.0 -0.0993427064
Cl  Cl7  1  0.89960000  0.11070000  0.25780000  1.0 -0.0993427064
Cl  Cl8  1  0.10040000  0.88930000  0.75780000  1.0 -0.0993427064
O  O1  1  0.22590000  0.75150000  0.00750000  1.0 -0.4018162645
O  O2  1  0.77410000  0.24850000  0.50750000  1.0 -0.4018162645
O  O3  1  0.25150000  0.27410000  0.75750000  1.0 -0.4018162645
O  O4  1  0.74850000  0.72590000  0.25750000  1.0 -0.4018162645
O  O5  1  0.72590000  0.74850000  0.74250000  1.0 -0.4018162645
O  O6  1  0.27410000  0.25150000  0.24250000  1.0 -0.4018162645
O  O7  1  0.75150000  0.22590000  0.99250000  1.0 -0.4018162645
O  O8  1  0.24850000  0.77410000  0.49250000  1.0 -0.4018162645
O  O9  1  0.16370000  0.77630000  0.89800000  1.0 -0.4937901206
O  O10  1  0.83630000  0.22370000  0.39800000  1.0 -0.4937901206
O  O11  1  0.27630000  0.33630000  0.64800000  1.0 -0.4937901206
O  O12  1  0.72370000  0.66370000  0.14800000  1.0 -0.4937901206
O  O13  1  0.66370000  0.72370000  0.85200000  1.0 -0.4937901206
O  O14  1  0.33630000  0.27630000  0.35200000  1.0 -0.4937901206
O  O15  1  0.77630000  0.16370000  0.10200000  1.0 -0.4937901206
O  O16  1  0.22370000  0.83630000  0.60200000  1.0 -0.4937901206
O  O17  1  0.34874000  0.76550000  0.73500000  1.0 -0.6094882347
O  O18  1  0.65126000  0.23450000  0.23500000  1.0 -0.6094882347
O  O19  1  0.26550000  0.15126000  0.48500000  1.0 -0.6094882347
O  O20  1  0.73450000  0.84874000  0.98500000  1.0 -0.6094882347
O  O21  1  0.84874000  0.73450000  0.01500000  1.0 -0.6094882347
O  O22  1  0.15126000  0.26550000  0.51500000  1.0 -0.6094882347
O  O23  1  0.76550000  0.34874000  0.26500000  1.0 -0.6094882347
O  O24  1  0.23450000  0.65126000  0.76500000  1.0 -0.6094882347
O  O25  1  0.28030000  0.75910000  0.89190000  1.0 -0.4531889826
O  O26  1  0.71970000  0.24090000  0.39190000  1.0 -0.4531889826
O  O27  1  0.25910000  0.21970000  0.64190000  1.0 -0.4531889826
O  O28  1  0.74090000  0.78030000  0.14190000  1.0 -0.4531889826
O  O29  1  0.78030000  0.74090000  0.85810000  1.0 -0.4531889826
O  O30  1  0.21970000  0.25910000  0.35810000  1.0 -0.4531889826
O  O31  1  0.75910000  0.28030000  0.10810000  1.0 -0.4531889826
O  O32  1  0.24090000  0.71970000  0.60810000  1.0 -0.4531889826
O  O33  1  0.59590000  0.77120000  0.04050000  1.0 -0.6353653528
O  O34  1  0.40410000  0.22880000  0.54050000  1.0 -0.6353653528
O  O35  1  0.27120000  0.90410000  0.79050000  1.0 -0.6353653528
O  O36  1  0.72880000  0.09590000  0.29050000  1.0 -0.6353653528
O  O37  1  0.09590000  0.72880000  0.70950000  1.0 -0.6353653528
O  O38  1  0.90410000  0.27120000  0.20950000  1.0 -0.6344002343
O  O39  1  0.77120000  0.59590000  0.95950000  1.0 -0.6353653528
O  O40  1  0.22880000  0.40410000  0.45950000  1.0 -0.6353653528
