# DDEC6 charges by PACMAN v1.1 (https://github.com/mtap-research/PACMAN-charge/)
data_TIVYAZ01_ASR_pacman
_symmetry_space_group_name_H-M   'P 1'
_cell_length_a   15.04100000
_cell_length_b   23.86200000
_cell_length_c   28.47900000
_cell_angle_alpha   90.00000000
_cell_angle_beta   90.00000000
_cell_angle_gamma   90.00000000
_symmetry_Int_Tables_number   1
_chemical_formula_structural   Co6H12C36O25
_chemical_formula_sum   'Co24 H48 C144 O100'
_cell_volume   10221.35067182
_cell_formula_units_Z   4
loop_
 _symmetry_equiv_pos_site_id
 _symmetry_equiv_pos_as_xyz
  1  'x, y, z'
loop_
 _atom_site_type_symbol
 _atom_site_label
 _atom_site_symmetry_multiplicity
 _atom_site_fract_x
 _atom_site_fract_y
 _atom_site_fract_z
 _atom_site_occupancy
 _atom_site_charge
Co  Co1  1  0.40901000  0.14473000  0.02213000  1.0 1.0458757813
Co  Co2  1  0.90901000  0.35527000  0.97787000  1.0 1.0447741683
Co  Co3  1  0.09099000  0.64473000  0.47787000  1.0 1.0447741683
Co  Co4  1  0.59099000  0.85527000  0.52213000  1.0 1.0458757813
Co  Co5  1  0.59099000  0.85527000  0.97787000  1.0 1.0458757813
Co  Co6  1  0.09099000  0.64473000  0.02213000  1.0 1.0447741683
Co  Co7  1  0.90901000  0.35527000  0.52213000  1.0 1.0447741683
Co  Co8  1  0.40901000  0.14473000  0.47787000  1.0 1.0458757813
Co  Co9  1  0.25365000  0.20501000  0.93685000  1.0 1.1000051236
Co  Co10  1  0.75365000  0.29499000  0.06315000  1.0 1.1000051236
Co  Co11  1  0.24635000  0.70501000  0.56315000  1.0 1.0932264264
Co  Co12  1  0.74635000  0.79499000  0.43685000  1.0 1.1000051236
Co  Co13  1  0.74635000  0.79499000  0.06315000  1.0 1.1000051236
Co  Co14  1  0.24635000  0.70501000  0.93685000  1.0 1.0932264264
Co  Co15  1  0.75365000  0.29499000  0.43685000  1.0 1.1000051236
Co  Co16  1  0.25365000  0.20501000  0.56315000  1.0 1.1000051236
Co  Co17  1  0.89878000  0.12217000  0.25000000  1.0 1.1762916084
Co  Co18  1  0.39878000  0.37783000  0.75000000  1.0 1.1762916084
Co  Co19  1  0.60122000  0.62217000  0.25000000  1.0 1.1762916084
Co  Co20  1  0.10122000  0.87783000  0.75000000  1.0 1.1762916084
Co  Co21  1  0.11194000  0.05624000  0.25000000  1.0 1.2019586797
Co  Co22  1  0.61194000  0.44376000  0.75000000  1.0 1.2019586797
Co  Co23  1  0.38806000  0.55624000  0.25000000  1.0 1.2019586797
Co  Co24  1  0.88806000  0.94376000  0.75000000  1.0 1.2019586797
H  H1  1  0.95360000  0.21730000  0.12880000  1.0 0.1196256537
H  H2  1  0.45360000  0.28270000  0.87120000  1.0 0.1196256537
H  H3  1  0.54640000  0.71730000  0.37120000  1.0 0.1196256537
H  H4  1  0.04640000  0.78270000  0.62880000  1.0 0.1196256537
H  H5  1  0.04640000  0.78270000  0.87120000  1.0 0.1196256537
H  H6  1  0.54640000  0.71730000  0.12880000  1.0 0.1196256537
H  H7  1  0.45360000  0.28270000  0.62880000  1.0 0.1196256537
H  H8  1  0.95360000  0.21730000  0.37120000  1.0 0.1196256537
H  H9  1  0.12560000  0.24970000  0.02370000  1.0 0.1287258557
H  H10  1  0.62560000  0.25030000  0.97630000  1.0 0.1287258557
H  H11  1  0.37440000  0.74970000  0.47630000  1.0 0.1287258557
H  H12  1  0.87440000  0.75030000  0.52370000  1.0 0.1287258557
H  H13  1  0.87440000  0.75030000  0.97630000  1.0 0.1287258557
H  H14  1  0.37440000  0.74970000  0.02370000  1.0 0.1287258557
H  H15  1  0.62560000  0.25030000  0.52370000  1.0 0.1287258557
H  H16  1  0.12560000  0.24970000  0.47630000  1.0 0.1287258557
H  H17  1  0.19560000  0.14700000  0.13000000  1.0 0.1196256537
H  H18  1  0.69560000  0.35300000  0.87000000  1.0 0.1196256537
H  H19  1  0.30440000  0.64700000  0.37000000  1.0 0.1196256537
H  H20  1  0.80440000  0.85300000  0.63000000  1.0 0.1196256537
H  H21  1  0.80440000  0.85300000  0.87000000  1.0 0.1196256537
H  H22  1  0.30440000  0.64700000  0.13000000  1.0 0.1196256537
H  H23  1  0.69560000  0.35300000  0.63000000  1.0 0.1196256537
H  H24  1  0.19560000  0.14700000  0.37000000  1.0 0.1196256537
H  H25  1  0.79620000  0.95860000  0.12150000  1.0 0.1196256537
H  H26  1  0.29620000  0.54140000  0.87850000  1.0 0.1196256537
H  H27  1  0.70380000  0.45860000  0.37850000  1.0 0.1196256537
H  H28  1  0.20380000  0.04140000  0.62150000  1.0 0.1196256537
H  H29  1  0.20380000  0.04140000  0.87850000  1.0 0.1196256537
H  H30  1  0.70380000  0.45860000  0.12150000  1.0 0.1196256537
H  H31  1  0.29620000  0.54140000  0.62150000  1.0 0.1196256537
H  H32  1  0.79620000  0.95860000  0.37850000  1.0 0.1196256537
H  H33  1  0.59300000  0.00970000  0.04040000  1.0 0.1287258557
H  H34  1  0.09300000  0.49030000  0.95960000  1.0 0.1287258557
H  H35  1  0.90700000  0.50970000  0.45960000  1.0 0.1287258557
H  H36  1  0.40700000  0.99030000  0.54040000  1.0 0.1287258557
H  H37  1  0.40700000  0.99030000  0.95960000  1.0 0.1287258557
H  H38  1  0.90700000  0.50970000  0.04040000  1.0 0.1287258557
H  H39  1  0.09300000  0.49030000  0.54040000  1.0 0.1287258557
H  H40  1  0.59300000  0.00970000  0.45960000  1.0 0.1287258557
H  H41  1  0.69380000  0.11330000  0.13830000  1.0 0.1196256537
H  H42  1  0.19380000  0.38670000  0.86170000  1.0 0.1196256537
H  H43  1  0.80620000  0.61330000  0.36170000  1.0 0.1196256537
H  H44  1  0.30620000  0.88670000  0.63830000  1.0 0.1196256537
H  H45  1  0.30620000  0.88670000  0.86170000  1.0 0.1196256537
H  H46  1  0.80620000  0.61330000  0.13830000  1.0 0.1196256537
H  H47  1  0.19380000  0.38670000  0.63830000  1.0 0.1196256537
H  H48  1  0.69380000  0.11330000  0.36170000  1.0 0.1196256537
C  C1  1  0.04780000  0.14680000  0.18110000  1.0 0.5988471742
C  C2  1  0.54780000  0.35320000  0.81890000  1.0 0.5988471742
C  C3  1  0.45220000  0.64680000  0.31890000  1.0 0.5988471742
C  C4  1  0.95220000  0.85320000  0.68110000  1.0 0.5988471742
C  C5  1  0.95220000  0.85320000  0.81890000  1.0 0.5988471742
C  C6  1  0.45220000  0.64680000  0.18110000  1.0 0.5988471742
C  C7  1  0.54780000  0.35320000  0.68110000  1.0 0.5988471742
C  C8  1  0.04780000  0.14680000  0.31890000  1.0 0.5988471742
C  C9  1  0.07130000  0.17740000  0.13632000  1.0 -0.0295231937
C  C10  1  0.57130000  0.32260000  0.86368000  1.0 -0.0295231937
C  C11  1  0.42870000  0.67740000  0.36368000  1.0 -0.0295231937
C  C12  1  0.92870000  0.82260000  0.63632000  1.0 -0.0295231937
C  C13  1  0.92870000  0.82260000  0.86368000  1.0 -0.0230049541
C  C14  1  0.42870000  0.67740000  0.13632000  1.0 -0.0295231937
C  C15  1  0.57130000  0.32260000  0.63632000  1.0 -0.0295231937
C  C16  1  0.07130000  0.17740000  0.36368000  1.0 -0.0295231937
C  C17  1  0.00910000  0.21230000  0.11501000  1.0 -0.0893593225
C  C18  1  0.50910000  0.28770000  0.88499000  1.0 -0.0893593225
C  C19  1  0.49090000  0.71230000  0.38499000  1.0 -0.0893593225
C  C20  1  0.99090000  0.78770000  0.61501000  1.0 -0.0893593225
C  C21  1  0.99090000  0.78770000  0.88499000  1.0 -0.0893593225
C  C22  1  0.49090000  0.71230000  0.11501000  1.0 -0.0893593225
C  C23  1  0.50910000  0.28770000  0.61501000  1.0 -0.0893593225
C  C24  1  0.00910000  0.21230000  0.38499000  1.0 -0.0893593225
C  C25  1  0.02940000  0.23989000  0.07292000  1.0 -0.0295231937
C  C26  1  0.52940000  0.26011000  0.92708000  1.0 -0.0295231937
C  C27  1  0.47060000  0.73989000  0.42708000  1.0 -0.0295231937
C  C28  1  0.97060000  0.76011000  0.57292000  1.0 -0.0295231937
C  C29  1  0.97060000  0.76011000  0.92708000  1.0 -0.0295231937
C  C30  1  0.47060000  0.73989000  0.07292000  1.0 -0.0295231937
C  C31  1  0.52940000  0.26011000  0.57292000  1.0 -0.0295231937
C  C32  1  0.02940000  0.23989000  0.42708000  1.0 -0.0295231937
C  C33  1  0.11200000  0.23183000  0.05183000  1.0 -0.1072067778
C  C34  1  0.61200000  0.26817000  0.94817000  1.0 -0.1072067778
C  C35  1  0.38800000  0.73183000  0.44817000  1.0 -0.1072067778
C  C36  1  0.88800000  0.76817000  0.55183000  1.0 -0.1072067778
C  C37  1  0.88800000  0.76817000  0.94817000  1.0 -0.1072067778
C  C38  1  0.38800000  0.73183000  0.05183000  1.0 -0.1043312032
C  C39  1  0.61200000  0.26817000  0.55183000  1.0 -0.1072067778
C  C40  1  0.11200000  0.23183000  0.44817000  1.0 -0.1072067778
C  C41  1  0.17400000  0.19667000  0.07334000  1.0 -0.0295231937
C  C42  1  0.67400000  0.30333000  0.92666000  1.0 -0.0295231937
C  C43  1  0.32600000  0.69667000  0.42666000  1.0 -0.0295231937
C  C44  1  0.82600000  0.80333000  0.57334000  1.0 -0.0295231937
C  C45  1  0.82600000  0.80333000  0.92666000  1.0 -0.0295231937
C  C46  1  0.32600000  0.69667000  0.07334000  1.0 -0.0295231937
C  C47  1  0.67400000  0.30333000  0.57334000  1.0 -0.0295231937
C  C48  1  0.17400000  0.19667000  0.42666000  1.0 -0.0295231937
C  C49  1  0.15360000  0.16995000  0.11565000  1.0 -0.0893593225
C  C50  1  0.65360000  0.33005000  0.88435000  1.0 -0.0893593225
C  C51  1  0.34640000  0.66995000  0.38435000  1.0 -0.0893593225
C  C52  1  0.84640000  0.83005000  0.61565000  1.0 -0.0893593225
C  C53  1  0.84640000  0.83005000  0.88435000  1.0 -0.0893593225
C  C54  1  0.34640000  0.66995000  0.11565000  1.0 -0.0893593225
C  C55  1  0.65360000  0.33005000  0.61565000  1.0 -0.0893593225
C  C56  1  0.15360000  0.16995000  0.38435000  1.0 -0.0893593225
C  C57  1  0.26250000  0.18559000  0.05085000  1.0 0.5812832053
C  C58  1  0.76250000  0.31441000  0.94915000  1.0 0.5812832053
C  C59  1  0.23750000  0.68559000  0.44915000  1.0 0.5812832053
C  C60  1  0.73750000  0.81441000  0.55085000  1.0 0.5812832053
C  C61  1  0.73750000  0.81441000  0.94915000  1.0 0.5812832053
C  C62  1  0.23750000  0.68559000  0.05085000  1.0 0.5812832053
C  C63  1  0.76250000  0.31441000  0.55085000  1.0 0.5812832053
C  C64  1  0.26250000  0.18559000  0.44915000  1.0 0.5812832053
C  C65  1  0.96050000  0.27783000  0.05128000  1.0 0.5988471742
C  C66  1  0.46050000  0.22217000  0.94872000  1.0 0.5988471742
C  C67  1  0.53950000  0.77783000  0.44872000  1.0 0.5988471742
C  C68  1  0.03950000  0.72217000  0.55128000  1.0 0.5988471742
C  C69  1  0.03950000  0.72217000  0.94872000  1.0 0.5988471742
C  C70  1  0.53950000  0.77783000  0.05128000  1.0 0.5988471742
C  C71  1  0.46050000  0.22217000  0.55128000  1.0 0.5988471742
C  C72  1  0.96050000  0.27783000  0.44872000  1.0 0.5988471742
C  C73  1  0.82270000  0.04840000  0.17425000  1.0 0.5419273461
C  C74  1  0.32270000  0.45160000  0.82575000  1.0 0.5419273461
C  C75  1  0.67730000  0.54840000  0.32575000  1.0 0.5419273461
C  C76  1  0.17730000  0.95160000  0.67425000  1.0 0.5419273461
C  C77  1  0.17730000  0.95160000  0.82575000  1.0 0.5419273461
C  C78  1  0.67730000  0.54840000  0.17425000  1.0 0.5419273461
C  C79  1  0.32270000  0.45160000  0.67425000  1.0 0.5419273461
C  C80  1  0.82270000  0.04840000  0.32575000  1.0 0.5419273461
C  C81  1  0.75610000  0.03770000  0.13562000  1.0 -0.0045583694
C  C82  1  0.25610000  0.46230000  0.86438000  1.0 -0.0085867919
C  C83  1  0.74390000  0.53770000  0.36438000  1.0 -0.0085867919
C  C84  1  0.24390000  0.96230000  0.63562000  1.0 -0.0045583694
C  C85  1  0.24390000  0.96230000  0.86438000  1.0 -0.0045583694
C  C86  1  0.74390000  0.53770000  0.13562000  1.0 -0.0085867919
C  C87  1  0.25610000  0.46230000  0.63562000  1.0 -0.0085867919
C  C88  1  0.75610000  0.03770000  0.36438000  1.0 -0.0045583694
C  C89  1  0.75560000  0.98612000  0.11280000  1.0 -0.1072067778
C  C90  1  0.25560000  0.51388000  0.88720000  1.0 -0.1072067778
C  C91  1  0.74440000  0.48612000  0.38720000  1.0 -0.1072067778
C  C92  1  0.24440000  0.01388000  0.61280000  1.0 -0.1043312032
C  C93  1  0.24440000  0.01388000  0.88720000  1.0 -0.1043312032
C  C94  1  0.74440000  0.48612000  0.11280000  1.0 -0.1072067778
C  C95  1  0.25560000  0.51388000  0.61280000  1.0 -0.1072067778
C  C96  1  0.75560000  0.98612000  0.38720000  1.0 -0.1072067778
C  C97  1  0.69460000  0.97547000  0.07698000  1.0 -0.0230049541
C  C98  1  0.19460000  0.52453000  0.92302000  1.0 -0.0230049541
C  C99  1  0.80540000  0.47547000  0.42302000  1.0 -0.0230049541
C  C100  1  0.30540000  0.02453000  0.57698000  1.0 -0.0295231937
C  C101  1  0.30540000  0.02453000  0.92302000  1.0 -0.0295231937
C  C102  1  0.80540000  0.47547000  0.07698000  1.0 -0.0230049541
C  C103  1  0.19460000  0.52453000  0.57698000  1.0 -0.0230049541
C  C104  1  0.69460000  0.97547000  0.42302000  1.0 -0.0230049541
C  C105  1  0.63330000  0.01663000  0.06450000  1.0 -0.1043312032
C  C106  1  0.13330000  0.48337000  0.93550000  1.0 -0.1043312032
C  C107  1  0.86670000  0.51663000  0.43550000  1.0 -0.1043312032
C  C108  1  0.36670000  0.98337000  0.56450000  1.0 -0.1043312032
C  C109  1  0.36670000  0.98337000  0.93550000  1.0 -0.1043312032
C  C110  1  0.86670000  0.51663000  0.06450000  1.0 -0.1043312032
C  C111  1  0.13330000  0.48337000  0.56450000  1.0 -0.1043312032
C  C112  1  0.63330000  0.01663000  0.43550000  1.0 -0.1043312032
C  C113  1  0.63190000  0.06794000  0.08765000  1.0 -0.0230049541
C  C114  1  0.13190000  0.43206000  0.91235000  1.0 -0.0230049541
C  C115  1  0.86810000  0.56794000  0.41235000  1.0 -0.0230049541
C  C116  1  0.36810000  0.93206000  0.58765000  1.0 -0.0230049541
C  C117  1  0.36810000  0.93206000  0.91235000  1.0 -0.0230049541
C  C118  1  0.86810000  0.56794000  0.08765000  1.0 -0.0230049541
C  C119  1  0.13190000  0.43206000  0.58765000  1.0 -0.0230049541
C  C120  1  0.63190000  0.06794000  0.41235000  1.0 -0.0230049541
C  C121  1  0.69380000  0.07885000  0.12308000  1.0 -0.1072067778
C  C122  1  0.19380000  0.42115000  0.87692000  1.0 -0.1072067778
C  C123  1  0.80620000  0.57885000  0.37692000  1.0 -0.1072067778
C  C124  1  0.30620000  0.92115000  0.62308000  1.0 -0.1072067778
C  C125  1  0.30620000  0.92115000  0.87692000  1.0 -0.1072067778
C  C126  1  0.80620000  0.57885000  0.12308000  1.0 -0.1072067778
C  C127  1  0.19380000  0.42115000  0.62308000  1.0 -0.1072067778
C  C128  1  0.69380000  0.07885000  0.37692000  1.0 -0.1072067778
C  C129  1  0.69170000  0.91910000  0.05346000  1.0 0.5988471742
C  C130  1  0.19170000  0.58090000  0.94654000  1.0 0.5988471742
C  C131  1  0.80830000  0.41910000  0.44654000  1.0 0.5988471742
C  C132  1  0.30830000  0.08090000  0.55346000  1.0 0.5988471742
C  C133  1  0.30830000  0.08090000  0.94654000  1.0 0.5988471742
C  C134  1  0.80830000  0.41910000  0.05346000  1.0 0.5988471742
C  C135  1  0.19170000  0.58090000  0.55346000  1.0 0.5988471742
C  C136  1  0.69170000  0.91910000  0.44654000  1.0 0.5988471742
C  C137  1  0.56280000  0.11118000  0.07418000  1.0 0.5471307273
C  C138  1  0.06280000  0.38882000  0.92582000  1.0 0.5471307273
C  C139  1  0.93720000  0.61118000  0.42582000  1.0 0.5471307273
C  C140  1  0.43720000  0.88882000  0.57418000  1.0 0.5471307273
C  C141  1  0.43720000  0.88882000  0.92582000  1.0 0.5471307273
C  C142  1  0.93720000  0.61118000  0.07418000  1.0 0.5471307273
C  C143  1  0.06280000  0.38882000  0.57418000  1.0 0.5471307273
C  C144  1  0.56280000  0.11118000  0.42582000  1.0 0.5471307273
O  O1  1  0.97220000  0.15732000  0.19803000  1.0 -0.5504269598
O  O2  1  0.47220000  0.34268000  0.80197000  1.0 -0.5504269598
O  O3  1  0.52780000  0.65732000  0.30197000  1.0 -0.5504269598
O  O4  1  0.02780000  0.84268000  0.69803000  1.0 -0.5504269598
O  O5  1  0.02780000  0.84268000  0.80197000  1.0 -0.5504269598
O  O6  1  0.52780000  0.65732000  0.19803000  1.0 -0.5504269598
O  O7  1  0.47220000  0.34268000  0.69803000  1.0 -0.5504269598
O  O8  1  0.97220000  0.15732000  0.30197000  1.0 -0.5504269598
O  O9  1  0.10570000  0.11401000  0.19689000  1.0 -0.5898680155
O  O10  1  0.60570000  0.38599000  0.80311000  1.0 -0.5898680155
O  O11  1  0.39430000  0.61401000  0.30311000  1.0 -0.5898680155
O  O12  1  0.89430000  0.88599000  0.69689000  1.0 -0.5898680155
O  O13  1  0.89430000  0.88599000  0.80311000  1.0 -0.5898680155
O  O14  1  0.39430000  0.61401000  0.19689000  1.0 -0.5898680155
O  O15  1  0.60570000  0.38599000  0.69689000  1.0 -0.5898680155
O  O16  1  0.10570000  0.11401000  0.30311000  1.0 -0.5898680155
O  O17  1  0.32180000  0.15967000  0.07427000  1.0 -0.5093204056
O  O18  1  0.82180000  0.34033000  0.92573000  1.0 -0.5193382864
O  O19  1  0.17820000  0.65967000  0.42573000  1.0 -0.5193382864
O  O20  1  0.67820000  0.84033000  0.57427000  1.0 -0.5193382864
O  O21  1  0.67820000  0.84033000  0.92573000  1.0 -0.5193382864
O  O22  1  0.17820000  0.65967000  0.07427000  1.0 -0.5193382864
O  O23  1  0.82180000  0.34033000  0.57427000  1.0 -0.5193382864
O  O24  1  0.32180000  0.15967000  0.42573000  1.0 -0.5093204056
O  O25  1  0.27880000  0.20082000  0.00954000  1.0 -0.6196811561
O  O26  1  0.77880000  0.29918000  0.99046000  1.0 -0.6196811561
O  O27  1  0.22120000  0.70082000  0.49046000  1.0 -0.6196811561
O  O28  1  0.72120000  0.79918000  0.50954000  1.0 -0.6196811561
O  O29  1  0.72120000  0.79918000  0.99046000  1.0 -0.6196811561
O  O30  1  0.22120000  0.70082000  0.00954000  1.0 -0.6196811561
O  O31  1  0.77880000  0.29918000  0.50954000  1.0 -0.6196811561
O  O32  1  0.27880000  0.20082000  0.49046000  1.0 -0.6196811561
O  O33  1  0.98260000  0.30233000  0.01342000  1.0 -0.5504269598
O  O34  1  0.48260000  0.19767000  0.98658000  1.0 -0.5504269598
O  O35  1  0.51740000  0.80233000  0.48658000  1.0 -0.5504269598
O  O36  1  0.01740000  0.69767000  0.51342000  1.0 -0.5504269598
O  O37  1  0.01740000  0.69767000  0.98658000  1.0 -0.5504269598
O  O38  1  0.51740000  0.80233000  0.01342000  1.0 -0.5504269598
O  O39  1  0.48260000  0.19767000  0.51342000  1.0 -0.5504269598
O  O40  1  0.98260000  0.30233000  0.48658000  1.0 -0.5504269598
O  O41  1  0.88850000  0.28346000  0.07276000  1.0 -0.5996938263
O  O42  1  0.38850000  0.21654000  0.92724000  1.0 -0.5996938263
O  O43  1  0.61150000  0.78346000  0.42724000  1.0 -0.5996938263
O  O44  1  0.11150000  0.71654000  0.57276000  1.0 -0.5996938263
O  O45  1  0.11150000  0.71654000  0.92724000  1.0 -0.5996938263
O  O46  1  0.61150000  0.78346000  0.07276000  1.0 -0.5996938263
O  O47  1  0.38850000  0.21654000  0.57276000  1.0 -0.5996938263
O  O48  1  0.88850000  0.28346000  0.42724000  1.0 -0.5996938263
O  O49  1  0.88400000  0.01300000  0.17901000  1.0 -0.3925247852
O  O50  1  0.38400000  0.48700000  0.82099000  1.0 -0.3925247852
O  O51  1  0.61600000  0.51300000  0.32099000  1.0 -0.3925247852
O  O52  1  0.11600000  0.98700000  0.67901000  1.0 -0.3925247852
O  O53  1  0.11600000  0.98700000  0.82099000  1.0 -0.3925247852
O  O54  1  0.61600000  0.51300000  0.17901000  1.0 -0.3925247852
O  O55  1  0.38400000  0.48700000  0.67901000  1.0 -0.3925247852
O  O56  1  0.88400000  0.01300000  0.32099000  1.0 -0.3925247852
O  O57  1  0.81170000  0.09160000  0.19907000  1.0 -0.5193382864
O  O58  1  0.31170000  0.40840000  0.80093000  1.0 -0.5193382864
O  O59  1  0.68830000  0.59160000  0.30093000  1.0 -0.5193382864
O  O60  1  0.18830000  0.90840000  0.69907000  1.0 -0.5264153247
O  O61  1  0.18830000  0.90840000  0.80093000  1.0 -0.5264153247
O  O62  1  0.68830000  0.59160000  0.19907000  1.0 -0.5193382864
O  O63  1  0.31170000  0.40840000  0.69907000  1.0 -0.5193382864
O  O64  1  0.81170000  0.09160000  0.30093000  1.0 -0.5193382864
O  O65  1  0.74030000  0.88107000  0.06992000  1.0 -0.5716459219
O  O66  1  0.24030000  0.61893000  0.93008000  1.0 -0.5716459219
O  O67  1  0.75970000  0.38107000  0.43008000  1.0 -0.5716459219
O  O68  1  0.25970000  0.11893000  0.56992000  1.0 -0.5716459219
O  O69  1  0.25970000  0.11893000  0.93008000  1.0 -0.5716459219
O  O70  1  0.75970000  0.38107000  0.06992000  1.0 -0.5716459219
O  O71  1  0.24030000  0.61893000  0.56992000  1.0 -0.5716459219
O  O72  1  0.74030000  0.88107000  0.43008000  1.0 -0.5716459219
O  O73  1  0.64020000  0.91535000  0.01834000  1.0 -0.5442850058
O  O74  1  0.14020000  0.58465000  0.98166000  1.0 -0.5442850058
O  O75  1  0.85980000  0.41535000  0.48166000  1.0 -0.5442850058
O  O76  1  0.35980000  0.08465000  0.51834000  1.0 -0.5504269598
O  O77  1  0.35980000  0.08465000  0.98166000  1.0 -0.5504269598
O  O78  1  0.85980000  0.41535000  0.01834000  1.0 -0.5442850058
O  O79  1  0.14020000  0.58465000  0.51834000  1.0 -0.5442850058
O  O80  1  0.64020000  0.91535000  0.48166000  1.0 -0.5442850058
O  O81  1  0.50010000  0.09300000  0.04810000  1.0 -0.5093204056
O  O82  1  0.00010000  0.40700000  0.95190000  1.0 -0.5093204056
O  O83  1  0.99990000  0.59300000  0.45190000  1.0 -0.5093204056
O  O84  1  0.49990000  0.90700000  0.54810000  1.0 -0.5093204056
O  O85  1  0.49990000  0.90700000  0.95190000  1.0 -0.5093204056
O  O86  1  0.99990000  0.59300000  0.04810000  1.0 -0.5093204056
O  O87  1  0.00010000  0.40700000  0.54810000  1.0 -0.5093204056
O  O88  1  0.50010000  0.09300000  0.45190000  1.0 -0.5093204056
O  O89  1  0.56980000  0.16086000  0.08754000  1.0 -0.4860173826
O  O90  1  0.06980000  0.33914000  0.91246000  1.0 -0.4860173826
O  O91  1  0.93020000  0.66086000  0.41246000  1.0 -0.4822891865
O  O92  1  0.43020000  0.83914000  0.58754000  1.0 -0.4822891865
O  O93  1  0.43020000  0.83914000  0.91246000  1.0 -0.4822891865
O  O94  1  0.93020000  0.66086000  0.08754000  1.0 -0.4822891865
O  O95  1  0.06980000  0.33914000  0.58754000  1.0 -0.4860173826
O  O96  1  0.56980000  0.16086000  0.41246000  1.0 -0.4860173826
O  O97  1  0.97400000  0.04491000  0.25000000  1.0 -0.6740029518
O  O98  1  0.47400000  0.45509000  0.75000000  1.0 -0.6740029518
O  O99  1  0.52600000  0.54491000  0.25000000  1.0 -0.6801403825
O  O100  1  0.02600000  0.95509000  0.75000000  1.0 -0.6801403825
