# DDEC6 charges by PACMAN v1.1 (https://github.com/mtap-research/PACMAN-charge/)
data_TIVYAZ01_FSR_pacman
_symmetry_space_group_name_H-M   'P 1'
_cell_length_a   15.04100000
_cell_length_b   23.86200000
_cell_length_c   28.47900000
_cell_angle_alpha   90.00000000
_cell_angle_beta   90.00000000
_cell_angle_gamma   90.00000000
_symmetry_Int_Tables_number   1
_chemical_formula_structural   Co6H26C48N4O35
_chemical_formula_sum   'Co24 H104 C192 N16 O140'
_cell_volume   10221.35067182
_cell_formula_units_Z   4
loop_
 _symmetry_equiv_pos_site_id
 _symmetry_equiv_pos_as_xyz
  1  'x, y, z'
loop_
 _atom_site_type_symbol
 _atom_site_label
 _atom_site_symmetry_multiplicity
 _atom_site_fract_x
 _atom_site_fract_y
 _atom_site_fract_z
 _atom_site_occupancy
 _atom_site_charge
Co  Co1  1  0.40901000  0.14473000  0.02213000  1.0 1.0388197911
Co  Co2  1  0.90901000  0.35527000  0.97787000  1.0 1.0388197911
Co  Co3  1  0.09099000  0.64473000  0.47787000  1.0 1.0388197911
Co  Co4  1  0.59099000  0.85527000  0.52213000  1.0 1.0388197911
Co  Co5  1  0.59099000  0.85527000  0.97787000  1.0 1.0388197911
Co  Co6  1  0.09099000  0.64473000  0.02213000  1.0 1.0388197911
Co  Co7  1  0.90901000  0.35527000  0.52213000  1.0 1.0388197911
Co  Co8  1  0.40901000  0.14473000  0.47787000  1.0 1.0388197911
Co  Co9  1  0.25365000  0.20501000  0.93685000  1.0 1.1708122036
Co  Co10  1  0.75365000  0.29499000  0.06315000  1.0 1.1708122036
Co  Co11  1  0.24635000  0.70501000  0.56315000  1.0 1.1647126389
Co  Co12  1  0.74635000  0.79499000  0.43685000  1.0 1.1708122036
Co  Co13  1  0.74635000  0.79499000  0.06315000  1.0 1.1708122036
Co  Co14  1  0.24635000  0.70501000  0.93685000  1.0 1.1708122036
Co  Co15  1  0.75365000  0.29499000  0.43685000  1.0 1.1708122036
Co  Co16  1  0.25365000  0.20501000  0.56315000  1.0 1.1708122036
Co  Co17  1  0.89878000  0.12217000  0.25000000  1.0 1.2267778032
Co  Co18  1  0.39878000  0.37783000  0.75000000  1.0 1.2234581424
Co  Co19  1  0.60122000  0.62217000  0.25000000  1.0 1.2267778032
Co  Co20  1  0.10122000  0.87783000  0.75000000  1.0 1.2267778032
Co  Co21  1  0.11194000  0.05624000  0.25000000  1.0 1.1775612546
Co  Co22  1  0.61194000  0.44376000  0.75000000  1.0 1.1775612546
Co  Co23  1  0.38806000  0.55624000  0.25000000  1.0 1.1775612546
Co  Co24  1  0.88806000  0.94376000  0.75000000  1.0 1.1775612546
H  H1  1  0.95360000  0.21730000  0.12880000  1.0 0.139614574
H  H2  1  0.45360000  0.28270000  0.87120000  1.0 0.139614574
H  H3  1  0.54640000  0.71730000  0.37120000  1.0 0.139614574
H  H4  1  0.04640000  0.78270000  0.62880000  1.0 0.139614574
H  H5  1  0.04640000  0.78270000  0.87120000  1.0 0.139614574
H  H6  1  0.54640000  0.71730000  0.12880000  1.0 0.139614574
H  H7  1  0.45360000  0.28270000  0.62880000  1.0 0.139614574
H  H8  1  0.95360000  0.21730000  0.37120000  1.0 0.139614574
H  H9  1  0.12560000  0.24970000  0.02370000  1.0 0.139614574
H  H10  1  0.62560000  0.25030000  0.97630000  1.0 0.139614574
H  H11  1  0.37440000  0.74970000  0.47630000  1.0 0.139614574
H  H12  1  0.87440000  0.75030000  0.52370000  1.0 0.139614574
H  H13  1  0.87440000  0.75030000  0.97630000  1.0 0.139614574
H  H14  1  0.37440000  0.74970000  0.02370000  1.0 0.139614574
H  H15  1  0.62560000  0.25030000  0.52370000  1.0 0.139614574
H  H16  1  0.12560000  0.24970000  0.47630000  1.0 0.139614574
H  H17  1  0.19560000  0.14700000  0.13000000  1.0 0.1298979743
H  H18  1  0.69560000  0.35300000  0.87000000  1.0 0.1298979743
H  H19  1  0.30440000  0.64700000  0.37000000  1.0 0.1298979743
H  H20  1  0.80440000  0.85300000  0.63000000  1.0 0.1298979743
H  H21  1  0.80440000  0.85300000  0.87000000  1.0 0.1298979743
H  H22  1  0.30440000  0.64700000  0.13000000  1.0 0.1298979743
H  H23  1  0.69560000  0.35300000  0.63000000  1.0 0.1298979743
H  H24  1  0.19560000  0.14700000  0.37000000  1.0 0.1298979743
H  H25  1  0.79620000  0.95860000  0.12150000  1.0 0.11925234
H  H26  1  0.29620000  0.54140000  0.87850000  1.0 0.11925234
H  H27  1  0.70380000  0.45860000  0.37850000  1.0 0.11925234
H  H28  1  0.20380000  0.04140000  0.62150000  1.0 0.11925234
H  H29  1  0.20380000  0.04140000  0.87850000  1.0 0.11925234
H  H30  1  0.70380000  0.45860000  0.12150000  1.0 0.11925234
H  H31  1  0.29620000  0.54140000  0.62150000  1.0 0.11925234
H  H32  1  0.79620000  0.95860000  0.37850000  1.0 0.11925234
H  H33  1  0.59300000  0.00970000  0.04040000  1.0 0.139614574
H  H34  1  0.09300000  0.49030000  0.95960000  1.0 0.139614574
H  H35  1  0.90700000  0.50970000  0.45960000  1.0 0.139614574
H  H36  1  0.40700000  0.99030000  0.54040000  1.0 0.139614574
H  H37  1  0.40700000  0.99030000  0.95960000  1.0 0.139614574
H  H38  1  0.90700000  0.50970000  0.04040000  1.0 0.139614574
H  H39  1  0.09300000  0.49030000  0.54040000  1.0 0.139614574
H  H40  1  0.59300000  0.00970000  0.45960000  1.0 0.139614574
H  H41  1  0.69380000  0.11330000  0.13830000  1.0 0.1298979743
H  H42  1  0.19380000  0.38670000  0.86170000  1.0 0.1298979743
H  H43  1  0.80620000  0.61330000  0.36170000  1.0 0.1298979743
H  H44  1  0.30620000  0.88670000  0.63830000  1.0 0.1298979743
H  H45  1  0.30620000  0.88670000  0.86170000  1.0 0.1298979743
H  H46  1  0.80620000  0.61330000  0.13830000  1.0 0.1298979743
H  H47  1  0.19380000  0.38670000  0.63830000  1.0 0.1298979743
H  H48  1  0.69380000  0.11330000  0.36170000  1.0 0.1298979743
H  H49  1  0.10580000  0.13200000  0.90480000  1.0 0.1137638347
H  H50  1  0.60580000  0.36800000  0.09520000  1.0 0.1137638347
H  H51  1  0.39420000  0.63200000  0.59520000  1.0 0.1137638347
H  H52  1  0.89420000  0.86800000  0.40480000  1.0 0.1137638347
H  H53  1  0.89420000  0.86800000  0.09520000  1.0 0.1137638347
H  H54  1  0.39420000  0.63200000  0.90480000  1.0 0.1137638347
H  H55  1  0.60580000  0.36800000  0.40480000  1.0 0.1137638347
H  H56  1  0.10580000  0.13200000  0.59520000  1.0 0.1137638347
H  H57  1  0.96860000  0.23760000  0.94010000  1.0 0.139614574
H  H58  1  0.46860000  0.26240000  0.05990000  1.0 0.139614574
H  H59  1  0.53140000  0.73760000  0.55990000  1.0 0.139614574
H  H60  1  0.03140000  0.76240000  0.44010000  1.0 0.139614574
H  H61  1  0.03140000  0.76240000  0.05990000  1.0 0.139614574
H  H62  1  0.53140000  0.73760000  0.94010000  1.0 0.139614574
H  H63  1  0.46860000  0.26240000  0.44010000  1.0 0.139614574
H  H64  1  0.96860000  0.23760000  0.55990000  1.0 0.139614574
H  H65  1  0.89360000  0.22250000  0.90400000  1.0 0.11925234
H  H66  1  0.39360000  0.27750000  0.09600000  1.0 0.11925234
H  H67  1  0.60640000  0.72250000  0.59600000  1.0 0.11925234
H  H68  1  0.10640000  0.77750000  0.40400000  1.0 0.11925234
H  H69  1  0.10640000  0.77750000  0.09600000  1.0 0.11925234
H  H70  1  0.60640000  0.72250000  0.90400000  1.0 0.11925234
H  H71  1  0.39360000  0.27750000  0.40400000  1.0 0.11925234
H  H72  1  0.89360000  0.22250000  0.59600000  1.0 0.11925234
H  H73  1  0.89480000  0.19400000  0.95360000  1.0 0.1298979743
H  H74  1  0.39480000  0.30600000  0.04640000  1.0 0.1298979743
H  H75  1  0.60520000  0.69400000  0.54640000  1.0 0.1298979743
H  H76  1  0.10520000  0.80600000  0.45360000  1.0 0.1298979743
H  H77  1  0.10520000  0.80600000  0.04640000  1.0 0.1298979743
H  H78  1  0.60520000  0.69400000  0.95360000  1.0 0.1298979743
H  H79  1  0.39480000  0.30600000  0.45360000  1.0 0.1298979743
H  H80  1  0.89480000  0.19400000  0.54640000  1.0 0.1298979743
H  H81  1  0.98680000  0.09280000  0.87240000  1.0 0.1298979743
H  H82  1  0.48680000  0.40720000  0.12760000  1.0 0.1298979743
H  H83  1  0.51320000  0.59280000  0.62760000  1.0 0.1298979743
H  H84  1  0.01320000  0.90720000  0.37240000  1.0 0.1298979743
H  H85  1  0.01320000  0.90720000  0.12760000  1.0 0.1298979743
H  H86  1  0.51320000  0.59280000  0.87240000  1.0 0.1298979743
H  H87  1  0.48680000  0.40720000  0.37240000  1.0 0.1298979743
H  H88  1  0.98680000  0.09280000  0.62760000  1.0 0.1298979743
H  H89  1  0.90100000  0.09950000  0.90320000  1.0 0.11925234
H  H90  1  0.40100000  0.40050000  0.09680000  1.0 0.11925234
H  H91  1  0.59900000  0.59950000  0.59680000  1.0 0.11925234
H  H92  1  0.09900000  0.90050000  0.40320000  1.0 0.11925234
H  H93  1  0.09900000  0.90050000  0.09680000  1.0 0.11925234
H  H94  1  0.59900000  0.59950000  0.90320000  1.0 0.11925234
H  H95  1  0.40100000  0.40050000  0.40320000  1.0 0.11925234
H  H96  1  0.90100000  0.09950000  0.59680000  1.0 0.11925234
H  H97  1  0.91200000  0.13480000  0.85710000  1.0 0.11925234
H  H98  1  0.41200000  0.36520000  0.14290000  1.0 0.11925234
H  H99  1  0.58800000  0.63480000  0.64290000  1.0 0.11925234
H  H100  1  0.08800000  0.86520000  0.35710000  1.0 0.11925234
H  H101  1  0.08800000  0.86520000  0.14290000  1.0 0.11925234
H  H102  1  0.58800000  0.63480000  0.85710000  1.0 0.11925234
H  H103  1  0.41200000  0.36520000  0.35710000  1.0 0.11925234
H  H104  1  0.91200000  0.13480000  0.64290000  1.0 0.11925234
C  C1  1  0.04780000  0.14680000  0.18110000  1.0 0.6006560041
C  C2  1  0.54780000  0.35320000  0.81890000  1.0 0.6006560041
C  C3  1  0.45220000  0.64680000  0.31890000  1.0 0.6006560041
C  C4  1  0.95220000  0.85320000  0.68110000  1.0 0.6006560041
C  C5  1  0.95220000  0.85320000  0.81890000  1.0 0.6006560041
C  C6  1  0.45220000  0.64680000  0.18110000  1.0 0.6006560041
C  C7  1  0.54780000  0.35320000  0.68110000  1.0 0.6006560041
C  C8  1  0.04780000  0.14680000  0.31890000  1.0 0.6006560041
C  C9  1  0.07130000  0.17740000  0.13632000  1.0 -0.0273881067
C  C10  1  0.57130000  0.32260000  0.86368000  1.0 -0.0273881067
C  C11  1  0.42870000  0.67740000  0.36368000  1.0 -0.0273881067
C  C12  1  0.92870000  0.82260000  0.63632000  1.0 -0.0273881067
C  C13  1  0.92870000  0.82260000  0.86368000  1.0 -0.0273881067
C  C14  1  0.42870000  0.67740000  0.13632000  1.0 -0.0273881067
C  C15  1  0.57130000  0.32260000  0.63632000  1.0 -0.0273881067
C  C16  1  0.07130000  0.17740000  0.36368000  1.0 -0.0273881067
C  C17  1  0.00910000  0.21230000  0.11501000  1.0 -0.09748767
C  C18  1  0.50910000  0.28770000  0.88499000  1.0 -0.09748767
C  C19  1  0.49090000  0.71230000  0.38499000  1.0 -0.09748767
C  C20  1  0.99090000  0.78770000  0.61501000  1.0 -0.09748767
C  C21  1  0.99090000  0.78770000  0.88499000  1.0 -0.09748767
C  C22  1  0.49090000  0.71230000  0.11501000  1.0 -0.09748767
C  C23  1  0.50910000  0.28770000  0.61501000  1.0 -0.09748767
C  C24  1  0.00910000  0.21230000  0.38499000  1.0 -0.09748767
C  C25  1  0.02940000  0.23989000  0.07292000  1.0 -0.013714566
C  C26  1  0.52940000  0.26011000  0.92708000  1.0 -0.013714566
C  C27  1  0.47060000  0.73989000  0.42708000  1.0 -0.013714566
C  C28  1  0.97060000  0.76011000  0.57292000  1.0 -0.013714566
C  C29  1  0.97060000  0.76011000  0.92708000  1.0 -0.013714566
C  C30  1  0.47060000  0.73989000  0.07292000  1.0 -0.013714566
C  C31  1  0.52940000  0.26011000  0.57292000  1.0 -0.013714566
C  C32  1  0.02940000  0.23989000  0.42708000  1.0 -0.013714566
C  C33  1  0.11200000  0.23183000  0.05183000  1.0 -0.1101608849
C  C34  1  0.61200000  0.26817000  0.94817000  1.0 -0.1101608849
C  C35  1  0.38800000  0.73183000  0.44817000  1.0 -0.1101608849
C  C36  1  0.88800000  0.76817000  0.55183000  1.0 -0.1101608849
C  C37  1  0.88800000  0.76817000  0.94817000  1.0 -0.1101608849
C  C38  1  0.38800000  0.73183000  0.05183000  1.0 -0.1101608849
C  C39  1  0.61200000  0.26817000  0.55183000  1.0 -0.1101608849
C  C40  1  0.11200000  0.23183000  0.44817000  1.0 -0.1101608849
C  C41  1  0.17400000  0.19667000  0.07334000  1.0 -0.0220435195
C  C42  1  0.67400000  0.30333000  0.92666000  1.0 -0.0220435195
C  C43  1  0.32600000  0.69667000  0.42666000  1.0 -0.0220435195
C  C44  1  0.82600000  0.80333000  0.57334000  1.0 -0.0220435195
C  C45  1  0.82600000  0.80333000  0.92666000  1.0 -0.0220435195
C  C46  1  0.32600000  0.69667000  0.07334000  1.0 -0.0220435195
C  C47  1  0.67400000  0.30333000  0.57334000  1.0 -0.0220435195
C  C48  1  0.17400000  0.19667000  0.42666000  1.0 -0.0220435195
C  C49  1  0.15360000  0.16995000  0.11565000  1.0 -0.1101608849
C  C50  1  0.65360000  0.33005000  0.88435000  1.0 -0.1101608849
C  C51  1  0.34640000  0.66995000  0.38435000  1.0 -0.1101608849
C  C52  1  0.84640000  0.83005000  0.61565000  1.0 -0.1101608849
C  C53  1  0.84640000  0.83005000  0.88435000  1.0 -0.1101608849
C  C54  1  0.34640000  0.66995000  0.11565000  1.0 -0.1101608849
C  C55  1  0.65360000  0.33005000  0.61565000  1.0 -0.1101608849
C  C56  1  0.15360000  0.16995000  0.38435000  1.0 -0.1101608849
C  C57  1  0.26250000  0.18559000  0.05085000  1.0 0.5703368013
C  C58  1  0.76250000  0.31441000  0.94915000  1.0 0.5703368013
C  C59  1  0.23750000  0.68559000  0.44915000  1.0 0.5703368013
C  C60  1  0.73750000  0.81441000  0.55085000  1.0 0.5703368013
C  C61  1  0.73750000  0.81441000  0.94915000  1.0 0.5703368013
C  C62  1  0.23750000  0.68559000  0.05085000  1.0 0.5703368013
C  C63  1  0.76250000  0.31441000  0.55085000  1.0 0.5703368013
C  C64  1  0.26250000  0.18559000  0.44915000  1.0 0.5703368013
C  C65  1  0.96050000  0.27783000  0.05128000  1.0 0.5896451784
C  C66  1  0.46050000  0.22217000  0.94872000  1.0 0.5896451784
C  C67  1  0.53950000  0.77783000  0.44872000  1.0 0.5896451784
C  C68  1  0.03950000  0.72217000  0.55128000  1.0 0.5896451784
C  C69  1  0.03950000  0.72217000  0.94872000  1.0 0.5896451784
C  C70  1  0.53950000  0.77783000  0.05128000  1.0 0.5896451784
C  C71  1  0.46050000  0.22217000  0.55128000  1.0 0.5896451784
C  C72  1  0.96050000  0.27783000  0.44872000  1.0 0.5896451784
C  C73  1  0.82270000  0.04840000  0.17425000  1.0 0.5703368013
C  C74  1  0.32270000  0.45160000  0.82575000  1.0 0.5703368013
C  C75  1  0.67730000  0.54840000  0.32575000  1.0 0.5703368013
C  C76  1  0.17730000  0.95160000  0.67425000  1.0 0.5703368013
C  C77  1  0.17730000  0.95160000  0.82575000  1.0 0.5703368013
C  C78  1  0.67730000  0.54840000  0.17425000  1.0 0.5703368013
C  C79  1  0.32270000  0.45160000  0.67425000  1.0 0.5703368013
C  C80  1  0.82270000  0.04840000  0.32575000  1.0 0.5703368013
C  C81  1  0.75610000  0.03770000  0.13562000  1.0 -0.0220435195
C  C82  1  0.25610000  0.46230000  0.86438000  1.0 -0.0220435195
C  C83  1  0.74390000  0.53770000  0.36438000  1.0 -0.0220435195
C  C84  1  0.24390000  0.96230000  0.63562000  1.0 -0.0220435195
C  C85  1  0.24390000  0.96230000  0.86438000  1.0 -0.0220435195
C  C86  1  0.74390000  0.53770000  0.13562000  1.0 -0.0220435195
C  C87  1  0.25610000  0.46230000  0.63562000  1.0 -0.0220435195
C  C88  1  0.75610000  0.03770000  0.36438000  1.0 -0.0220435195
C  C89  1  0.75560000  0.98612000  0.11280000  1.0 -0.09748767
C  C90  1  0.25560000  0.51388000  0.88720000  1.0 -0.09748767
C  C91  1  0.74440000  0.48612000  0.38720000  1.0 -0.09748767
C  C92  1  0.24440000  0.01388000  0.61280000  1.0 -0.09748767
C  C93  1  0.24440000  0.01388000  0.88720000  1.0 -0.09748767
C  C94  1  0.74440000  0.48612000  0.11280000  1.0 -0.09748767
C  C95  1  0.25560000  0.51388000  0.61280000  1.0 -0.09748767
C  C96  1  0.75560000  0.98612000  0.38720000  1.0 -0.09748767
C  C97  1  0.69460000  0.97547000  0.07698000  1.0 -0.0399625121
C  C98  1  0.19460000  0.52453000  0.92302000  1.0 -0.0399625121
C  C99  1  0.80540000  0.47547000  0.42302000  1.0 -0.0399625121
C  C100  1  0.30540000  0.02453000  0.57698000  1.0 -0.0399625121
C  C101  1  0.30540000  0.02453000  0.92302000  1.0 -0.0399625121
C  C102  1  0.80540000  0.47547000  0.07698000  1.0 -0.0399625121
C  C103  1  0.19460000  0.52453000  0.57698000  1.0 -0.0399625121
C  C104  1  0.69460000  0.97547000  0.42302000  1.0 -0.0399625121
C  C105  1  0.63330000  0.01663000  0.06450000  1.0 -0.0877985904
C  C106  1  0.13330000  0.48337000  0.93550000  1.0 -0.0877985904
C  C107  1  0.86670000  0.51663000  0.43550000  1.0 -0.0877985904
C  C108  1  0.36670000  0.98337000  0.56450000  1.0 -0.0877985904
C  C109  1  0.36670000  0.98337000  0.93550000  1.0 -0.0877985904
C  C110  1  0.86670000  0.51663000  0.06450000  1.0 -0.0877985904
C  C111  1  0.13330000  0.48337000  0.56450000  1.0 -0.0877985904
C  C112  1  0.63330000  0.01663000  0.43550000  1.0 -0.0877985904
C  C113  1  0.63190000  0.06794000  0.08765000  1.0 -0.0273881067
C  C114  1  0.13190000  0.43206000  0.91235000  1.0 -0.0273881067
C  C115  1  0.86810000  0.56794000  0.41235000  1.0 -0.0273881067
C  C116  1  0.36810000  0.93206000  0.58765000  1.0 -0.0273881067
C  C117  1  0.36810000  0.93206000  0.91235000  1.0 -0.0273881067
C  C118  1  0.86810000  0.56794000  0.08765000  1.0 -0.0273881067
C  C119  1  0.13190000  0.43206000  0.58765000  1.0 -0.0273881067
C  C120  1  0.63190000  0.06794000  0.41235000  1.0 -0.0273881067
C  C121  1  0.69380000  0.07885000  0.12308000  1.0 -0.0877985904
C  C122  1  0.19380000  0.42115000  0.87692000  1.0 -0.0877985904
C  C123  1  0.80620000  0.57885000  0.37692000  1.0 -0.0877985904
C  C124  1  0.30620000  0.92115000  0.62308000  1.0 -0.0877985904
C  C125  1  0.30620000  0.92115000  0.87692000  1.0 -0.0877985904
C  C126  1  0.80620000  0.57885000  0.12308000  1.0 -0.0877985904
C  C127  1  0.19380000  0.42115000  0.62308000  1.0 -0.0877985904
C  C128  1  0.69380000  0.07885000  0.37692000  1.0 -0.0877985904
C  C129  1  0.69170000  0.91910000  0.05346000  1.0 0.6069012595
C  C130  1  0.19170000  0.58090000  0.94654000  1.0 0.6069012595
C  C131  1  0.80830000  0.41910000  0.44654000  1.0 0.6069012595
C  C132  1  0.30830000  0.08090000  0.55346000  1.0 0.6069012595
C  C133  1  0.30830000  0.08090000  0.94654000  1.0 0.6069012595
C  C134  1  0.80830000  0.41910000  0.05346000  1.0 0.6069012595
C  C135  1  0.19170000  0.58090000  0.55346000  1.0 0.6069012595
C  C136  1  0.69170000  0.91910000  0.44654000  1.0 0.6069012595
C  C137  1  0.56280000  0.11118000  0.07418000  1.0 0.5547509504
C  C138  1  0.06280000  0.38882000  0.92582000  1.0 0.5559433243
C  C139  1  0.93720000  0.61118000  0.42582000  1.0 0.5559433243
C  C140  1  0.43720000  0.88882000  0.57418000  1.0 0.5559433243
C  C141  1  0.43720000  0.88882000  0.92582000  1.0 0.5559433243
C  C142  1  0.93720000  0.61118000  0.07418000  1.0 0.5559433243
C  C143  1  0.06280000  0.38882000  0.57418000  1.0 0.5559433243
C  C144  1  0.56280000  0.11118000  0.42582000  1.0 0.5559433243
C  C145  1  0.27860000  0.11000000  0.22500000  1.0 0.139614574
C  C146  1  0.77860000  0.39000000  0.77500000  1.0 0.139614574
C  C147  1  0.22140000  0.61000000  0.27500000  1.0 0.139614574
C  C148  1  0.72140000  0.89000000  0.72500000  1.0 0.139614574
C  C149  1  0.72140000  0.89000000  0.77500000  1.0 0.139614574
C  C150  1  0.22140000  0.61000000  0.22500000  1.0 0.139614574
C  C151  1  0.77860000  0.39000000  0.72500000  1.0 0.139614574
C  C152  1  0.27860000  0.11000000  0.27500000  1.0 0.139614574
C  C153  1  0.38430000  0.07190000  0.16920000  1.0 0.100998728
C  C154  1  0.88430000  0.42810000  0.83080000  1.0 0.100998728
C  C155  1  0.11570000  0.57190000  0.33080000  1.0 0.100998728
C  C156  1  0.61570000  0.92810000  0.66920000  1.0 0.100998728
C  C157  1  0.61570000  0.92810000  0.83080000  1.0 0.100998728
C  C158  1  0.11570000  0.57190000  0.16920000  1.0 0.100998728
C  C159  1  0.88430000  0.42810000  0.66920000  1.0 0.100998728
C  C160  1  0.38430000  0.07190000  0.33080000  1.0 0.100998728
C  C161  1  0.38580000  0.17150000  0.18920000  1.0 0.079401111
C  C162  1  0.88580000  0.32850000  0.81080000  1.0 0.079401111
C  C163  1  0.11420000  0.67150000  0.31080000  1.0 0.079401111
C  C164  1  0.61420000  0.82850000  0.68920000  1.0 0.079401111
C  C165  1  0.61420000  0.82850000  0.81080000  1.0 0.079401111
C  C166  1  0.11420000  0.67150000  0.18920000  1.0 0.079401111
C  C167  1  0.88580000  0.32850000  0.68920000  1.0 0.079401111
C  C168  1  0.38580000  0.17150000  0.31080000  1.0 0.079401111
C  C169  1  0.07380000  0.16180000  0.91720000  1.0 0.306560756
C  C170  1  0.57380000  0.33820000  0.08280000  1.0 0.3046409798
C  C171  1  0.42620000  0.66180000  0.58280000  1.0 0.306560756
C  C172  1  0.92620000  0.83820000  0.41720000  1.0 0.306560756
C  C173  1  0.92620000  0.83820000  0.08280000  1.0 0.306560756
C  C174  1  0.42620000  0.66180000  0.91720000  1.0 0.306560756
C  C175  1  0.57380000  0.33820000  0.41720000  1.0 0.306560756
C  C176  1  0.07380000  0.16180000  0.58280000  1.0 0.306560756
C  C177  1  0.93110000  0.20810000  0.92850000  1.0 -0.3068542356
C  C178  1  0.43110000  0.29190000  0.07150000  1.0 -0.3068542356
C  C179  1  0.56890000  0.70810000  0.57150000  1.0 -0.3068542356
C  C180  1  0.06890000  0.79190000  0.42850000  1.0 -0.3068542356
C  C181  1  0.06890000  0.79190000  0.07150000  1.0 -0.3068542356
C  C182  1  0.56890000  0.70810000  0.92850000  1.0 -0.3068542356
C  C183  1  0.43110000  0.29190000  0.42850000  1.0 -0.3068542356
C  C184  1  0.93110000  0.20810000  0.57150000  1.0 -0.3068542356
C  C185  1  0.94280000  0.11880000  0.88340000  1.0 -0.2896858507
C  C186  1  0.44280000  0.38120000  0.11660000  1.0 -0.2896858507
C  C187  1  0.55720000  0.61880000  0.61660000  1.0 -0.2896858507
C  C188  1  0.05720000  0.88120000  0.38340000  1.0 -0.2836680201
C  C189  1  0.05720000  0.88120000  0.11660000  1.0 -0.2836680201
C  C190  1  0.55720000  0.61880000  0.88340000  1.0 -0.2896858507
C  C191  1  0.44280000  0.38120000  0.38340000  1.0 -0.2836680201
C  C192  1  0.94280000  0.11880000  0.61660000  1.0 -0.2896858507
N  N1  1  0.98580000  0.16310000  0.91000000  1.0 0.0078684658
N  N2  1  0.48580000  0.33690000  0.09000000  1.0 0.0078684658
N  N3  1  0.51420000  0.66310000  0.59000000  1.0 0.0078684658
N  N4  1  0.01420000  0.83690000  0.41000000  1.0 0.0078684658
N  N5  1  0.01420000  0.83690000  0.09000000  1.0 0.0078684658
N  N6  1  0.51420000  0.66310000  0.91000000  1.0 0.0078684658
N  N7  1  0.48580000  0.33690000  0.41000000  1.0 0.0078684658
N  N8  1  0.98580000  0.16310000  0.59000000  1.0 0.0078684658
N  N9  1  0.35570000  0.11390000  0.19760000  1.0 -0.0399625121
N  N10  1  0.85570000  0.38610000  0.80240000  1.0 -0.045550442
N  N11  1  0.14430000  0.61390000  0.30240000  1.0 -0.0399625121
N  N12  1  0.64430000  0.88610000  0.69760000  1.0 -0.0399625121
N  N13  1  0.64430000  0.88610000  0.80240000  1.0 -0.0399625121
N  N14  1  0.14430000  0.61390000  0.19760000  1.0 -0.0399625121
N  N15  1  0.85570000  0.38610000  0.69760000  1.0 -0.045550442
N  N16  1  0.35570000  0.11390000  0.30240000  1.0 -0.0399625121
O  O1  1  0.97220000  0.15732000  0.19803000  1.0 -0.5612279398
O  O2  1  0.47220000  0.34268000  0.80197000  1.0 -0.5612279398
O  O3  1  0.52780000  0.65732000  0.30197000  1.0 -0.5612279398
O  O4  1  0.02780000  0.84268000  0.69803000  1.0 -0.5612279398
O  O5  1  0.02780000  0.84268000  0.80197000  1.0 -0.5612279398
O  O6  1  0.52780000  0.65732000  0.19803000  1.0 -0.5612279398
O  O7  1  0.47220000  0.34268000  0.69803000  1.0 -0.5612279398
O  O8  1  0.97220000  0.15732000  0.30197000  1.0 -0.5612279398
O  O9  1  0.10570000  0.11401000  0.19689000  1.0 -0.5612279398
O  O10  1  0.60570000  0.38599000  0.80311000  1.0 -0.5612279398
O  O11  1  0.39430000  0.61401000  0.30311000  1.0 -0.5612279398
O  O12  1  0.89430000  0.88599000  0.69689000  1.0 -0.5612279398
O  O13  1  0.89430000  0.88599000  0.80311000  1.0 -0.5612279398
O  O14  1  0.39430000  0.61401000  0.19689000  1.0 -0.5612279398
O  O15  1  0.60570000  0.38599000  0.69689000  1.0 -0.5612279398
O  O16  1  0.10570000  0.11401000  0.30311000  1.0 -0.5612279398
O  O17  1  0.32180000  0.15967000  0.07427000  1.0 -0.5011014925
O  O18  1  0.82180000  0.34033000  0.92573000  1.0 -0.5011014925
O  O19  1  0.17820000  0.65967000  0.42573000  1.0 -0.5011014925
O  O20  1  0.67820000  0.84033000  0.57427000  1.0 -0.5011014925
O  O21  1  0.67820000  0.84033000  0.92573000  1.0 -0.5011014925
O  O22  1  0.17820000  0.65967000  0.07427000  1.0 -0.5011014925
O  O23  1  0.82180000  0.34033000  0.57427000  1.0 -0.5011014925
O  O24  1  0.32180000  0.15967000  0.42573000  1.0 -0.5011014925
O  O25  1  0.27880000  0.20082000  0.00954000  1.0 -0.5920940923
O  O26  1  0.77880000  0.29918000  0.99046000  1.0 -0.5920940923
O  O27  1  0.22120000  0.70082000  0.49046000  1.0 -0.5920940923
O  O28  1  0.72120000  0.79918000  0.50954000  1.0 -0.5920940923
O  O29  1  0.72120000  0.79918000  0.99046000  1.0 -0.5920940923
O  O30  1  0.22120000  0.70082000  0.00954000  1.0 -0.5920940923
O  O31  1  0.77880000  0.29918000  0.50954000  1.0 -0.5920940923
O  O32  1  0.27880000  0.20082000  0.49046000  1.0 -0.5920940923
O  O33  1  0.98260000  0.30233000  0.01342000  1.0 -0.5330153169
O  O34  1  0.48260000  0.19767000  0.98658000  1.0 -0.5330153169
O  O35  1  0.51740000  0.80233000  0.48658000  1.0 -0.5330153169
O  O36  1  0.01740000  0.69767000  0.51342000  1.0 -0.5330153169
O  O37  1  0.01740000  0.69767000  0.98658000  1.0 -0.5330153169
O  O38  1  0.51740000  0.80233000  0.01342000  1.0 -0.5330153169
O  O39  1  0.48260000  0.19767000  0.51342000  1.0 -0.5330153169
O  O40  1  0.98260000  0.30233000  0.48658000  1.0 -0.5330153169
O  O41  1  0.88850000  0.28346000  0.07276000  1.0 -0.5612279398
O  O42  1  0.38850000  0.21654000  0.92724000  1.0 -0.5612279398
O  O43  1  0.61150000  0.78346000  0.42724000  1.0 -0.5612279398
O  O44  1  0.11150000  0.71654000  0.57276000  1.0 -0.5612279398
O  O45  1  0.11150000  0.71654000  0.92724000  1.0 -0.5612279398
O  O46  1  0.61150000  0.78346000  0.07276000  1.0 -0.5612279398
O  O47  1  0.38850000  0.21654000  0.57276000  1.0 -0.5612279398
O  O48  1  0.88850000  0.28346000  0.42724000  1.0 -0.5612279398
O  O49  1  0.88400000  0.01300000  0.17901000  1.0 -0.4580895478
O  O50  1  0.38400000  0.48700000  0.82099000  1.0 -0.4580895478
O  O51  1  0.61600000  0.51300000  0.32099000  1.0 -0.4580895478
O  O52  1  0.11600000  0.98700000  0.67901000  1.0 -0.4580895478
O  O53  1  0.11600000  0.98700000  0.82099000  1.0 -0.4580895478
O  O54  1  0.61600000  0.51300000  0.17901000  1.0 -0.4580895478
O  O55  1  0.38400000  0.48700000  0.67901000  1.0 -0.4580895478
O  O56  1  0.88400000  0.01300000  0.32099000  1.0 -0.4580895478
O  O57  1  0.81170000  0.09160000  0.19907000  1.0 -0.5705576228
O  O58  1  0.31170000  0.40840000  0.80093000  1.0 -0.5705576228
O  O59  1  0.68830000  0.59160000  0.30093000  1.0 -0.5612279398
O  O60  1  0.18830000  0.90840000  0.69907000  1.0 -0.5612279398
O  O61  1  0.18830000  0.90840000  0.80093000  1.0 -0.5612279398
O  O62  1  0.68830000  0.59160000  0.19907000  1.0 -0.5612279398
O  O63  1  0.31170000  0.40840000  0.69907000  1.0 -0.5705576228
O  O64  1  0.81170000  0.09160000  0.30093000  1.0 -0.5705576228
O  O65  1  0.74030000  0.88107000  0.06992000  1.0 -0.5705576228
O  O66  1  0.24030000  0.61893000  0.93008000  1.0 -0.5705576228
O  O67  1  0.75970000  0.38107000  0.43008000  1.0 -0.5705576228
O  O68  1  0.25970000  0.11893000  0.56992000  1.0 -0.5705576228
O  O69  1  0.25970000  0.11893000  0.93008000  1.0 -0.5705576228
O  O70  1  0.75970000  0.38107000  0.06992000  1.0 -0.5705576228
O  O71  1  0.24030000  0.61893000  0.56992000  1.0 -0.5705576228
O  O72  1  0.74030000  0.88107000  0.43008000  1.0 -0.5705576228
O  O73  1  0.64020000  0.91535000  0.01834000  1.0 -0.5234079944
O  O74  1  0.14020000  0.58465000  0.98166000  1.0 -0.5234079944
O  O75  1  0.85980000  0.41535000  0.48166000  1.0 -0.5234079944
O  O76  1  0.35980000  0.08465000  0.51834000  1.0 -0.5234079944
O  O77  1  0.35980000  0.08465000  0.98166000  1.0 -0.5234079944
O  O78  1  0.85980000  0.41535000  0.01834000  1.0 -0.5234079944
O  O79  1  0.14020000  0.58465000  0.51834000  1.0 -0.5234079944
O  O80  1  0.64020000  0.91535000  0.48166000  1.0 -0.5234079944
O  O81  1  0.50010000  0.09300000  0.04810000  1.0 -0.5138948323
O  O82  1  0.00010000  0.40700000  0.95190000  1.0 -0.5138948323
O  O83  1  0.99990000  0.59300000  0.45190000  1.0 -0.5138948323
O  O84  1  0.49990000  0.90700000  0.54810000  1.0 -0.5138948323
O  O85  1  0.49990000  0.90700000  0.95190000  1.0 -0.5138948323
O  O86  1  0.99990000  0.59300000  0.04810000  1.0 -0.5138948323
O  O87  1  0.00010000  0.40700000  0.54810000  1.0 -0.5138948323
O  O88  1  0.50010000  0.09300000  0.45190000  1.0 -0.5138948323
O  O89  1  0.56980000  0.16086000  0.08754000  1.0 -0.4850187587
O  O90  1  0.06980000  0.33914000  0.91246000  1.0 -0.4831368165
O  O91  1  0.93020000  0.66086000  0.41246000  1.0 -0.4831368165
O  O92  1  0.43020000  0.83914000  0.58754000  1.0 -0.4831368165
O  O93  1  0.43020000  0.83914000  0.91246000  1.0 -0.4831368165
O  O94  1  0.93020000  0.66086000  0.08754000  1.0 -0.4831368165
O  O95  1  0.06980000  0.33914000  0.58754000  1.0 -0.4831368165
O  O96  1  0.56980000  0.16086000  0.41246000  1.0 -0.4850187587
O  O97  1  0.97400000  0.04491000  0.25000000  1.0 -0.3514834332
O  O98  1  0.47400000  0.45509000  0.75000000  1.0 -0.3514834332
O  O99  1  0.52600000  0.54491000  0.25000000  1.0 -0.3598746049
O  O100  1  0.02600000  0.95509000  0.75000000  1.0 -0.3598746049
O  O101  1  0.82100000  0.19840000  0.25000000  1.0 0.100998728
O  O102  1  0.32100000  0.30160000  0.75000000  1.0 0.100998728
O  O103  1  0.67900000  0.69840000  0.25000000  1.0 0.079401111
O  O104  1  0.17900000  0.80160000  0.75000000  1.0 0.100998728
O  O105  1  0.12630000  0.99407000  0.19743000  1.0 -0.2970424579
O  O106  1  0.62630000  0.50593000  0.80257000  1.0 -0.2896858507
O  O107  1  0.37370000  0.49407000  0.30257000  1.0 -0.2970424579
O  O108  1  0.87370000  0.00593000  0.69743000  1.0 -0.2896858507
O  O109  1  0.87370000  0.00593000  0.80257000  1.0 -0.2896858507
O  O110  1  0.37370000  0.49407000  0.19743000  1.0 -0.2970424579
O  O111  1  0.62630000  0.50593000  0.69743000  1.0 -0.2896858507
O  O112  1  0.12630000  0.99407000  0.30257000  1.0 -0.2970424579
O  O113  1  0.23860000  0.21240000  0.86323000  1.0 -0.2665243732
O  O114  1  0.73860000  0.28760000  0.13677000  1.0 -0.2613553243
O  O115  1  0.26140000  0.71240000  0.63677000  1.0 -0.2613553243
O  O116  1  0.76140000  0.78760000  0.36323000  1.0 -0.2613553243
O  O117  1  0.76140000  0.78760000  0.13677000  1.0 -0.2613553243
O  O118  1  0.26140000  0.71240000  0.86323000  1.0 -0.2613553243
O  O119  1  0.73860000  0.28760000  0.36323000  1.0 -0.2613553243
O  O120  1  0.23860000  0.21240000  0.63677000  1.0 -0.2665243732
O  O121  1  0.23080000  0.29116000  0.94402000  1.0 -0.1182905919
O  O122  1  0.73080000  0.20884000  0.05598000  1.0 -0.1101608849
O  O123  1  0.26920000  0.79116000  0.55598000  1.0 -0.1101608849
O  O124  1  0.76920000  0.70884000  0.44402000  1.0 -0.1182905919
O  O125  1  0.76920000  0.70884000  0.05598000  1.0 -0.1101608849
O  O126  1  0.26920000  0.79116000  0.94402000  1.0 -0.1101608849
O  O127  1  0.73080000  0.20884000  0.44402000  1.0 -0.1101608849
O  O128  1  0.23080000  0.29116000  0.55598000  1.0 -0.1182905919
O  O129  1  0.11420000  0.19736000  0.93905000  1.0 -0.4338193523
O  O130  1  0.61420000  0.30264000  0.06095000  1.0 -0.4338193523
O  O131  1  0.38580000  0.69736000  0.56095000  1.0 -0.4338193523
O  O132  1  0.88580000  0.80264000  0.43905000  1.0 -0.4355965244
O  O133  1  0.88580000  0.80264000  0.06095000  1.0 -0.4338193523
O  O134  1  0.38580000  0.69736000  0.93905000  1.0 -0.4338193523
O  O135  1  0.61420000  0.30264000  0.43905000  1.0 -0.4338193523
O  O136  1  0.11420000  0.19736000  0.56095000  1.0 -0.4338193523
O  O137  1  0.25040000  0.06590000  0.25000000  1.0 -0.3391931268
O  O138  1  0.75040000  0.43410000  0.75000000  1.0 -0.3391931268
O  O139  1  0.24960000  0.56590000  0.25000000  1.0 -0.3391931268
O  O140  1  0.74960000  0.93410000  0.75000000  1.0 -0.3391931268
