# DDEC6 charges by PACMAN v1.1 (https://github.com/mtap-research/PACMAN-charge/)
data_TIXPIC_ASR_pacman
_symmetry_space_group_name_H-M   'P 1'
_cell_length_a   12.76700000
_cell_length_b   22.80800000
_cell_length_c   31.30000000
_cell_angle_alpha   90.00000000
_cell_angle_beta   90.00000000
_cell_angle_gamma   90.00000000
_symmetry_Int_Tables_number   1
_chemical_formula_structural   U4H64C55Br7N26O23
_chemical_formula_sum   'U16 H256 C220 Br28 N104 O92'
_cell_volume   9114.23873680
_cell_formula_units_Z   4
loop_
 _symmetry_equiv_pos_site_id
 _symmetry_equiv_pos_as_xyz
  1  'x, y, z'
loop_
 _atom_site_type_symbol
 _atom_site_label
 _atom_site_symmetry_multiplicity
 _atom_site_fract_x
 _atom_site_fract_y
 _atom_site_fract_z
 _atom_site_occupancy
 _atom_site_charge
U  U1  1  0.51842000  0.46226000  0.61317000  1.0 1.3727574259
U  U2  1  0.81566000  0.43450000  0.66529000  1.0 1.9383877029
U  U3  1  0.97242000  0.58069000  0.69980000  1.0 2.0189146906
U  U4  1  0.69584000  0.58323000  0.65702000  1.0 1.871153902
U  U5  1  0.98158000  0.53774000  0.11317000  1.0 1.3756906499
U  U6  1  0.68434000  0.56550000  0.16529000  1.0 1.9383877029
U  U7  1  0.52758000  0.41931000  0.19980000  1.0 2.0110619773
U  U8  1  0.80416000  0.41677000  0.15702000  1.0 1.8604847302
U  U9  1  0.48158000  0.96226000  0.88683000  1.0 1.3727574259
U  U10  1  0.18434000  0.93450000  0.83471000  1.0 1.9383877029
U  U11  1  0.02758000  0.08069000  0.80020000  1.0 2.0189146906
U  U12  1  0.30416000  0.08323000  0.84298000  1.0 1.871153902
U  U13  1  0.01842000  0.03774000  0.38683000  1.0 1.3727574259
U  U14  1  0.31566000  0.06550000  0.33471000  1.0 1.9383877029
U  U15  1  0.47242000  0.91931000  0.30020000  1.0 2.0189146906
U  U16  1  0.19584000  0.91677000  0.34298000  1.0 1.8604847302
H  H1  1  0.09800000  0.05255000  0.55049000  1.0 0.0903101927
H  H2  1  0.45207000  0.82288000  0.45653000  1.0 0.1090496332
H  H3  1  0.48166000  0.86392000  0.41828000  1.0 0.0903101927
H  H4  1  0.86830000  0.78565000  0.50066000  1.0 0.1014079475
H  H5  1  0.77159000  0.75228000  0.51962000  1.0 0.1090496332
H  H6  1  0.76588000  0.76567000  0.67256000  1.0 0.1279184344
H  H7  1  0.86150000  0.80241000  0.68864000  1.0 0.1014079475
H  H8  1  0.44515000  0.84295000  0.73301000  1.0 0.1090496332
H  H9  1  0.47676000  0.88814000  0.76848000  1.0 0.082437803
H  H10  1  0.93137000  0.97117000  0.51115000  1.0 0.0903101927
H  H11  1  0.95595000  0.90680000  0.49684000  1.0 0.082437803
H  H12  1  0.21928000  0.08961000  0.49154000  1.0 0.0903101927
H  H13  1  0.31795000  0.12270000  0.50893000  1.0 0.1014079475
H  H14  1  0.58356000  0.99198000  0.40816000  1.0 0.0681726841
H  H15  1  0.62438000  0.04100000  0.43911000  1.0 0.1014079475
H  H16  1  0.11749000  0.98853000  0.68799000  1.0 0.082437803
H  H17  1  0.13176000  0.92367000  0.67291000  1.0 0.1014079475
H  H18  1  0.21699000  0.10560000  0.68016000  1.0 0.082437803
H  H19  1  0.31795000  0.13426000  0.66079000  1.0 0.1090496332
H  H20  1  0.62129000  0.06188000  0.73523000  1.0 0.0903101927
H  H21  1  0.58260000  0.01869000  0.77081000  1.0 0.0598909796
H  H22  1  0.09525000  0.06258000  0.62297000  1.0 0.082437803
H  H23  1  0.15161000  0.90385000  0.51883000  1.0 0.1014079475
H  H24  1  0.12692000  0.96381000  0.49660000  1.0 0.082437803
H  H25  1  0.91894000  0.98436000  0.66537000  1.0 0.1014079475
H  H26  1  0.94644000  0.92387000  0.68595000  1.0 0.082437803
H  H27  1  0.81566000  0.88633000  0.73932000  1.0 0.082437803
H  H28  1  0.66939000  0.91696000  0.76925000  1.0 0.0903101927
H  H29  1  0.40033000  0.98429000  0.76587000  1.0 0.0598909796
H  H30  1  0.25769000  0.02368000  0.73654000  1.0 0.0598909796
H  H31  1  0.97954000  0.83591000  0.55986000  1.0 0.1014079475
H  H32  1  0.82247000  0.86358000  0.44588000  1.0 0.082437803
H  H33  1  0.67067000  0.89462000  0.41454000  1.0 0.0598909796
H  H34  1  0.40315000  0.96056000  0.41576000  1.0 0.049817953
H  H35  1  0.25700000  0.99941000  0.44660000  1.0 0.0681726841
H  H36  1  0.97429000  0.84086000  0.63190000  1.0 0.0903101927
H  H37  1  0.40200000  0.94745000  0.05049000  1.0 0.0903101927
H  H38  1  0.04793000  0.17712000  0.95653000  1.0 0.1090496332
H  H39  1  0.01834000  0.13608000  0.91828000  1.0 0.0903101927
H  H40  1  0.63170000  0.21435000  0.00066000  1.0 0.1014079475
H  H41  1  0.72841000  0.24772000  0.01962000  1.0 0.1090496332
H  H42  1  0.73412000  0.23433000  0.17256000  1.0 0.1279184344
H  H43  1  0.63850000  0.19759000  0.18864000  1.0 0.1014079475
H  H44  1  0.05485000  0.15705000  0.23301000  1.0 0.1090496332
H  H45  1  0.02324000  0.11186000  0.26848000  1.0 0.082437803
H  H46  1  0.56863000  0.02883000  0.01115000  1.0 0.0903101927
H  H47  1  0.54405000  0.09320000  0.99684000  1.0 0.082437803
H  H48  1  0.28072000  0.91039000  0.99154000  1.0 0.0903101927
H  H49  1  0.18205000  0.87730000  0.00893000  1.0 0.1014079475
H  H50  1  0.91644000  0.00802000  0.90816000  1.0 0.0681726841
H  H51  1  0.87562000  0.95900000  0.93911000  1.0 0.1014079475
H  H52  1  0.38251000  0.01147000  0.18799000  1.0 0.0903101927
H  H53  1  0.36824000  0.07633000  0.17291000  1.0 0.1014079475
H  H54  1  0.28301000  0.89440000  0.18016000  1.0 0.082437803
H  H55  1  0.18205000  0.86574000  0.16079000  1.0 0.1090496332
H  H56  1  0.87871000  0.93812000  0.23523000  1.0 0.0903101927
H  H57  1  0.91740000  0.98131000  0.27081000  1.0 0.0598909796
H  H58  1  0.40475000  0.93742000  0.12297000  1.0 0.082437803
H  H59  1  0.34839000  0.09615000  0.01883000  1.0 0.1014079475
H  H60  1  0.37308000  0.03619000  0.99660000  1.0 0.082437803
H  H61  1  0.58106000  0.01564000  0.16537000  1.0 0.1014079475
H  H62  1  0.55356000  0.07613000  0.18595000  1.0 0.082437803
H  H63  1  0.68434000  0.11367000  0.23932000  1.0 0.082437803
H  H64  1  0.83061000  0.08304000  0.26925000  1.0 0.0903101927
H  H65  1  0.09967000  0.01571000  0.26587000  1.0 0.0598909796
H  H66  1  0.24231000  0.97632000  0.23654000  1.0 0.0598909796
H  H67  1  0.52046000  0.16409000  0.05986000  1.0 0.1014079475
H  H68  1  0.67753000  0.13642000  0.94588000  1.0 0.082437803
H  H69  1  0.82933000  0.10538000  0.91454000  1.0 0.0598909796
H  H70  1  0.09685000  0.03944000  0.91576000  1.0 0.049817953
H  H71  1  0.24300000  0.00059000  0.94660000  1.0 0.0681726841
H  H72  1  0.52571000  0.15914000  0.13190000  1.0 0.0903101927
H  H73  1  0.90200000  0.55255000  0.94951000  1.0 0.0903101927
H  H74  1  0.54793000  0.32288000  0.04347000  1.0 0.1090496332
H  H75  1  0.51834000  0.36392000  0.08172000  1.0 0.0903101927
H  H76  1  0.13170000  0.28565000  0.99934000  1.0 0.1014079475
H  H77  1  0.22841000  0.25228000  0.98038000  1.0 0.1090496332
H  H78  1  0.23412000  0.26567000  0.82744000  1.0 0.1279184344
H  H79  1  0.13850000  0.30241000  0.81136000  1.0 0.1014079475
H  H80  1  0.55485000  0.34295000  0.76699000  1.0 0.1090496332
H  H81  1  0.52324000  0.38814000  0.73152000  1.0 0.082437803
H  H82  1  0.06863000  0.47117000  0.98885000  1.0 0.0903101927
H  H83  1  0.04405000  0.40680000  0.00316000  1.0 0.082437803
H  H84  1  0.78072000  0.58961000  0.00846000  1.0 0.0903101927
H  H85  1  0.68205000  0.62270000  0.99107000  1.0 0.1014079475
H  H86  1  0.41644000  0.49198000  0.09184000  1.0 0.0681726841
H  H87  1  0.37562000  0.54100000  0.06089000  1.0 0.1014079475
H  H88  1  0.88251000  0.48853000  0.81201000  1.0 0.0903101927
H  H89  1  0.86824000  0.42367000  0.82709000  1.0 0.1014079475
H  H90  1  0.78301000  0.60560000  0.81984000  1.0 0.082437803
H  H91  1  0.68205000  0.63426000  0.83921000  1.0 0.1090496332
H  H92  1  0.37871000  0.56188000  0.76477000  1.0 0.0903101927
H  H93  1  0.41740000  0.51869000  0.72919000  1.0 0.0598909796
H  H94  1  0.90475000  0.56258000  0.87703000  1.0 0.082437803
H  H95  1  0.84839000  0.40385000  0.98117000  1.0 0.1014079475
H  H96  1  0.87308000  0.46381000  0.00340000  1.0 0.082437803
H  H97  1  0.08106000  0.48436000  0.83463000  1.0 0.1014079475
H  H98  1  0.05356000  0.42387000  0.81405000  1.0 0.082437803
H  H99  1  0.18434000  0.38633000  0.76068000  1.0 0.082437803
H  H100  1  0.33061000  0.41696000  0.73075000  1.0 0.0903101927
H  H101  1  0.59967000  0.48429000  0.73413000  1.0 0.0598909796
H  H102  1  0.74231000  0.52368000  0.76346000  1.0 0.0598909796
H  H103  1  0.02046000  0.33591000  0.94014000  1.0 0.1014079475
H  H104  1  0.17753000  0.36358000  0.05412000  1.0 0.082437803
H  H105  1  0.32933000  0.39462000  0.08546000  1.0 0.0598909796
H  H106  1  0.59685000  0.46056000  0.08424000  1.0 0.049817953
H  H107  1  0.74300000  0.49941000  0.05340000  1.0 0.0681726841
H  H108  1  0.02571000  0.34086000  0.86810000  1.0 0.0903101927
H  H109  1  0.59800000  0.44745000  0.44951000  1.0 0.0903101927
H  H110  1  0.95207000  0.67712000  0.54347000  1.0 0.1090496332
H  H111  1  0.98166000  0.63608000  0.58172000  1.0 0.0903101927
H  H112  1  0.36830000  0.71435000  0.49934000  1.0 0.1014079475
H  H113  1  0.27159000  0.74772000  0.48038000  1.0 0.1090496332
H  H114  1  0.26588000  0.73433000  0.32744000  1.0 0.1279184344
H  H115  1  0.36150000  0.69759000  0.31136000  1.0 0.1014079475
H  H116  1  0.94515000  0.65705000  0.26699000  1.0 0.1090496332
H  H117  1  0.97676000  0.61186000  0.23152000  1.0 0.082437803
H  H118  1  0.43137000  0.52883000  0.48885000  1.0 0.0903101927
H  H119  1  0.45595000  0.59320000  0.50316000  1.0 0.082437803
H  H120  1  0.71928000  0.41039000  0.50846000  1.0 0.0903101927
H  H121  1  0.81795000  0.37730000  0.49107000  1.0 0.1014079475
H  H122  1  0.08356000  0.50802000  0.59184000  1.0 0.0681726841
H  H123  1  0.12438000  0.45900000  0.56089000  1.0 0.1014079475
H  H124  1  0.61749000  0.51147000  0.31201000  1.0 0.0903101927
H  H125  1  0.63176000  0.57633000  0.32709000  1.0 0.1014079475
H  H126  1  0.71699000  0.39440000  0.31984000  1.0 0.082437803
H  H127  1  0.81795000  0.36574000  0.33921000  1.0 0.1090496332
H  H128  1  0.12129000  0.43812000  0.26477000  1.0 0.0903101927
H  H129  1  0.08260000  0.48131000  0.22919000  1.0 0.0598909796
H  H130  1  0.59525000  0.43742000  0.37703000  1.0 0.082437803
H  H131  1  0.65161000  0.59615000  0.48117000  1.0 0.1014079475
H  H132  1  0.62692000  0.53619000  0.50340000  1.0 0.082437803
H  H133  1  0.41894000  0.51564000  0.33463000  1.0 0.1014079475
H  H134  1  0.44644000  0.57613000  0.31405000  1.0 0.082437803
H  H135  1  0.31566000  0.61367000  0.26068000  1.0 0.082437803
H  H136  1  0.16939000  0.58304000  0.23075000  1.0 0.0903101927
H  H137  1  0.90033000  0.51571000  0.23413000  1.0 0.0598909796
H  H138  1  0.75769000  0.47632000  0.26346000  1.0 0.0598909796
H  H139  1  0.47954000  0.66409000  0.44014000  1.0 0.1014079475
H  H140  1  0.32247000  0.63642000  0.55412000  1.0 0.082437803
H  H141  1  0.17067000  0.60538000  0.58546000  1.0 0.0598909796
H  H142  1  0.90315000  0.53944000  0.58424000  1.0 0.049817953
H  H143  1  0.75700000  0.50059000  0.55340000  1.0 0.0681726841
H  H144  1  0.47429000  0.65914000  0.36810000  1.0 0.0903101927
H  H145  1  0.78960000  0.15497000  0.62210000  1.0 0.1279184344
H  H146  1  0.67701000  0.08890000  0.53783000  1.0 0.1195769424
H  H147  1  0.75361000  0.07831000  0.57632000  1.0 0.1195769424
H  H148  1  0.53841000  0.26816000  0.56056000  1.0 0.1493620311
H  H149  1  0.56456000  0.17449000  0.54028000  1.0 0.1279184344
H  H150  1  0.60766000  0.98903000  0.54797000  1.0 0.0903101927
H  H151  1  0.67689000  0.97764000  0.58844000  1.0 0.0903101927
H  H152  1  0.53389000  0.07261000  0.58282000  1.0 0.1014079475
H  H153  1  0.61036000  0.06214000  0.62133000  1.0 0.1090496332
H  H154  1  0.45856000  0.97200000  0.58802000  1.0 0.0903101927
H  H155  1  0.52798000  0.96028000  0.62829000  1.0 0.0903101927
H  H156  1  0.52866000  0.88737000  0.55561000  1.0 0.0903101927
H  H157  1  0.59365000  0.87513000  0.59722000  1.0 0.1014079475
H  H158  1  0.37278000  0.87704000  0.59481000  1.0 0.0903101927
H  H159  1  0.43819000  0.86404000  0.63606000  1.0 0.0903101927
H  H160  1  0.43873000  0.78900000  0.56402000  1.0 0.1090496332
H  H161  1  0.49629000  0.77542000  0.60730000  1.0 0.1195769424
H  H162  1  0.39613000  0.74216000  0.66779000  1.0 0.1195769424
H  H163  1  0.24418000  0.70363000  0.69353000  1.0 0.1195769424
H  H164  1  0.09674000  0.75458000  0.58804000  1.0 0.1195769424
H  H165  1  0.25228000  0.79098000  0.56331000  1.0 0.1195769424
H  H166  1  0.37261000  0.42913000  0.59626000  1.0 0.1600384821
H  H167  1  0.41083000  0.37620000  0.58564000  1.0 0.2828360011
H  H168  1  0.78149000  0.25292000  0.63808000  1.0 0.1394242083
H  H169  1  0.28608000  0.49382000  0.61002000  1.0 0.227379251
H  H170  1  0.34059000  0.54514000  0.58788000  1.0 0.1796078419
H  H171  1  0.17947000  0.60562000  0.73690000  1.0 0.3591835981
H  H172  1  0.20169000  0.57319000  0.69927000  1.0 0.2032097129
H  H173  1  0.71040000  0.84503000  0.12210000  1.0 0.1279184344
H  H174  1  0.82299000  0.91110000  0.03783000  1.0 0.1195769424
H  H175  1  0.74639000  0.92169000  0.07632000  1.0 0.1195769424
H  H176  1  0.96159000  0.73184000  0.06056000  1.0 0.1493620311
H  H177  1  0.93544000  0.82551000  0.04028000  1.0 0.1279184344
H  H178  1  0.89234000  0.01097000  0.04797000  1.0 0.0903101927
H  H179  1  0.82311000  0.02236000  0.08844000  1.0 0.0903101927
H  H180  1  0.96611000  0.92739000  0.08282000  1.0 0.1014079475
H  H181  1  0.88964000  0.93786000  0.12133000  1.0 0.1090496332
H  H182  1  0.04144000  0.02800000  0.08802000  1.0 0.0903101927
H  H183  1  0.97202000  0.03972000  0.12829000  1.0 0.0903101927
H  H184  1  0.97134000  0.11263000  0.05561000  1.0 0.0903101927
H  H185  1  0.90635000  0.12487000  0.09722000  1.0 0.1014079475
H  H186  1  0.12722000  0.12296000  0.09481000  1.0 0.0903101927
H  H187  1  0.06181000  0.13596000  0.13606000  1.0 0.0903101927
H  H188  1  0.06127000  0.21100000  0.06402000  1.0 0.1090496332
H  H189  1  0.00371000  0.22458000  0.10730000  1.0 0.1195769424
H  H190  1  0.10387000  0.25784000  0.16779000  1.0 0.1195769424
H  H191  1  0.25582000  0.29637000  0.19353000  1.0 0.1195769424
H  H192  1  0.40326000  0.24542000  0.08804000  1.0 0.1195769424
H  H193  1  0.24772000  0.20902000  0.06331000  1.0 0.1195769424
H  H194  1  0.12739000  0.57087000  0.09626000  1.0 0.1600384821
H  H195  1  0.08917000  0.62380000  0.08564000  1.0 0.2828360011
H  H196  1  0.71851000  0.74708000  0.13808000  1.0 0.1394242083
H  H197  1  0.21392000  0.50618000  0.11002000  1.0 0.227379251
H  H198  1  0.15941000  0.45486000  0.08788000  1.0 0.1796078419
H  H199  1  0.32053000  0.39438000  0.23690000  1.0 0.3591835981
H  H200  1  0.29831000  0.42681000  0.19927000  1.0 0.2032097129
H  H201  1  0.21040000  0.65497000  0.87790000  1.0 0.1279184344
H  H202  1  0.32299000  0.58890000  0.96217000  1.0 0.1195769424
H  H203  1  0.24639000  0.57831000  0.92368000  1.0 0.1195769424
H  H204  1  0.46159000  0.76816000  0.93944000  1.0 0.1493620311
H  H205  1  0.43544000  0.67449000  0.95972000  1.0 0.1279184344
H  H206  1  0.39234000  0.48903000  0.95203000  1.0 0.0903101927
H  H207  1  0.32311000  0.47764000  0.91156000  1.0 0.0903101927
H  H208  1  0.46611000  0.57261000  0.91718000  1.0 0.1014079475
H  H209  1  0.38964000  0.56214000  0.87867000  1.0 0.1090496332
H  H210  1  0.54144000  0.47200000  0.91198000  1.0 0.0903101927
H  H211  1  0.47202000  0.46028000  0.87171000  1.0 0.0903101927
H  H212  1  0.47134000  0.38737000  0.94439000  1.0 0.0903101927
H  H213  1  0.40635000  0.37513000  0.90278000  1.0 0.1014079475
H  H214  1  0.62722000  0.37704000  0.90519000  1.0 0.0903101927
H  H215  1  0.56181000  0.36404000  0.86394000  1.0 0.0903101927
H  H216  1  0.56127000  0.28900000  0.93598000  1.0 0.1090496332
H  H217  1  0.50371000  0.27542000  0.89270000  1.0 0.1195769424
H  H218  1  0.60387000  0.24216000  0.83221000  1.0 0.1195769424
H  H219  1  0.75582000  0.20363000  0.80647000  1.0 0.1195769424
H  H220  1  0.90326000  0.25458000  0.91196000  1.0 0.1195769424
H  H221  1  0.74772000  0.29098000  0.93669000  1.0 0.1195769424
H  H222  1  0.62739000  0.92913000  0.90374000  1.0 0.1600384821
H  H223  1  0.58917000  0.87620000  0.91436000  1.0 0.2828360011
H  H224  1  0.21851000  0.75292000  0.86192000  1.0 0.1394242083
H  H225  1  0.71392000  0.99382000  0.88998000  1.0 0.227379251
H  H226  1  0.65941000  0.04514000  0.91212000  1.0 0.1796078419
H  H227  1  0.82053000  0.10562000  0.76310000  1.0 0.3591835981
H  H228  1  0.79831000  0.07319000  0.80073000  1.0 0.2032097129
H  H229  1  0.28960000  0.34503000  0.37790000  1.0 0.1279184344
H  H230  1  0.17701000  0.41110000  0.46217000  1.0 0.1195769424
H  H231  1  0.25361000  0.42169000  0.42368000  1.0 0.1195769424
H  H232  1  0.03841000  0.23184000  0.43944000  1.0 0.1493620311
H  H233  1  0.06456000  0.32551000  0.45972000  1.0 0.1279184344
H  H234  1  0.10766000  0.51097000  0.45203000  1.0 0.0903101927
H  H235  1  0.17689000  0.52236000  0.41156000  1.0 0.0903101927
H  H236  1  0.03389000  0.42739000  0.41718000  1.0 0.1014079475
H  H237  1  0.11036000  0.43786000  0.37867000  1.0 0.1090496332
H  H238  1  0.95856000  0.52800000  0.41198000  1.0 0.0903101927
H  H239  1  0.02798000  0.53972000  0.37171000  1.0 0.0903101927
H  H240  1  0.02866000  0.61263000  0.44439000  1.0 0.0903101927
H  H241  1  0.09365000  0.62487000  0.40278000  1.0 0.1014079475
H  H242  1  0.87278000  0.62296000  0.40519000  1.0 0.0903101927
H  H243  1  0.93819000  0.63596000  0.36394000  1.0 0.0903101927
H  H244  1  0.93873000  0.71100000  0.43598000  1.0 0.1090496332
H  H245  1  0.99629000  0.72458000  0.39270000  1.0 0.1195769424
H  H246  1  0.89613000  0.75784000  0.33221000  1.0 0.1195769424
H  H247  1  0.74418000  0.79637000  0.30647000  1.0 0.1195769424
H  H248  1  0.59674000  0.74542000  0.41196000  1.0 0.1195769424
H  H249  1  0.75228000  0.70902000  0.43669000  1.0 0.1195769424
H  H250  1  0.87261000  0.07087000  0.40374000  1.0 0.1600384821
H  H251  1  0.91083000  0.12380000  0.41436000  1.0 0.2828360011
H  H252  1  0.28149000  0.24708000  0.36192000  1.0 0.1394242083
H  H253  1  0.78608000  0.00618000  0.38998000  1.0 0.227379251
H  H254  1  0.84059000  0.95486000  0.41212000  1.0 0.1796078419
H  H255  1  0.67947000  0.89438000  0.26310000  1.0 0.3591835981
H  H256  1  0.70169000  0.92681000  0.30073000  1.0 0.2032097129
C  C1  1  0.45130000  0.05180000  0.48050000  1.0 0.5201933716
C  C2  1  0.89610000  0.95110000  0.59020000  1.0 0.5104643216
C  C3  1  0.16180000  0.03710000  0.56370000  1.0 0.1090496332
C  C4  1  0.48210000  0.86060000  0.44920000  1.0 0.0303052671
C  C5  1  0.33190000  0.89410000  0.49230000  1.0 0.5287816224
C  C6  1  0.63010000  0.81800000  0.48950000  1.0 0.5201933716
C  C7  1  0.80400000  0.79050000  0.51680000  1.0 0.0218526873
C  C8  1  0.77870000  0.79380000  0.59580000  1.0 0.5287816224
C  C9  1  0.79610000  0.80470000  0.67300000  1.0 0.0303052671
C  C10  1  0.62180000  0.83580000  0.69890000  1.0 0.5037397553
C  C11  1  0.47510000  0.88150000  0.73790000  1.0 0.0385127111
C  C12  1  0.31520000  0.91030000  0.69840000  1.0 0.5201933716
C  C13  1  0.90580000  0.93110000  0.51190000  1.0 0.0029429167
C  C14  1  0.74960000  0.97670000  0.48100000  1.0 0.5201933716
C  C15  1  0.74060000  0.99220000  0.69640000  1.0 0.5287816224
C  C16  1  0.28220000  0.08520000  0.50860000  1.0 0.0303052671
C  C17  1  0.44840000  0.06810000  0.69530000  1.0 0.5287816224
C  C18  1  0.59310000  0.00230000  0.43800000  1.0 0.0218526873
C  C19  1  0.30270000  0.09580000  0.58650000  1.0 0.5037397553
C  C20  1  0.16190000  0.96260000  0.67140000  1.0 0.0218526873
C  C21  1  0.28050000  0.09760000  0.66420000  1.0 0.0218526873
C  C22  1  0.16370000  0.94260000  0.59460000  1.0 0.5104643216
C  C23  1  0.59060000  0.02360000  0.74020000  1.0 0.0083306788
C  C24  1  0.15840000  0.04200000  0.61330000  1.0 0.0903101927
C  C25  1  0.17540000  0.94400000  0.51560000  1.0 0.0218526873
C  C26  1  0.89620000  0.94390000  0.66790000  1.0 0.0083306788
C  C27  1  0.76200000  0.89530000  0.71790000  1.0 0.0681726841
C  C28  1  0.66550000  0.91950000  0.73800000  1.0 0.0903101927
C  C29  1  0.40520000  0.98420000  0.73460000  1.0 0.0903101927
C  C30  1  0.30650000  0.00960000  0.71470000  1.0 0.0903101927
C  C31  1  0.91230000  0.85170000  0.56960000  1.0 0.1014079475
C  C32  1  0.77110000  0.87670000  0.46710000  1.0 0.0385127111
C  C33  1  0.66770000  0.89910000  0.44570000  1.0 0.0385127111
C  C34  1  0.41040000  0.96340000  0.44690000  1.0 0.1014079475
C  C35  1  0.31050000  0.99010000  0.46800000  1.0 0.0903101927
C  C36  1  0.91030000  0.85660000  0.61900000  1.0 0.0903101927
C  C37  1  0.04870000  0.94820000  0.98050000  1.0 0.5201933716
C  C38  1  0.60390000  0.04890000  0.09020000  1.0 0.5104643216
C  C39  1  0.33820000  0.96290000  0.06370000  1.0 0.1090496332
C  C40  1  0.01790000  0.13940000  0.94920000  1.0 0.0303052671
C  C41  1  0.16810000  0.10590000  0.99230000  1.0 0.5287816224
C  C42  1  0.86990000  0.18200000  0.98950000  1.0 0.5201933716
C  C43  1  0.69600000  0.20950000  0.01680000  1.0 0.0218526873
C  C44  1  0.72130000  0.20620000  0.09580000  1.0 0.5287816224
C  C45  1  0.70390000  0.19530000  0.17300000  1.0 0.0303052671
C  C46  1  0.87820000  0.16420000  0.19890000  1.0 0.5037397553
C  C47  1  0.02490000  0.11850000  0.23790000  1.0 0.0385127111
C  C48  1  0.18480000  0.08970000  0.19840000  1.0 0.5201933716
C  C49  1  0.59420000  0.06890000  0.01190000  1.0 0.0029429167
C  C50  1  0.75040000  0.02330000  0.98100000  1.0 0.5201933716
C  C51  1  0.75940000  0.00780000  0.19640000  1.0 0.5287816224
C  C52  1  0.21780000  0.91480000  0.00860000  1.0 0.0303052671
C  C53  1  0.05160000  0.93190000  0.19530000  1.0 0.5287816224
C  C54  1  0.90690000  0.99770000  0.93800000  1.0 0.0218526873
C  C55  1  0.19730000  0.90420000  0.08650000  1.0 0.5037397553
C  C56  1  0.33810000  0.03740000  0.17140000  1.0 0.0218526873
C  C57  1  0.21950000  0.90240000  0.16420000  1.0 0.0218526873
C  C58  1  0.33630000  0.05740000  0.09460000  1.0 0.5104643216
C  C59  1  0.90940000  0.97640000  0.24020000  1.0 0.0083306788
C  C60  1  0.34160000  0.95800000  0.11330000  1.0 0.0903101927
C  C61  1  0.32460000  0.05600000  0.01560000  1.0 0.0218526873
C  C62  1  0.60380000  0.05610000  0.16790000  1.0 0.0083306788
C  C63  1  0.73800000  0.10470000  0.21790000  1.0 0.0681726841
C  C64  1  0.83450000  0.08050000  0.23800000  1.0 0.082437803
C  C65  1  0.09480000  0.01580000  0.23460000  1.0 0.0903101927
C  C66  1  0.19350000  0.99040000  0.21470000  1.0 0.0903101927
C  C67  1  0.58770000  0.14830000  0.06960000  1.0 0.1014079475
C  C68  1  0.72890000  0.12330000  0.96710000  1.0 0.0385127111
C  C69  1  0.83230000  0.10090000  0.94570000  1.0 0.0385127111
C  C70  1  0.08960000  0.03660000  0.94690000  1.0 0.1014079475
C  C71  1  0.18950000  0.00990000  0.96800000  1.0 0.0903101927
C  C72  1  0.58970000  0.14340000  0.11900000  1.0 0.0903101927
C  C73  1  0.54870000  0.55180000  0.01950000  1.0 0.5201933716
C  C74  1  0.10390000  0.45110000  0.90980000  1.0 0.5104643216
C  C75  1  0.83820000  0.53710000  0.93630000  1.0 0.1090496332
C  C76  1  0.51790000  0.36060000  0.05080000  1.0 0.0303052671
C  C77  1  0.66810000  0.39410000  0.00770000  1.0 0.5287816224
C  C78  1  0.36990000  0.31800000  0.01050000  1.0 0.5201933716
C  C79  1  0.19600000  0.29050000  0.98320000  1.0 0.0218526873
C  C80  1  0.22130000  0.29380000  0.90420000  1.0 0.5287816224
C  C81  1  0.20390000  0.30470000  0.82700000  1.0 0.0385127111
C  C82  1  0.37820000  0.33580000  0.80110000  1.0 0.5037397553
C  C83  1  0.52490000  0.38150000  0.76210000  1.0 0.0385127111
C  C84  1  0.68480000  0.41030000  0.80160000  1.0 0.5201933716
C  C85  1  0.09420000  0.43110000  0.98810000  1.0 0.0029429167
C  C86  1  0.25040000  0.47670000  0.01900000  1.0 0.5201933716
C  C87  1  0.25940000  0.49220000  0.80360000  1.0 0.5287816224
C  C88  1  0.71780000  0.58520000  0.99140000  1.0 0.0303052671
C  C89  1  0.55160000  0.56810000  0.80470000  1.0 0.5287816224
C  C90  1  0.40690000  0.50230000  0.06200000  1.0 0.0218526873
C  C91  1  0.69730000  0.59580000  0.91350000  1.0 0.5037397553
C  C92  1  0.83810000  0.46260000  0.82860000  1.0 0.0218526873
C  C93  1  0.71950000  0.59760000  0.83580000  1.0 0.0218526873
C  C94  1  0.83630000  0.44260000  0.90540000  1.0 0.5104643216
C  C95  1  0.40940000  0.52360000  0.75980000  1.0 0.0083306788
C  C96  1  0.84160000  0.54200000  0.88670000  1.0 0.0903101927
C  C97  1  0.82460000  0.44400000  0.98440000  1.0 0.0218526873
C  C98  1  0.10380000  0.44390000  0.83210000  1.0 0.0083306788
C  C99  1  0.23800000  0.39530000  0.78210000  1.0 0.0681726841
C  C100  1  0.33450000  0.41950000  0.76200000  1.0 0.0903101927
C  C101  1  0.59480000  0.48420000  0.76540000  1.0 0.0903101927
C  C102  1  0.69350000  0.50960000  0.78530000  1.0 0.0903101927
C  C103  1  0.08770000  0.35170000  0.93040000  1.0 0.1090496332
C  C104  1  0.22890000  0.37670000  0.03290000  1.0 0.0385127111
C  C105  1  0.33230000  0.39910000  0.05430000  1.0 0.0385127111
C  C106  1  0.58960000  0.46340000  0.05310000  1.0 0.1014079475
C  C107  1  0.68950000  0.49010000  0.03200000  1.0 0.0903101927
C  C108  1  0.08970000  0.35660000  0.88100000  1.0 0.0903101927
C  C109  1  0.95130000  0.44820000  0.51950000  1.0 0.5201933716
C  C110  1  0.39610000  0.54890000  0.40980000  1.0 0.5104643216
C  C111  1  0.66180000  0.46290000  0.43630000  1.0 0.1090496332
C  C112  1  0.98210000  0.63940000  0.55080000  1.0 0.0303052671
C  C113  1  0.83190000  0.60590000  0.50770000  1.0 0.5287816224
C  C114  1  0.13010000  0.68200000  0.51050000  1.0 0.5201933716
C  C115  1  0.30400000  0.70950000  0.48320000  1.0 0.0218526873
C  C116  1  0.27870000  0.70620000  0.40420000  1.0 0.5287816224
C  C117  1  0.29610000  0.69530000  0.32700000  1.0 0.0303052671
C  C118  1  0.12180000  0.66420000  0.30110000  1.0 0.5037397553
C  C119  1  0.97510000  0.61850000  0.26210000  1.0 0.0385127111
C  C120  1  0.81520000  0.58970000  0.30160000  1.0 0.5201933716
C  C121  1  0.40580000  0.56890000  0.48810000  1.0 0.0029429167
C  C122  1  0.24960000  0.52330000  0.51900000  1.0 0.5201933716
C  C123  1  0.24060000  0.50780000  0.30360000  1.0 0.5287816224
C  C124  1  0.78220000  0.41480000  0.49140000  1.0 0.0303052671
C  C125  1  0.94840000  0.43190000  0.30470000  1.0 0.5287816224
C  C126  1  0.09310000  0.49770000  0.56200000  1.0 0.0218526873
C  C127  1  0.80270000  0.40420000  0.41350000  1.0 0.5037397553
C  C128  1  0.66190000  0.53740000  0.32860000  1.0 0.0218526873
C  C129  1  0.78050000  0.40240000  0.33580000  1.0 0.0218526873
C  C130  1  0.66370000  0.55740000  0.40540000  1.0 0.5104643216
C  C131  1  0.09060000  0.47640000  0.25980000  1.0 0.0083306788
C  C132  1  0.65840000  0.45800000  0.38670000  1.0 0.1014079475
C  C133  1  0.67540000  0.55600000  0.48440000  1.0 0.0218526873
C  C134  1  0.39620000  0.55610000  0.33210000  1.0 0.0083306788
C  C135  1  0.26200000  0.60470000  0.28210000  1.0 0.0681726841
C  C136  1  0.16550000  0.58050000  0.26200000  1.0 0.082437803
C  C137  1  0.90520000  0.51580000  0.26540000  1.0 0.0903101927
C  C138  1  0.80650000  0.49040000  0.28530000  1.0 0.0903101927
C  C139  1  0.41230000  0.64830000  0.43040000  1.0 0.1014079475
C  C140  1  0.27110000  0.62330000  0.53290000  1.0 0.0385127111
C  C141  1  0.16770000  0.60090000  0.55430000  1.0 0.0385127111
C  C142  1  0.91040000  0.53660000  0.55310000  1.0 0.1014079475
C  C143  1  0.81050000  0.50990000  0.53200000  1.0 0.0903101927
C  C144  1  0.41030000  0.64340000  0.38100000  1.0 0.0903101927
C  C145  1  0.65250000  0.33600000  0.61420000  1.0 0.5925176849
C  C146  1  0.66190000  0.27260000  0.60230000  1.0 0.0083306788
C  C147  1  0.74000000  0.17860000  0.60880000  1.0 0.0218526873
C  C148  1  0.68490000  0.09300000  0.56850000  1.0 -0.129170091
C  C149  1  0.59270000  0.24650000  0.57250000  1.0 -0.1621427427
C  C150  1  0.60610000  0.19040000  0.56180000  1.0 0.0218526873
C  C151  1  0.60990000  0.99270000  0.57880000  1.0 -0.1475282575
C  C152  1  0.60250000  0.05780000  0.59070000  1.0 -0.1695312963
C  C153  1  0.52530000  0.95640000  0.59750000  1.0 -0.1871484595
C  C154  1  0.52910000  0.89190000  0.58640000  1.0 -0.1423906459
C  C155  1  0.43700000  0.85940000  0.60530000  1.0 -0.1695312963
C  C156  1  0.43570000  0.79440000  0.59470000  1.0 -0.1199184249
C  C157  1  0.33530000  0.74370000  0.65150000  1.0 -0.0028558376
C  C158  1  0.24450000  0.72210000  0.66710000  1.0 -0.1695312963
C  C159  1  0.15690000  0.75190000  0.60470000  1.0 -0.1621427427
C  C160  1  0.15290000  0.72700000  0.64460000  1.0 0.0303052671
C  C161  1  0.04650000  0.70660000  0.66210000  1.0 0.5745889207
C  C162  1  0.25000000  0.77270000  0.58980000  1.0 0.0681726841
C  C163  1  0.73350000  0.23740000  0.61880000  1.0 -0.1695312963
C  C164  1  0.84750000  0.66400000  0.11420000  1.0 0.5925176849
C  C165  1  0.83810000  0.72740000  0.10230000  1.0 0.0083306788
C  C166  1  0.76000000  0.82140000  0.10880000  1.0 0.0218526873
C  C167  1  0.81510000  0.90700000  0.06850000  1.0 -0.129170091
C  C168  1  0.90730000  0.75350000  0.07250000  1.0 -0.1621427427
C  C169  1  0.89390000  0.80960000  0.06180000  1.0 0.0218526873
C  C170  1  0.89010000  0.00730000  0.07880000  1.0 -0.1475282575
C  C171  1  0.89750000  0.94220000  0.09070000  1.0 -0.1695312963
C  C172  1  0.97470000  0.04360000  0.09750000  1.0 -0.1871484595
C  C173  1  0.97090000  0.10810000  0.08640000  1.0 -0.1423906459
C  C174  1  0.06300000  0.14060000  0.10530000  1.0 -0.1695312963
C  C175  1  0.06430000  0.20560000  0.09470000  1.0 -0.1199184249
C  C176  1  0.16470000  0.25630000  0.15150000  1.0 -0.0028558376
C  C177  1  0.25550000  0.27790000  0.16710000  1.0 -0.1695312963
C  C178  1  0.34310000  0.24810000  0.10470000  1.0 -0.1621427427
C  C179  1  0.34710000  0.27300000  0.14460000  1.0 0.0303052671
C  C180  1  0.45350000  0.29340000  0.16210000  1.0 0.5745889207
C  C181  1  0.25000000  0.22730000  0.08980000  1.0 0.0681726841
C  C182  1  0.76650000  0.76260000  0.11880000  1.0 -0.1695312963
C  C183  1  0.34750000  0.83600000  0.88580000  1.0 0.5925176849
C  C184  1  0.33810000  0.77260000  0.89770000  1.0 0.0083306788
C  C185  1  0.26000000  0.67860000  0.89120000  1.0 0.0218526873
C  C186  1  0.31510000  0.59300000  0.93150000  1.0 -0.129170091
C  C187  1  0.40730000  0.74650000  0.92750000  1.0 -0.1621427427
C  C188  1  0.39390000  0.69040000  0.93820000  1.0 0.0218526873
C  C189  1  0.39010000  0.49270000  0.92120000  1.0 -0.1475282575
C  C190  1  0.39750000  0.55780000  0.90930000  1.0 -0.1695312963
C  C191  1  0.47470000  0.45640000  0.90250000  1.0 -0.1871484595
C  C192  1  0.47090000  0.39190000  0.91360000  1.0 -0.1423906459
C  C193  1  0.56300000  0.35940000  0.89470000  1.0 -0.1695312963
C  C194  1  0.56430000  0.29440000  0.90530000  1.0 -0.1199184249
C  C195  1  0.66470000  0.24370000  0.84850000  1.0 -0.0028558376
C  C196  1  0.75550000  0.22210000  0.83290000  1.0 -0.1695312963
C  C197  1  0.84310000  0.25190000  0.89530000  1.0 -0.1621427427
C  C198  1  0.84710000  0.22700000  0.85540000  1.0 0.0303052671
C  C199  1  0.95350000  0.20660000  0.83790000  1.0 0.5745889207
C  C200  1  0.75000000  0.27270000  0.91020000  1.0 0.0681726841
C  C201  1  0.26650000  0.73740000  0.88120000  1.0 -0.1695312963
C  C202  1  0.15250000  0.16400000  0.38580000  1.0 0.5925176849
C  C203  1  0.16190000  0.22740000  0.39770000  1.0 0.0083306788
C  C204  1  0.24000000  0.32140000  0.39120000  1.0 0.0218526873
C  C205  1  0.18490000  0.40700000  0.43150000  1.0 -0.129170091
C  C206  1  0.09270000  0.25350000  0.42750000  1.0 -0.1621427427
C  C207  1  0.10610000  0.30960000  0.43820000  1.0 0.0218526873
C  C208  1  0.10990000  0.50730000  0.42120000  1.0 -0.1475282575
C  C209  1  0.10250000  0.44220000  0.40930000  1.0 -0.1695312963
C  C210  1  0.02530000  0.54360000  0.40250000  1.0 -0.1871484595
C  C211  1  0.02910000  0.60810000  0.41360000  1.0 -0.1423906459
C  C212  1  0.93700000  0.64060000  0.39470000  1.0 -0.1695312963
C  C213  1  0.93570000  0.70560000  0.40530000  1.0 -0.1199184249
C  C214  1  0.83530000  0.75630000  0.34850000  1.0 -0.0028558376
C  C215  1  0.74450000  0.77790000  0.33290000  1.0 -0.1695312963
C  C216  1  0.65690000  0.74810000  0.39530000  1.0 -0.1621427427
C  C217  1  0.65290000  0.77300000  0.35540000  1.0 0.0303052671
C  C218  1  0.54650000  0.79340000  0.33790000  1.0 0.5745889207
C  C219  1  0.75000000  0.72730000  0.41020000  1.0 0.0681726841
C  C220  1  0.23350000  0.26260000  0.38120000  1.0 -0.1695312963
Br  Br1  1  0.01850000  0.45540000  0.71531000  1.0 -0.6371999671
Br  Br2  1  0.25110000  0.57170000  0.64830000  1.0 -0.129170091
Br  Br3  1  0.41300000  0.63250000  0.61140000  1.0 -0.0659261758
Br  Br4  1  0.37700000  0.57450000  0.63640000  1.0 0.049817953
Br  Br5  1  0.42000000  0.58550000  0.63800000  1.0 0.0303052671
Br  Br6  1  0.33600000  0.58690000  0.67410000  1.0 -0.1475282575
Br  Br7  1  0.54440000  0.66440000  0.54450000  1.0 -0.4865905136
Br  Br8  1  0.48150000  0.54460000  0.21531000  1.0 -0.6371999671
Br  Br9  1  0.24890000  0.42830000  0.14830000  1.0 -0.1423906459
Br  Br10  1  0.08700000  0.36750000  0.11140000  1.0 -0.0623553398
Br  Br11  1  0.12300000  0.42550000  0.13640000  1.0 0.049817953
Br  Br12  1  0.08000000  0.41450000  0.13800000  1.0 0.0303052671
Br  Br13  1  0.16400000  0.41310000  0.17410000  1.0 -0.1423906459
Br  Br14  1  0.95560000  0.33560000  0.04450000  1.0 -0.4837186764
Br  Br15  1  0.98150000  0.95540000  0.78469000  1.0 -0.6371999671
Br  Br16  1  0.74890000  0.07170000  0.85170000  1.0 -0.1423906459
Br  Br17  1  0.58700000  0.13250000  0.88860000  1.0 -0.0623553398
Br  Br18  1  0.62300000  0.07450000  0.86360000  1.0 0.049817953
Br  Br19  1  0.58000000  0.08550000  0.86200000  1.0 0.0303052671
Br  Br20  1  0.66400000  0.08690000  0.82590000  1.0 -0.1423906459
Br  Br21  1  0.45560000  0.16440000  0.95550000  1.0 -0.4865905136
Br  Br22  1  0.51850000  0.04460000  0.28469000  1.0 -0.6371999671
Br  Br23  1  0.75110000  0.92830000  0.35170000  1.0 -0.1423906459
Br  Br24  1  0.91300000  0.86750000  0.38860000  1.0 -0.0659261758
Br  Br25  1  0.87700000  0.92550000  0.36360000  1.0 0.049817953
Br  Br26  1  0.92000000  0.91450000  0.36200000  1.0 0.0303052671
Br  Br27  1  0.83600000  0.91310000  0.32590000  1.0 -0.1475282575
Br  Br28  1  0.04440000  0.83560000  0.45550000  1.0 -0.4865905136
N  N1  1  0.81880000  0.82170000  0.62990000  1.0 -0.2189426022
N  N2  1  0.26270000  0.96110000  0.69090000  1.0 -0.2481994699
N  N3  1  0.58140000  0.88250000  0.72140000  1.0 -0.2481994699
N  N4  1  0.72750000  0.84210000  0.69540000  1.0 -0.2189426022
N  N5  1  0.15920000  0.98150000  0.62790000  1.0 -0.2481994699
N  N6  1  0.40910000  0.92490000  0.71830000  1.0 -0.2811987614
N  N7  1  0.17220000  0.97280000  0.55740000  1.0 -0.2596164887
N  N8  1  0.27530000  0.94370000  0.49670000  1.0 -0.2189426022
N  N9  1  0.41710000  0.90610000  0.46670000  1.0 -0.2394454361
N  N10  1  0.58830000  0.86220000  0.46370000  1.0 -0.2596164887
N  N11  1  0.73410000  0.82880000  0.49320000  1.0 -0.2277235112
N  N12  1  0.82970000  0.81280000  0.55940000  1.0 -0.2189426022
N  N13  1  0.79550000  0.94340000  0.68940000  1.0 -0.2277235112
N  N14  1  0.89990000  0.91770000  0.62600000  1.0 -0.2189426022
N  N15  1  0.48760000  0.02170000  0.72040000  1.0 -0.2929129938
N  N16  1  0.66130000  0.97920000  0.72440000  1.0 -0.2811987614
N  N17  1  0.34470000  0.05740000  0.68830000  1.0 -0.2394454361
N  N18  1  0.25250000  0.07020000  0.55180000  1.0 -0.2596164887
N  N19  1  0.25290000  0.07550000  0.62300000  1.0 -0.2481994699
N  N20  1  0.34930000  0.04240000  0.48850000  1.0 -0.2481994699
N  N21  1  0.49200000  0.00380000  0.45890000  1.0 -0.2394454361
N  N22  1  0.66340000  0.96050000  0.45770000  1.0 -0.3189326565
N  N23  1  0.80650000  0.92850000  0.48990000  1.0 -0.2811987614
N  N24  1  0.90020000  0.91200000  0.55600000  1.0 -0.2394454361
N  N25  1  0.68120000  0.17830000  0.12990000  1.0 -0.2189426022
N  N26  1  0.23730000  0.03890000  0.19090000  1.0 -0.2481994699
N  N27  1  0.91860000  0.11750000  0.22140000  1.0 -0.2481994699
N  N28  1  0.77250000  0.15790000  0.19540000  1.0 -0.2189426022
N  N29  1  0.34080000  0.01850000  0.12790000  1.0 -0.2481994699
N  N30  1  0.09090000  0.07510000  0.21830000  1.0 -0.2811987614
N  N31  1  0.32780000  0.02720000  0.05740000  1.0 -0.2596164887
N  N32  1  0.22470000  0.05630000  0.99670000  1.0 -0.2189426022
N  N33  1  0.08290000  0.09390000  0.96670000  1.0 -0.2394454361
N  N34  1  0.91170000  0.13780000  0.96370000  1.0 -0.2596164887
N  N35  1  0.76590000  0.17120000  0.99320000  1.0 -0.2277235112
N  N36  1  0.67030000  0.18720000  0.05940000  1.0 -0.2189426022
N  N37  1  0.70450000  0.05660000  0.18940000  1.0 -0.2277235112
N  N38  1  0.60010000  0.08230000  0.12600000  1.0 -0.2189426022
N  N39  1  0.01240000  0.97830000  0.22040000  1.0 -0.2929129938
N  N40  1  0.83870000  0.02080000  0.22440000  1.0 -0.2811987614
N  N41  1  0.15530000  0.94260000  0.18830000  1.0 -0.2394454361
N  N42  1  0.24750000  0.92980000  0.05180000  1.0 -0.2596164887
N  N43  1  0.24710000  0.92450000  0.12300000  1.0 -0.2481994699
N  N44  1  0.15070000  0.95760000  0.98850000  1.0 -0.2481994699
N  N45  1  0.00800000  0.99620000  0.95890000  1.0 -0.2394454361
N  N46  1  0.83660000  0.03950000  0.95770000  1.0 -0.3189326565
N  N47  1  0.69350000  0.07150000  0.98990000  1.0 -0.2811987614
N  N48  1  0.59980000  0.08800000  0.05600000  1.0 -0.2394454361
N  N49  1  0.18120000  0.32170000  0.87010000  1.0 -0.2189426022
N  N50  1  0.73730000  0.46110000  0.80910000  1.0 -0.2481994699
N  N51  1  0.41860000  0.38250000  0.77860000  1.0 -0.2481994699
N  N52  1  0.27250000  0.34210000  0.80460000  1.0 -0.2189426022
N  N53  1  0.84080000  0.48150000  0.87210000  1.0 -0.2481994699
N  N54  1  0.59090000  0.42490000  0.78170000  1.0 -0.2811987614
N  N55  1  0.82780000  0.47280000  0.94260000  1.0 -0.2596164887
N  N56  1  0.72470000  0.44370000  0.00330000  1.0 -0.2189426022
N  N57  1  0.58290000  0.40610000  0.03330000  1.0 -0.2394454361
N  N58  1  0.41170000  0.36220000  0.03630000  1.0 -0.2596164887
N  N59  1  0.26590000  0.32880000  0.00680000  1.0 -0.2277235112
N  N60  1  0.17030000  0.31280000  0.94060000  1.0 -0.2189426022
N  N61  1  0.20450000  0.44340000  0.81060000  1.0 -0.2277235112
N  N62  1  0.10010000  0.41770000  0.87400000  1.0 -0.2189426022
N  N63  1  0.51240000  0.52170000  0.77960000  1.0 -0.2929129938
N  N64  1  0.33870000  0.47920000  0.77560000  1.0 -0.2811987614
N  N65  1  0.65530000  0.55740000  0.81170000  1.0 -0.2394454361
N  N66  1  0.74750000  0.57020000  0.94820000  1.0 -0.2670659314
N  N67  1  0.74710000  0.57550000  0.87700000  1.0 -0.2481994699
N  N68  1  0.65070000  0.54240000  0.01150000  1.0 -0.2481994699
N  N69  1  0.50800000  0.50380000  0.04110000  1.0 -0.2394454361
N  N70  1  0.33660000  0.46050000  0.04230000  1.0 -0.3189326565
N  N71  1  0.19350000  0.42850000  0.01010000  1.0 -0.2811987614
N  N72  1  0.09980000  0.41200000  0.94400000  1.0 -0.2394454361
N  N73  1  0.31880000  0.67830000  0.37010000  1.0 -0.2189426022
N  N74  1  0.76270000  0.53890000  0.30910000  1.0 -0.2481994699
N  N75  1  0.08140000  0.61750000  0.27860000  1.0 -0.2481994699
N  N76  1  0.22750000  0.65790000  0.30460000  1.0 -0.2189426022
N  N77  1  0.65920000  0.51850000  0.37210000  1.0 -0.2481994699
N  N78  1  0.90910000  0.57510000  0.28170000  1.0 -0.2811987614
N  N79  1  0.67220000  0.52720000  0.44260000  1.0 -0.2596164887
N  N80  1  0.77530000  0.55630000  0.50330000  1.0 -0.2189426022
N  N81  1  0.91710000  0.59390000  0.53330000  1.0 -0.2394454361
N  N82  1  0.08830000  0.63780000  0.53630000  1.0 -0.2596164887
N  N83  1  0.23410000  0.67120000  0.50680000  1.0 -0.2277235112
N  N84  1  0.32970000  0.68720000  0.44060000  1.0 -0.2189426022
N  N85  1  0.29550000  0.55660000  0.31060000  1.0 -0.2277235112
N  N86  1  0.39990000  0.58230000  0.37400000  1.0 -0.2189426022
N  N87  1  0.98760000  0.47830000  0.27960000  1.0 -0.2929129938
N  N88  1  0.16130000  0.52080000  0.27560000  1.0 -0.2811987614
N  N89  1  0.84470000  0.44260000  0.31170000  1.0 -0.2394454361
N  N90  1  0.75250000  0.42980000  0.44820000  1.0 -0.2596164887
N  N91  1  0.75290000  0.42450000  0.37700000  1.0 -0.2481994699
N  N92  1  0.84930000  0.45760000  0.51150000  1.0 -0.2481994699
N  N93  1  0.99200000  0.49620000  0.54110000  1.0 -0.2394454361
N  N94  1  0.16340000  0.53950000  0.54230000  1.0 -0.3189326565
N  N95  1  0.30650000  0.57150000  0.51010000  1.0 -0.2811987614
N  N96  1  0.40020000  0.58800000  0.44400000  1.0 -0.2394454361
N  N97  1  0.67640000  0.15650000  0.58060000  1.0 0.1195769424
N  N98  1  0.33670000  0.76740000  0.61210000  1.0 0.082437803
N  N99  1  0.82360000  0.84350000  0.08060000  1.0 0.1195769424
N  N100  1  0.16330000  0.23260000  0.11210000  1.0 0.082437803
N  N101  1  0.32360000  0.65650000  0.91940000  1.0 0.1195769424
N  N102  1  0.66330000  0.26740000  0.88790000  1.0 0.082437803
N  N103  1  0.17640000  0.34350000  0.41940000  1.0 0.1195769424
N  N104  1  0.83670000  0.73260000  0.38790000  1.0 0.082437803
O  O1  1  0.58150000  0.77730000  0.50390000  1.0 -0.4631375859
O  O2  1  0.31220000  0.84640000  0.50850000  1.0 -0.5167359787
O  O3  1  0.57130000  0.79460000  0.68500000  1.0 -0.5167359787
O  O4  1  0.15620000  0.88930000  0.59780000  1.0 -0.5288554221
O  O5  1  0.28640000  0.86040000  0.68980000  1.0 -0.5078190791
O  O6  1  0.70590000  0.75720000  0.59520000  1.0 -0.5288554221
O  O7  1  0.77400000  0.02800000  0.48940000  1.0 -0.5078190791
O  O8  1  0.50170000  0.09660000  0.48940000  1.0 -0.5506261478
O  O9  1  0.37370000  0.13100000  0.58460000  1.0 -0.5167359787
O  O10  1  0.50010000  0.11110000  0.68350000  1.0 -0.5288554221
O  O11  1  0.75770000  0.04140000  0.68070000  1.0 -0.5356883596
O  O12  1  0.89890000  0.00370000  0.58770000  1.0 -0.5167359787
O  O13  1  0.91850000  0.22270000  0.00390000  1.0 -0.4631375859
O  O14  1  0.18780000  0.15360000  0.00850000  1.0 -0.5167359787
O  O15  1  0.92870000  0.20540000  0.18500000  1.0 -0.5167359787
O  O16  1  0.34380000  0.11070000  0.09780000  1.0 -0.5288554221
O  O17  1  0.21360000  0.13960000  0.18980000  1.0 -0.5078190791
O  O18  1  0.79410000  0.24280000  0.09520000  1.0 -0.5288554221
O  O19  1  0.72600000  0.97200000  0.98940000  1.0 -0.5078190791
O  O20  1  0.99830000  0.90340000  0.98940000  1.0 -0.5506261478
O  O21  1  0.12630000  0.86900000  0.08460000  1.0 -0.5167359787
O  O22  1  0.99990000  0.88890000  0.18350000  1.0 -0.5288554221
O  O23  1  0.74230000  0.95860000  0.18070000  1.0 -0.5356883596
O  O24  1  0.60110000  0.99630000  0.08770000  1.0 -0.5167359787
O  O25  1  0.41850000  0.27730000  0.99610000  1.0 -0.4631375859
O  O26  1  0.68780000  0.34640000  0.99150000  1.0 -0.5167359787
O  O27  1  0.42870000  0.29460000  0.81500000  1.0 -0.5167359787
O  O28  1  0.84380000  0.38930000  0.90220000  1.0 -0.5288554221
O  O29  1  0.71360000  0.36040000  0.81020000  1.0 -0.5078190791
O  O30  1  0.29410000  0.25720000  0.90480000  1.0 -0.5288554221
O  O31  1  0.22600000  0.52800000  0.01060000  1.0 -0.5078190791
O  O32  1  0.49830000  0.59660000  0.01060000  1.0 -0.5506261478
O  O33  1  0.62630000  0.63100000  0.91540000  1.0 -0.5167359787
O  O34  1  0.49990000  0.61110000  0.81650000  1.0 -0.5288554221
O  O35  1  0.24230000  0.54140000  0.81930000  1.0 -0.5356883596
O  O36  1  0.10110000  0.50370000  0.91230000  1.0 -0.5167359787
O  O37  1  0.08150000  0.72270000  0.49610000  1.0 -0.4631375859
O  O38  1  0.81220000  0.65360000  0.49150000  1.0 -0.5167359787
O  O39  1  0.07130000  0.70540000  0.31500000  1.0 -0.5167359787
O  O40  1  0.65620000  0.61070000  0.40220000  1.0 -0.5288554221
O  O41  1  0.78640000  0.63960000  0.31020000  1.0 -0.5078190791
O  O42  1  0.20590000  0.74280000  0.40480000  1.0 -0.5288554221
O  O43  1  0.27400000  0.47200000  0.51060000  1.0 -0.5078190791
O  O44  1  0.00170000  0.40340000  0.51060000  1.0 -0.5506261478
O  O45  1  0.87370000  0.36900000  0.41540000  1.0 -0.5167359787
O  O46  1  0.00010000  0.38890000  0.31650000  1.0 -0.5288554221
O  O47  1  0.25770000  0.45860000  0.31930000  1.0 -0.5356883596
O  O48  1  0.39890000  0.49630000  0.41230000  1.0 -0.5167359787
O  O49  1  0.71280000  0.35310000  0.64130000  1.0 -0.6371999671
O  O50  1  0.59080000  0.36800000  0.59300000  1.0 -0.5891006033
O  O51  1  0.67130000  0.48260000  0.64140000  1.0 -1.1140303503
O  O52  1  0.52250000  0.56310000  0.63480000  1.0 -0.4468715827
O  O53  1  0.83310000  0.64480000  0.68250000  1.0 -1.1013346801
O  O54  1  0.04930000  0.67720000  0.69690000  1.0 -0.6371999671
O  O55  1  0.83400000  0.52970000  0.68020000  1.0 -1.1695644747
O  O56  1  0.96910000  0.71900000  0.64130000  1.0 -0.4837186764
O  O57  1  0.37930000  0.40580000  0.57530000  1.0 -0.6749690662
O  O58  1  0.35370000  0.51740000  0.61330000  1.0 -0.3040409575
O  O59  1  0.15670000  0.57330000  0.72210000  1.0 -0.7402998398
O  O60  1  0.78720000  0.64690000  0.14130000  1.0 -0.6371999671
O  O61  1  0.90920000  0.63200000  0.09300000  1.0 -0.5891006033
O  O62  1  0.82870000  0.51740000  0.14140000  1.0 -1.1176732669
O  O63  1  0.97750000  0.43690000  0.13480000  1.0 -0.4468715827
O  O64  1  0.66690000  0.35520000  0.18250000  1.0 -1.1013346801
O  O65  1  0.45070000  0.32280000  0.19690000  1.0 -0.6371999671
O  O66  1  0.66600000  0.47030000  0.18020000  1.0 -1.1695644747
O  O67  1  0.53090000  0.28100000  0.14130000  1.0 -0.4837186764
O  O68  1  0.12070000  0.59420000  0.07530000  1.0 -0.6749690662
O  O69  1  0.14630000  0.48260000  0.11330000  1.0 -0.3040409575
O  O70  1  0.34330000  0.42670000  0.22210000  1.0 -0.7402998398
O  O71  1  0.28720000  0.85310000  0.85870000  1.0 -0.6371999671
O  O72  1  0.40920000  0.86800000  0.90700000  1.0 -0.5891006033
O  O73  1  0.32870000  0.98260000  0.85860000  1.0 -1.1176732669
O  O74  1  0.47750000  0.06310000  0.86520000  1.0 -0.4468715827
O  O75  1  0.16690000  0.14480000  0.81750000  1.0 -1.1013346801
O  O76  1  0.95070000  0.17720000  0.80310000  1.0 -0.6371999671
O  O77  1  0.16600000  0.02970000  0.81980000  1.0 -1.1695644747
O  O78  1  0.03090000  0.21900000  0.85870000  1.0 -0.4837186764
O  O79  1  0.62070000  0.90580000  0.92470000  1.0 -0.6749690662
O  O80  1  0.64630000  0.01740000  0.88670000  1.0 -0.3040409575
O  O81  1  0.84330000  0.07330000  0.77790000  1.0 -0.7402998398
O  O82  1  0.21280000  0.14690000  0.35870000  1.0 -0.6371999671
O  O83  1  0.09080000  0.13200000  0.40700000  1.0 -0.5891006033
O  O84  1  0.17130000  0.01740000  0.35860000  1.0 -1.1140303503
O  O85  1  0.02250000  0.93690000  0.36520000  1.0 -0.4468715827
O  O86  1  0.33310000  0.85520000  0.31750000  1.0 -1.1013346801
O  O87  1  0.54930000  0.82280000  0.30310000  1.0 -0.6371999671
O  O88  1  0.33400000  0.97030000  0.31980000  1.0 -1.1695644747
O  O89  1  0.46910000  0.78100000  0.35870000  1.0 -0.4837186764
O  O90  1  0.87930000  0.09420000  0.42470000  1.0 -0.6749690662
O  O91  1  0.85370000  0.98260000  0.38670000  1.0 -0.3053957413
O  O92  1  0.65670000  0.92670000  0.27790000  1.0 -0.7402998398
