# DDEC6 charges by PACMAN v1.1 (https://github.com/mtap-research/PACMAN-charge/)
data_TIXVON_FSR_pacman
_symmetry_space_group_name_H-M   'P 1'
_cell_length_a   11.37480000
_cell_length_b   22.08420000
_cell_length_c   23.71110000
_cell_angle_alpha   90.00000000
_cell_angle_beta   90.00000000
_cell_angle_gamma   90.00000000
_symmetry_Int_Tables_number   1
_chemical_formula_structural   Mg3H42C50N2O19
_chemical_formula_sum   'Mg12 H168 C200 N8 O76'
_cell_volume   5956.30794567
_cell_formula_units_Z   4
loop_
 _symmetry_equiv_pos_site_id
 _symmetry_equiv_pos_as_xyz
  1  'x, y, z'
loop_
 _atom_site_type_symbol
 _atom_site_label
 _atom_site_symmetry_multiplicity
 _atom_site_fract_x
 _atom_site_fract_y
 _atom_site_fract_z
 _atom_site_occupancy
 _atom_site_charge
Mg  Mg1  1  0.50000000  0.00000000  0.50000000  1.0 1.4269012451
Mg  Mg2  1  0.00000000  0.00000000  0.00000000  1.0 1.4269012451
Mg  Mg3  1  0.00000000  0.50000000  0.50000000  1.0 1.4269012451
Mg  Mg4  1  0.50000000  0.50000000  0.00000000  1.0 1.4269012451
Mg  Mg5  1  0.21110000  0.00243000  0.44058000  1.0 1.3554099738
Mg  Mg6  1  0.28890000  0.00243000  0.05942000  1.0 1.3554099738
Mg  Mg7  1  0.71110000  0.49757000  0.55942000  1.0 1.3554099738
Mg  Mg8  1  0.78890000  0.49757000  0.94058000  1.0 1.3554099738
Mg  Mg9  1  0.78890000  0.99757000  0.55942000  1.0 1.3554099738
Mg  Mg10  1  0.71110000  0.99757000  0.94058000  1.0 1.3554099738
Mg  Mg11  1  0.28890000  0.50243000  0.44058000  1.0 1.3554099738
Mg  Mg12  1  0.21110000  0.50243000  0.05942000  1.0 1.3554099738
H  H1  1  0.37550000  0.82190000  0.23220000  1.0 0.1306351835
H  H2  1  0.12450000  0.82190000  0.26780000  1.0 0.1306351835
H  H3  1  0.87550000  0.67810000  0.76780000  1.0 0.1306351835
H  H4  1  0.62450000  0.67810000  0.73220000  1.0 0.1306351835
H  H5  1  0.62450000  0.17810000  0.76780000  1.0 0.1306351835
H  H6  1  0.87550000  0.17810000  0.73220000  1.0 0.1306351835
H  H7  1  0.12450000  0.32190000  0.23220000  1.0 0.1306351835
H  H8  1  0.37550000  0.32190000  0.26780000  1.0 0.1306351835
H  H9  1  0.30770000  0.88470000  0.30310000  1.0 0.1221471693
H  H10  1  0.19230000  0.88470000  0.19690000  1.0 0.1221471693
H  H11  1  0.80770000  0.61530000  0.69690000  1.0 0.1221471693
H  H12  1  0.69230000  0.61530000  0.80310000  1.0 0.1221471693
H  H13  1  0.69230000  0.11530000  0.69690000  1.0 0.1221471693
H  H14  1  0.80770000  0.11530000  0.80310000  1.0 0.1221471693
H  H15  1  0.19230000  0.38470000  0.30310000  1.0 0.1221471693
H  H16  1  0.30770000  0.38470000  0.19690000  1.0 0.1221471693
H  H17  1  0.61480000  0.86980000  0.38360000  1.0 0.1306351835
H  H18  1  0.88520000  0.86980000  0.11640000  1.0 0.1306351835
H  H19  1  0.11480000  0.63020000  0.61640000  1.0 0.1306351835
H  H20  1  0.38520000  0.63020000  0.88360000  1.0 0.1306351835
H  H21  1  0.38520000  0.13020000  0.61640000  1.0 0.1306351835
H  H22  1  0.11480000  0.13020000  0.88360000  1.0 0.1306351835
H  H23  1  0.88520000  0.36980000  0.38360000  1.0 0.1306351835
H  H24  1  0.61480000  0.36980000  0.11640000  1.0 0.1306351835
H  H25  1  0.68140000  0.80470000  0.31470000  1.0 0.1465917394
H  H26  1  0.81860000  0.80470000  0.18530000  1.0 0.1465917394
H  H27  1  0.18140000  0.69530000  0.68530000  1.0 0.1465917394
H  H28  1  0.31860000  0.69530000  0.81470000  1.0 0.1465917394
H  H29  1  0.31860000  0.19530000  0.68530000  1.0 0.1465917394
H  H30  1  0.18140000  0.19530000  0.81470000  1.0 0.1465917394
H  H31  1  0.81860000  0.30470000  0.31470000  1.0 0.1465917394
H  H32  1  0.68140000  0.30470000  0.18530000  1.0 0.1465917394
H  H33  1  0.63690000  0.75050000  0.12410000  1.0 0.1368623316
H  H34  1  0.86310000  0.75050000  0.37590000  1.0 0.1368623316
H  H35  1  0.13690000  0.74950000  0.87590000  1.0 0.1368623316
H  H36  1  0.36310000  0.74950000  0.62410000  1.0 0.1368623316
H  H37  1  0.36310000  0.24950000  0.87590000  1.0 0.1368623316
H  H38  1  0.13690000  0.24950000  0.62410000  1.0 0.1368623316
H  H39  1  0.86310000  0.25050000  0.12410000  1.0 0.1368623316
H  H40  1  0.63690000  0.25050000  0.37590000  1.0 0.1368623316
H  H41  1  0.56110000  0.67520000  0.06640000  1.0 0.1306351835
H  H42  1  0.93890000  0.67520000  0.43360000  1.0 0.1306351835
H  H43  1  0.06110000  0.82480000  0.93360000  1.0 0.1306351835
H  H44  1  0.43890000  0.82480000  0.56640000  1.0 0.1306351835
H  H45  1  0.43890000  0.32480000  0.93360000  1.0 0.1306351835
H  H46  1  0.06110000  0.32480000  0.56640000  1.0 0.1306351835
H  H47  1  0.93890000  0.17520000  0.06640000  1.0 0.1306351835
H  H48  1  0.56110000  0.17520000  0.43360000  1.0 0.1306351835
H  H49  1  0.32920000  0.63160000  0.18620000  1.0 0.1221471693
H  H50  1  0.17080000  0.63160000  0.31380000  1.0 0.1221471693
H  H51  1  0.82920000  0.86840000  0.81380000  1.0 0.1221471693
H  H52  1  0.67080000  0.86840000  0.68620000  1.0 0.1221471693
H  H53  1  0.67080000  0.36840000  0.81380000  1.0 0.1221471693
H  H54  1  0.82920000  0.36840000  0.68620000  1.0 0.1221471693
H  H55  1  0.17080000  0.13160000  0.18620000  1.0 0.1221471693
H  H56  1  0.32920000  0.13160000  0.31380000  1.0 0.1221471693
H  H57  1  0.40730000  0.70440000  0.24490000  1.0 0.1306351835
H  H58  1  0.09270000  0.70440000  0.25510000  1.0 0.1306351835
H  H59  1  0.90730000  0.79560000  0.75510000  1.0 0.1306351835
H  H60  1  0.59270000  0.79560000  0.74490000  1.0 0.1306351835
H  H61  1  0.59270000  0.29560000  0.75510000  1.0 0.1306351835
H  H62  1  0.90730000  0.29560000  0.74490000  1.0 0.1306351835
H  H63  1  0.09270000  0.20440000  0.24490000  1.0 0.1306351835
H  H64  1  0.40730000  0.20440000  0.25510000  1.0 0.1306351835
H  H65  1  0.10140000  0.82940000  0.67180000  1.0 0.1306351835
H  H66  1  0.39860000  0.82940000  0.82820000  1.0 0.1306351835
H  H67  1  0.60140000  0.67060000  0.32820000  1.0 0.1306351835
H  H68  1  0.89860000  0.67060000  0.17180000  1.0 0.1306351835
H  H69  1  0.89860000  0.17060000  0.32820000  1.0 0.1306351835
H  H70  1  0.60140000  0.17060000  0.17180000  1.0 0.1306351835
H  H71  1  0.39860000  0.32940000  0.67180000  1.0 0.1306351835
H  H72  1  0.10140000  0.32940000  0.82820000  1.0 0.1306351835
H  H73  1  0.09630000  0.87370000  0.58330000  1.0 0.1306351835
H  H74  1  0.40370000  0.87370000  0.91670000  1.0 0.1306351835
H  H75  1  0.59630000  0.62630000  0.41670000  1.0 0.1306351835
H  H76  1  0.90370000  0.62630000  0.08330000  1.0 0.1306351835
H  H77  1  0.90370000  0.12630000  0.41670000  1.0 0.1306351835
H  H78  1  0.59630000  0.12630000  0.08330000  1.0 0.1306351835
H  H79  1  0.40370000  0.37370000  0.58330000  1.0 0.1306351835
H  H80  1  0.09630000  0.37370000  0.91670000  1.0 0.1306351835
H  H81  1  0.37210000  0.97760000  0.62330000  1.0 0.1221471693
H  H82  1  0.12790000  0.97760000  0.87670000  1.0 0.1221471693
H  H83  1  0.87210000  0.52240000  0.37670000  1.0 0.1221471693
H  H84  1  0.62790000  0.52240000  0.12330000  1.0 0.1221471693
H  H85  1  0.62790000  0.02240000  0.37670000  1.0 0.1221471693
H  H86  1  0.87210000  0.02240000  0.12330000  1.0 0.1221471693
H  H87  1  0.12790000  0.47760000  0.62330000  1.0 0.1221471693
H  H88  1  0.37210000  0.47760000  0.87670000  1.0 0.1221471693
H  H89  1  0.37830000  0.93210000  0.71230000  1.0 0.1306351835
H  H90  1  0.12170000  0.93210000  0.78770000  1.0 0.1306351835
H  H91  1  0.87830000  0.56790000  0.28770000  1.0 0.1306351835
H  H92  1  0.62170000  0.56790000  0.21230000  1.0 0.1306351835
H  H93  1  0.62170000  0.06790000  0.28770000  1.0 0.1306351835
H  H94  1  0.87830000  0.06790000  0.21230000  1.0 0.1306351835
H  H95  1  0.12170000  0.43210000  0.71230000  1.0 0.1306351835
H  H96  1  0.37830000  0.43210000  0.78770000  1.0 0.1306351835
H  H97  1  0.14820000  0.04190000  0.31050000  1.0 0.1715958357
H  H98  1  0.35180000  0.04190000  0.18950000  1.0 0.1715958357
H  H99  1  0.64820000  0.45810000  0.68950000  1.0 0.1715958357
H  H100  1  0.85180000  0.45810000  0.81050000  1.0 0.1715958357
H  H101  1  0.85180000  0.95810000  0.68950000  1.0 0.1715958357
H  H102  1  0.64820000  0.95810000  0.81050000  1.0 0.1715958357
H  H103  1  0.35180000  0.54190000  0.31050000  1.0 0.1715958357
H  H104  1  0.14820000  0.54190000  0.18950000  1.0 0.1715958357
H  H105  1  0.10860000  0.99320000  0.26640000  1.0 0.1568851225
H  H106  1  0.39140000  0.99320000  0.23360000  1.0 0.1568851225
H  H107  1  0.60860000  0.50680000  0.73360000  1.0 0.1568851225
H  H108  1  0.89140000  0.50680000  0.76640000  1.0 0.1568851225
H  H109  1  0.89140000  0.00680000  0.73360000  1.0 0.1568851225
H  H110  1  0.60860000  0.00680000  0.76640000  1.0 0.1568851225
H  H111  1  0.39140000  0.49320000  0.26640000  1.0 0.1568851225
H  H112  1  0.10860000  0.49320000  0.23360000  1.0 0.1568851225
H  H113  1  0.02330000  0.04600000  0.28280000  1.0 0.1465917394
H  H114  1  0.47670000  0.04600000  0.21720000  1.0 0.1465917394
H  H115  1  0.52330000  0.45400000  0.71720000  1.0 0.1465917394
H  H116  1  0.97670000  0.45400000  0.78280000  1.0 0.1465917394
H  H117  1  0.97670000  0.95400000  0.71720000  1.0 0.1465917394
H  H118  1  0.52330000  0.95400000  0.78280000  1.0 0.1465917394
H  H119  1  0.47670000  0.54600000  0.28280000  1.0 0.1465917394
H  H120  1  0.02330000  0.54600000  0.21720000  1.0 0.1465917394
H  H121  1  0.94770000  0.91170000  0.41290000  1.0 0.1568851225
H  H122  1  0.55230000  0.91170000  0.08710000  1.0 0.1568851225
H  H123  1  0.44770000  0.58830000  0.58710000  1.0 0.1568851225
H  H124  1  0.05230000  0.58830000  0.91290000  1.0 0.1568851225
H  H125  1  0.05230000  0.08830000  0.58710000  1.0 0.1568851225
H  H126  1  0.44770000  0.08830000  0.91290000  1.0 0.1568851225
H  H127  1  0.55230000  0.41170000  0.41290000  1.0 0.1568851225
H  H128  1  0.94770000  0.41170000  0.08710000  1.0 0.1568851225
H  H129  1  0.81930000  0.92400000  0.39170000  1.0 0.1306351835
H  H130  1  0.68070000  0.92400000  0.10830000  1.0 0.1306351835
H  H131  1  0.31930000  0.57600000  0.60830000  1.0 0.1306351835
H  H132  1  0.18070000  0.57600000  0.89170000  1.0 0.1306351835
H  H133  1  0.18070000  0.07600000  0.60830000  1.0 0.1306351835
H  H134  1  0.31930000  0.07600000  0.89170000  1.0 0.1306351835
H  H135  1  0.68070000  0.42400000  0.39170000  1.0 0.1306351835
H  H136  1  0.81930000  0.42400000  0.10830000  1.0 0.1306351835
H  H137  1  0.88890000  0.86750000  0.36960000  1.0 0.1221471693
H  H138  1  0.61110000  0.86750000  0.13040000  1.0 0.1221471693
H  H139  1  0.38890000  0.63250000  0.63040000  1.0 0.1221471693
H  H140  1  0.11110000  0.63250000  0.86960000  1.0 0.1221471693
H  H141  1  0.11110000  0.13250000  0.63040000  1.0 0.1221471693
H  H142  1  0.38890000  0.13250000  0.86960000  1.0 0.1221471693
H  H143  1  0.61110000  0.36750000  0.36960000  1.0 0.1221471693
H  H144  1  0.88890000  0.36750000  0.13040000  1.0 0.1221471693
H  H145  1  0.91810000  0.97260000  0.25450000  1.0 0.1221471693
H  H146  1  0.58190000  0.97260000  0.24550000  1.0 0.1221471693
H  H147  1  0.41810000  0.52740000  0.74550000  1.0 0.1221471693
H  H148  1  0.08190000  0.52740000  0.75450000  1.0 0.1221471693
H  H149  1  0.08190000  0.02740000  0.74550000  1.0 0.1221471693
H  H150  1  0.41810000  0.02740000  0.75450000  1.0 0.1221471693
H  H151  1  0.58190000  0.47260000  0.25450000  1.0 0.1221471693
H  H152  1  0.91810000  0.47260000  0.24550000  1.0 0.1221471693
H  H153  1  0.86790000  0.90760000  0.26600000  1.0 0.1221471693
H  H154  1  0.63210000  0.90760000  0.23400000  1.0 0.1306351835
H  H155  1  0.36790000  0.59240000  0.73400000  1.0 0.1221471693
H  H156  1  0.13210000  0.59240000  0.76600000  1.0 0.1221471693
H  H157  1  0.13210000  0.09240000  0.73400000  1.0 0.1221471693
H  H158  1  0.36790000  0.09240000  0.76600000  1.0 0.1221471693
H  H159  1  0.63210000  0.40760000  0.26600000  1.0 0.1221471693
H  H160  1  0.86790000  0.40760000  0.23400000  1.0 0.1221471693
H  H161  1  0.79980000  0.96480000  0.28770000  1.0 0.1306351835
H  H162  1  0.70020000  0.96480000  0.21230000  1.0 0.1306351835
H  H163  1  0.29980000  0.53520000  0.71230000  1.0 0.1221471693
H  H164  1  0.20020000  0.53520000  0.78770000  1.0 0.1221471693
H  H165  1  0.20020000  0.03520000  0.71230000  1.0 0.1221471693
H  H166  1  0.29980000  0.03520000  0.78770000  1.0 0.1221471693
H  H167  1  0.70020000  0.46480000  0.28770000  1.0 0.1306351835
H  H168  1  0.79980000  0.46480000  0.21230000  1.0 0.1306351835
C  C1  1  0.53620000  0.80840000  0.26650000  1.0 0.2410341441
C  C2  1  0.96380000  0.80840000  0.23350000  1.0 0.2410341441
C  C3  1  0.03620000  0.69160000  0.73350000  1.0 0.2410341441
C  C4  1  0.46380000  0.69160000  0.76650000  1.0 0.2410341441
C  C5  1  0.46380000  0.19160000  0.73350000  1.0 0.2410341441
C  C6  1  0.03620000  0.19160000  0.76650000  1.0 0.2410341441
C  C7  1  0.96380000  0.30840000  0.26650000  1.0 0.2410341441
C  C8  1  0.53620000  0.30840000  0.23350000  1.0 0.2410341441
C  C9  1  0.42350000  0.83160000  0.26270000  1.0 -0.2103545754
C  C10  1  0.07650000  0.83160000  0.23730000  1.0 -0.2103545754
C  C11  1  0.92350000  0.66840000  0.73730000  1.0 -0.2103545754
C  C12  1  0.57650000  0.66840000  0.76270000  1.0 -0.2103545754
C  C13  1  0.57650000  0.16840000  0.73730000  1.0 -0.2103545754
C  C14  1  0.92350000  0.16840000  0.76270000  1.0 -0.2103545754
C  C15  1  0.07650000  0.33160000  0.26270000  1.0 -0.2103545754
C  C16  1  0.42350000  0.33160000  0.23730000  1.0 -0.2103545754
C  C17  1  0.38370000  0.86940000  0.30509000  1.0 -0.0713814282
C  C18  1  0.11630000  0.86940000  0.19491000  1.0 -0.0713814282
C  C19  1  0.88370000  0.63060000  0.69491000  1.0 -0.0713814282
C  C20  1  0.61630000  0.63060000  0.80509000  1.0 -0.0713814282
C  C21  1  0.61630000  0.13060000  0.69491000  1.0 -0.0713814282
C  C22  1  0.88370000  0.13060000  0.80509000  1.0 -0.0713814282
C  C23  1  0.11630000  0.36940000  0.30509000  1.0 -0.0713814282
C  C24  1  0.38370000  0.36940000  0.19491000  1.0 -0.0713814282
C  C25  1  0.45460000  0.88497000  0.35061000  1.0 -0.038226195
C  C26  1  0.04540000  0.88497000  0.14939000  1.0 -0.038226195
C  C27  1  0.95460000  0.61503000  0.64939000  1.0 -0.038226195
C  C28  1  0.54540000  0.61503000  0.85061000  1.0 -0.038226195
C  C29  1  0.54540000  0.11503000  0.64939000  1.0 -0.038226195
C  C30  1  0.95460000  0.11503000  0.85061000  1.0 -0.038226195
C  C31  1  0.04540000  0.38497000  0.35061000  1.0 -0.038226195
C  C32  1  0.45460000  0.38497000  0.14939000  1.0 -0.038226195
C  C33  1  0.56630000  0.86020000  0.35332000  1.0 -0.0713814282
C  C34  1  0.93370000  0.86020000  0.14668000  1.0 -0.0713814282
C  C35  1  0.06630000  0.63980000  0.64668000  1.0 -0.0713814282
C  C36  1  0.43370000  0.63980000  0.85332000  1.0 -0.0713814282
C  C37  1  0.43370000  0.13980000  0.64668000  1.0 -0.0713814282
C  C38  1  0.06630000  0.13980000  0.85332000  1.0 -0.0713814282
C  C39  1  0.93370000  0.36020000  0.35332000  1.0 -0.0713814282
C  C40  1  0.56630000  0.36020000  0.14668000  1.0 -0.0713814282
C  C41  1  0.60680000  0.82160000  0.31190000  1.0 -0.1983482308
C  C42  1  0.89320000  0.82160000  0.18810000  1.0 -0.1983482308
C  C43  1  0.10680000  0.67840000  0.68810000  1.0 -0.1983482308
C  C44  1  0.39320000  0.67840000  0.81190000  1.0 -0.1983482308
C  C45  1  0.39320000  0.17840000  0.68810000  1.0 -0.1983482308
C  C46  1  0.10680000  0.17840000  0.81190000  1.0 -0.1983482308
C  C47  1  0.89320000  0.32160000  0.31190000  1.0 -0.1983482308
C  C48  1  0.60680000  0.32160000  0.18810000  1.0 -0.1983482308
C  C49  1  0.52980000  0.73420000  0.19010000  1.0 0.2453659266
C  C50  1  0.97020000  0.73420000  0.30990000  1.0 0.2453659266
C  C51  1  0.02980000  0.76580000  0.80990000  1.0 0.2453659266
C  C52  1  0.47020000  0.76580000  0.69010000  1.0 0.2453659266
C  C53  1  0.47020000  0.26580000  0.80990000  1.0 0.2453659266
C  C54  1  0.02980000  0.26580000  0.69010000  1.0 0.2453659266
C  C55  1  0.97020000  0.23420000  0.19010000  1.0 0.2453659266
C  C56  1  0.52980000  0.23420000  0.30990000  1.0 0.2453659266
C  C57  1  0.57580000  0.72600000  0.13680000  1.0 -0.1983482308
C  C58  1  0.92420000  0.72600000  0.36320000  1.0 -0.1983482308
C  C59  1  0.07580000  0.77400000  0.86320000  1.0 -0.1983482308
C  C60  1  0.42420000  0.77400000  0.63680000  1.0 -0.1983482308
C  C61  1  0.42420000  0.27400000  0.86320000  1.0 -0.1983482308
C  C62  1  0.07580000  0.27400000  0.63680000  1.0 -0.1983482308
C  C63  1  0.92420000  0.22600000  0.13680000  1.0 -0.1983482308
C  C64  1  0.57580000  0.22600000  0.36320000  1.0 -0.1983482308
C  C65  1  0.53000000  0.68100000  0.10228000  1.0 -0.0713814282
C  C66  1  0.97000000  0.68100000  0.39772000  1.0 -0.0713814282
C  C67  1  0.03000000  0.81900000  0.89772000  1.0 -0.0713814282
C  C68  1  0.47000000  0.81900000  0.60228000  1.0 -0.0713814282
C  C69  1  0.47000000  0.31900000  0.89772000  1.0 -0.0713814282
C  C70  1  0.03000000  0.31900000  0.60228000  1.0 -0.0713814282
C  C71  1  0.97000000  0.18100000  0.10228000  1.0 -0.0713814282
C  C72  1  0.53000000  0.18100000  0.39772000  1.0 -0.0713814282
C  C73  1  0.43860000  0.64480000  0.12077000  1.0 -0.0330893485
C  C74  1  0.06140000  0.64480000  0.37923000  1.0 -0.0330893485
C  C75  1  0.93860000  0.85520000  0.87923000  1.0 -0.0330893485
C  C76  1  0.56140000  0.85520000  0.62077000  1.0 -0.0330893485
C  C77  1  0.56140000  0.35520000  0.87923000  1.0 -0.0330893485
C  C78  1  0.93860000  0.35520000  0.62077000  1.0 -0.0330893485
C  C79  1  0.06140000  0.14480000  0.12077000  1.0 -0.0330893485
C  C80  1  0.43860000  0.14480000  0.37923000  1.0 -0.0330893485
C  C81  1  0.39230000  0.65480000  0.17390000  1.0 -0.0756381661
C  C82  1  0.10770000  0.65480000  0.32610000  1.0 -0.0756381661
C  C83  1  0.89230000  0.84520000  0.82610000  1.0 -0.0756381661
C  C84  1  0.60770000  0.84520000  0.67390000  1.0 -0.0756381661
C  C85  1  0.60770000  0.34520000  0.82610000  1.0 -0.0756381661
C  C86  1  0.89230000  0.34520000  0.67390000  1.0 -0.0756381661
C  C87  1  0.10770000  0.15480000  0.17390000  1.0 -0.0756381661
C  C88  1  0.39230000  0.15480000  0.32610000  1.0 -0.0756381661
C  C89  1  0.43800000  0.69880000  0.20890000  1.0 -0.21882539
C  C90  1  0.06200000  0.69880000  0.29110000  1.0 -0.21882539
C  C91  1  0.93800000  0.80120000  0.79110000  1.0 -0.21882539
C  C92  1  0.56200000  0.80120000  0.70890000  1.0 -0.21882539
C  C93  1  0.56200000  0.30120000  0.79110000  1.0 -0.21882539
C  C94  1  0.93800000  0.30120000  0.70890000  1.0 -0.21882539
C  C95  1  0.06200000  0.19880000  0.20890000  1.0 -0.21882539
C  C96  1  0.43800000  0.19880000  0.29110000  1.0 -0.21882539
C  C97  1  0.41230000  0.92730000  0.39573000  1.0 0.6189725843
C  C98  1  0.08770000  0.92730000  0.10427000  1.0 0.6189725843
C  C99  1  0.91230000  0.57270000  0.60427000  1.0 0.6189725843
C  C100  1  0.58770000  0.57270000  0.89573000  1.0 0.6189725843
C  C101  1  0.58770000  0.07270000  0.60427000  1.0 0.6189725843
C  C102  1  0.91230000  0.07270000  0.89573000  1.0 0.6189725843
C  C103  1  0.08770000  0.42730000  0.39573000  1.0 0.6189725843
C  C104  1  0.41230000  0.42730000  0.10427000  1.0 0.6189725843
C  C105  1  0.39500000  0.59340000  0.08419000  1.0 0.6189725843
C  C106  1  0.10500000  0.59340000  0.41581000  1.0 0.6189725843
C  C107  1  0.89500000  0.90660000  0.91581000  1.0 0.6147914469
C  C108  1  0.60500000  0.90660000  0.58419000  1.0 0.6189725843
C  C109  1  0.60500000  0.40660000  0.91581000  1.0 0.6147914469
C  C110  1  0.89500000  0.40660000  0.58419000  1.0 0.6147914469
C  C111  1  0.10500000  0.09340000  0.08419000  1.0 0.6189725843
C  C112  1  0.39500000  0.09340000  0.41581000  1.0 0.6189725843
C  C113  1  0.24190000  0.87670000  0.69938000  1.0 0.2306440711
C  C114  1  0.25810000  0.87670000  0.80062000  1.0 0.2306440711
C  C115  1  0.74190000  0.62330000  0.30062000  1.0 0.2306440711
C  C116  1  0.75810000  0.62330000  0.19938000  1.0 0.2306440711
C  C117  1  0.75810000  0.12330000  0.30062000  1.0 0.2306440711
C  C118  1  0.74190000  0.12330000  0.19938000  1.0 0.2306440711
C  C119  1  0.25810000  0.37670000  0.69938000  1.0 0.2306440711
C  C120  1  0.24190000  0.37670000  0.80062000  1.0 0.2306440711
C  C121  1  0.15620000  0.85880000  0.66190000  1.0 -0.1983482308
C  C122  1  0.34380000  0.85880000  0.83810000  1.0 -0.1983482308
C  C123  1  0.65620000  0.64120000  0.33810000  1.0 -0.1983482308
C  C124  1  0.84380000  0.64120000  0.16190000  1.0 -0.1983482308
C  C125  1  0.84380000  0.14120000  0.33810000  1.0 -0.1983482308
C  C126  1  0.65620000  0.14120000  0.16190000  1.0 -0.1983482308
C  C127  1  0.34380000  0.35880000  0.66190000  1.0 -0.1983482308
C  C128  1  0.15620000  0.35880000  0.83810000  1.0 -0.1983482308
C  C129  1  0.15360000  0.88540000  0.60912000  1.0 -0.0713814282
C  C130  1  0.34640000  0.88540000  0.89088000  1.0 -0.0713814282
C  C131  1  0.65360000  0.61460000  0.39088000  1.0 -0.0713814282
C  C132  1  0.84640000  0.61460000  0.10912000  1.0 -0.0713814282
C  C133  1  0.84640000  0.11460000  0.39088000  1.0 -0.0713814282
C  C134  1  0.65360000  0.11460000  0.10912000  1.0 -0.0713814282
C  C135  1  0.34640000  0.38540000  0.60912000  1.0 -0.0713814282
C  C136  1  0.15360000  0.38540000  0.89088000  1.0 -0.0713814282
C  C137  1  0.23460000  0.92918000  0.59408000  1.0 -0.038226195
C  C138  1  0.26540000  0.92918000  0.90592000  1.0 -0.038226195
C  C139  1  0.73460000  0.57082000  0.40592000  1.0 -0.038226195
C  C140  1  0.76540000  0.57082000  0.09408000  1.0 -0.038226195
C  C141  1  0.76540000  0.07082000  0.40592000  1.0 -0.038226195
C  C142  1  0.73460000  0.07082000  0.09408000  1.0 -0.038226195
C  C143  1  0.26540000  0.42918000  0.59408000  1.0 -0.038226195
C  C144  1  0.23460000  0.42918000  0.90592000  1.0 -0.038226195
C  C145  1  0.31840000  0.94750000  0.63268000  1.0 -0.0637158811
C  C146  1  0.18160000  0.94750000  0.86732000  1.0 -0.0637158811
C  C147  1  0.81840000  0.55250000  0.36732000  1.0 -0.0637158811
C  C148  1  0.68160000  0.55250000  0.13268000  1.0 -0.0637158811
C  C149  1  0.68160000  0.05250000  0.36732000  1.0 -0.0637158811
C  C150  1  0.81840000  0.05250000  0.13268000  1.0 -0.0637158811
C  C151  1  0.18160000  0.44750000  0.63268000  1.0 -0.0637158811
C  C152  1  0.31840000  0.44750000  0.86732000  1.0 -0.0637158811
C  C153  1  0.32190000  0.92030000  0.68613000  1.0 -0.2103545754
C  C154  1  0.17810000  0.92030000  0.81387000  1.0 -0.2103545754
C  C155  1  0.82190000  0.57970000  0.31387000  1.0 -0.2103545754
C  C156  1  0.67810000  0.57970000  0.18613000  1.0 -0.2103545754
C  C157  1  0.67810000  0.07970000  0.31387000  1.0 -0.2103545754
C  C158  1  0.82190000  0.07970000  0.18613000  1.0 -0.2103545754
C  C159  1  0.17810000  0.42030000  0.68613000  1.0 -0.2103545754
C  C160  1  0.32190000  0.42030000  0.81387000  1.0 -0.2103545754
C  C161  1  0.23170000  0.95454000  0.53608000  1.0 0.5572243869
C  C162  1  0.26830000  0.95454000  0.96392000  1.0 0.5572243869
C  C163  1  0.73170000  0.54546000  0.46392000  1.0 0.5572243869
C  C164  1  0.76830000  0.54546000  0.03608000  1.0 0.5572243869
C  C165  1  0.76830000  0.04546000  0.46392000  1.0 0.5572243869
C  C166  1  0.73170000  0.04546000  0.03608000  1.0 0.5572243869
C  C167  1  0.26830000  0.45454000  0.53608000  1.0 0.5572243869
C  C168  1  0.23170000  0.45454000  0.96392000  1.0 0.5572243869
C  C169  1  0.08280000  0.01890000  0.29650000  1.0 -0.5773860872
C  C170  1  0.41720000  0.01890000  0.20350000  1.0 -0.5773860872
C  C171  1  0.58280000  0.48110000  0.70350000  1.0 -0.5773860872
C  C172  1  0.91720000  0.48110000  0.79650000  1.0 -0.5773860872
C  C173  1  0.91720000  0.98110000  0.70350000  1.0 -0.5773860872
C  C174  1  0.58280000  0.98110000  0.79650000  1.0 -0.5773860872
C  C175  1  0.41720000  0.51890000  0.29650000  1.0 -0.5773860872
C  C176  1  0.08280000  0.51890000  0.20350000  1.0 -0.5773860872
C  C177  1  0.03080000  0.97930000  0.34520000  1.0 0.5259132922
C  C178  1  0.46920000  0.97930000  0.15480000  1.0 0.5259132922
C  C179  1  0.53080000  0.52070000  0.65480000  1.0 0.5259132922
C  C180  1  0.96920000  0.52070000  0.84520000  1.0 0.5259132922
C  C181  1  0.96920000  0.02070000  0.65480000  1.0 0.5259132922
C  C182  1  0.53080000  0.02070000  0.84520000  1.0 0.5259132922
C  C183  1  0.46920000  0.47930000  0.34520000  1.0 0.5259132922
C  C184  1  0.03080000  0.47930000  0.15480000  1.0 0.5259132922
C  C185  1  0.89540000  0.90900000  0.38120000  1.0 -0.3310837023
C  C186  1  0.60460000  0.90900000  0.11880000  1.0 -0.3310837023
C  C187  1  0.39540000  0.59100000  0.61880000  1.0 -0.3310837023
C  C188  1  0.10460000  0.59100000  0.88120000  1.0 -0.3310837023
C  C189  1  0.10460000  0.09100000  0.61880000  1.0 -0.3310837023
C  C190  1  0.39540000  0.09100000  0.88120000  1.0 -0.3310837023
C  C191  1  0.60460000  0.40900000  0.38120000  1.0 -0.3310837023
C  C192  1  0.89540000  0.40900000  0.11880000  1.0 -0.3310837023
C  C193  1  0.87620000  0.94780000  0.28100000  1.0 -0.3479431033
C  C194  1  0.62380000  0.94780000  0.21900000  1.0 -0.3479431033
C  C195  1  0.37620000  0.55220000  0.71900000  1.0 -0.3479431033
C  C196  1  0.12380000  0.55220000  0.78100000  1.0 -0.3479431033
C  C197  1  0.12380000  0.05220000  0.71900000  1.0 -0.3479431033
C  C198  1  0.37620000  0.05220000  0.78100000  1.0 -0.3479431033
C  C199  1  0.62380000  0.44780000  0.28100000  1.0 -0.3479431033
C  C200  1  0.87620000  0.44780000  0.21900000  1.0 -0.3479431033
N  N1  1  0.94190000  0.94520000  0.33450000  1.0 -0.0198049638
N  N2  1  0.55810000  0.94520000  0.16550000  1.0 -0.0198049638
N  N3  1  0.44190000  0.55480000  0.66550000  1.0 -0.0198049638
N  N4  1  0.05810000  0.55480000  0.83450000  1.0 -0.0198049638
N  N5  1  0.05810000  0.05480000  0.66550000  1.0 -0.0198049638
N  N6  1  0.44190000  0.05480000  0.83450000  1.0 -0.0198049638
N  N7  1  0.55810000  0.44520000  0.33450000  1.0 -0.0198049638
N  N8  1  0.94190000  0.44520000  0.16550000  1.0 -0.0198049638
O  O1  1  0.30360000  0.93898000  0.39669000  1.0 -0.6372711271
O  O2  1  0.19640000  0.93898000  0.10331000  1.0 -0.6372711271
O  O3  1  0.80360000  0.56102000  0.60331000  1.0 -0.6372711271
O  O4  1  0.69640000  0.56102000  0.89669000  1.0 -0.6372711271
O  O5  1  0.69640000  0.06102000  0.60331000  1.0 -0.6372711271
O  O6  1  0.80360000  0.06102000  0.89669000  1.0 -0.6372711271
O  O7  1  0.19640000  0.43898000  0.39669000  1.0 -0.6372711271
O  O8  1  0.30360000  0.43898000  0.10331000  1.0 -0.6372711271
O  O9  1  0.10170000  0.06770000  0.47751000  1.0 -0.3310837023
O  O10  1  0.39830000  0.06770000  0.02249000  1.0 -0.3310837023
O  O11  1  0.60170000  0.43230000  0.52249000  1.0 -0.3310837023
O  O12  1  0.89830000  0.43230000  0.97751000  1.0 -0.3310837023
O  O13  1  0.89830000  0.93230000  0.52249000  1.0 -0.3310837023
O  O14  1  0.60170000  0.93230000  0.97751000  1.0 -0.3310837023
O  O15  1  0.39830000  0.56770000  0.47751000  1.0 -0.3310837023
O  O16  1  0.10170000  0.56770000  0.02249000  1.0 -0.3310837023
O  O17  1  0.48760000  0.94825000  0.42842000  1.0 -0.6195117742
O  O18  1  0.01240000  0.94825000  0.07158000  1.0 -0.6195117742
O  O19  1  0.98760000  0.55175000  0.57158000  1.0 -0.6195117742
O  O20  1  0.51240000  0.55175000  0.92842000  1.0 -0.6195117742
O  O21  1  0.51240000  0.05175000  0.57158000  1.0 -0.6195117742
O  O22  1  0.98760000  0.05175000  0.92842000  1.0 -0.6195117742
O  O23  1  0.01240000  0.44825000  0.42842000  1.0 -0.6195117742
O  O24  1  0.48760000  0.44825000  0.07158000  1.0 -0.6195117742
O  O25  1  0.45950000  0.57717000  0.04413000  1.0 -0.6336285532
O  O26  1  0.04050000  0.57717000  0.45587000  1.0 -0.6336285532
O  O27  1  0.95950000  0.92283000  0.95587000  1.0 -0.6336285532
O  O28  1  0.54050000  0.92283000  0.54413000  1.0 -0.6336285532
O  O29  1  0.54050000  0.42283000  0.95587000  1.0 -0.6336285532
O  O30  1  0.95950000  0.42283000  0.54413000  1.0 -0.6336285532
O  O31  1  0.04050000  0.07717000  0.04413000  1.0 -0.6336285532
O  O32  1  0.45950000  0.07717000  0.45587000  1.0 -0.6336285532
O  O33  1  0.29790000  0.57057000  0.09725000  1.0 -0.6195117742
O  O34  1  0.20210000  0.57057000  0.40275000  1.0 -0.6195117742
O  O35  1  0.79790000  0.92943000  0.90275000  1.0 -0.6195117742
O  O36  1  0.70210000  0.92943000  0.59725000  1.0 -0.6195117742
O  O37  1  0.70210000  0.42943000  0.90275000  1.0 -0.6195117742
O  O38  1  0.79790000  0.42943000  0.59725000  1.0 -0.6195117742
O  O39  1  0.20210000  0.07057000  0.09725000  1.0 -0.6195117742
O  O40  1  0.29790000  0.07057000  0.40275000  1.0 -0.6195117742
O  O41  1  0.58900000  0.77603000  0.22307000  1.0 -0.21882539
O  O42  1  0.91100000  0.77603000  0.27693000  1.0 -0.21882539
O  O43  1  0.08900000  0.72397000  0.77693000  1.0 -0.21882539
O  O44  1  0.41100000  0.72397000  0.72307000  1.0 -0.21882539
O  O45  1  0.41100000  0.22397000  0.77693000  1.0 -0.21882539
O  O46  1  0.08900000  0.22397000  0.72307000  1.0 -0.21882539
O  O47  1  0.91100000  0.27603000  0.22307000  1.0 -0.21882539
O  O48  1  0.58900000  0.27603000  0.27693000  1.0 -0.21882539
O  O49  1  0.31400000  0.98837000  0.51786000  1.0 -0.6660763159
O  O50  1  0.18600000  0.98837000  0.98214000  1.0 -0.6660763159
O  O51  1  0.81400000  0.51163000  0.48214000  1.0 -0.6660763159
O  O52  1  0.68600000  0.51163000  0.01786000  1.0 -0.6660763159
O  O53  1  0.68600000  0.01163000  0.48214000  1.0 -0.6660763159
O  O54  1  0.81400000  0.01163000  0.01786000  1.0 -0.6660763159
O  O55  1  0.18600000  0.48837000  0.51786000  1.0 -0.6660763159
O  O56  1  0.31400000  0.48837000  0.98214000  1.0 -0.6660763159
O  O57  1  0.14630000  0.94253000  0.50442000  1.0 -0.4962239512
O  O58  1  0.35370000  0.94253000  0.99558000  1.0 -0.4962239512
O  O59  1  0.64630000  0.55747000  0.49558000  1.0 -0.4962239512
O  O60  1  0.85370000  0.55747000  0.00442000  1.0 -0.4962239512
O  O61  1  0.85370000  0.05747000  0.49558000  1.0 -0.4962239512
O  O62  1  0.64630000  0.05747000  0.00442000  1.0 -0.4962239512
O  O63  1  0.35370000  0.44253000  0.50442000  1.0 -0.4962239512
O  O64  1  0.14630000  0.44253000  0.99558000  1.0 -0.4962239512
O  O65  1  0.25000000  0.84420000  0.75000000  1.0 -0.2256666184
O  O66  1  0.75000000  0.65580000  0.25000000  1.0 -0.2256666184
O  O67  1  0.75000000  0.15580000  0.25000000  1.0 -0.2256666184
O  O68  1  0.25000000  0.34420000  0.75000000  1.0 -0.2256666184
O  O69  1  0.07570000  0.98250000  0.39157000  1.0 -0.5460637271
O  O70  1  0.42430000  0.98250000  0.10843000  1.0 -0.5460637271
O  O71  1  0.57570000  0.51750000  0.60843000  1.0 -0.5460637271
O  O72  1  0.92430000  0.51750000  0.89157000  1.0 -0.5460637271
O  O73  1  0.92430000  0.01750000  0.60843000  1.0 -0.5460637271
O  O74  1  0.57570000  0.01750000  0.89157000  1.0 -0.5460637271
O  O75  1  0.42430000  0.48250000  0.39157000  1.0 -0.5460637271
O  O76  1  0.07570000  0.48250000  0.10843000  1.0 -0.5460637271
