# DDEC6 charges by PACMAN v1.1 (https://github.com/mtap-research/PACMAN-charge/)
data_TODJOO_ASR_pacman
_symmetry_space_group_name_H-M   'P 1'
_cell_length_a   24.68020000
_cell_length_b   24.68020000
_cell_length_c   31.17910000
_cell_angle_alpha   90.00000000
_cell_angle_beta   90.00000000
_cell_angle_gamma   120.00000000
_symmetry_Int_Tables_number   1
_chemical_formula_structural   Na7Mn22H240C174(N3O7)14
_chemical_formula_sum   'Na14 Mn44 H480 C348 N84 O196'
_cell_volume   16447.18419186
_cell_formula_units_Z   2
loop_
 _symmetry_equiv_pos_site_id
 _symmetry_equiv_pos_as_xyz
  1  'x, y, z'
loop_
 _atom_site_type_symbol
 _atom_site_label
 _atom_site_symmetry_multiplicity
 _atom_site_fract_x
 _atom_site_fract_y
 _atom_site_fract_z
 _atom_site_occupancy
 _atom_site_charge
Na  Na1  1  0.66666667  0.33333333  0.63515000  1.0 0.8519472022
Na  Na2  1  0.66666667  0.33333333  0.03263000  1.0 0.8519472022
Na  Na3  1  0.33333333  0.66666667  0.86485000  1.0 0.8519472022
Na  Na4  1  0.33333333  0.66666667  0.46737000  1.0 0.8519472022
Na  Na5  1  0.33333333  0.66666667  0.36485000  1.0 0.8519472022
Na  Na6  1  0.33333333  0.66666667  0.96737000  1.0 0.8519472022
Na  Na7  1  0.66666667  0.33333333  0.13515000  1.0 0.8519472022
Na  Na8  1  0.66666667  0.33333333  0.53263000  1.0 0.8519472022
Na  Na9  1  0.50818000  0.00000000  0.75000000  1.0 0.8034993946
Na  Na10  1  0.49182000  0.49182000  0.75000000  1.0 0.8034993946
Na  Na11  1  0.00000000  0.50818000  0.75000000  1.0 0.8034993946
Na  Na12  1  0.49182000  0.00000000  0.25000000  1.0 0.8034993946
Na  Na13  1  0.50818000  0.50818000  0.25000000  1.0 0.8034993946
Na  Na14  1  0.00000000  0.49182000  0.25000000  1.0 0.8034993946
Mn  Mn1  1  0.65512000  0.25269000  0.83411000  1.0 1.0414126256
Mn  Mn2  1  0.65874000  0.14558000  0.88787000  1.0 1.0861988404
Mn  Mn3  1  0.62877000  0.12758000  0.78382000  1.0 0.9658590892
Mn  Mn4  1  0.59757000  0.34488000  0.83411000  1.0 1.0414126256
Mn  Mn5  1  0.48684000  0.34126000  0.88787000  1.0 1.0861988404
Mn  Mn6  1  0.49881000  0.37123000  0.78382000  1.0 0.9658590892
Mn  Mn7  1  0.74731000  0.40243000  0.83411000  1.0 1.0414126256
Mn  Mn8  1  0.85442000  0.51316000  0.88787000  1.0 1.0861988404
Mn  Mn9  1  0.87242000  0.50119000  0.78382000  1.0 0.9658590892
Mn  Mn10  1  0.40243000  0.74731000  0.66589000  1.0 1.0414126256
Mn  Mn11  1  0.51316000  0.85442000  0.61213000  1.0 1.0861988404
Mn  Mn12  1  0.50119000  0.87242000  0.71618000  1.0 0.9658590892
Mn  Mn13  1  0.25269000  0.65512000  0.66589000  1.0 1.0414126256
Mn  Mn14  1  0.14558000  0.65874000  0.61213000  1.0 1.0861988404
Mn  Mn15  1  0.12758000  0.62877000  0.71618000  1.0 0.9658590892
Mn  Mn16  1  0.34488000  0.59757000  0.66589000  1.0 1.0414126256
Mn  Mn17  1  0.34126000  0.48684000  0.61213000  1.0 1.0861988404
Mn  Mn18  1  0.37123000  0.49881000  0.71618000  1.0 0.9658590892
Mn  Mn19  1  0.34488000  0.74731000  0.16589000  1.0 1.0414126256
Mn  Mn20  1  0.34126000  0.85442000  0.11213000  1.0 1.0861988404
Mn  Mn21  1  0.37123000  0.87242000  0.21618000  1.0 0.9658590892
Mn  Mn22  1  0.40243000  0.65512000  0.16589000  1.0 1.0414126256
Mn  Mn23  1  0.51316000  0.65874000  0.11213000  1.0 1.0861988404
Mn  Mn24  1  0.50119000  0.62877000  0.21618000  1.0 0.9658590892
Mn  Mn25  1  0.25269000  0.59757000  0.16589000  1.0 1.0414126256
Mn  Mn26  1  0.14558000  0.48684000  0.11213000  1.0 1.0861988404
Mn  Mn27  1  0.12758000  0.49881000  0.21618000  1.0 0.9658590892
Mn  Mn28  1  0.59757000  0.25269000  0.33411000  1.0 1.0414126256
Mn  Mn29  1  0.48684000  0.14558000  0.38787000  1.0 1.0861988404
Mn  Mn30  1  0.49881000  0.12758000  0.28382000  1.0 0.9658590892
Mn  Mn31  1  0.74731000  0.34488000  0.33411000  1.0 1.0414126256
Mn  Mn32  1  0.85442000  0.34126000  0.38787000  1.0 1.0861988404
Mn  Mn33  1  0.87242000  0.37123000  0.28382000  1.0 0.9658590892
Mn  Mn34  1  0.65512000  0.40243000  0.33411000  1.0 1.0414126256
Mn  Mn35  1  0.65874000  0.51316000  0.38787000  1.0 1.0861988404
Mn  Mn36  1  0.62877000  0.50119000  0.28382000  1.0 0.9658590892
Mn  Mn37  1  0.66666667  0.33333333  0.93360000  1.0 1.058219089
Mn  Mn38  1  0.66666667  0.33333333  0.73633000  1.0 0.9577911336
Mn  Mn39  1  0.33333333  0.66666667  0.56640000  1.0 1.058219089
Mn  Mn40  1  0.33333333  0.66666667  0.76367000  1.0 0.9577911336
Mn  Mn41  1  0.33333333  0.66666667  0.06640000  1.0 1.058219089
Mn  Mn42  1  0.33333333  0.66666667  0.26367000  1.0 0.9577911336
Mn  Mn43  1  0.66666667  0.33333333  0.43360000  1.0 1.058219089
Mn  Mn44  1  0.66666667  0.33333333  0.23633000  1.0 0.9577911336
H  H1  1  0.51700000  0.06720000  0.06610000  1.0 0.1331715492
H  H2  1  0.68870000  0.22290000  0.62840000  1.0 0.0991339099
H  H3  1  0.69270000  0.15290000  0.58100000  1.0 0.1186863524
H  H4  1  0.55270000  0.16030000  0.02920000  1.0 0.1186863524
H  H5  1  0.63220000  0.02250000  0.67560000  1.0 0.1578467876
H  H6  1  0.62110000  0.02260000  0.98820000  1.0 0.1407096106
H  H7  1  0.45010000  0.98580000  0.87550000  1.0 0.1490611463
H  H8  1  0.46580000  0.94560000  0.84270000  1.0 0.1490611463
H  H9  1  0.44680000  0.99460000  0.82490000  1.0 0.1490611463
H  H10  1  0.85400000  0.37040000  0.88340000  1.0 0.1578467876
H  H11  1  0.87560000  0.33590000  0.84980000  1.0 0.1490611463
H  H12  1  0.86520000  0.31510000  0.89920000  1.0 0.1578467876
H  H13  1  0.76780000  0.06360000  0.79670000  1.0 0.1578467876
H  H14  1  0.75830000  0.04780000  0.84690000  1.0 0.1578467876
H  H15  1  0.81060000  0.11580000  0.83100000  1.0 0.1578467876
H  H16  1  0.70590000  0.23330000  0.04330000  1.0 0.0882122288
H  H17  1  0.67250000  0.14530000  0.15400000  1.0 0.1186863524
H  H18  1  0.69410000  0.21810000  0.15650000  1.0 0.1186863524
H  H19  1  0.62520000  0.16880000  0.14030000  1.0 0.1331715492
H  H20  1  0.68090000  0.10270000  0.08520000  1.0 0.1490611463
H  H21  1  0.75140000  0.15450000  0.09630000  1.0 0.1407096106
H  H22  1  0.72270000  0.15390000  0.05010000  1.0 0.1407096106
H  H23  1  0.34890000  0.81750000  0.73280000  1.0 0.0777001989
H  H24  1  0.23980000  0.77900000  0.72800000  1.0 0.0777001989
H  H25  1  0.21710000  0.82890000  0.73450000  1.0 0.0777001989
H  H26  1  0.22770000  0.79590000  0.77530000  1.0 0.0777001989
H  H27  1  0.32260000  0.92220000  0.79870000  1.0 0.0692819812
H  H28  1  0.27280000  0.92050000  0.76510000  1.0 0.0777001989
H  H29  1  0.34570000  0.95660000  0.75340000  1.0 0.0991339099
H  H30  1  0.66860000  0.05080000  0.56790000  1.0 0.301008753
H  H31  1  0.64300000  0.99850000  0.60250000  1.0 0.3107612021
H  H32  1  0.55030000  0.94980000  0.03650000  1.0 0.301008753
H  H33  1  0.50690000  0.96240000  0.06520000  1.0 0.301008753
H  H34  1  0.38080000  0.86120000  0.75210000  1.0 0.1331715492
H  H35  1  0.21850000  0.78760000  0.75290000  1.0 0.0692819812
H  H36  1  0.26740000  0.77790000  0.72490000  1.0 0.0991339099
H  H37  1  0.26910000  0.77530000  0.77620000  1.0 0.0882122288
H  H38  1  0.23240000  0.87240000  0.73340000  1.0 0.0692819812
H  H39  1  0.29420000  0.93850000  0.74130000  1.0 0.0692819812
H  H40  1  0.28830000  0.89900000  0.69920000  1.0 0.0777001989
H  H41  1  0.55020000  0.48300000  0.06610000  1.0 0.1331715492
H  H42  1  0.53420000  0.31130000  0.62840000  1.0 0.0991339099
H  H43  1  0.46020000  0.30730000  0.58100000  1.0 0.1186863524
H  H44  1  0.60760000  0.44730000  0.02920000  1.0 0.1186863524
H  H45  1  0.39030000  0.36780000  0.67560000  1.0 0.1578467876
H  H46  1  0.40150000  0.37890000  0.98820000  1.0 0.1407096106
H  H47  1  0.53570000  0.54990000  0.87550000  1.0 0.1490611463
H  H48  1  0.47980000  0.53420000  0.84270000  1.0 0.1490611463
H  H49  1  0.54780000  0.55320000  0.82490000  1.0 0.1490611463
H  H50  1  0.51640000  0.14600000  0.88340000  1.0 0.1578467876
H  H51  1  0.46030000  0.12440000  0.84980000  1.0 0.1490611463
H  H52  1  0.44990000  0.13480000  0.89920000  1.0 0.1578467876
H  H53  1  0.29580000  0.23220000  0.79670000  1.0 0.1578467876
H  H54  1  0.28950000  0.24170000  0.84690000  1.0 0.1578467876
H  H55  1  0.30520000  0.18940000  0.83100000  1.0 0.1578467876
H  H56  1  0.52740000  0.29410000  0.04330000  1.0 0.0882122288
H  H57  1  0.47280000  0.32750000  0.15400000  1.0 0.1186863524
H  H58  1  0.52400000  0.30590000  0.15650000  1.0 0.1186863524
H  H59  1  0.54360000  0.37480000  0.14030000  1.0 0.1331715492
H  H60  1  0.42180000  0.31910000  0.08520000  1.0 0.1490611463
H  H61  1  0.40310000  0.24860000  0.09630000  1.0 0.1407096106
H  H62  1  0.43120000  0.27730000  0.05010000  1.0 0.1407096106
H  H63  1  0.46860000  0.65110000  0.73280000  1.0 0.0777001989
H  H64  1  0.53920000  0.76020000  0.72800000  1.0 0.0777001989
H  H65  1  0.61180000  0.78290000  0.73450000  1.0 0.0777001989
H  H66  1  0.56820000  0.77230000  0.77530000  1.0 0.0777001989
H  H67  1  0.59960000  0.67740000  0.79870000  1.0 0.0692819812
H  H68  1  0.64770000  0.72720000  0.76510000  1.0 0.0777001989
H  H69  1  0.61090000  0.65430000  0.75340000  1.0 0.0991339099
H  H70  1  0.38220000  0.33140000  0.56790000  1.0 0.301008753
H  H71  1  0.35550000  0.35700000  0.60250000  1.0 0.3107612021
H  H72  1  0.39950000  0.44970000  0.03650000  1.0 0.301008753
H  H73  1  0.45550000  0.49310000  0.06520000  1.0 0.301008753
H  H74  1  0.48040000  0.61920000  0.75210000  1.0 0.1331715492
H  H75  1  0.56910000  0.78150000  0.75290000  1.0 0.0692819812
H  H76  1  0.51050000  0.73260000  0.72490000  1.0 0.0991339099
H  H77  1  0.50620000  0.73090000  0.77620000  1.0 0.0882122288
H  H78  1  0.64000000  0.76760000  0.73340000  1.0 0.0692819812
H  H79  1  0.64430000  0.70580000  0.74130000  1.0 0.0692819812
H  H80  1  0.61070000  0.71170000  0.69920000  1.0 0.0777001989
H  H81  1  0.93280000  0.44980000  0.06610000  1.0 0.1331715492
H  H82  1  0.77710000  0.46580000  0.62840000  1.0 0.0991339099
H  H83  1  0.84710000  0.53980000  0.58100000  1.0 0.1186863524
H  H84  1  0.83970000  0.39240000  0.02920000  1.0 0.1186863524
H  H85  1  0.97750000  0.60970000  0.67560000  1.0 0.1578467876
H  H86  1  0.97740000  0.59850000  0.98820000  1.0 0.1407096106
H  H87  1  0.01420000  0.46430000  0.87550000  1.0 0.1490611463
H  H88  1  0.05440000  0.52020000  0.84270000  1.0 0.1490611463
H  H89  1  0.00540000  0.45220000  0.82490000  1.0 0.1490611463
H  H90  1  0.62960000  0.48360000  0.88340000  1.0 0.1578467876
H  H91  1  0.66410000  0.53970000  0.84980000  1.0 0.1490611463
H  H92  1  0.68490000  0.55010000  0.89920000  1.0 0.1578467876
H  H93  1  0.93640000  0.70420000  0.79670000  1.0 0.1578467876
H  H94  1  0.95220000  0.71050000  0.84690000  1.0 0.1578467876
H  H95  1  0.88420000  0.69480000  0.83100000  1.0 0.1578467876
H  H96  1  0.76670000  0.47260000  0.04330000  1.0 0.0882122288
H  H97  1  0.85470000  0.52720000  0.15400000  1.0 0.1186863524
H  H98  1  0.78190000  0.47600000  0.15650000  1.0 0.1186863524
H  H99  1  0.83120000  0.45640000  0.14030000  1.0 0.1331715492
H  H100  1  0.89730000  0.57820000  0.08520000  1.0 0.1490611463
H  H101  1  0.84550000  0.59690000  0.09630000  1.0 0.1407096106
H  H102  1  0.84610000  0.56880000  0.05010000  1.0 0.1407096106
H  H103  1  0.18250000  0.53140000  0.73280000  1.0 0.0777001989
H  H104  1  0.22100000  0.46080000  0.72800000  1.0 0.0777001989
H  H105  1  0.17110000  0.38820000  0.73450000  1.0 0.0777001989
H  H106  1  0.20410000  0.43180000  0.77530000  1.0 0.0777001989
H  H107  1  0.07780000  0.40040000  0.79870000  1.0 0.0692819812
H  H108  1  0.07950000  0.35230000  0.76510000  1.0 0.0777001989
H  H109  1  0.04340000  0.38910000  0.75340000  1.0 0.0991339099
H  H110  1  0.94920000  0.61780000  0.56790000  1.0 0.301008753
H  H111  1  0.00150000  0.64450000  0.60250000  1.0 0.3107612021
H  H112  1  0.05020000  0.60050000  0.03650000  1.0 0.301008753
H  H113  1  0.03760000  0.54450000  0.06520000  1.0 0.301008753
H  H114  1  0.13880000  0.51960000  0.75210000  1.0 0.1331715492
H  H115  1  0.21240000  0.43090000  0.75290000  1.0 0.0692819812
H  H116  1  0.22210000  0.48950000  0.72490000  1.0 0.0991339099
H  H117  1  0.22470000  0.49380000  0.77620000  1.0 0.0882122288
H  H118  1  0.12760000  0.36000000  0.73340000  1.0 0.0692819812
H  H119  1  0.06150000  0.35570000  0.74130000  1.0 0.0692819812
H  H120  1  0.10100000  0.38930000  0.69920000  1.0 0.0777001989
H  H121  1  0.44980000  0.93280000  0.43390000  1.0 0.1331715492
H  H122  1  0.46580000  0.77710000  0.87160000  1.0 0.0991339099
H  H123  1  0.53980000  0.84710000  0.91900000  1.0 0.1186863524
H  H124  1  0.39240000  0.83970000  0.47080000  1.0 0.1186863524
H  H125  1  0.60970000  0.97750000  0.82440000  1.0 0.1578467876
H  H126  1  0.59850000  0.97740000  0.51180000  1.0 0.1407096106
H  H127  1  0.46430000  0.01420000  0.62450000  1.0 0.1490611463
H  H128  1  0.52020000  0.05440000  0.65730000  1.0 0.1490611463
H  H129  1  0.45220000  0.00540000  0.67510000  1.0 0.1490611463
H  H130  1  0.48360000  0.62960000  0.61660000  1.0 0.1578467876
H  H131  1  0.53970000  0.66410000  0.65020000  1.0 0.1490611463
H  H132  1  0.55010000  0.68490000  0.60080000  1.0 0.1578467876
H  H133  1  0.70420000  0.93640000  0.70330000  1.0 0.1578467876
H  H134  1  0.71050000  0.95220000  0.65310000  1.0 0.1578467876
H  H135  1  0.69480000  0.88420000  0.66900000  1.0 0.1578467876
H  H136  1  0.47260000  0.76670000  0.45670000  1.0 0.0882122288
H  H137  1  0.52720000  0.85470000  0.34600000  1.0 0.1186863524
H  H138  1  0.47600000  0.78190000  0.34350000  1.0 0.1186863524
H  H139  1  0.45640000  0.83120000  0.35970000  1.0 0.1331715492
H  H140  1  0.57820000  0.89730000  0.41480000  1.0 0.1490611463
H  H141  1  0.59690000  0.84550000  0.40370000  1.0 0.1407096106
H  H142  1  0.56880000  0.84610000  0.44990000  1.0 0.1407096106
H  H143  1  0.53140000  0.18250000  0.76720000  1.0 0.0777001989
H  H144  1  0.46080000  0.22100000  0.77200000  1.0 0.0777001989
H  H145  1  0.38820000  0.17110000  0.76550000  1.0 0.0777001989
H  H146  1  0.43180000  0.20410000  0.72470000  1.0 0.0777001989
H  H147  1  0.40040000  0.07780000  0.70130000  1.0 0.0692819812
H  H148  1  0.35230000  0.07950000  0.73490000  1.0 0.0777001989
H  H149  1  0.38910000  0.04340000  0.74660000  1.0 0.0991339099
H  H150  1  0.61780000  0.94920000  0.93210000  1.0 0.301008753
H  H151  1  0.64450000  0.00150000  0.89750000  1.0 0.3107612021
H  H152  1  0.60050000  0.05020000  0.46350000  1.0 0.301008753
H  H153  1  0.54450000  0.03760000  0.43480000  1.0 0.301008753
H  H154  1  0.51960000  0.13880000  0.74790000  1.0 0.1331715492
H  H155  1  0.43090000  0.21240000  0.74710000  1.0 0.0692819812
H  H156  1  0.48950000  0.22210000  0.77510000  1.0 0.0991339099
H  H157  1  0.49380000  0.22470000  0.72380000  1.0 0.0882122288
H  H158  1  0.36000000  0.12760000  0.76660000  1.0 0.0692819812
H  H159  1  0.35570000  0.06150000  0.75870000  1.0 0.0692819812
H  H160  1  0.38930000  0.10100000  0.80080000  1.0 0.0777001989
H  H161  1  0.06720000  0.51700000  0.43390000  1.0 0.1331715492
H  H162  1  0.22290000  0.68870000  0.87160000  1.0 0.0991339099
H  H163  1  0.15290000  0.69270000  0.91900000  1.0 0.1186863524
H  H164  1  0.16030000  0.55270000  0.47080000  1.0 0.1186863524
H  H165  1  0.02250000  0.63220000  0.82440000  1.0 0.1578467876
H  H166  1  0.02260000  0.62110000  0.51180000  1.0 0.1407096106
H  H167  1  0.98580000  0.45010000  0.62450000  1.0 0.1490611463
H  H168  1  0.94560000  0.46580000  0.65730000  1.0 0.1490611463
H  H169  1  0.99460000  0.44680000  0.67510000  1.0 0.1490611463
H  H170  1  0.37040000  0.85400000  0.61660000  1.0 0.1578467876
H  H171  1  0.33590000  0.87560000  0.65020000  1.0 0.1490611463
H  H172  1  0.31510000  0.86520000  0.60080000  1.0 0.1578467876
H  H173  1  0.06360000  0.76780000  0.70330000  1.0 0.1578467876
H  H174  1  0.04780000  0.75830000  0.65310000  1.0 0.1578467876
H  H175  1  0.11580000  0.81060000  0.66900000  1.0 0.1578467876
H  H176  1  0.23330000  0.70590000  0.45670000  1.0 0.0882122288
H  H177  1  0.14530000  0.67250000  0.34600000  1.0 0.1186863524
H  H178  1  0.21810000  0.69410000  0.34350000  1.0 0.1186863524
H  H179  1  0.16880000  0.62520000  0.35970000  1.0 0.1331715492
H  H180  1  0.10270000  0.68090000  0.41480000  1.0 0.1490611463
H  H181  1  0.15450000  0.75140000  0.40370000  1.0 0.1407096106
H  H182  1  0.15390000  0.72270000  0.44990000  1.0 0.1407096106
H  H183  1  0.81750000  0.34890000  0.76720000  1.0 0.0777001989
H  H184  1  0.77900000  0.23980000  0.77200000  1.0 0.0777001989
H  H185  1  0.82890000  0.21710000  0.76550000  1.0 0.0777001989
H  H186  1  0.79590000  0.22770000  0.72470000  1.0 0.0777001989
H  H187  1  0.92220000  0.32260000  0.70130000  1.0 0.0692819812
H  H188  1  0.92050000  0.27280000  0.73490000  1.0 0.0777001989
H  H189  1  0.95660000  0.34570000  0.74660000  1.0 0.0991339099
H  H190  1  0.05080000  0.66860000  0.93210000  1.0 0.301008753
H  H191  1  0.99850000  0.64300000  0.89750000  1.0 0.3107612021
H  H192  1  0.94980000  0.55030000  0.46350000  1.0 0.301008753
H  H193  1  0.96240000  0.50690000  0.43480000  1.0 0.301008753
H  H194  1  0.86120000  0.38080000  0.74790000  1.0 0.1331715492
H  H195  1  0.78760000  0.21850000  0.74710000  1.0 0.0692819812
H  H196  1  0.77790000  0.26740000  0.77510000  1.0 0.0991339099
H  H197  1  0.77530000  0.26910000  0.72380000  1.0 0.0882122288
H  H198  1  0.87240000  0.23240000  0.76660000  1.0 0.0777001989
H  H199  1  0.93850000  0.29420000  0.75870000  1.0 0.0692819812
H  H200  1  0.89900000  0.28830000  0.80080000  1.0 0.0777001989
H  H201  1  0.48300000  0.55020000  0.43390000  1.0 0.1331715492
H  H202  1  0.31130000  0.53420000  0.87160000  1.0 0.0991339099
H  H203  1  0.30730000  0.46020000  0.91900000  1.0 0.1186863524
H  H204  1  0.44730000  0.60760000  0.47080000  1.0 0.1186863524
H  H205  1  0.36780000  0.39030000  0.82440000  1.0 0.1578467876
H  H206  1  0.37890000  0.40150000  0.51180000  1.0 0.1407096106
H  H207  1  0.54990000  0.53570000  0.62450000  1.0 0.1490611463
H  H208  1  0.53420000  0.47980000  0.65730000  1.0 0.1490611463
H  H209  1  0.55320000  0.54780000  0.67510000  1.0 0.1490611463
H  H210  1  0.14600000  0.51640000  0.61660000  1.0 0.1578467876
H  H211  1  0.12440000  0.46030000  0.65020000  1.0 0.1490611463
H  H212  1  0.13480000  0.44990000  0.60080000  1.0 0.1578467876
H  H213  1  0.23220000  0.29580000  0.70330000  1.0 0.1578467876
H  H214  1  0.24170000  0.28950000  0.65310000  1.0 0.1578467876
H  H215  1  0.18940000  0.30520000  0.66900000  1.0 0.1578467876
H  H216  1  0.29410000  0.52740000  0.45670000  1.0 0.0882122288
H  H217  1  0.32750000  0.47280000  0.34600000  1.0 0.1186863524
H  H218  1  0.30590000  0.52400000  0.34350000  1.0 0.1186863524
H  H219  1  0.37480000  0.54360000  0.35970000  1.0 0.1331715492
H  H220  1  0.31910000  0.42180000  0.41480000  1.0 0.1490611463
H  H221  1  0.24860000  0.40310000  0.40370000  1.0 0.1407096106
H  H222  1  0.27730000  0.43120000  0.44990000  1.0 0.1407096106
H  H223  1  0.65110000  0.46860000  0.76720000  1.0 0.0777001989
H  H224  1  0.76020000  0.53920000  0.77200000  1.0 0.0777001989
H  H225  1  0.78290000  0.61180000  0.76550000  1.0 0.0777001989
H  H226  1  0.77230000  0.56820000  0.72470000  1.0 0.0777001989
H  H227  1  0.67740000  0.59960000  0.70130000  1.0 0.0692819812
H  H228  1  0.72720000  0.64770000  0.73490000  1.0 0.0777001989
H  H229  1  0.65430000  0.61090000  0.74660000  1.0 0.0991339099
H  H230  1  0.33140000  0.38220000  0.93210000  1.0 0.301008753
H  H231  1  0.35700000  0.35550000  0.89750000  1.0 0.3107612021
H  H232  1  0.44970000  0.39950000  0.46350000  1.0 0.301008753
H  H233  1  0.49310000  0.45550000  0.43480000  1.0 0.301008753
H  H234  1  0.61920000  0.48040000  0.74790000  1.0 0.1331715492
H  H235  1  0.78150000  0.56910000  0.74710000  1.0 0.0692819812
H  H236  1  0.73260000  0.51050000  0.77510000  1.0 0.0991339099
H  H237  1  0.73090000  0.50620000  0.72380000  1.0 0.0882122288
H  H238  1  0.76760000  0.64000000  0.76660000  1.0 0.0692819812
H  H239  1  0.70580000  0.64430000  0.75870000  1.0 0.0692819812
H  H240  1  0.71170000  0.61070000  0.80080000  1.0 0.0777001989
H  H241  1  0.48300000  0.93280000  0.93390000  1.0 0.1331715492
H  H242  1  0.31130000  0.77710000  0.37160000  1.0 0.0991339099
H  H243  1  0.30730000  0.84710000  0.41900000  1.0 0.1186863524
H  H244  1  0.44730000  0.83970000  0.97080000  1.0 0.1186863524
H  H245  1  0.36780000  0.97750000  0.32440000  1.0 0.1578467876
H  H246  1  0.37890000  0.97740000  0.01180000  1.0 0.1407096106
H  H247  1  0.54990000  0.01420000  0.12450000  1.0 0.1490611463
H  H248  1  0.53420000  0.05440000  0.15730000  1.0 0.1490611463
H  H249  1  0.55320000  0.00540000  0.17510000  1.0 0.1490611463
H  H250  1  0.14600000  0.62960000  0.11660000  1.0 0.1578467876
H  H251  1  0.12440000  0.66410000  0.15020000  1.0 0.1490611463
H  H252  1  0.13480000  0.68490000  0.10080000  1.0 0.1578467876
H  H253  1  0.23220000  0.93640000  0.20330000  1.0 0.1578467876
H  H254  1  0.24170000  0.95220000  0.15310000  1.0 0.1578467876
H  H255  1  0.18940000  0.88420000  0.16900000  1.0 0.1578467876
H  H256  1  0.29410000  0.76670000  0.95670000  1.0 0.0882122288
H  H257  1  0.32750000  0.85470000  0.84600000  1.0 0.1186863524
H  H258  1  0.30590000  0.78190000  0.84350000  1.0 0.1186863524
H  H259  1  0.37480000  0.83120000  0.85970000  1.0 0.1331715492
H  H260  1  0.31910000  0.89730000  0.91480000  1.0 0.1490611463
H  H261  1  0.24860000  0.84550000  0.90370000  1.0 0.1407096106
H  H262  1  0.27730000  0.84610000  0.94990000  1.0 0.1407096106
H  H263  1  0.65110000  0.18250000  0.26720000  1.0 0.0777001989
H  H264  1  0.76020000  0.22100000  0.27200000  1.0 0.0777001989
H  H265  1  0.78290000  0.17110000  0.26550000  1.0 0.0777001989
H  H266  1  0.77230000  0.20410000  0.22470000  1.0 0.0777001989
H  H267  1  0.67740000  0.07780000  0.20130000  1.0 0.0692819812
H  H268  1  0.72720000  0.07950000  0.23490000  1.0 0.0777001989
H  H269  1  0.65430000  0.04340000  0.24660000  1.0 0.0991339099
H  H270  1  0.33140000  0.94920000  0.43210000  1.0 0.301008753
H  H271  1  0.35700000  0.00150000  0.39750000  1.0 0.3107612021
H  H272  1  0.44970000  0.05020000  0.96350000  1.0 0.301008753
H  H273  1  0.49310000  0.03760000  0.93480000  1.0 0.301008753
H  H274  1  0.61920000  0.13880000  0.24790000  1.0 0.1331715492
H  H275  1  0.78150000  0.21240000  0.24710000  1.0 0.0692819812
H  H276  1  0.73260000  0.22210000  0.27510000  1.0 0.0991339099
H  H277  1  0.73090000  0.22470000  0.22380000  1.0 0.0882122288
H  H278  1  0.76760000  0.12760000  0.26660000  1.0 0.0692819812
H  H279  1  0.70580000  0.06150000  0.25870000  1.0 0.0692819812
H  H280  1  0.71170000  0.10100000  0.30080000  1.0 0.0777001989
H  H281  1  0.44980000  0.51700000  0.93390000  1.0 0.1331715492
H  H282  1  0.46580000  0.68870000  0.37160000  1.0 0.0991339099
H  H283  1  0.53980000  0.69270000  0.41900000  1.0 0.1186863524
H  H284  1  0.39240000  0.55270000  0.97080000  1.0 0.1186863524
H  H285  1  0.60970000  0.63220000  0.32440000  1.0 0.1578467876
H  H286  1  0.59850000  0.62110000  0.01180000  1.0 0.1407096106
H  H287  1  0.46430000  0.45010000  0.12450000  1.0 0.1490611463
H  H288  1  0.52020000  0.46580000  0.15730000  1.0 0.1490611463
H  H289  1  0.45220000  0.44680000  0.17510000  1.0 0.1490611463
H  H290  1  0.48360000  0.85400000  0.11660000  1.0 0.1578467876
H  H291  1  0.53970000  0.87560000  0.15020000  1.0 0.1490611463
H  H292  1  0.55010000  0.86520000  0.10080000  1.0 0.1578467876
H  H293  1  0.70420000  0.76780000  0.20330000  1.0 0.1578467876
H  H294  1  0.71050000  0.75830000  0.15310000  1.0 0.1578467876
H  H295  1  0.69480000  0.81060000  0.16900000  1.0 0.1578467876
H  H296  1  0.47260000  0.70590000  0.95670000  1.0 0.0882122288
H  H297  1  0.52720000  0.67250000  0.84600000  1.0 0.1186863524
H  H298  1  0.47600000  0.69410000  0.84350000  1.0 0.1186863524
H  H299  1  0.45640000  0.62520000  0.85970000  1.0 0.1331715492
H  H300  1  0.57820000  0.68090000  0.91480000  1.0 0.1490611463
H  H301  1  0.59690000  0.75140000  0.90370000  1.0 0.1407096106
H  H302  1  0.56880000  0.72270000  0.94990000  1.0 0.1407096106
H  H303  1  0.53140000  0.34890000  0.26720000  1.0 0.0777001989
H  H304  1  0.46080000  0.23980000  0.27200000  1.0 0.0777001989
H  H305  1  0.38820000  0.21710000  0.26550000  1.0 0.0777001989
H  H306  1  0.43180000  0.22770000  0.22470000  1.0 0.0777001989
H  H307  1  0.40040000  0.32260000  0.20130000  1.0 0.0692819812
H  H308  1  0.35230000  0.27280000  0.23490000  1.0 0.0777001989
H  H309  1  0.38910000  0.34570000  0.24660000  1.0 0.0991339099
H  H310  1  0.61780000  0.66860000  0.43210000  1.0 0.301008753
H  H311  1  0.64450000  0.64300000  0.39750000  1.0 0.3107612021
H  H312  1  0.60050000  0.55030000  0.96350000  1.0 0.301008753
H  H313  1  0.54450000  0.50690000  0.93480000  1.0 0.301008753
H  H314  1  0.51960000  0.38080000  0.24790000  1.0 0.1331715492
H  H315  1  0.43090000  0.21850000  0.24710000  1.0 0.0692819812
H  H316  1  0.48950000  0.26740000  0.27510000  1.0 0.0991339099
H  H317  1  0.49380000  0.26910000  0.22380000  1.0 0.0882122288
H  H318  1  0.36000000  0.23240000  0.26660000  1.0 0.0692819812
H  H319  1  0.35570000  0.29420000  0.25870000  1.0 0.0692819812
H  H320  1  0.38930000  0.28830000  0.30080000  1.0 0.0777001989
H  H321  1  0.06720000  0.55020000  0.93390000  1.0 0.1331715492
H  H322  1  0.22290000  0.53420000  0.37160000  1.0 0.0991339099
H  H323  1  0.15290000  0.46020000  0.41900000  1.0 0.1186863524
H  H324  1  0.16030000  0.60760000  0.97080000  1.0 0.1186863524
H  H325  1  0.02250000  0.39030000  0.32440000  1.0 0.1578467876
H  H326  1  0.02260000  0.40150000  0.01180000  1.0 0.1407096106
H  H327  1  0.98580000  0.53570000  0.12450000  1.0 0.1490611463
H  H328  1  0.94560000  0.47980000  0.15730000  1.0 0.1490611463
H  H329  1  0.99460000  0.54780000  0.17510000  1.0 0.1490611463
H  H330  1  0.37040000  0.51640000  0.11660000  1.0 0.1578467876
H  H331  1  0.33590000  0.46030000  0.15020000  1.0 0.1490611463
H  H332  1  0.31510000  0.44990000  0.10080000  1.0 0.1578467876
H  H333  1  0.06360000  0.29580000  0.20330000  1.0 0.1578467876
H  H334  1  0.04780000  0.28950000  0.15310000  1.0 0.1578467876
H  H335  1  0.11580000  0.30520000  0.16900000  1.0 0.1578467876
H  H336  1  0.23330000  0.52740000  0.95670000  1.0 0.0882122288
H  H337  1  0.14530000  0.47280000  0.84600000  1.0 0.1186863524
H  H338  1  0.21810000  0.52400000  0.84350000  1.0 0.1186863524
H  H339  1  0.16880000  0.54360000  0.85970000  1.0 0.1331715492
H  H340  1  0.10270000  0.42180000  0.91480000  1.0 0.1490611463
H  H341  1  0.15450000  0.40310000  0.90370000  1.0 0.1407096106
H  H342  1  0.15390000  0.43120000  0.94990000  1.0 0.1407096106
H  H343  1  0.81750000  0.46860000  0.26720000  1.0 0.0777001989
H  H344  1  0.77900000  0.53920000  0.27200000  1.0 0.0777001989
H  H345  1  0.82890000  0.61180000  0.26550000  1.0 0.0777001989
H  H346  1  0.79590000  0.56820000  0.22470000  1.0 0.0777001989
H  H347  1  0.92220000  0.59960000  0.20130000  1.0 0.0692819812
H  H348  1  0.92050000  0.64770000  0.23490000  1.0 0.0777001989
H  H349  1  0.95660000  0.61090000  0.24660000  1.0 0.0991339099
H  H350  1  0.05080000  0.38220000  0.43210000  1.0 0.301008753
H  H351  1  0.99850000  0.35550000  0.39750000  1.0 0.3107612021
H  H352  1  0.94980000  0.39950000  0.96350000  1.0 0.301008753
H  H353  1  0.96240000  0.45550000  0.93480000  1.0 0.3107612021
H  H354  1  0.86120000  0.48040000  0.24790000  1.0 0.1331715492
H  H355  1  0.78760000  0.56910000  0.24710000  1.0 0.0692819812
H  H356  1  0.77790000  0.51050000  0.27510000  1.0 0.0991339099
H  H357  1  0.77530000  0.50620000  0.22380000  1.0 0.0882122288
H  H358  1  0.87240000  0.64000000  0.26660000  1.0 0.0692819812
H  H359  1  0.93850000  0.64430000  0.25870000  1.0 0.0692819812
H  H360  1  0.89900000  0.61070000  0.30080000  1.0 0.0777001989
H  H361  1  0.55020000  0.06720000  0.56610000  1.0 0.1331715492
H  H362  1  0.53420000  0.22290000  0.12840000  1.0 0.0991339099
H  H363  1  0.46020000  0.15290000  0.08100000  1.0 0.1186863524
H  H364  1  0.60760000  0.16030000  0.52920000  1.0 0.1186863524
H  H365  1  0.39030000  0.02250000  0.17560000  1.0 0.1578467876
H  H366  1  0.40150000  0.02260000  0.48820000  1.0 0.1407096106
H  H367  1  0.53570000  0.98580000  0.37550000  1.0 0.1490611463
H  H368  1  0.47980000  0.94560000  0.34270000  1.0 0.1490611463
H  H369  1  0.54780000  0.99460000  0.32490000  1.0 0.1490611463
H  H370  1  0.51640000  0.37040000  0.38340000  1.0 0.1578467876
H  H371  1  0.46030000  0.33590000  0.34980000  1.0 0.1490611463
H  H372  1  0.44990000  0.31510000  0.39920000  1.0 0.1578467876
H  H373  1  0.29580000  0.06360000  0.29670000  1.0 0.1578467876
H  H374  1  0.28950000  0.04780000  0.34690000  1.0 0.1578467876
H  H375  1  0.30520000  0.11580000  0.33100000  1.0 0.1578467876
H  H376  1  0.52740000  0.23330000  0.54330000  1.0 0.0882122288
H  H377  1  0.47280000  0.14530000  0.65400000  1.0 0.1186863524
H  H378  1  0.52400000  0.21810000  0.65650000  1.0 0.1186863524
H  H379  1  0.54360000  0.16880000  0.64030000  1.0 0.1331715492
H  H380  1  0.42180000  0.10270000  0.58520000  1.0 0.1490611463
H  H381  1  0.40310000  0.15450000  0.59630000  1.0 0.1407096106
H  H382  1  0.43120000  0.15390000  0.55010000  1.0 0.1407096106
H  H383  1  0.46860000  0.81750000  0.23280000  1.0 0.0777001989
H  H384  1  0.53920000  0.77900000  0.22800000  1.0 0.0777001989
H  H385  1  0.61180000  0.82890000  0.23450000  1.0 0.0777001989
H  H386  1  0.56820000  0.79590000  0.27530000  1.0 0.0777001989
H  H387  1  0.59960000  0.92220000  0.29870000  1.0 0.0692819812
H  H388  1  0.64770000  0.92050000  0.26510000  1.0 0.0777001989
H  H389  1  0.61090000  0.95660000  0.25340000  1.0 0.0991339099
H  H390  1  0.38220000  0.05080000  0.06790000  1.0 0.301008753
H  H391  1  0.35550000  0.99850000  0.10250000  1.0 0.3107612021
H  H392  1  0.39950000  0.94980000  0.53650000  1.0 0.301008753
H  H393  1  0.45550000  0.96240000  0.56520000  1.0 0.301008753
H  H394  1  0.48040000  0.86120000  0.25210000  1.0 0.1331715492
H  H395  1  0.56910000  0.78760000  0.25290000  1.0 0.0692819812
H  H396  1  0.51050000  0.77790000  0.22490000  1.0 0.0991339099
H  H397  1  0.50620000  0.77530000  0.27620000  1.0 0.0882122288
H  H398  1  0.64000000  0.87240000  0.23340000  1.0 0.0692819812
H  H399  1  0.64430000  0.93850000  0.24130000  1.0 0.0692819812
H  H400  1  0.61070000  0.89900000  0.19920000  1.0 0.0777001989
H  H401  1  0.93280000  0.48300000  0.56610000  1.0 0.1331715492
H  H402  1  0.77710000  0.31130000  0.12840000  1.0 0.0991339099
H  H403  1  0.84710000  0.30730000  0.08100000  1.0 0.1186863524
H  H404  1  0.83970000  0.44730000  0.52920000  1.0 0.1186863524
H  H405  1  0.97750000  0.36780000  0.17560000  1.0 0.1578467876
H  H406  1  0.97740000  0.37890000  0.48820000  1.0 0.1407096106
H  H407  1  0.01420000  0.54990000  0.37550000  1.0 0.1490611463
H  H408  1  0.05440000  0.53420000  0.34270000  1.0 0.1490611463
H  H409  1  0.00540000  0.55320000  0.32490000  1.0 0.1490611463
H  H410  1  0.62960000  0.14600000  0.38340000  1.0 0.1578467876
H  H411  1  0.66410000  0.12440000  0.34980000  1.0 0.1490611463
H  H412  1  0.68490000  0.13480000  0.39920000  1.0 0.1578467876
H  H413  1  0.93640000  0.23220000  0.29670000  1.0 0.1578467876
H  H414  1  0.95220000  0.24170000  0.34690000  1.0 0.1578467876
H  H415  1  0.88420000  0.18940000  0.33100000  1.0 0.1578467876
H  H416  1  0.76670000  0.29410000  0.54330000  1.0 0.0882122288
H  H417  1  0.85470000  0.32750000  0.65400000  1.0 0.1186863524
H  H418  1  0.78190000  0.30590000  0.65650000  1.0 0.1186863524
H  H419  1  0.83120000  0.37480000  0.64030000  1.0 0.1331715492
H  H420  1  0.89730000  0.31910000  0.58520000  1.0 0.1490611463
H  H421  1  0.84550000  0.24860000  0.59630000  1.0 0.1407096106
H  H422  1  0.84610000  0.27730000  0.55010000  1.0 0.1407096106
H  H423  1  0.18250000  0.65110000  0.23280000  1.0 0.0777001989
H  H424  1  0.22100000  0.76020000  0.22800000  1.0 0.0777001989
H  H425  1  0.17110000  0.78290000  0.23450000  1.0 0.0777001989
H  H426  1  0.20410000  0.77230000  0.27530000  1.0 0.0777001989
H  H427  1  0.07780000  0.67740000  0.29870000  1.0 0.0692819812
H  H428  1  0.07950000  0.72720000  0.26510000  1.0 0.0777001989
H  H429  1  0.04340000  0.65430000  0.25340000  1.0 0.0991339099
H  H430  1  0.94920000  0.33140000  0.06790000  1.0 0.301008753
H  H431  1  0.00150000  0.35700000  0.10250000  1.0 0.3107612021
H  H432  1  0.05020000  0.44970000  0.53650000  1.0 0.301008753
H  H433  1  0.03760000  0.49310000  0.56520000  1.0 0.301008753
H  H434  1  0.13880000  0.61920000  0.25210000  1.0 0.1331715492
H  H435  1  0.21240000  0.78150000  0.25290000  1.0 0.0692819812
H  H436  1  0.22210000  0.73260000  0.22490000  1.0 0.0991339099
H  H437  1  0.22470000  0.73090000  0.27620000  1.0 0.0882122288
H  H438  1  0.12760000  0.76760000  0.23340000  1.0 0.0692819812
H  H439  1  0.06150000  0.70580000  0.24130000  1.0 0.0692819812
H  H440  1  0.10100000  0.71170000  0.19920000  1.0 0.0777001989
H  H441  1  0.51700000  0.44980000  0.56610000  1.0 0.1331715492
H  H442  1  0.68870000  0.46580000  0.12840000  1.0 0.0991339099
H  H443  1  0.69270000  0.53980000  0.08100000  1.0 0.1186863524
H  H444  1  0.55270000  0.39240000  0.52920000  1.0 0.1186863524
H  H445  1  0.63220000  0.60970000  0.17560000  1.0 0.1578467876
H  H446  1  0.62110000  0.59850000  0.48820000  1.0 0.1407096106
H  H447  1  0.45010000  0.46430000  0.37550000  1.0 0.1490611463
H  H448  1  0.46580000  0.52020000  0.34270000  1.0 0.1490611463
H  H449  1  0.44680000  0.45220000  0.32490000  1.0 0.1490611463
H  H450  1  0.85400000  0.48360000  0.38340000  1.0 0.1578467876
H  H451  1  0.87560000  0.53970000  0.34980000  1.0 0.1490611463
H  H452  1  0.86520000  0.55010000  0.39920000  1.0 0.1578467876
H  H453  1  0.76780000  0.70420000  0.29670000  1.0 0.1578467876
H  H454  1  0.75830000  0.71050000  0.34690000  1.0 0.1578467876
H  H455  1  0.81060000  0.69480000  0.33100000  1.0 0.1578467876
H  H456  1  0.70590000  0.47260000  0.54330000  1.0 0.0882122288
H  H457  1  0.67250000  0.52720000  0.65400000  1.0 0.1186863524
H  H458  1  0.69410000  0.47600000  0.65650000  1.0 0.1186863524
H  H459  1  0.62520000  0.45640000  0.64030000  1.0 0.1331715492
H  H460  1  0.68090000  0.57820000  0.58520000  1.0 0.1490611463
H  H461  1  0.75140000  0.59690000  0.59630000  1.0 0.1407096106
H  H462  1  0.72270000  0.56880000  0.55010000  1.0 0.1407096106
H  H463  1  0.34890000  0.53140000  0.23280000  1.0 0.0777001989
H  H464  1  0.23980000  0.46080000  0.22800000  1.0 0.0777001989
H  H465  1  0.21710000  0.38820000  0.23450000  1.0 0.0777001989
H  H466  1  0.22770000  0.43180000  0.27530000  1.0 0.0777001989
H  H467  1  0.32260000  0.40040000  0.29870000  1.0 0.0692819812
H  H468  1  0.27280000  0.35230000  0.26510000  1.0 0.0777001989
H  H469  1  0.34570000  0.38910000  0.25340000  1.0 0.0991339099
H  H470  1  0.66860000  0.61780000  0.06790000  1.0 0.301008753
H  H471  1  0.64300000  0.64450000  0.10250000  1.0 0.3107612021
H  H472  1  0.55030000  0.60050000  0.53650000  1.0 0.301008753
H  H473  1  0.50690000  0.54450000  0.56520000  1.0 0.301008753
H  H474  1  0.38080000  0.51960000  0.25210000  1.0 0.1331715492
H  H475  1  0.21850000  0.43090000  0.25290000  1.0 0.0692819812
H  H476  1  0.26740000  0.48950000  0.22490000  1.0 0.0991339099
H  H477  1  0.26910000  0.49380000  0.27620000  1.0 0.0882122288
H  H478  1  0.23240000  0.36000000  0.23340000  1.0 0.0692819812
H  H479  1  0.29420000  0.35570000  0.24130000  1.0 0.0692819812
H  H480  1  0.28830000  0.38930000  0.19920000  1.0 0.0777001989
C  C1  1  0.62169000  0.20256000  0.95909000  1.0 0.4316529223
C  C2  1  0.65628000  0.21348000  0.70838000  1.0 0.4068104316
C  C3  1  0.54447000  0.07658000  0.04244000  1.0 -0.2603508729
C  C4  1  0.56385000  0.03398000  0.02976000  1.0 0.3107612021
C  C5  1  0.67659000  0.18186000  0.63803000  1.0 -0.0962560057
C  C6  1  0.53677000  0.03681000  0.84778000  1.0 0.6846874657
C  C7  1  0.66195000  0.07994000  0.62353000  1.0 0.301008753
C  C8  1  0.67925000  0.14052000  0.60972000  1.0 -0.2603508729
C  C9  1  0.56563000  0.13164000  0.02025000  1.0 -0.0880396322
C  C10  1  0.60593000  0.14701000  0.98473000  1.0 -0.1898674541
C  C11  1  0.78240000  0.28312000  0.86611000  1.0 0.6666130114
C  C12  1  0.64257000  0.06304000  0.66590000  1.0 -0.3408385146
C  C13  1  0.63814000  0.10440000  0.69422000  1.0 0.301008753
C  C14  1  0.62683000  0.10552000  0.97310000  1.0 0.2926575716
C  C15  1  0.65664000  0.16569000  0.68076000  1.0 -0.1898674541
C  C16  1  0.60610000  0.05003000  0.99591000  1.0 -0.3593577096
C  C17  1  0.46893000  0.98626000  0.84770000  1.0 -0.6441187721
C  C18  1  0.85028000  0.33029000  0.87546000  1.0 -0.6103673249
C  C19  1  0.72223000  0.10208000  0.82736000  1.0 0.6467452187
C  C20  1  0.76870000  0.08050000  0.82532000  1.0 -0.5521900516
C  C21  1  0.69181000  0.23069000  0.07196000  1.0 0.2926575716
C  C22  1  0.66910000  0.17930000  0.14039000  1.0 -0.3408385146
C  C23  1  0.71340000  0.14620000  0.08080000  1.0 -0.3408385146
C  C24  1  0.35580000  0.85780000  0.74011000  1.0 0.1331715492
C  C25  1  0.24280000  0.81250000  0.74650000  1.0 -0.0880396322
C  C26  1  0.31220000  0.92030000  0.76820000  1.0 -0.1201451767
C  C27  1  0.36400000  0.88850000  0.75170000  1.0 0.2484857081
C  C28  1  0.26140000  0.79530000  0.75160000  1.0 -0.1201451767
C  C29  1  0.27800000  0.89630000  0.72970000  1.0 -0.1125366922
C  C30  1  0.58087000  0.37831000  0.95909000  1.0 0.4316529223
C  C31  1  0.55720000  0.34372000  0.70838000  1.0 0.4068104316
C  C32  1  0.53211000  0.45553000  0.04244000  1.0 -0.2603508729
C  C33  1  0.47013000  0.43615000  0.02976000  1.0 0.3107612021
C  C34  1  0.50527000  0.32341000  0.63803000  1.0 -0.0962560057
C  C35  1  0.50004000  0.46323000  0.84778000  1.0 0.6846874657
C  C36  1  0.41799000  0.33805000  0.62353000  1.0 0.301008753
C  C37  1  0.46127000  0.32075000  0.60972000  1.0 -0.2603508729
C  C38  1  0.56601000  0.43437000  0.02025000  1.0 -0.0880396322
C  C39  1  0.54108000  0.39407000  0.98473000  1.0 -0.1898674541
C  C40  1  0.50072000  0.21760000  0.86611000  1.0 0.6666130114
C  C41  1  0.42047000  0.35743000  0.66590000  1.0 -0.3408385146
C  C42  1  0.46626000  0.36186000  0.69422000  1.0 0.301008753
C  C43  1  0.47869000  0.37317000  0.97310000  1.0 0.2926575716
C  C44  1  0.50905000  0.34336000  0.68076000  1.0 -0.1898674541
C  C45  1  0.44393000  0.39390000  0.99591000  1.0 -0.3593577096
C  C46  1  0.51733000  0.53107000  0.84770000  1.0 -0.6451897364
C  C47  1  0.48001000  0.14972000  0.87546000  1.0 -0.6103673249
C  C48  1  0.37985000  0.27777000  0.82736000  1.0 0.6467452187
C  C49  1  0.31180000  0.23130000  0.82532000  1.0 -0.5521900516
C  C50  1  0.53888000  0.30819000  0.07196000  1.0 0.2926575716
C  C51  1  0.51020000  0.33090000  0.14039000  1.0 -0.3408385146
C  C52  1  0.43280000  0.28660000  0.08080000  1.0 -0.3408385146
C  C53  1  0.50200000  0.64420000  0.74011000  1.0 0.1331715492
C  C54  1  0.56970000  0.75720000  0.74650000  1.0 -0.0880396322
C  C55  1  0.60810000  0.68780000  0.76820000  1.0 -0.1201451767
C  C56  1  0.52450000  0.63600000  0.75170000  1.0 0.2484857081
C  C57  1  0.53390000  0.73860000  0.75160000  1.0 -0.1201451767
C  C58  1  0.61830000  0.72200000  0.72970000  1.0 -0.1125366922
C  C59  1  0.79744000  0.41913000  0.95909000  1.0 0.4316529223
C  C60  1  0.78652000  0.44280000  0.70838000  1.0 0.4068104316
C  C61  1  0.92342000  0.46789000  0.04244000  1.0 -0.2603508729
C  C62  1  0.96602000  0.52987000  0.02976000  1.0 0.3107612021
C  C63  1  0.81814000  0.49473000  0.63803000  1.0 -0.0962560057
C  C64  1  0.96319000  0.49996000  0.84778000  1.0 0.6855387826
C  C65  1  0.92006000  0.58201000  0.62353000  1.0 0.301008753
C  C66  1  0.85948000  0.53873000  0.60972000  1.0 -0.2603508729
C  C67  1  0.86836000  0.43399000  0.02025000  1.0 -0.0880396322
C  C68  1  0.85299000  0.45892000  0.98473000  1.0 -0.1898674541
C  C69  1  0.71688000  0.49928000  0.86611000  1.0 0.6666130114
C  C70  1  0.93696000  0.57953000  0.66590000  1.0 -0.3408385146
C  C71  1  0.89560000  0.53374000  0.69422000  1.0 0.301008753
C  C72  1  0.89448000  0.52131000  0.97310000  1.0 0.2926575716
C  C73  1  0.83431000  0.49095000  0.68076000  1.0 -0.1898674541
C  C74  1  0.94997000  0.55607000  0.99591000  1.0 -0.3593577096
C  C75  1  0.01374000  0.48267000  0.84770000  1.0 -0.6451897364
C  C76  1  0.66971000  0.51999000  0.87546000  1.0 -0.6103673249
C  C77  1  0.89792000  0.62015000  0.82736000  1.0 0.6467452187
C  C78  1  0.91950000  0.68820000  0.82532000  1.0 -0.5521900516
C  C79  1  0.76931000  0.46112000  0.07196000  1.0 0.2926575716
C  C80  1  0.82070000  0.48980000  0.14039000  1.0 -0.3408385146
C  C81  1  0.85380000  0.56720000  0.08080000  1.0 -0.3408385146
C  C82  1  0.14220000  0.49800000  0.74011000  1.0 0.1331715492
C  C83  1  0.18750000  0.43030000  0.74650000  1.0 -0.0880396322
C  C84  1  0.07970000  0.39190000  0.76820000  1.0 -0.1201451767
C  C85  1  0.11150000  0.47550000  0.75170000  1.0 0.2484857081
C  C86  1  0.20470000  0.46610000  0.75160000  1.0 -0.1201451767
C  C87  1  0.10370000  0.38170000  0.72970000  1.0 -0.1125366922
C  C88  1  0.41913000  0.79744000  0.54091000  1.0 0.4316529223
C  C89  1  0.44280000  0.78652000  0.79162000  1.0 0.4068104316
C  C90  1  0.46789000  0.92342000  0.45756000  1.0 -0.2603508729
C  C91  1  0.52987000  0.96602000  0.47024000  1.0 0.3107612021
C  C92  1  0.49473000  0.81814000  0.86197000  1.0 -0.0962560057
C  C93  1  0.49996000  0.96319000  0.65222000  1.0 0.6846874657
C  C94  1  0.58201000  0.92006000  0.87647000  1.0 0.301008753
C  C95  1  0.53873000  0.85948000  0.89028000  1.0 -0.2603508729
C  C96  1  0.43399000  0.86836000  0.47975000  1.0 -0.0880396322
C  C97  1  0.45892000  0.85299000  0.51527000  1.0 -0.1898674541
C  C98  1  0.49928000  0.71688000  0.63389000  1.0 0.6666130114
C  C99  1  0.57953000  0.93696000  0.83410000  1.0 -0.3408385146
C  C100  1  0.53374000  0.89560000  0.80578000  1.0 0.301008753
C  C101  1  0.52131000  0.89448000  0.52690000  1.0 0.2926575716
C  C102  1  0.49095000  0.83431000  0.81924000  1.0 -0.1898674541
C  C103  1  0.55607000  0.94997000  0.50409000  1.0 -0.3593577096
C  C104  1  0.48267000  0.01374000  0.65230000  1.0 -0.6451897364
C  C105  1  0.51999000  0.66971000  0.62454000  1.0 -0.6103673249
C  C106  1  0.62015000  0.89792000  0.67264000  1.0 0.6467452187
C  C107  1  0.68820000  0.91950000  0.67468000  1.0 -0.5521900516
C  C108  1  0.46112000  0.76931000  0.42804000  1.0 0.2926575716
C  C109  1  0.48980000  0.82070000  0.35961000  1.0 -0.3408385146
C  C110  1  0.56720000  0.85380000  0.41920000  1.0 -0.3408385146
C  C111  1  0.49800000  0.14220000  0.75989000  1.0 0.1331715492
C  C112  1  0.43030000  0.18750000  0.75350000  1.0 -0.0880396322
C  C113  1  0.39190000  0.07970000  0.73180000  1.0 -0.1201451767
C  C114  1  0.47550000  0.11150000  0.74830000  1.0 0.2484857081
C  C115  1  0.46610000  0.20470000  0.74840000  1.0 -0.1201451767
C  C116  1  0.38170000  0.10370000  0.77030000  1.0 -0.1125366922
C  C117  1  0.20256000  0.62169000  0.54091000  1.0 0.4316529223
C  C118  1  0.21348000  0.65628000  0.79162000  1.0 0.4068104316
C  C119  1  0.07658000  0.54447000  0.45756000  1.0 -0.2603508729
C  C120  1  0.03398000  0.56385000  0.47024000  1.0 0.3107612021
C  C121  1  0.18186000  0.67659000  0.86197000  1.0 -0.0962560057
C  C122  1  0.03681000  0.53677000  0.65222000  1.0 0.6846874657
C  C123  1  0.07994000  0.66195000  0.87647000  1.0 0.301008753
C  C124  1  0.14052000  0.67925000  0.89028000  1.0 -0.2603508729
C  C125  1  0.13164000  0.56563000  0.47975000  1.0 -0.0880396322
C  C126  1  0.14701000  0.60593000  0.51527000  1.0 -0.1898674541
C  C127  1  0.28312000  0.78240000  0.63389000  1.0 0.6666130114
C  C128  1  0.06304000  0.64257000  0.83410000  1.0 -0.3408385146
C  C129  1  0.10440000  0.63814000  0.80578000  1.0 0.301008753
C  C130  1  0.10552000  0.62683000  0.52690000  1.0 0.2926575716
C  C131  1  0.16569000  0.65664000  0.81924000  1.0 -0.1898674541
C  C132  1  0.05003000  0.60610000  0.50409000  1.0 -0.3593577096
C  C133  1  0.98626000  0.46893000  0.65230000  1.0 -0.6441187721
C  C134  1  0.33029000  0.85028000  0.62454000  1.0 -0.6103673249
C  C135  1  0.10208000  0.72223000  0.67264000  1.0 0.6467452187
C  C136  1  0.08050000  0.76870000  0.67468000  1.0 -0.5521900516
C  C137  1  0.23069000  0.69181000  0.42804000  1.0 0.2926575716
C  C138  1  0.17930000  0.66910000  0.35961000  1.0 -0.3408385146
C  C139  1  0.14620000  0.71340000  0.41920000  1.0 -0.3408385146
C  C140  1  0.85780000  0.35580000  0.75989000  1.0 0.1331715492
C  C141  1  0.81250000  0.24280000  0.75350000  1.0 -0.0880396322
C  C142  1  0.92030000  0.31220000  0.73180000  1.0 -0.1201451767
C  C143  1  0.88850000  0.36400000  0.74830000  1.0 0.2484857081
C  C144  1  0.79530000  0.26140000  0.74840000  1.0 -0.1201451767
C  C145  1  0.89630000  0.27800000  0.77030000  1.0 -0.1125366922
C  C146  1  0.37831000  0.58087000  0.54091000  1.0 0.4316529223
C  C147  1  0.34372000  0.55720000  0.79162000  1.0 0.4068104316
C  C148  1  0.45553000  0.53211000  0.45756000  1.0 -0.2603508729
C  C149  1  0.43615000  0.47013000  0.47024000  1.0 0.3107612021
C  C150  1  0.32341000  0.50527000  0.86197000  1.0 -0.0962560057
C  C151  1  0.46323000  0.50004000  0.65222000  1.0 0.6846874657
C  C152  1  0.33805000  0.41799000  0.87647000  1.0 0.301008753
C  C153  1  0.32075000  0.46127000  0.89028000  1.0 -0.2603508729
C  C154  1  0.43437000  0.56601000  0.47975000  1.0 -0.0880396322
C  C155  1  0.39407000  0.54108000  0.51527000  1.0 -0.1898674541
C  C156  1  0.21760000  0.50072000  0.63389000  1.0 0.6666130114
C  C157  1  0.35743000  0.42047000  0.83410000  1.0 -0.3408385146
C  C158  1  0.36186000  0.46626000  0.80578000  1.0 0.301008753
C  C159  1  0.37317000  0.47869000  0.52690000  1.0 0.2926575716
C  C160  1  0.34336000  0.50905000  0.81924000  1.0 -0.1898674541
C  C161  1  0.39390000  0.44393000  0.50409000  1.0 -0.3593577096
C  C162  1  0.53107000  0.51733000  0.65230000  1.0 -0.6441187721
C  C163  1  0.14972000  0.48001000  0.62454000  1.0 -0.6103673249
C  C164  1  0.27777000  0.37985000  0.67264000  1.0 0.6467452187
C  C165  1  0.23130000  0.31180000  0.67468000  1.0 -0.5521900516
C  C166  1  0.30819000  0.53888000  0.42804000  1.0 0.2926575716
C  C167  1  0.33090000  0.51020000  0.35961000  1.0 -0.3408385146
C  C168  1  0.28660000  0.43280000  0.41920000  1.0 -0.3408385146
C  C169  1  0.64420000  0.50200000  0.75989000  1.0 0.1331715492
C  C170  1  0.75720000  0.56970000  0.75350000  1.0 -0.0880396322
C  C171  1  0.68780000  0.60810000  0.73180000  1.0 -0.1201451767
C  C172  1  0.63600000  0.52450000  0.74830000  1.0 0.2484857081
C  C173  1  0.73860000  0.53390000  0.74840000  1.0 -0.1201451767
C  C174  1  0.72200000  0.61830000  0.77030000  1.0 -0.1125366922
C  C175  1  0.37831000  0.79744000  0.04091000  1.0 0.4316529223
C  C176  1  0.34372000  0.78652000  0.29162000  1.0 0.4068104316
C  C177  1  0.45553000  0.92342000  0.95756000  1.0 -0.2603508729
C  C178  1  0.43615000  0.96602000  0.97024000  1.0 0.3107612021
C  C179  1  0.32341000  0.81814000  0.36197000  1.0 -0.0962560057
C  C180  1  0.46323000  0.96319000  0.15222000  1.0 0.6846874657
C  C181  1  0.33805000  0.92006000  0.37647000  1.0 0.301008753
C  C182  1  0.32075000  0.85948000  0.39028000  1.0 -0.2603508729
C  C183  1  0.43437000  0.86836000  0.97975000  1.0 -0.0880396322
C  C184  1  0.39407000  0.85299000  0.01527000  1.0 -0.1898674541
C  C185  1  0.21760000  0.71688000  0.13389000  1.0 0.6666130114
C  C186  1  0.35743000  0.93696000  0.33410000  1.0 -0.3408385146
C  C187  1  0.36186000  0.89560000  0.30578000  1.0 0.301008753
C  C188  1  0.37317000  0.89448000  0.02690000  1.0 0.2926575716
C  C189  1  0.34336000  0.83431000  0.31924000  1.0 -0.1898674541
C  C190  1  0.39390000  0.94997000  0.00409000  1.0 -0.3593577096
C  C191  1  0.53107000  0.01374000  0.15230000  1.0 -0.6451897364
C  C192  1  0.14972000  0.66971000  0.12454000  1.0 -0.6103673249
C  C193  1  0.27777000  0.89792000  0.17264000  1.0 0.6467452187
C  C194  1  0.23130000  0.91950000  0.17468000  1.0 -0.5521900516
C  C195  1  0.30819000  0.76931000  0.92804000  1.0 0.2926575716
C  C196  1  0.33090000  0.82070000  0.85961000  1.0 -0.3408385146
C  C197  1  0.28660000  0.85380000  0.91920000  1.0 -0.3408385146
C  C198  1  0.64420000  0.14220000  0.25989000  1.0 0.1331715492
C  C199  1  0.75720000  0.18750000  0.25350000  1.0 -0.0880396322
C  C200  1  0.68780000  0.07970000  0.23180000  1.0 -0.1201451767
C  C201  1  0.63600000  0.11150000  0.24830000  1.0 0.2484857081
C  C202  1  0.73860000  0.20470000  0.24840000  1.0 -0.1201451767
C  C203  1  0.72200000  0.10370000  0.27030000  1.0 -0.1125366922
C  C204  1  0.41913000  0.62169000  0.04091000  1.0 0.4316529223
C  C205  1  0.44280000  0.65628000  0.29162000  1.0 0.4068104316
C  C206  1  0.46789000  0.54447000  0.95756000  1.0 -0.2603508729
C  C207  1  0.52987000  0.56385000  0.97024000  1.0 0.3107612021
C  C208  1  0.49473000  0.67659000  0.36197000  1.0 -0.0962560057
C  C209  1  0.49996000  0.53677000  0.15222000  1.0 0.6846874657
C  C210  1  0.58201000  0.66195000  0.37647000  1.0 0.301008753
C  C211  1  0.53873000  0.67925000  0.39028000  1.0 -0.2603508729
C  C212  1  0.43399000  0.56563000  0.97975000  1.0 -0.0880396322
C  C213  1  0.45892000  0.60593000  0.01527000  1.0 -0.1898674541
C  C214  1  0.49928000  0.78240000  0.13389000  1.0 0.6666130114
C  C215  1  0.57953000  0.64257000  0.33410000  1.0 -0.3408385146
C  C216  1  0.53374000  0.63814000  0.30578000  1.0 0.301008753
C  C217  1  0.52131000  0.62683000  0.02690000  1.0 0.2926575716
C  C218  1  0.49095000  0.65664000  0.31924000  1.0 -0.1898674541
C  C219  1  0.55607000  0.60610000  0.00409000  1.0 -0.3593577096
C  C220  1  0.48267000  0.46893000  0.15230000  1.0 -0.6441187721
C  C221  1  0.51999000  0.85028000  0.12454000  1.0 -0.6103673249
C  C222  1  0.62015000  0.72223000  0.17264000  1.0 0.6467452187
C  C223  1  0.68820000  0.76870000  0.17468000  1.0 -0.5521900516
C  C224  1  0.46112000  0.69181000  0.92804000  1.0 0.2926575716
C  C225  1  0.48980000  0.66910000  0.85961000  1.0 -0.3408385146
C  C226  1  0.56720000  0.71340000  0.91920000  1.0 -0.3408385146
C  C227  1  0.49800000  0.35580000  0.25989000  1.0 0.1331715492
C  C228  1  0.43030000  0.24280000  0.25350000  1.0 -0.0880396322
C  C229  1  0.39190000  0.31220000  0.23180000  1.0 -0.1201451767
C  C230  1  0.47550000  0.36400000  0.24830000  1.0 0.2484857081
C  C231  1  0.46610000  0.26140000  0.24840000  1.0 -0.1201451767
C  C232  1  0.38170000  0.27800000  0.27030000  1.0 -0.1125366922
C  C233  1  0.20256000  0.58087000  0.04091000  1.0 0.4316529223
C  C234  1  0.21348000  0.55720000  0.29162000  1.0 0.4068104316
C  C235  1  0.07658000  0.53211000  0.95756000  1.0 -0.2603508729
C  C236  1  0.03398000  0.47013000  0.97024000  1.0 0.3107612021
C  C237  1  0.18186000  0.50527000  0.36197000  1.0 -0.0962560057
C  C238  1  0.03681000  0.50004000  0.15222000  1.0 0.6846874657
C  C239  1  0.07994000  0.41799000  0.37647000  1.0 0.301008753
C  C240  1  0.14052000  0.46127000  0.39028000  1.0 -0.2603508729
C  C241  1  0.13164000  0.56601000  0.97975000  1.0 -0.0880396322
C  C242  1  0.14701000  0.54108000  0.01527000  1.0 -0.1898674541
C  C243  1  0.28312000  0.50072000  0.13389000  1.0 0.6666130114
C  C244  1  0.06304000  0.42047000  0.33410000  1.0 -0.3408385146
C  C245  1  0.10440000  0.46626000  0.30578000  1.0 0.301008753
C  C246  1  0.10552000  0.47869000  0.02690000  1.0 0.2926575716
C  C247  1  0.16569000  0.50905000  0.31924000  1.0 -0.1898674541
C  C248  1  0.05003000  0.44393000  0.00409000  1.0 -0.3593577096
C  C249  1  0.98626000  0.51733000  0.15230000  1.0 -0.6441187721
C  C250  1  0.33029000  0.48001000  0.12454000  1.0 -0.6103673249
C  C251  1  0.10208000  0.37985000  0.17264000  1.0 0.6467452187
C  C252  1  0.08050000  0.31180000  0.17468000  1.0 -0.5521900516
C  C253  1  0.23069000  0.53888000  0.92804000  1.0 0.2926575716
C  C254  1  0.17930000  0.51020000  0.85961000  1.0 -0.3408385146
C  C255  1  0.14620000  0.43280000  0.91920000  1.0 -0.3408385146
C  C256  1  0.85780000  0.50200000  0.25989000  1.0 0.1331715492
C  C257  1  0.81250000  0.56970000  0.25350000  1.0 -0.0880396322
C  C258  1  0.92030000  0.60810000  0.23180000  1.0 -0.1201451767
C  C259  1  0.88850000  0.52450000  0.24830000  1.0 0.2484857081
C  C260  1  0.79530000  0.53390000  0.24840000  1.0 -0.1201451767
C  C261  1  0.89630000  0.61830000  0.27030000  1.0 -0.1125366922
C  C262  1  0.58087000  0.20256000  0.45909000  1.0 0.4316529223
C  C263  1  0.55720000  0.21348000  0.20838000  1.0 0.4068104316
C  C264  1  0.53211000  0.07658000  0.54244000  1.0 -0.2603508729
C  C265  1  0.47013000  0.03398000  0.52976000  1.0 0.3107612021
C  C266  1  0.50527000  0.18186000  0.13803000  1.0 -0.0962560057
C  C267  1  0.50004000  0.03681000  0.34778000  1.0 0.6846874657
C  C268  1  0.41799000  0.07994000  0.12353000  1.0 0.301008753
C  C269  1  0.46127000  0.14052000  0.10972000  1.0 -0.2603508729
C  C270  1  0.56601000  0.13164000  0.52025000  1.0 -0.0880396322
C  C271  1  0.54108000  0.14701000  0.48473000  1.0 -0.1898674541
C  C272  1  0.50072000  0.28312000  0.36611000  1.0 0.6666130114
C  C273  1  0.42047000  0.06304000  0.16590000  1.0 -0.3408385146
C  C274  1  0.46626000  0.10440000  0.19422000  1.0 0.301008753
C  C275  1  0.47869000  0.10552000  0.47310000  1.0 0.2926575716
C  C276  1  0.50905000  0.16569000  0.18076000  1.0 -0.1898674541
C  C277  1  0.44393000  0.05003000  0.49591000  1.0 -0.3593577096
C  C278  1  0.51733000  0.98626000  0.34770000  1.0 -0.6441187721
C  C279  1  0.48001000  0.33029000  0.37546000  1.0 -0.6103673249
C  C280  1  0.37985000  0.10208000  0.32736000  1.0 0.6467452187
C  C281  1  0.31180000  0.08050000  0.32532000  1.0 -0.5521900516
C  C282  1  0.53888000  0.23069000  0.57196000  1.0 0.2926575716
C  C283  1  0.51020000  0.17930000  0.64039000  1.0 -0.3408385146
C  C284  1  0.43280000  0.14620000  0.58080000  1.0 -0.3408385146
C  C285  1  0.50200000  0.85780000  0.24011000  1.0 0.1331715492
C  C286  1  0.56970000  0.81250000  0.24650000  1.0 -0.0880396322
C  C287  1  0.60810000  0.92030000  0.26820000  1.0 -0.1201451767
C  C288  1  0.52450000  0.88850000  0.25170000  1.0 0.2484857081
C  C289  1  0.53390000  0.79530000  0.25160000  1.0 -0.1201451767
C  C290  1  0.61830000  0.89630000  0.22970000  1.0 -0.1125366922
C  C291  1  0.79744000  0.37831000  0.45909000  1.0 0.4316529223
C  C292  1  0.78652000  0.34372000  0.20838000  1.0 0.4068104316
C  C293  1  0.92342000  0.45553000  0.54244000  1.0 -0.2603508729
C  C294  1  0.96602000  0.43615000  0.52976000  1.0 0.3107612021
C  C295  1  0.81814000  0.32341000  0.13803000  1.0 -0.0962560057
C  C296  1  0.96319000  0.46323000  0.34778000  1.0 0.6846874657
C  C297  1  0.92006000  0.33805000  0.12353000  1.0 0.301008753
C  C298  1  0.85948000  0.32075000  0.10972000  1.0 -0.2603508729
C  C299  1  0.86836000  0.43437000  0.52025000  1.0 -0.0880396322
C  C300  1  0.85299000  0.39407000  0.48473000  1.0 -0.1898674541
C  C301  1  0.71688000  0.21760000  0.36611000  1.0 0.6666130114
C  C302  1  0.93696000  0.35743000  0.16590000  1.0 -0.3408385146
C  C303  1  0.89560000  0.36186000  0.19422000  1.0 0.301008753
C  C304  1  0.89448000  0.37317000  0.47310000  1.0 0.2926575716
C  C305  1  0.83431000  0.34336000  0.18076000  1.0 -0.1898674541
C  C306  1  0.94997000  0.39390000  0.49591000  1.0 -0.3593577096
C  C307  1  0.01374000  0.53107000  0.34770000  1.0 -0.6451897364
C  C308  1  0.66971000  0.14972000  0.37546000  1.0 -0.6103673249
C  C309  1  0.89792000  0.27777000  0.32736000  1.0 0.6467452187
C  C310  1  0.91950000  0.23130000  0.32532000  1.0 -0.5521900516
C  C311  1  0.76931000  0.30819000  0.57196000  1.0 0.2926575716
C  C312  1  0.82070000  0.33090000  0.64039000  1.0 -0.3408385146
C  C313  1  0.85380000  0.28660000  0.58080000  1.0 -0.3408385146
C  C314  1  0.14220000  0.64420000  0.24011000  1.0 0.1331715492
C  C315  1  0.18750000  0.75720000  0.24650000  1.0 -0.0880396322
C  C316  1  0.07970000  0.68780000  0.26820000  1.0 -0.1201451767
C  C317  1  0.11150000  0.63600000  0.25170000  1.0 0.2484857081
C  C318  1  0.20470000  0.73860000  0.25160000  1.0 -0.1201451767
C  C319  1  0.10370000  0.72200000  0.22970000  1.0 -0.1125366922
C  C320  1  0.62169000  0.41913000  0.45909000  1.0 0.4316529223
C  C321  1  0.65628000  0.44280000  0.20838000  1.0 0.4068104316
C  C322  1  0.54447000  0.46789000  0.54244000  1.0 -0.2603508729
C  C323  1  0.56385000  0.52987000  0.52976000  1.0 0.3107612021
C  C324  1  0.67659000  0.49473000  0.13803000  1.0 -0.0962560057
C  C325  1  0.53677000  0.49996000  0.34778000  1.0 0.6846874657
C  C326  1  0.66195000  0.58201000  0.12353000  1.0 0.301008753
C  C327  1  0.67925000  0.53873000  0.10972000  1.0 -0.2603508729
C  C328  1  0.56563000  0.43399000  0.52025000  1.0 -0.0880396322
C  C329  1  0.60593000  0.45892000  0.48473000  1.0 -0.1898674541
C  C330  1  0.78240000  0.49928000  0.36611000  1.0 0.6666130114
C  C331  1  0.64257000  0.57953000  0.16590000  1.0 -0.3408385146
C  C332  1  0.63814000  0.53374000  0.19422000  1.0 0.301008753
C  C333  1  0.62683000  0.52131000  0.47310000  1.0 0.2926575716
C  C334  1  0.65664000  0.49095000  0.18076000  1.0 -0.1898674541
C  C335  1  0.60610000  0.55607000  0.49591000  1.0 -0.3593577096
C  C336  1  0.46893000  0.48267000  0.34770000  1.0 -0.6441187721
C  C337  1  0.85028000  0.51999000  0.37546000  1.0 -0.6103673249
C  C338  1  0.72223000  0.62015000  0.32736000  1.0 0.6467452187
C  C339  1  0.76870000  0.68820000  0.32532000  1.0 -0.5521900516
C  C340  1  0.69181000  0.46112000  0.57196000  1.0 0.2926575716
C  C341  1  0.66910000  0.48980000  0.64039000  1.0 -0.3408385146
C  C342  1  0.71340000  0.56720000  0.58080000  1.0 -0.3408385146
C  C343  1  0.35580000  0.49800000  0.24011000  1.0 0.1331715492
C  C344  1  0.24280000  0.43030000  0.24650000  1.0 -0.0880396322
C  C345  1  0.31220000  0.39190000  0.26820000  1.0 -0.1201451767
C  C346  1  0.36400000  0.47550000  0.25170000  1.0 0.2484857081
C  C347  1  0.26140000  0.46610000  0.25160000  1.0 -0.1201451767
C  C348  1  0.27800000  0.38170000  0.22970000  1.0 -0.1125366922
N  N1  1  0.63282000  0.19954000  0.91798000  1.0 -0.2450374078
N  N2  1  0.64875000  0.20228000  0.75048000  1.0 -0.3593577096
N  N3  1  0.54358000  0.97793000  0.05143000  1.0 -0.6103673249
N  N4  1  0.66594000  0.03845000  0.59556000  1.0 -0.5868337463
N  N5  1  0.69172000  0.18751000  0.09686000  1.0 0.0134557793
N  N6  1  0.30520000  0.86070000  0.74880000  1.0 -0.0026393771
N  N7  1  0.30650000  0.86470000  0.75290000  1.0 0.0004107089
N  N8  1  0.56672000  0.36718000  0.91798000  1.0 -0.2442443084
N  N9  1  0.55353000  0.35125000  0.75048000  1.0 -0.3593577096
N  N10  1  0.43435000  0.45642000  0.05143000  1.0 -0.6103673249
N  N11  1  0.37251000  0.33406000  0.59556000  1.0 -0.5868337463
N  N12  1  0.49579000  0.30828000  0.09686000  1.0 0.0134557793
N  N13  1  0.55550000  0.69480000  0.74880000  1.0 -0.0026393771
N  N14  1  0.55820000  0.69350000  0.75290000  1.0 0.0004107089
N  N15  1  0.80046000  0.43328000  0.91798000  1.0 -0.2442443084
N  N16  1  0.79772000  0.44647000  0.75048000  1.0 -0.3593577096
N  N17  1  0.02207000  0.56565000  0.05143000  1.0 -0.6103673249
N  N18  1  0.96155000  0.62749000  0.59556000  1.0 -0.5868337463
N  N19  1  0.81249000  0.50421000  0.09686000  1.0 0.0134557793
N  N20  1  0.13930000  0.44450000  0.74880000  1.0 -0.0026393771
N  N21  1  0.13530000  0.44180000  0.75290000  1.0 0.0004107089
N  N22  1  0.43328000  0.80046000  0.58202000  1.0 -0.2450374078
N  N23  1  0.44647000  0.79772000  0.74952000  1.0 -0.3593577096
N  N24  1  0.56565000  0.02207000  0.44857000  1.0 -0.6103673249
N  N25  1  0.62749000  0.96155000  0.90444000  1.0 -0.5868337463
N  N26  1  0.50421000  0.81249000  0.40314000  1.0 0.0134557793
N  N27  1  0.44450000  0.13930000  0.75120000  1.0 -0.0026393771
N  N28  1  0.44180000  0.13530000  0.74710000  1.0 0.0004107089
N  N29  1  0.19954000  0.63282000  0.58202000  1.0 -0.2450374078
N  N30  1  0.20228000  0.64875000  0.74952000  1.0 -0.3593577096
N  N31  1  0.97793000  0.54358000  0.44857000  1.0 -0.6103673249
N  N32  1  0.03845000  0.66594000  0.90444000  1.0 -0.5868337463
N  N33  1  0.18751000  0.69172000  0.40314000  1.0 0.0134557793
N  N34  1  0.86070000  0.30520000  0.75120000  1.0 -0.0026393771
N  N35  1  0.86470000  0.30650000  0.74710000  1.0 0.0004107089
N  N36  1  0.36718000  0.56672000  0.58202000  1.0 -0.2450374078
N  N37  1  0.35125000  0.55353000  0.74952000  1.0 -0.3593577096
N  N38  1  0.45642000  0.43435000  0.44857000  1.0 -0.6103673249
N  N39  1  0.33406000  0.37251000  0.90444000  1.0 -0.5868337463
N  N40  1  0.30828000  0.49579000  0.40314000  1.0 0.0134557793
N  N41  1  0.69480000  0.55550000  0.75120000  1.0 -0.0026393771
N  N42  1  0.69350000  0.55820000  0.74710000  1.0 0.0004107089
N  N43  1  0.36718000  0.80046000  0.08202000  1.0 -0.2450374078
N  N44  1  0.35125000  0.79772000  0.24952000  1.0 -0.3593577096
N  N45  1  0.45642000  0.02207000  0.94857000  1.0 -0.6103673249
N  N46  1  0.33406000  0.96155000  0.40444000  1.0 -0.5868337463
N  N47  1  0.30828000  0.81249000  0.90314000  1.0 0.0134557793
N  N48  1  0.69480000  0.13930000  0.25120000  1.0 -0.0026393771
N  N49  1  0.69350000  0.13530000  0.24710000  1.0 0.0004107089
N  N50  1  0.43328000  0.63282000  0.08202000  1.0 -0.2450374078
N  N51  1  0.44647000  0.64875000  0.24952000  1.0 -0.3593577096
N  N52  1  0.56565000  0.54358000  0.94857000  1.0 -0.6103673249
N  N53  1  0.62749000  0.66594000  0.40444000  1.0 -0.5868337463
N  N54  1  0.50421000  0.69172000  0.90314000  1.0 0.0134557793
N  N55  1  0.44450000  0.30520000  0.25120000  1.0 -0.0026393771
N  N56  1  0.44180000  0.30650000  0.24710000  1.0 0.0004107089
N  N57  1  0.19954000  0.56672000  0.08202000  1.0 -0.2450374078
N  N58  1  0.20228000  0.55353000  0.24952000  1.0 -0.3593577096
N  N59  1  0.97793000  0.43435000  0.94857000  1.0 -0.6036074024
N  N60  1  0.03845000  0.37251000  0.40444000  1.0 -0.5868337463
N  N61  1  0.18751000  0.49579000  0.90314000  1.0 0.0134557793
N  N62  1  0.86070000  0.55550000  0.25120000  1.0 -0.0026393771
N  N63  1  0.86470000  0.55820000  0.24710000  1.0 0.0004107089
N  N64  1  0.56672000  0.19954000  0.41798000  1.0 -0.2450374078
N  N65  1  0.55353000  0.20228000  0.25048000  1.0 -0.3593577096
N  N66  1  0.43435000  0.97793000  0.55143000  1.0 -0.6103673249
N  N67  1  0.37251000  0.03845000  0.09556000  1.0 -0.5868337463
N  N68  1  0.49579000  0.18751000  0.59686000  1.0 0.0134557793
N  N69  1  0.55550000  0.86070000  0.24880000  1.0 -0.0026393771
N  N70  1  0.55820000  0.86470000  0.25290000  1.0 0.0004107089
N  N71  1  0.80046000  0.36718000  0.41798000  1.0 -0.2442443084
N  N72  1  0.79772000  0.35125000  0.25048000  1.0 -0.3593577096
N  N73  1  0.02207000  0.45642000  0.55143000  1.0 -0.6103673249
N  N74  1  0.96155000  0.33406000  0.09556000  1.0 -0.5868337463
N  N75  1  0.81249000  0.30828000  0.59686000  1.0 0.0134557793
N  N76  1  0.13930000  0.69480000  0.24880000  1.0 -0.0026393771
N  N77  1  0.13530000  0.69350000  0.25290000  1.0 0.0004107089
N  N78  1  0.63282000  0.43328000  0.41798000  1.0 -0.2450374078
N  N79  1  0.64875000  0.44647000  0.25048000  1.0 -0.3593577096
N  N80  1  0.54358000  0.56565000  0.55143000  1.0 -0.6103673249
N  N81  1  0.66594000  0.62749000  0.09556000  1.0 -0.5868337463
N  N82  1  0.69172000  0.50421000  0.59686000  1.0 0.0134557793
N  N83  1  0.30520000  0.44450000  0.24880000  1.0 -0.0026393771
N  N84  1  0.30650000  0.44180000  0.25290000  1.0 0.0004107089
O  O1  1  0.62136000  0.25081000  0.97525000  1.0 -0.6103673249
O  O2  1  0.64768000  0.25431000  0.89518000  1.0 -0.4170820749
O  O3  1  0.66488000  0.26458000  0.69248000  1.0 -0.5597107024
O  O4  1  0.64817000  0.25168000  0.77311000  1.0 -0.4385487622
O  O5  1  0.66821000  0.11775000  0.94108000  1.0 -0.461617918
O  O6  1  0.75593000  0.29895000  0.83767000  1.0 -0.5712181738
O  O7  1  0.56341000  0.06140000  0.88193000  1.0 -0.5361229044
O  O8  1  0.64039000  0.17150000  0.83453000  1.0 -0.7959772111
O  O9  1  0.75663000  0.23247000  0.88673000  1.0 -0.5597107024
O  O10  1  0.69837000  0.09917000  0.86362000  1.0 -0.5326014492
O  O11  1  0.56264000  0.05024000  0.81073000  1.0 -0.6103673249
O  O12  1  0.61311000  0.08249000  0.73312000  1.0 -0.5712181738
O  O13  1  0.70782000  0.11835000  0.79311000  1.0 -0.5597107024
O  O14  1  0.67509000  0.26758000  0.08300000  1.0 -0.5361229044
O  O15  1  0.41095000  0.90015000  0.74011000  1.0 -0.1280169635
O  O16  1  0.40070000  0.94470000  0.75016000  1.0 -0.2222809778
O  O17  1  0.62945000  0.37864000  0.97525000  1.0 -0.6103673249
O  O18  1  0.60663000  0.35232000  0.89518000  1.0 -0.4170820749
O  O19  1  0.59970000  0.33512000  0.69248000  1.0 -0.5597107024
O  O20  1  0.60351000  0.35183000  0.77311000  1.0 -0.4385487622
O  O21  1  0.44954000  0.33179000  0.94108000  1.0 -0.461617918
O  O22  1  0.54302000  0.24407000  0.83767000  1.0 -0.5712181738
O  O23  1  0.49799000  0.43659000  0.88193000  1.0 -0.5326014492
O  O24  1  0.53111000  0.35961000  0.83453000  1.0 -0.7959772111
O  O25  1  0.47584000  0.24337000  0.88673000  1.0 -0.5597107024
O  O26  1  0.40080000  0.30163000  0.86362000  1.0 -0.5326014492
O  O27  1  0.48760000  0.43736000  0.81073000  1.0 -0.6103673249
O  O28  1  0.46938000  0.38689000  0.73312000  1.0 -0.5712181738
O  O29  1  0.41053000  0.29218000  0.79311000  1.0 -0.5597107024
O  O30  1  0.59249000  0.32491000  0.08300000  1.0 -0.5361229044
O  O31  1  0.48920000  0.58905000  0.74011000  1.0 -0.1280169635
O  O32  1  0.54400000  0.59930000  0.75016000  1.0 -0.2222809778
O  O33  1  0.74919000  0.37055000  0.97525000  1.0 -0.6103673249
O  O34  1  0.74569000  0.39337000  0.89518000  1.0 -0.4170820749
O  O35  1  0.73542000  0.40030000  0.69248000  1.0 -0.5597107024
O  O36  1  0.74832000  0.39649000  0.77311000  1.0 -0.4385487622
O  O37  1  0.88225000  0.55046000  0.94108000  1.0 -0.461617918
O  O38  1  0.70105000  0.45698000  0.83767000  1.0 -0.5712181738
O  O39  1  0.93860000  0.50201000  0.88193000  1.0 -0.5361229044
O  O40  1  0.82850000  0.46889000  0.83453000  1.0 -0.7959772111
O  O41  1  0.76753000  0.52416000  0.88673000  1.0 -0.5597107024
O  O42  1  0.90083000  0.59920000  0.86362000  1.0 -0.5326014492
O  O43  1  0.94976000  0.51240000  0.81073000  1.0 -0.6103673249
O  O44  1  0.91751000  0.53062000  0.73312000  1.0 -0.5712181738
O  O45  1  0.88165000  0.58947000  0.79311000  1.0 -0.5597107024
O  O46  1  0.73242000  0.40751000  0.08300000  1.0 -0.5361229044
O  O47  1  0.09985000  0.51080000  0.74011000  1.0 -0.1280169635
O  O48  1  0.05530000  0.45600000  0.75016000  1.0 -0.2222809778
O  O49  1  0.37055000  0.74919000  0.52475000  1.0 -0.6103673249
O  O50  1  0.39337000  0.74569000  0.60482000  1.0 -0.4170820749
O  O51  1  0.40030000  0.73542000  0.80752000  1.0 -0.5597107024
O  O52  1  0.39649000  0.74832000  0.72689000  1.0 -0.4385487622
O  O53  1  0.55046000  0.88225000  0.55892000  1.0 -0.461617918
O  O54  1  0.45698000  0.70105000  0.66233000  1.0 -0.5712181738
O  O55  1  0.50201000  0.93860000  0.61807000  1.0 -0.5361229044
O  O56  1  0.46889000  0.82850000  0.66547000  1.0 -0.7959772111
O  O57  1  0.52416000  0.76753000  0.61327000  1.0 -0.5597107024
O  O58  1  0.59920000  0.90083000  0.63638000  1.0 -0.5326014492
O  O59  1  0.51240000  0.94976000  0.68927000  1.0 -0.6103673249
O  O60  1  0.53062000  0.91751000  0.76688000  1.0 -0.5712181738
O  O61  1  0.58947000  0.88165000  0.70689000  1.0 -0.5597107024
O  O62  1  0.40751000  0.73242000  0.41700000  1.0 -0.5361229044
O  O63  1  0.51080000  0.09985000  0.75989000  1.0 -0.1280169635
O  O64  1  0.45600000  0.05530000  0.74984000  1.0 -0.2222809778
O  O65  1  0.25081000  0.62136000  0.52475000  1.0 -0.6103673249
O  O66  1  0.25431000  0.64768000  0.60482000  1.0 -0.4170820749
O  O67  1  0.26458000  0.66488000  0.80752000  1.0 -0.5597107024
O  O68  1  0.25168000  0.64817000  0.72689000  1.0 -0.4385487622
O  O69  1  0.11775000  0.66821000  0.55892000  1.0 -0.461617918
O  O70  1  0.29895000  0.75593000  0.66233000  1.0 -0.5712181738
O  O71  1  0.06140000  0.56341000  0.61807000  1.0 -0.5361229044
O  O72  1  0.17150000  0.64039000  0.66547000  1.0 -0.7959772111
O  O73  1  0.23247000  0.75663000  0.61327000  1.0 -0.5597107024
O  O74  1  0.09917000  0.69837000  0.63638000  1.0 -0.5326014492
O  O75  1  0.05024000  0.56264000  0.68927000  1.0 -0.6103673249
O  O76  1  0.08249000  0.61311000  0.76688000  1.0 -0.5712181738
O  O77  1  0.11835000  0.70782000  0.70689000  1.0 -0.5597107024
O  O78  1  0.26758000  0.67509000  0.41700000  1.0 -0.5361229044
O  O79  1  0.90015000  0.41095000  0.75989000  1.0 -0.1280169635
O  O80  1  0.94470000  0.40070000  0.74984000  1.0 -0.2222809778
O  O81  1  0.37864000  0.62945000  0.52475000  1.0 -0.6103673249
O  O82  1  0.35232000  0.60663000  0.60482000  1.0 -0.4170820749
O  O83  1  0.33512000  0.59970000  0.80752000  1.0 -0.5597107024
O  O84  1  0.35183000  0.60351000  0.72689000  1.0 -0.4385487622
O  O85  1  0.33179000  0.44954000  0.55892000  1.0 -0.461617918
O  O86  1  0.24407000  0.54302000  0.66233000  1.0 -0.5712181738
O  O87  1  0.43659000  0.49799000  0.61807000  1.0 -0.5361229044
O  O88  1  0.35961000  0.53111000  0.66547000  1.0 -0.7959772111
O  O89  1  0.24337000  0.47584000  0.61327000  1.0 -0.5597107024
O  O90  1  0.30163000  0.40080000  0.63638000  1.0 -0.5326014492
O  O91  1  0.43736000  0.48760000  0.68927000  1.0 -0.6103673249
O  O92  1  0.38689000  0.46938000  0.76688000  1.0 -0.5712181738
O  O93  1  0.29218000  0.41053000  0.70689000  1.0 -0.5597107024
O  O94  1  0.32491000  0.59249000  0.41700000  1.0 -0.5361229044
O  O95  1  0.58905000  0.48920000  0.75989000  1.0 -0.1280169635
O  O96  1  0.59930000  0.54400000  0.74984000  1.0 -0.2222809778
O  O97  1  0.37864000  0.74919000  0.02475000  1.0 -0.6103673249
O  O98  1  0.35232000  0.74569000  0.10482000  1.0 -0.4170820749
O  O99  1  0.33512000  0.73542000  0.30752000  1.0 -0.5597107024
O  O100  1  0.35183000  0.74832000  0.22689000  1.0 -0.4385487622
O  O101  1  0.33179000  0.88225000  0.05892000  1.0 -0.461617918
O  O102  1  0.24407000  0.70105000  0.16233000  1.0 -0.5712181738
O  O103  1  0.43659000  0.93860000  0.11807000  1.0 -0.5361229044
O  O104  1  0.35961000  0.82850000  0.16547000  1.0 -0.7959772111
O  O105  1  0.24337000  0.76753000  0.11327000  1.0 -0.5597107024
O  O106  1  0.30163000  0.90083000  0.13638000  1.0 -0.5326014492
O  O107  1  0.43736000  0.94976000  0.18927000  1.0 -0.6103673249
O  O108  1  0.38689000  0.91751000  0.26688000  1.0 -0.5712181738
O  O109  1  0.29218000  0.88165000  0.20689000  1.0 -0.5597107024
O  O110  1  0.32491000  0.73242000  0.91700000  1.0 -0.5361229044
O  O111  1  0.58905000  0.09985000  0.25989000  1.0 -0.1280169635
O  O112  1  0.59930000  0.05530000  0.24984000  1.0 -0.2222809778
O  O113  1  0.37055000  0.62136000  0.02475000  1.0 -0.6103673249
O  O114  1  0.39337000  0.64768000  0.10482000  1.0 -0.4170820749
O  O115  1  0.40030000  0.66488000  0.30752000  1.0 -0.5597107024
O  O116  1  0.39649000  0.64817000  0.22689000  1.0 -0.4385487622
O  O117  1  0.55046000  0.66821000  0.05892000  1.0 -0.461617918
O  O118  1  0.45698000  0.75593000  0.16233000  1.0 -0.5712181738
O  O119  1  0.50201000  0.56341000  0.11807000  1.0 -0.5361229044
O  O120  1  0.46889000  0.64039000  0.16547000  1.0 -0.7959772111
O  O121  1  0.52416000  0.75663000  0.11327000  1.0 -0.5597107024
O  O122  1  0.59920000  0.69837000  0.13638000  1.0 -0.5326014492
O  O123  1  0.51240000  0.56264000  0.18927000  1.0 -0.6103673249
O  O124  1  0.53062000  0.61311000  0.26688000  1.0 -0.5712181738
O  O125  1  0.58947000  0.70782000  0.20689000  1.0 -0.5597107024
O  O126  1  0.40751000  0.67509000  0.91700000  1.0 -0.5361229044
O  O127  1  0.51080000  0.41095000  0.25989000  1.0 -0.1280169635
O  O128  1  0.45600000  0.40070000  0.24984000  1.0 -0.2222809778
O  O129  1  0.25081000  0.62945000  0.02475000  1.0 -0.6103673249
O  O130  1  0.25431000  0.60663000  0.10482000  1.0 -0.4170820749
O  O131  1  0.26458000  0.59970000  0.30752000  1.0 -0.5597107024
O  O132  1  0.25168000  0.60351000  0.22689000  1.0 -0.4385487622
O  O133  1  0.11775000  0.44954000  0.05892000  1.0 -0.461617918
O  O134  1  0.29895000  0.54302000  0.16233000  1.0 -0.5712181738
O  O135  1  0.06140000  0.49799000  0.11807000  1.0 -0.5361229044
O  O136  1  0.17150000  0.53111000  0.16547000  1.0 -0.7959772111
O  O137  1  0.23247000  0.47584000  0.11327000  1.0 -0.5597107024
O  O138  1  0.09917000  0.40080000  0.13638000  1.0 -0.5326014492
O  O139  1  0.05024000  0.48760000  0.18927000  1.0 -0.6103673249
O  O140  1  0.08249000  0.46938000  0.26688000  1.0 -0.5712181738
O  O141  1  0.11835000  0.41053000  0.20689000  1.0 -0.5597107024
O  O142  1  0.26758000  0.59249000  0.91700000  1.0 -0.5361229044
O  O143  1  0.90015000  0.48920000  0.25989000  1.0 -0.1280169635
O  O144  1  0.94470000  0.54400000  0.24984000  1.0 -0.2222809778
O  O145  1  0.62945000  0.25081000  0.47525000  1.0 -0.6103673249
O  O146  1  0.60663000  0.25431000  0.39518000  1.0 -0.4170820749
O  O147  1  0.59970000  0.26458000  0.19248000  1.0 -0.5597107024
O  O148  1  0.60351000  0.25168000  0.27311000  1.0 -0.4385487622
O  O149  1  0.44954000  0.11775000  0.44108000  1.0 -0.461617918
O  O150  1  0.54302000  0.29895000  0.33767000  1.0 -0.5712181738
O  O151  1  0.49799000  0.06140000  0.38193000  1.0 -0.5361229044
O  O152  1  0.53111000  0.17150000  0.33453000  1.0 -0.7959772111
O  O153  1  0.47584000  0.23247000  0.38673000  1.0 -0.5597107024
O  O154  1  0.40080000  0.09917000  0.36362000  1.0 -0.5326014492
O  O155  1  0.48760000  0.05024000  0.31073000  1.0 -0.6103673249
O  O156  1  0.46938000  0.08249000  0.23312000  1.0 -0.5712181738
O  O157  1  0.41053000  0.11835000  0.29311000  1.0 -0.5597107024
O  O158  1  0.59249000  0.26758000  0.58300000  1.0 -0.5361229044
O  O159  1  0.48920000  0.90015000  0.24011000  1.0 -0.1280169635
O  O160  1  0.54400000  0.94470000  0.25016000  1.0 -0.2222809778
O  O161  1  0.74919000  0.37864000  0.47525000  1.0 -0.6103673249
O  O162  1  0.74569000  0.35232000  0.39518000  1.0 -0.4170820749
O  O163  1  0.73542000  0.33512000  0.19248000  1.0 -0.5597107024
O  O164  1  0.74832000  0.35183000  0.27311000  1.0 -0.4385487622
O  O165  1  0.88225000  0.33179000  0.44108000  1.0 -0.461617918
O  O166  1  0.70105000  0.24407000  0.33767000  1.0 -0.5712181738
O  O167  1  0.93860000  0.43659000  0.38193000  1.0 -0.5326014492
O  O168  1  0.82850000  0.35961000  0.33453000  1.0 -0.7959772111
O  O169  1  0.76753000  0.24337000  0.38673000  1.0 -0.5597107024
O  O170  1  0.90083000  0.30163000  0.36362000  1.0 -0.5326014492
O  O171  1  0.94976000  0.43736000  0.31073000  1.0 -0.6103673249
O  O172  1  0.91751000  0.38689000  0.23312000  1.0 -0.5712181738
O  O173  1  0.88165000  0.29218000  0.29311000  1.0 -0.5597107024
O  O174  1  0.73242000  0.32491000  0.58300000  1.0 -0.5361229044
O  O175  1  0.09985000  0.58905000  0.24011000  1.0 -0.1280169635
O  O176  1  0.05530000  0.59930000  0.25016000  1.0 -0.2222809778
O  O177  1  0.62136000  0.37055000  0.47525000  1.0 -0.6103673249
O  O178  1  0.64768000  0.39337000  0.39518000  1.0 -0.4170820749
O  O179  1  0.66488000  0.40030000  0.19248000  1.0 -0.5597107024
O  O180  1  0.64817000  0.39649000  0.27311000  1.0 -0.4385487622
O  O181  1  0.66821000  0.55046000  0.44108000  1.0 -0.461617918
O  O182  1  0.75593000  0.45698000  0.33767000  1.0 -0.5712181738
O  O183  1  0.56341000  0.50201000  0.38193000  1.0 -0.5361229044
O  O184  1  0.64039000  0.46889000  0.33453000  1.0 -0.7959772111
O  O185  1  0.75663000  0.52416000  0.38673000  1.0 -0.5597107024
O  O186  1  0.69837000  0.59920000  0.36362000  1.0 -0.5326014492
O  O187  1  0.56264000  0.51240000  0.31073000  1.0 -0.6103673249
O  O188  1  0.61311000  0.53062000  0.23312000  1.0 -0.5712181738
O  O189  1  0.70782000  0.58947000  0.29311000  1.0 -0.5597107024
O  O190  1  0.67509000  0.40751000  0.58300000  1.0 -0.5361229044
O  O191  1  0.41095000  0.51080000  0.24011000  1.0 -0.1280169635
O  O192  1  0.40070000  0.45600000  0.25016000  1.0 -0.2222809778
O  O193  1  0.66666667  0.33333333  0.83230000  1.0 -0.7753873627
O  O194  1  0.33333333  0.66666667  0.66770000  1.0 -0.7753873627
O  O195  1  0.33333333  0.66666667  0.16770000  1.0 -0.7753873627
O  O196  1  0.66666667  0.33333333  0.33230000  1.0 -0.7753873627
