# DDEC6 charges by PACMAN v1.1 (https://github.com/mtap-research/PACMAN-charge/)
data_TOFLIL_ASR_pacman
_symmetry_space_group_name_H-M   'P 1'
_cell_length_a   15.63040000
_cell_length_b   17.77320000
_cell_length_c   22.95300000
_cell_angle_alpha   90.00000000
_cell_angle_beta   131.30800000
_cell_angle_gamma   90.00000000
_symmetry_Int_Tables_number   1
_chemical_formula_structural   Zn2H24C39N7O8
_chemical_formula_sum   'Zn8 H96 C156 N28 O32'
_cell_volume   4789.76881702
_cell_formula_units_Z   4
loop_
 _symmetry_equiv_pos_site_id
 _symmetry_equiv_pos_as_xyz
  1  'x, y, z'
loop_
 _atom_site_type_symbol
 _atom_site_label
 _atom_site_symmetry_multiplicity
 _atom_site_fract_x
 _atom_site_fract_y
 _atom_site_fract_z
 _atom_site_occupancy
 _atom_site_charge
Zn  Zn1  1  0.20531000  0.35861000  0.67501000  1.0 0.7480792939
Zn  Zn2  1  0.79469000  0.85861000  0.82499000  1.0 0.7480792939
Zn  Zn3  1  0.79970000  0.32244000  0.26537000  1.0 0.7819695413
Zn  Zn4  1  0.20030000  0.82244000  0.23463000  1.0 0.7819695413
Zn  Zn5  1  0.79469000  0.64139000  0.32499000  1.0 0.7480792939
Zn  Zn6  1  0.20531000  0.14139000  0.17501000  1.0 0.7480792939
Zn  Zn7  1  0.20030000  0.67756000  0.73463000  1.0 0.7819695413
Zn  Zn8  1  0.79970000  0.17756000  0.76537000  1.0 0.7819695413
H  H1  1  0.99680000  0.16080000  0.62650000  1.0 0.1105116155
H  H2  1  0.00320000  0.66080000  0.87350000  1.0 0.1105116155
H  H3  1  0.71840000  0.14480000  0.35830000  1.0 0.1200724801
H  H4  1  0.28160000  0.64480000  0.14170000  1.0 0.1200724801
H  H5  1  0.54880000  0.10920000  0.34310000  1.0 0.1024070267
H  H6  1  0.45120000  0.60920000  0.15690000  1.0 0.1024070267
H  H7  1  0.40300000  0.02410000  0.29180000  1.0 0.1105116155
H  H8  1  0.59700000  0.52410000  0.20820000  1.0 0.1105116155
H  H9  1  0.63120000  0.86370000  0.42920000  1.0 0.128452485
H  H10  1  0.36880000  0.36370000  0.07080000  1.0 0.128452485
H  H11  1  0.77780000  0.94790000  0.47930000  1.0 0.1200724801
H  H12  1  0.22220000  0.44790000  0.02070000  1.0 0.1200724801
H  H13  1  0.01380000  0.04520000  0.67390000  1.0 0.1200724801
H  H14  1  0.98620000  0.54520000  0.82610000  1.0 0.1200724801
H  H15  1  0.01300000  0.98440000  0.76130000  1.0 0.1200724801
H  H16  1  0.98700000  0.48440000  0.73870000  1.0 0.1200724801
H  H17  1  0.67680000  0.00590000  0.61950000  1.0 0.1200724801
H  H18  1  0.32320000  0.50590000  0.88050000  1.0 0.1200724801
H  H19  1  0.67840000  0.06930000  0.53340000  1.0 0.1105116155
H  H20  1  0.32160000  0.56930000  0.96660000  1.0 0.1105116155
H  H21  1  0.38070000  0.30230000  0.65560000  1.0 0.1411821195
H  H22  1  0.61930000  0.80230000  0.84440000  1.0 0.1411821195
H  H23  1  0.54970000  0.23100000  0.74810000  1.0 0.1411821195
H  H24  1  0.45030000  0.73100000  0.75190000  1.0 0.1411821195
H  H25  1  0.40390000  0.26980000  0.83360000  1.0 0.128452485
H  H26  1  0.59610000  0.76980000  0.66640000  1.0 0.128452485
H  H27  1  0.62190000  0.26980000  0.96380000  1.0 0.1411821195
H  H28  1  0.37810000  0.76980000  0.53620000  1.0 0.1411821195
H  H29  1  0.84660000  0.09720000  0.06430000  1.0 0.1411821195
H  H30  1  0.15340000  0.59720000  0.43570000  1.0 0.1411821195
H  H31  1  0.61070000  0.11140000  0.83270000  1.0 0.128452485
H  H32  1  0.38930000  0.61140000  0.66730000  1.0 0.128452485
H  H33  1  0.66890000  0.26850000  0.09160000  1.0 0.128452485
H  H34  1  0.33110000  0.76850000  0.40840000  1.0 0.128452485
H  H35  1  0.99120000  0.25350000  0.27320000  1.0 0.1411821195
H  H36  1  0.00880000  0.75350000  0.22680000  1.0 0.1411821195
H  H37  1  0.96800000  0.19160000  0.17160000  1.0 0.1474702243
H  H38  1  0.03200000  0.69160000  0.32840000  1.0 0.1474702243
H  H39  1  0.68760000  0.00700000  0.83570000  1.0 0.1411821195
H  H40  1  0.31240000  0.50700000  0.66430000  1.0 0.1411821195
H  H41  1  0.80790000  0.95700000  0.03510000  1.0 0.1411821195
H  H42  1  0.19210000  0.45700000  0.46490000  1.0 0.1411821195
H  H43  1  0.83510000  0.85290000  0.97840000  1.0 0.1411821195
H  H44  1  0.16490000  0.35290000  0.52160000  1.0 0.1411821195
H  H45  1  0.96910000  0.04710000  0.03770000  1.0 0.1024070267
H  H46  1  0.03090000  0.54710000  0.46230000  1.0 0.1024070267
H  H47  1  0.98260000  0.93130000  0.98290000  1.0 0.1024070267
H  H48  1  0.01740000  0.43130000  0.51710000  1.0 0.1024070267
H  H49  1  0.00320000  0.83920000  0.37350000  1.0 0.1105116155
H  H50  1  0.99680000  0.33920000  0.12650000  1.0 0.1105116155
H  H51  1  0.28160000  0.85520000  0.64170000  1.0 0.1200724801
H  H52  1  0.71840000  0.35520000  0.85830000  1.0 0.1200724801
H  H53  1  0.45120000  0.89080000  0.65690000  1.0 0.1024070267
H  H54  1  0.54880000  0.39080000  0.84310000  1.0 0.1024070267
H  H55  1  0.59700000  0.97590000  0.70820000  1.0 0.1105116155
H  H56  1  0.40300000  0.47590000  0.79180000  1.0 0.1105116155
H  H57  1  0.36880000  0.13630000  0.57080000  1.0 0.128452485
H  H58  1  0.63120000  0.63630000  0.92920000  1.0 0.128452485
H  H59  1  0.22220000  0.05210000  0.52070000  1.0 0.1200724801
H  H60  1  0.77780000  0.55210000  0.97930000  1.0 0.1200724801
H  H61  1  0.98620000  0.95480000  0.32610000  1.0 0.1200724801
H  H62  1  0.01380000  0.45480000  0.17390000  1.0 0.1200724801
H  H63  1  0.98700000  0.01560000  0.23870000  1.0 0.1200724801
H  H64  1  0.01300000  0.51560000  0.26130000  1.0 0.1200724801
H  H65  1  0.32320000  0.99410000  0.38050000  1.0 0.1200724801
H  H66  1  0.67680000  0.49410000  0.11950000  1.0 0.1200724801
H  H67  1  0.32160000  0.93070000  0.46660000  1.0 0.1105116155
H  H68  1  0.67840000  0.43070000  0.03340000  1.0 0.1105116155
H  H69  1  0.61930000  0.69770000  0.34440000  1.0 0.1411821195
H  H70  1  0.38070000  0.19770000  0.15560000  1.0 0.1411821195
H  H71  1  0.45030000  0.76900000  0.25190000  1.0 0.1411821195
H  H72  1  0.54970000  0.26900000  0.24810000  1.0 0.1411821195
H  H73  1  0.59610000  0.73020000  0.16640000  1.0 0.128452485
H  H74  1  0.40390000  0.23020000  0.33360000  1.0 0.128452485
H  H75  1  0.37810000  0.73020000  0.03620000  1.0 0.1411821195
H  H76  1  0.62190000  0.23020000  0.46380000  1.0 0.1411821195
H  H77  1  0.15340000  0.90280000  0.93570000  1.0 0.1411821195
H  H78  1  0.84660000  0.40280000  0.56430000  1.0 0.1411821195
H  H79  1  0.38930000  0.88860000  0.16730000  1.0 0.128452485
H  H80  1  0.61070000  0.38860000  0.33270000  1.0 0.128452485
H  H81  1  0.33110000  0.73150000  0.90840000  1.0 0.128452485
H  H82  1  0.66890000  0.23150000  0.59160000  1.0 0.128452485
H  H83  1  0.00880000  0.74650000  0.72680000  1.0 0.1411821195
H  H84  1  0.99120000  0.24650000  0.77320000  1.0 0.1411821195
H  H85  1  0.03200000  0.80840000  0.82840000  1.0 0.1474702243
H  H86  1  0.96800000  0.30840000  0.67160000  1.0 0.1474702243
H  H87  1  0.31240000  0.99300000  0.16430000  1.0 0.1411821195
H  H88  1  0.68760000  0.49300000  0.33570000  1.0 0.1411821195
H  H89  1  0.19210000  0.04300000  0.96490000  1.0 0.1411821195
H  H90  1  0.80790000  0.54300000  0.53510000  1.0 0.1411821195
H  H91  1  0.16490000  0.14710000  0.02160000  1.0 0.1411821195
H  H92  1  0.83510000  0.64710000  0.47840000  1.0 0.1411821195
H  H93  1  0.03090000  0.95290000  0.96230000  1.0 0.1024070267
H  H94  1  0.96910000  0.45290000  0.53770000  1.0 0.1024070267
H  H95  1  0.01740000  0.06870000  0.01710000  1.0 0.1024070267
H  H96  1  0.98260000  0.56870000  0.48290000  1.0 0.1024070267
C  C1  1  0.04700000  0.25760000  0.56830000  1.0 0.5577826589
C  C2  1  0.95300000  0.75760000  0.93170000  1.0 0.5577826589
C  C3  1  0.94400000  0.20710000  0.52560000  1.0 -0.0020696808
C  C4  1  0.05600000  0.70710000  0.97440000  1.0 -0.0020696808
C  C5  1  0.93980000  0.15830000  0.57280000  1.0 -0.1896544084
C  C6  1  0.06020000  0.65830000  0.92720000  1.0 -0.1896544084
C  C7  1  0.84980000  0.10600000  0.53900000  1.0 0.0174995135
C  C8  1  0.15020000  0.60600000  0.96100000  1.0 0.0174995135
C  C9  1  0.76980000  0.09860000  0.45900000  1.0 0.0095628887
C  C10  1  0.23020000  0.59860000  0.04100000  1.0 0.0095628887
C  C11  1  0.77380000  0.14850000  0.41210000  1.0 -0.1747211464
C  C12  1  0.22620000  0.64850000  0.08790000  1.0 -0.1747211464
C  C13  1  0.86010000  0.20330000  0.44550000  1.0 -0.0619550714
C  C14  1  0.13990000  0.70330000  0.05450000  1.0 -0.0619550714
C  C15  1  0.85630000  0.25910000  0.39660000  1.0 0.5548369825
C  C16  1  0.14370000  0.75910000  0.10340000  1.0 0.5548369825
C  C17  1  0.67720000  0.04010000  0.41950000  1.0 0.0809930876
C  C18  1  0.32280000  0.54010000  0.08050000  1.0 0.0809930876
C  C19  1  0.56600000  0.06010000  0.36160000  1.0 -0.1578297377
C  C20  1  0.43400000  0.56010000  0.13840000  1.0 -0.1578297377
C  C21  1  0.47840000  0.00880000  0.32990000  1.0 -0.1172887799
C  C22  1  0.52160000  0.50880000  0.17010000  1.0 -0.1172887799
C  C23  1  0.50390000  0.93350000  0.35560000  1.0 -0.0265285283
C  C24  1  0.49610000  0.43350000  0.14440000  1.0 -0.0265285283
C  C25  1  0.61410000  0.91320000  0.41140000  1.0 -0.0897440225
C  C26  1  0.38590000  0.41320000  0.08860000  1.0 -0.0897440225
C  C27  1  0.70250000  0.96390000  0.44300000  1.0 -0.1427452624
C  C28  1  0.29750000  0.46390000  0.05700000  1.0 -0.1427452624
C  C29  1  0.40680000  0.87980000  0.32200000  1.0 0.5360751688
C  C30  1  0.59320000  0.37980000  0.17800000  1.0 0.5360751688
C  C31  1  0.84590000  0.06380000  0.59320000  1.0 0.0733362023
C  C32  1  0.15410000  0.56380000  0.90680000  1.0 0.0733362023
C  C33  1  0.94510000  0.03770000  0.66230000  1.0 -0.1525372028
C  C34  1  0.05490000  0.53770000  0.83770000  1.0 -0.1525372028
C  C35  1  0.94430000  0.00050000  0.71460000  1.0 -0.110752881
C  C36  1  0.05570000  0.50050000  0.78540000  1.0 -0.110752881
C  C37  1  0.84870000  0.98710000  0.70030000  1.0 -0.0143516989
C  C38  1  0.15130000  0.48710000  0.79970000  1.0 -0.0143516989
C  C39  1  0.74500000  0.01380000  0.63050000  1.0 -0.0970816514
C  C40  1  0.25500000  0.51380000  0.86950000  1.0 -0.0970816514
C  C41  1  0.74670000  0.05140000  0.57930000  1.0 -0.1525372028
C  C42  1  0.25330000  0.55140000  0.92070000  1.0 -0.1525372028
C  C43  1  0.85010000  0.94880000  0.75990000  1.0 0.5577826589
C  C44  1  0.14990000  0.44880000  0.74010000  1.0 0.5577826589
C  C45  1  0.40670000  0.28600000  0.70340000  1.0 -0.0498045696
C  C46  1  0.59330000  0.78600000  0.79660000  1.0 -0.0498045696
C  C47  1  0.49970000  0.24800000  0.75410000  1.0 -0.0803177137
C  C48  1  0.50030000  0.74800000  0.74590000  1.0 -0.0803177137
C  C49  1  0.41820000  0.26920000  0.80020000  1.0 0.1200724801
C  C50  1  0.58180000  0.76920000  0.69980000  1.0 0.1200724801
C  C51  1  0.60420000  0.19940000  0.88890000  1.0 0.2078756183
C  C52  1  0.39580000  0.69940000  0.61110000  1.0 0.2078756183
C  C53  1  0.65100000  0.22640000  0.95980000  1.0 -0.2644654721
C  C54  1  0.34900000  0.72640000  0.54020000  1.0 -0.2644654721
C  C55  1  0.74150000  0.18950000  0.02570000  1.0 0.2250040561
C  C56  1  0.25850000  0.68950000  0.47430000  1.0 0.2250040561
C  C57  1  0.78650000  0.12280000  0.02000000  1.0 -0.3228555158
C  C58  1  0.21350000  0.62280000  0.48000000  1.0 -0.3228555158
C  C59  1  0.74030000  0.09800000  0.94960000  1.0 0.1998895347
C  C60  1  0.25970000  0.59800000  0.55040000  1.0 0.1998895347
C  C61  1  0.64540000  0.13190000  0.88110000  1.0 -0.3767449916
C  C62  1  0.35460000  0.63190000  0.61890000  1.0 -0.3767449916
C  C63  1  0.74580000  0.25620000  0.12420000  1.0 0.1200724801
C  C64  1  0.25420000  0.75620000  0.37580000  1.0 0.1200724801
C  C65  1  0.92230000  0.24750000  0.22280000  1.0 -0.0498045696
C  C66  1  0.07770000  0.74750000  0.27720000  1.0 -0.0498045696
C  C67  1  0.91060000  0.21400000  0.16760000  1.0 -0.0897440225
C  C68  1  0.08940000  0.71400000  0.33240000  1.0 -0.0897440225
C  C69  1  0.75500000  0.99410000  0.88480000  1.0 0.1024070267
C  C70  1  0.24500000  0.49410000  0.61520000  1.0 0.1024070267
C  C71  1  0.80090000  0.95950000  0.99160000  1.0 -0.0803177137
C  C72  1  0.19910000  0.45950000  0.50840000  1.0 -0.0803177137
C  C73  1  0.81780000  0.90240000  0.96100000  1.0 -0.0897440225
C  C74  1  0.18220000  0.40240000  0.53900000  1.0 -0.0897440225
C  C75  1  0.91050000  0.02110000  0.99300000  1.0 -0.0619550714
C  C76  1  0.08950000  0.52110000  0.50700000  1.0 -0.0619550714
C  C77  1  0.91570000  0.95630000  0.96250000  1.0 -0.0970816514
C  C78  1  0.08430000  0.45630000  0.53750000  1.0 -0.0970816514
C  C79  1  0.95300000  0.74240000  0.43170000  1.0 0.5577826589
C  C80  1  0.04700000  0.24240000  0.06830000  1.0 0.5577826589
C  C81  1  0.05600000  0.79290000  0.47440000  1.0 -0.0020696808
C  C82  1  0.94400000  0.29290000  0.02560000  1.0 -0.0020696808
C  C83  1  0.06020000  0.84170000  0.42720000  1.0 -0.1896544084
C  C84  1  0.93980000  0.34170000  0.07280000  1.0 -0.1896544084
C  C85  1  0.15020000  0.89400000  0.46100000  1.0 0.0174995135
C  C86  1  0.84980000  0.39400000  0.03900000  1.0 0.0174995135
C  C87  1  0.23020000  0.90140000  0.54100000  1.0 0.0095628887
C  C88  1  0.76980000  0.40140000  0.95900000  1.0 0.0095628887
C  C89  1  0.22620000  0.85150000  0.58790000  1.0 -0.1747211464
C  C90  1  0.77380000  0.35150000  0.91210000  1.0 -0.1747211464
C  C91  1  0.13990000  0.79670000  0.55450000  1.0 -0.0619550714
C  C92  1  0.86010000  0.29670000  0.94550000  1.0 -0.0619550714
C  C93  1  0.14370000  0.74090000  0.60340000  1.0 0.5548369825
C  C94  1  0.85630000  0.24090000  0.89660000  1.0 0.5548369825
C  C95  1  0.32280000  0.95990000  0.58050000  1.0 0.0809930876
C  C96  1  0.67720000  0.45990000  0.91950000  1.0 0.0809930876
C  C97  1  0.43400000  0.93990000  0.63840000  1.0 -0.1578297377
C  C98  1  0.56600000  0.43990000  0.86160000  1.0 -0.1578297377
C  C99  1  0.52160000  0.99120000  0.67010000  1.0 -0.1172887799
C  C100  1  0.47840000  0.49120000  0.82990000  1.0 -0.1172887799
C  C101  1  0.49610000  0.06650000  0.64440000  1.0 -0.0265285283
C  C102  1  0.50390000  0.56650000  0.85560000  1.0 -0.0265285283
C  C103  1  0.38590000  0.08680000  0.58860000  1.0 -0.0897440225
C  C104  1  0.61410000  0.58680000  0.91140000  1.0 -0.0897440225
C  C105  1  0.29750000  0.03610000  0.55700000  1.0 -0.1427452624
C  C106  1  0.70250000  0.53610000  0.94300000  1.0 -0.1427452624
C  C107  1  0.59320000  0.12020000  0.67800000  1.0 0.5360751688
C  C108  1  0.40680000  0.62020000  0.82200000  1.0 0.5360751688
C  C109  1  0.15410000  0.93620000  0.40680000  1.0 0.0733362023
C  C110  1  0.84590000  0.43620000  0.09320000  1.0 0.0733362023
C  C111  1  0.05490000  0.96230000  0.33770000  1.0 -0.1525372028
C  C112  1  0.94510000  0.46230000  0.16230000  1.0 -0.1525372028
C  C113  1  0.05570000  0.99950000  0.28540000  1.0 -0.110752881
C  C114  1  0.94430000  0.49950000  0.21460000  1.0 -0.110752881
C  C115  1  0.15130000  0.01290000  0.29970000  1.0 -0.0143516989
C  C116  1  0.84870000  0.51290000  0.20030000  1.0 -0.0143516989
C  C117  1  0.25500000  0.98620000  0.36950000  1.0 -0.0970816514
C  C118  1  0.74500000  0.48620000  0.13050000  1.0 -0.0970816514
C  C119  1  0.25330000  0.94860000  0.42070000  1.0 -0.1525372028
C  C120  1  0.74670000  0.44860000  0.07930000  1.0 -0.1525372028
C  C121  1  0.14990000  0.05120000  0.24010000  1.0 0.5577826589
C  C122  1  0.85010000  0.55120000  0.25990000  1.0 0.5577826589
C  C123  1  0.59330000  0.71400000  0.29660000  1.0 -0.0498045696
C  C124  1  0.40670000  0.21400000  0.20340000  1.0 -0.0498045696
C  C125  1  0.50030000  0.75200000  0.24590000  1.0 -0.0803177137
C  C126  1  0.49970000  0.25200000  0.25410000  1.0 -0.0803177137
C  C127  1  0.58180000  0.73080000  0.19980000  1.0 0.1200724801
C  C128  1  0.41820000  0.23080000  0.30020000  1.0 0.1200724801
C  C129  1  0.39580000  0.80060000  0.11110000  1.0 0.2078756183
C  C130  1  0.60420000  0.30060000  0.38890000  1.0 0.2078756183
C  C131  1  0.34900000  0.77360000  0.04020000  1.0 -0.2644654721
C  C132  1  0.65100000  0.27360000  0.45980000  1.0 -0.2644654721
C  C133  1  0.25850000  0.81050000  0.97430000  1.0 0.2250040561
C  C134  1  0.74150000  0.31050000  0.52570000  1.0 0.2250040561
C  C135  1  0.21350000  0.87720000  0.98000000  1.0 -0.3228555158
C  C136  1  0.78650000  0.37720000  0.52000000  1.0 -0.3228555158
C  C137  1  0.25970000  0.90200000  0.05040000  1.0 0.1998895347
C  C138  1  0.74030000  0.40200000  0.44960000  1.0 0.1998895347
C  C139  1  0.35460000  0.86810000  0.11890000  1.0 -0.3767449916
C  C140  1  0.64540000  0.36810000  0.38110000  1.0 -0.3767449916
C  C141  1  0.25420000  0.74380000  0.87580000  1.0 0.1200724801
C  C142  1  0.74580000  0.24380000  0.62420000  1.0 0.1200724801
C  C143  1  0.07770000  0.75250000  0.77720000  1.0 -0.0498045696
C  C144  1  0.92230000  0.25250000  0.72280000  1.0 -0.0498045696
C  C145  1  0.08940000  0.78600000  0.83240000  1.0 -0.0897440225
C  C146  1  0.91060000  0.28600000  0.66760000  1.0 -0.0897440225
C  C147  1  0.24500000  0.00590000  0.11520000  1.0 0.1024070267
C  C148  1  0.75500000  0.50590000  0.38480000  1.0 0.1024070267
C  C149  1  0.19910000  0.04050000  0.00840000  1.0 -0.0803177137
C  C150  1  0.80090000  0.54050000  0.49160000  1.0 -0.0803177137
C  C151  1  0.18220000  0.09760000  0.03900000  1.0 -0.0897440225
C  C152  1  0.81780000  0.59760000  0.46100000  1.0 -0.0897440225
C  C153  1  0.08950000  0.97890000  0.00700000  1.0 -0.0619550714
C  C154  1  0.91050000  0.47890000  0.49300000  1.0 -0.0619550714
C  C155  1  0.08430000  0.04370000  0.03750000  1.0 -0.0970816514
C  C156  1  0.91570000  0.54370000  0.46250000  1.0 -0.0970816514
N  N1  1  0.35180000  0.29860000  0.73200000  1.0 -0.2790050566
N  N2  1  0.64820000  0.79860000  0.76800000  1.0 -0.2790050566
N  N3  1  0.51100000  0.23740000  0.81760000  1.0 -0.0020696808
N  N4  1  0.48900000  0.73740000  0.68240000  1.0 -0.0020696808
N  N5  1  0.79520000  0.21820000  0.10110000  1.0 0.0006979267
N  N6  1  0.20480000  0.71820000  0.39890000  1.0 0.0006979267
N  N7  1  0.81930000  0.27280000  0.19670000  1.0 -0.2790050566
N  N8  1  0.18070000  0.77280000  0.30330000  1.0 -0.2790050566
N  N9  1  0.80380000  0.93270000  0.89500000  1.0 -0.2290304363
N  N10  1  0.19620000  0.43270000  0.60500000  1.0 -0.2290304363
N  N11  1  0.76900000  0.02600000  0.94300000  1.0 0.1411821195
N  N12  1  0.23100000  0.52600000  0.55700000  1.0 0.1411821195
N  N13  1  0.79800000  0.03700000  0.94100000  1.0 0.1474702243
N  N14  1  0.20200000  0.53700000  0.55900000  1.0 0.1474702243
N  N15  1  0.64820000  0.70140000  0.26800000  1.0 -0.2790050566
N  N16  1  0.35180000  0.20140000  0.23200000  1.0 -0.2790050566
N  N17  1  0.48900000  0.76260000  0.18240000  1.0 -0.0020696808
N  N18  1  0.51100000  0.26260000  0.31760000  1.0 -0.0020696808
N  N19  1  0.20480000  0.78180000  0.89890000  1.0 0.0006979267
N  N20  1  0.79520000  0.28180000  0.60110000  1.0 0.0006979267
N  N21  1  0.18070000  0.72720000  0.80330000  1.0 -0.2790050566
N  N22  1  0.81930000  0.22720000  0.69670000  1.0 -0.2790050566
N  N23  1  0.19620000  0.06730000  0.10500000  1.0 -0.2290304363
N  N24  1  0.80380000  0.56730000  0.39500000  1.0 -0.2290304363
N  N25  1  0.23100000  0.97400000  0.05700000  1.0 0.1411821195
N  N26  1  0.76900000  0.47400000  0.44300000  1.0 0.1411821195
N  N27  1  0.20200000  0.96300000  0.05900000  1.0 0.1474702243
N  N28  1  0.79800000  0.46300000  0.44100000  1.0 0.1474702243
O  O1  1  0.06710000  0.29800000  0.61860000  1.0 -0.5126943648
O  O2  1  0.93290000  0.79800000  0.88140000  1.0 -0.5126943648
O  O3  1  0.11820000  0.24730000  0.55970000  1.0 -0.5480474343
O  O4  1  0.88180000  0.74730000  0.94030000  1.0 -0.5480474343
O  O5  1  0.80290000  0.24340000  0.32700000  1.0 -0.5480474343
O  O6  1  0.19710000  0.74340000  0.17300000  1.0 -0.5480474343
O  O7  1  0.90670000  0.32080000  0.42840000  1.0 -0.567509985
O  O8  1  0.09330000  0.82080000  0.07160000  1.0 -0.567509985
O  O9  1  0.30790000  0.90300000  0.26330000  1.0 -0.558757177
O  O10  1  0.69210000  0.40300000  0.23670000  1.0 -0.558757177
O  O11  1  0.42490000  0.81910000  0.35260000  1.0 -0.5288410843
O  O12  1  0.57510000  0.31910000  0.14740000  1.0 -0.5288410843
O  O13  1  0.76930000  0.90410000  0.73600000  1.0 -0.5480474343
O  O14  1  0.23070000  0.40410000  0.76400000  1.0 -0.5480474343
O  O15  1  0.93150000  0.96250000  0.83000000  1.0 -0.558757177
O  O16  1  0.06850000  0.46250000  0.67000000  1.0 -0.558757177
O  O17  1  0.93290000  0.70200000  0.38140000  1.0 -0.5126943648
O  O18  1  0.06710000  0.20200000  0.11860000  1.0 -0.5126943648
O  O19  1  0.88180000  0.75270000  0.44030000  1.0 -0.5480474343
O  O20  1  0.11820000  0.25270000  0.05970000  1.0 -0.5480474343
O  O21  1  0.19710000  0.75660000  0.67300000  1.0 -0.5480474343
O  O22  1  0.80290000  0.25660000  0.82700000  1.0 -0.5480474343
O  O23  1  0.09330000  0.67920000  0.57160000  1.0 -0.567509985
O  O24  1  0.90670000  0.17920000  0.92840000  1.0 -0.567509985
O  O25  1  0.69210000  0.09700000  0.73670000  1.0 -0.558757177
O  O26  1  0.30790000  0.59700000  0.76330000  1.0 -0.558757177
O  O27  1  0.57510000  0.18090000  0.64740000  1.0 -0.5288410843
O  O28  1  0.42490000  0.68090000  0.85260000  1.0 -0.5288410843
O  O29  1  0.23070000  0.09590000  0.26400000  1.0 -0.5480474343
O  O30  1  0.76930000  0.59590000  0.23600000  1.0 -0.5480474343
O  O31  1  0.06850000  0.03750000  0.17000000  1.0 -0.558757177
O  O32  1  0.93150000  0.53750000  0.33000000  1.0 -0.558757177
