# DDEC6 charges by PACMAN v1.1 (https://github.com/mtap-research/PACMAN-charge/)
data_TOFTIT_ASR_pacman
_symmetry_space_group_name_H-M   'P 1'
_cell_length_a   31.62340000
_cell_length_b   31.62340000
_cell_length_c   31.62340000
_cell_angle_alpha   120.26800000
_cell_angle_beta   120.26800000
_cell_angle_gamma   89.53730000
_symmetry_Int_Tables_number   1
_chemical_formula_structural   Cu3H23C36(N6O7)2
_chemical_formula_sum   'Cu24 H184 C288 N96 O112'
_cell_volume   22270.46080561
_cell_formula_units_Z   8
loop_
 _symmetry_equiv_pos_site_id
 _symmetry_equiv_pos_as_xyz
  1  'x, y, z'
loop_
 _atom_site_type_symbol
 _atom_site_label
 _atom_site_symmetry_multiplicity
 _atom_site_fract_x
 _atom_site_fract_y
 _atom_site_fract_z
 _atom_site_occupancy
 _atom_site_charge
Cu  Cu1  1  0.19032000  0.52424000  0.04942000  1.0 0.9120771592
Cu  Cu2  1  0.52424000  0.47482000  0.33392000  1.0 0.9120771592
Cu  Cu3  1  0.47482000  0.14090000  0.95058000  1.0 0.9120771592
Cu  Cu4  1  0.14090000  0.19032000  0.66608000  1.0 0.9120771592
Cu  Cu5  1  0.80968000  0.47576000  0.95058000  1.0 0.9120771592
Cu  Cu6  1  0.47576000  0.52518000  0.66608000  1.0 0.9120771592
Cu  Cu7  1  0.52518000  0.85910000  0.04942000  1.0 0.9120771592
Cu  Cu8  1  0.85910000  0.80968000  0.33392000  1.0 0.9120771592
Cu  Cu9  1  0.26772000  0.51819000  0.03734000  1.0 0.9120771592
Cu  Cu10  1  0.51819000  0.48086000  0.25048000  1.0 0.9120771592
Cu  Cu11  1  0.48086000  0.23039000  0.96266000  1.0 0.9120771592
Cu  Cu12  1  0.23038000  0.26772000  0.74952000  1.0 0.9120771592
Cu  Cu13  1  0.73228000  0.48180000  0.96266000  1.0 0.9120771592
Cu  Cu14  1  0.48180000  0.51914000  0.74952000  1.0 0.9120771592
Cu  Cu15  1  0.51914000  0.76962000  0.03734000  1.0 0.9120771592
Cu  Cu16  1  0.76961000  0.73228000  0.25048000  1.0 0.9120771592
Cu  Cu17  1  0.24928000  0.53544000  0.78472000  1.0 0.8610345056
Cu  Cu18  1  0.53544000  0.75072000  0.28616000  1.0 0.8610345056
Cu  Cu19  1  0.75072000  0.46456000  0.21528000  1.0 0.8610345056
Cu  Cu20  1  0.46456000  0.24928000  0.71384000  1.0 0.8610345056
Cu  Cu21  1  0.16584000  0.54668000  0.71252000  1.0 0.8610345056
Cu  Cu22  1  0.54668000  0.83416000  0.38083000  1.0 0.8610345056
Cu  Cu23  1  0.83416000  0.45332000  0.28748000  1.0 0.8610345056
Cu  Cu24  1  0.45332000  0.16584000  0.61916000  1.0 0.8610345056
H  H1  1  0.99360000  0.53770000  0.74530000  1.0 0.1309841178
H  H2  1  0.53770000  0.79240000  0.54410000  1.0 0.1309841178
H  H3  1  0.79240000  0.24830000  0.25470000  1.0 0.1309841178
H  H4  1  0.24830000  0.99360000  0.45590000  1.0 0.1309841178
H  H5  1  0.00640000  0.46230000  0.25470000  1.0 0.1309841178
H  H6  1  0.46230000  0.20760000  0.45590000  1.0 0.1309841178
H  H7  1  0.20760000  0.75170000  0.74530000  1.0 0.1309841178
H  H8  1  0.75170000  0.00640000  0.54410000  1.0 0.1309841178
H  H9  1  0.09420000  0.55440000  0.91920000  1.0 0.1508232853
H  H10  1  0.55440000  0.63520000  0.46020000  1.0 0.1508232853
H  H11  1  0.63520000  0.17500000  0.08080000  1.0 0.1508232853
H  H12  1  0.17500000  0.09420000  0.53980000  1.0 0.1508232853
H  H13  1  0.90580000  0.44560000  0.08080000  1.0 0.1508232853
H  H14  1  0.44560000  0.36480000  0.53980000  1.0 0.1508232853
H  H15  1  0.36480000  0.82500000  0.91920000  1.0 0.1508232853
H  H16  1  0.82500000  0.90580000  0.46020000  1.0 0.1508232853
H  H17  1  0.21350000  0.55030000  0.90480000  1.0 0.1508232853
H  H18  1  0.55030000  0.64550000  0.33680000  1.0 0.1508232853
H  H19  1  0.64550000  0.30870000  0.09520000  1.0 0.1508232853
H  H20  1  0.30870000  0.21350000  0.66320000  1.0 0.1508232853
H  H21  1  0.78650000  0.44970000  0.09520000  1.0 0.1508232853
H  H22  1  0.44970000  0.35450000  0.66320000  1.0 0.1508232853
H  H23  1  0.35450000  0.69130000  0.90480000  1.0 0.1508232853
H  H24  1  0.69130000  0.78650000  0.33680000  1.0 0.1508232853
H  H25  1  0.08530000  0.56460000  0.79390000  1.0 0.1411173015
H  H26  1  0.56460000  0.77070000  0.47930000  1.0 0.1411173015
H  H27  1  0.77070000  0.29140000  0.20610000  1.0 0.1411173015
H  H28  1  0.29140000  0.08530000  0.52070000  1.0 0.1411173015
H  H29  1  0.91470000  0.43540000  0.20610000  1.0 0.1411173015
H  H30  1  0.43540000  0.22930000  0.52070000  1.0 0.1411173015
H  H31  1  0.22930000  0.70860000  0.79390000  1.0 0.1411173015
H  H32  1  0.70860000  0.91470000  0.47930000  1.0 0.1411173015
H  H33  1  0.74630000  0.51210000  0.53180000  1.0 0.1309841178
H  H34  1  0.51210000  0.98030000  0.76580000  1.0 0.1309841178
H  H35  1  0.98030000  0.21450000  0.46820000  1.0 0.1309841178
H  H36  1  0.21450000  0.74630000  0.23420000  1.0 0.1309841178
H  H37  1  0.25370000  0.48790000  0.46820000  1.0 0.1309841178
H  H38  1  0.48790000  0.01970000  0.23420000  1.0 0.1309841178
H  H39  1  0.01970000  0.78550000  0.53180000  1.0 0.1309841178
H  H40  1  0.78550000  0.25370000  0.76580000  1.0 0.1309841178
H  H41  1  0.80690000  0.49080000  0.42150000  1.0 0.1508232853
H  H42  1  0.49080000  0.06930000  0.68390000  1.0 0.1508232853
H  H43  1  0.06930000  0.38540000  0.57850000  1.0 0.1508232853
H  H44  1  0.38540000  0.80690000  0.31610000  1.0 0.1508232853
H  H45  1  0.19310000  0.50920000  0.57850000  1.0 0.1508232853
H  H46  1  0.50920000  0.93070000  0.31610000  1.0 0.1508232853
H  H47  1  0.93070000  0.61460000  0.42150000  1.0 0.1508232853
H  H48  1  0.61460000  0.19310000  0.68390000  1.0 0.1508232853
H  H49  1  0.66980000  0.48040000  0.29460000  1.0 0.1508232853
H  H50  1  0.48040000  0.18580000  0.81060000  1.0 0.1508232853
H  H51  1  0.18580000  0.37520000  0.70540000  1.0 0.1508232853
H  H52  1  0.37520000  0.66980000  0.18940000  1.0 0.1508232853
H  H53  1  0.33020000  0.51960000  0.70540000  1.0 0.1508232853
H  H54  1  0.51960000  0.81420000  0.18940000  1.0 0.1508232853
H  H55  1  0.81420000  0.62480000  0.29460000  1.0 0.1508232853
H  H56  1  0.62480000  0.33020000  0.81060000  1.0 0.1508232853
H  H57  1  0.68940000  0.50020000  0.44000000  1.0 0.1411173015
H  H58  1  0.50020000  0.06020000  0.81080000  1.0 0.1411173015
H  H59  1  0.06020000  0.24940000  0.56000000  1.0 0.1411173015
H  H60  1  0.24940000  0.68940000  0.18920000  1.0 0.1411173015
H  H61  1  0.31060000  0.49980000  0.56000000  1.0 0.1411173015
H  H62  1  0.49980000  0.93980000  0.18920000  1.0 0.1411173015
H  H63  1  0.93980000  0.75060000  0.44000000  1.0 0.1411173015
H  H64  1  0.75060000  0.31060000  0.81080000  1.0 0.1411173015
H  H65  1  0.79420000  0.53160000  0.78240000  1.0 0.1309841178
H  H66  1  0.53160000  0.74920000  0.73740000  1.0 0.1309841178
H  H67  1  0.74920000  0.01180000  0.21760000  1.0 0.1309841178
H  H68  1  0.01180000  0.79420000  0.26260000  1.0 0.1309841178
H  H69  1  0.20580000  0.46840000  0.21760000  1.0 0.1309841178
H  H70  1  0.46840000  0.25080000  0.26260000  1.0 0.1309841178
H  H71  1  0.25080000  0.98820000  0.78240000  1.0 0.1309841178
H  H72  1  0.98820000  0.20580000  0.73740000  1.0 0.1309841178
H  H73  1  0.63150000  0.53610000  0.71840000  1.0 0.1508232853
H  H74  1  0.53610000  0.81770000  0.90460000  1.0 0.1508232853
H  H75  1  0.81770000  0.91310000  0.28160000  1.0 0.1508232853
H  H76  1  0.91310000  0.63150000  0.09540000  1.0 0.1508232853
H  H77  1  0.36850000  0.46390000  0.28160000  1.0 0.1508232853
H  H78  1  0.46390000  0.18230000  0.09540000  1.0 0.1508232853
H  H79  1  0.18230000  0.08690000  0.71840000  1.0 0.1508232853
H  H80  1  0.08690000  0.36850000  0.90460000  1.0 0.1508232853
H  H81  1  0.63770000  0.51610000  0.83680000  1.0 0.1561719304
H  H82  1  0.51610000  0.67930000  0.87840000  1.0 0.1561719304
H  H83  1  0.67930000  0.80090000  0.16320000  1.0 0.1561719304
H  H84  1  0.80090000  0.63770000  0.12160000  1.0 0.1561719304
H  H85  1  0.36230000  0.48390000  0.16320000  1.0 0.1561719304
H  H86  1  0.48390000  0.32070000  0.12160000  1.0 0.1561719304
H  H87  1  0.32070000  0.19910000  0.83680000  1.0 0.1561719304
H  H88  1  0.19910000  0.36230000  0.87840000  1.0 0.1561719304
H  H89  1  0.75720000  0.51430000  0.82270000  1.0 0.1411173015
H  H90  1  0.51430000  0.69160000  0.75710000  1.0 0.1411173015
H  H91  1  0.69160000  0.93450000  0.17730000  1.0 0.1411173015
H  H92  1  0.93450000  0.75720000  0.24290000  1.0 0.1411173015
H  H93  1  0.24280000  0.48570000  0.17730000  1.0 0.1411173015
H  H94  1  0.48570000  0.30840000  0.24290000  1.0 0.1411173015
H  H95  1  0.30840000  0.06550000  0.82270000  1.0 0.1411173015
H  H96  1  0.06550000  0.24280000  0.75710000  1.0 0.1411173015
H  H97  1  0.10080000  0.51540000  0.02700000  1.0 0.4189359551
H  H98  1  0.51540000  0.48840000  0.41460000  1.0 0.4189359551
H  H99  1  0.48840000  0.07380000  0.97300000  1.0 0.4189359551
H  H100  1  0.07380000  0.10080000  0.58540000  1.0 0.4189359551
H  H101  1  0.89920000  0.48460000  0.97300000  1.0 0.4189359551
H  H102  1  0.48460000  0.51160000  0.58540000  1.0 0.4189359551
H  H103  1  0.51160000  0.92620000  0.02700000  1.0 0.4189359551
H  H104  1  0.92620000  0.89920000  0.41460000  1.0 0.4189359551
H  H105  1  0.32210000  0.50140000  0.99670000  1.0 0.4260568624
H  H106  1  0.50140000  0.50470000  0.17930000  1.0 0.4260568624
H  H107  1  0.50470000  0.32540000  0.00330000  1.0 0.4260568624
H  H108  1  0.32540000  0.32210000  0.82070000  1.0 0.4260568624
H  H109  1  0.67790000  0.49860000  0.00330000  1.0 0.4260568624
H  H110  1  0.49860000  0.49530000  0.82070000  1.0 0.4260568624
H  H111  1  0.49530000  0.67460000  0.99670000  1.0 0.4260568624
H  H112  1  0.67460000  0.67790000  0.17930000  1.0 0.4260568624
H  H113  1  0.89690000  0.50990000  0.62240000  1.0 0.2463601886
H  H114  1  0.50990000  0.88750000  0.61300000  1.0 0.2463601886
H  H115  1  0.88750000  0.27450000  0.37760000  1.0 0.2463601886
H  H116  1  0.27450000  0.89690000  0.38700000  1.0 0.2463601886
H  H117  1  0.10310000  0.49010000  0.37760000  1.0 0.2463601886
H  H118  1  0.49010000  0.11250000  0.38700000  1.0 0.2463601886
H  H119  1  0.11250000  0.72550000  0.62240000  1.0 0.2463601886
H  H120  1  0.72550000  0.10310000  0.61300000  1.0 0.2463601886
H  H121  1  0.94010000  0.55500000  0.67950000  1.0 0.2817389784
H  H122  1  0.55500000  0.87550000  0.61490000  1.0 0.2817389784
H  H123  1  0.87550000  0.26060000  0.32050000  1.0 0.2817389784
H  H124  1  0.26060000  0.94010000  0.38510000  1.0 0.2817389784
H  H125  1  0.05990000  0.44500000  0.32050000  1.0 0.2817389784
H  H126  1  0.44500000  0.12450000  0.38510000  1.0 0.2817389784
H  H127  1  0.12450000  0.73940000  0.67950000  1.0 0.2817389784
H  H128  1  0.73940000  0.05990000  0.61490000  1.0 0.2817389784
H  H129  1  0.74080000  0.54930000  0.61370000  1.0 0.2817389784
H  H130  1  0.54930000  0.93560000  0.80850000  1.0 0.2817389784
H  H131  1  0.93560000  0.12710000  0.38630000  1.0 0.2817389784
H  H132  1  0.12710000  0.74080000  0.19150000  1.0 0.2817389784
H  H133  1  0.25920000  0.45070000  0.38630000  1.0 0.2817389784
H  H134  1  0.45070000  0.06440000  0.19150000  1.0 0.2817389784
H  H135  1  0.06440000  0.87290000  0.61370000  1.0 0.2817389784
H  H136  1  0.87290000  0.25920000  0.80850000  1.0 0.2817389784
H  H137  1  0.85830000  0.54100000  0.80330000  1.0 0.243187213
H  H138  1  0.54100000  0.73770000  0.68270000  1.0 0.2463601886
H  H139  1  0.73770000  0.05500000  0.19670000  1.0 0.243187213
H  H140  1  0.05500000  0.85830000  0.31730000  1.0 0.243187213
H  H141  1  0.14170000  0.45900000  0.19670000  1.0 0.243187213
H  H142  1  0.45900000  0.26230000  0.31730000  1.0 0.243187213
H  H143  1  0.26230000  0.94500000  0.80330000  1.0 0.2463601886
H  H144  1  0.94500000  0.14170000  0.68270000  1.0 0.243187213
H  H145  1  0.86740000  0.59330000  0.81910000  1.0 0.2817389784
H  H146  1  0.59330000  0.77420000  0.72590000  1.0 0.2817389784
H  H147  1  0.77420000  0.04830000  0.18090000  1.0 0.2817389784
H  H148  1  0.04830000  0.86740000  0.27410000  1.0 0.2817389784
H  H149  1  0.13260000  0.40670000  0.18090000  1.0 0.2817389784
H  H150  1  0.40670000  0.22580000  0.27410000  1.0 0.2817389784
H  H151  1  0.22580000  0.95170000  0.81910000  1.0 0.2817389784
H  H152  1  0.95170000  0.13260000  0.72590000  1.0 0.2817389784
H  H153  1  0.90890000  0.57110000  0.82760000  1.0 0.2695323607
H  H154  1  0.57110000  0.74350000  0.66220000  1.0 0.2695323607
H  H155  1  0.74350000  0.08130000  0.17240000  1.0 0.2695323607
H  H156  1  0.08130000  0.90890000  0.33780000  1.0 0.2695323607
H  H157  1  0.09110000  0.42890000  0.17240000  1.0 0.2695323607
H  H158  1  0.42890000  0.25650000  0.33780000  1.0 0.2695323607
H  H159  1  0.25650000  0.91870000  0.82760000  1.0 0.2695323607
H  H160  1  0.91870000  0.09110000  0.66220000  1.0 0.2695323607
H  H161  1  0.93200000  0.50540000  0.67100000  1.0 0.2463601886
H  H162  1  0.50540000  0.83440000  0.57340000  1.0 0.2463601886
H  H163  1  0.83440000  0.26100000  0.32900000  1.0 0.243187213
H  H164  1  0.26100000  0.93200000  0.42660000  1.0 0.2463601886
H  H165  1  0.06800000  0.49460000  0.32900000  1.0 0.2463601886
H  H166  1  0.49460000  0.16560000  0.42660000  1.0 0.2463601886
H  H167  1  0.16560000  0.73900000  0.67100000  1.0 0.2463601886
H  H168  1  0.73900000  0.06800000  0.57340000  1.0 0.2463601886
H  H169  1  0.73640000  0.49780000  0.57040000  1.0 0.2125486402
H  H170  1  0.49780000  0.92740000  0.76140000  1.0 0.2125486402
H  H171  1  0.92740000  0.16600000  0.42960000  1.0 0.2125486402
H  H172  1  0.16600000  0.73640000  0.23860000  1.0 0.2125486402
H  H173  1  0.26360000  0.50220000  0.42960000  1.0 0.2125486402
H  H174  1  0.50220000  0.07260000  0.23860000  1.0 0.2125486402
H  H175  1  0.07260000  0.83400000  0.57040000  1.0 0.2125486402
H  H176  1  0.83400000  0.26360000  0.76140000  1.0 0.2125486402
H  H177  1  0.72500000  0.50540000  0.61240000  1.0 0.2566536894
H  H178  1  0.50540000  0.89300000  0.78040000  1.0 0.2566536894
H  H179  1  0.89300000  0.11260000  0.38760000  1.0 0.2566536894
H  H180  1  0.11260000  0.72500000  0.21960000  1.0 0.2566536894
H  H181  1  0.27500000  0.49460000  0.38760000  1.0 0.2566536894
H  H182  1  0.49460000  0.10700000  0.21960000  1.0 0.2566536894
H  H183  1  0.10700000  0.88740000  0.61240000  1.0 0.2566536894
H  H184  1  0.88740000  0.27500000  0.78040000  1.0 0.2566536894
C  C1  1  0.95010000  0.55593000  0.78141000  1.0 0.1125465599
C  C2  1  0.55593000  0.77452000  0.60583000  1.0 0.1125465599
C  C3  1  0.77452000  0.16869000  0.21859000  1.0 0.1125465599
C  C4  1  0.16869000  0.95010000  0.39417000  1.0 0.1125465599
C  C5  1  0.04990000  0.44407000  0.21859000  1.0 0.1125465599
C  C6  1  0.44407000  0.22548000  0.39417000  1.0 0.1125465599
C  C7  1  0.22548000  0.83131000  0.78141000  1.0 0.1125465599
C  C8  1  0.83131000  0.04990000  0.60583000  1.0 0.1125465599
C  C9  1  0.99294000  0.54820000  0.77812000  1.0 -0.1710036043
C  C10  1  0.54820000  0.77008000  0.55526000  1.0 -0.1710036043
C  C11  1  0.77008000  0.21482000  0.22188000  1.0 -0.1710036043
C  C12  1  0.21482000  0.99294000  0.44474000  1.0 -0.1710036043
C  C13  1  0.00706000  0.45180000  0.22188000  1.0 -0.1710036043
C  C14  1  0.45180000  0.22992000  0.44474000  1.0 -0.1710036043
C  C15  1  0.22992000  0.78518000  0.77812000  1.0 -0.1710036043
C  C16  1  0.78518000  0.00706000  0.55526000  1.0 -0.1710036043
C  C17  1  0.08247000  0.55960000  0.85327000  1.0 0.1508232853
C  C18  1  0.55960000  0.70633000  0.47713000  1.0 0.1508232853
C  C19  1  0.70633000  0.22920000  0.14673000  1.0 0.1508232853
C  C20  1  0.22920000  0.08247000  0.52287000  1.0 0.1508232853
C  C21  1  0.91753000  0.44040000  0.14673000  1.0 0.1508232853
C  C22  1  0.44040000  0.29367000  0.52287000  1.0 0.1508232853
C  C23  1  0.29367000  0.77080000  0.85327000  1.0 0.1508232853
C  C24  1  0.77080000  0.91753000  0.47713000  1.0 0.1508232853
C  C25  1  0.10913000  0.55496000  0.90051000  1.0 -0.1612952665
C  C26  1  0.55496000  0.65445000  0.44583000  1.0 -0.1612952665
C  C27  1  0.65445000  0.20862000  0.09949000  1.0 -0.1612952665
C  C28  1  0.20862000  0.10913000  0.55417000  1.0 -0.1612952665
C  C29  1  0.89087000  0.44504000  0.09949000  1.0 -0.1612952665
C  C30  1  0.44504000  0.34555000  0.55417000  1.0 -0.1612952665
C  C31  1  0.34555000  0.79138000  0.90051000  1.0 -0.1612952665
C  C32  1  0.79138000  0.89087000  0.44583000  1.0 -0.1612952665
C  C33  1  0.15848000  0.55121000  0.91969000  1.0 0.0013174104
C  C34  1  0.55121000  0.63152000  0.39273000  1.0 0.0013174104
C  C35  1  0.63152000  0.23879000  0.08031000  1.0 0.0013174104
C  C36  1  0.23879000  0.15848000  0.60727000  1.0 0.0013174104
C  C37  1  0.84152000  0.44879000  0.08031000  1.0 0.0013174104
C  C38  1  0.44879000  0.36848000  0.60727000  1.0 0.0013174104
C  C39  1  0.36848000  0.76121000  0.91969000  1.0 0.0013174104
C  C40  1  0.76121000  0.84152000  0.39273000  1.0 0.0013174104
C  C41  1  0.18032000  0.55229000  0.89167000  1.0 -0.0932048045
C  C42  1  0.55229000  0.66062000  0.37197000  1.0 -0.0932048045
C  C43  1  0.66062000  0.28865000  0.10833000  1.0 -0.0932048045
C  C44  1  0.28865000  0.18032000  0.62803000  1.0 -0.0932048045
C  C45  1  0.81968000  0.44771000  0.10833000  1.0 -0.0932048045
C  C46  1  0.44771000  0.33938000  0.62803000  1.0 -0.0932048045
C  C47  1  0.33938000  0.71135000  0.89167000  1.0 -0.0932048045
C  C48  1  0.71135000  0.81968000  0.37197000  1.0 -0.0932048045
C  C49  1  0.15276000  0.55647000  0.84387000  1.0 0.0073900426
C  C50  1  0.55647000  0.71260000  0.40371000  1.0 0.0073900426
C  C51  1  0.71260000  0.30889000  0.15613000  1.0 0.0073900426
C  C52  1  0.30889000  0.15276000  0.59629000  1.0 0.0073900426
C  C53  1  0.84724000  0.44353000  0.15613000  1.0 0.0073900426
C  C54  1  0.44353000  0.28740000  0.59629000  1.0 0.0073900426
C  C55  1  0.28740000  0.69111000  0.84387000  1.0 0.0073900426
C  C56  1  0.69111000  0.84724000  0.40371000  1.0 0.0073900426
C  C57  1  0.10356000  0.56086000  0.82510000  1.0 -0.1816890504
C  C58  1  0.56086000  0.73576000  0.45730000  1.0 -0.1816890504
C  C59  1  0.73576000  0.27846000  0.17490000  1.0 -0.1816890504
C  C60  1  0.27846000  0.10356000  0.54270000  1.0 -0.1816890504
C  C61  1  0.89644000  0.43914000  0.17490000  1.0 -0.1816890504
C  C62  1  0.43914000  0.26424000  0.54270000  1.0 -0.1816890504
C  C63  1  0.26424000  0.72154000  0.82510000  1.0 -0.1816890504
C  C64  1  0.72154000  0.89644000  0.45730000  1.0 -0.1816890504
C  C65  1  0.18610000  0.54330000  0.96852000  1.0 0.5792216098
C  C66  1  0.54330000  0.57478000  0.35720000  1.0 0.5792216098
C  C67  1  0.57478000  0.21758000  0.03148000  1.0 0.5792216098
C  C68  1  0.21758000  0.18610000  0.64280000  1.0 0.5792216098
C  C69  1  0.81390000  0.45670000  0.03148000  1.0 0.5792216098
C  C70  1  0.45670000  0.42522000  0.64280000  1.0 0.5792216098
C  C71  1  0.42522000  0.78242000  0.96852000  1.0 0.5792216098
C  C72  1  0.78242000  0.81390000  0.35720000  1.0 0.5792216098
C  C73  1  0.17493000  0.55398000  0.81059000  1.0 0.5792216098
C  C74  1  0.55398000  0.74339000  0.37905000  1.0 0.5792216098
C  C75  1  0.74339000  0.36434000  0.18941000  1.0 0.5792216098
C  C76  1  0.36434000  0.17493000  0.62095000  1.0 0.5792216098
C  C77  1  0.82507000  0.44602000  0.18941000  1.0 0.5792216098
C  C78  1  0.44602000  0.25661000  0.62095000  1.0 0.5792216098
C  C79  1  0.25661000  0.63566000  0.81059000  1.0 0.5792216098
C  C80  1  0.63566000  0.82507000  0.37905000  1.0 0.5792216098
C  C81  1  0.82125000  0.52015000  0.58264000  1.0 0.0803309337
C  C82  1  0.52015000  0.93751000  0.69890000  1.0 0.0803309337
C  C83  1  0.93751000  0.23861000  0.41736000  1.0 0.0803309337
C  C84  1  0.23861000  0.82125000  0.30110000  1.0 0.0803309337
C  C85  1  0.17875000  0.47985000  0.41736000  1.0 0.0803309337
C  C86  1  0.47985000  0.06249000  0.30110000  1.0 0.0803309337
C  C87  1  0.06249000  0.76139000  0.58264000  1.0 0.0803309337
C  C88  1  0.76139000  0.17875000  0.69890000  1.0 0.0803309337
C  C89  1  0.77768000  0.51284000  0.53624000  1.0 -0.1710036043
C  C90  1  0.51284000  0.97660000  0.73516000  1.0 -0.1710036043
C  C91  1  0.97660000  0.24144000  0.46376000  1.0 -0.1710036043
C  C92  1  0.24144000  0.77768000  0.26484000  1.0 -0.1710036043
C  C93  1  0.22232000  0.48716000  0.46376000  1.0 -0.1710036043
C  C94  1  0.48716000  0.02340000  0.26484000  1.0 -0.1710036043
C  C95  1  0.02340000  0.75856000  0.53624000  1.0 -0.1710036043
C  C96  1  0.75856000  0.22232000  0.73516000  1.0 -0.1710036043
C  C97  1  0.75257000  0.49693000  0.43906000  1.0 0.1411173015
C  C98  1  0.49693000  0.05787000  0.74436000  1.0 0.1411173015
C  C99  1  0.05787000  0.31351000  0.56094000  1.0 0.1411173015
C  C100  1  0.31351000  0.75257000  0.25564000  1.0 0.1411173015
C  C101  1  0.24743000  0.50307000  0.56094000  1.0 0.1411173015
C  C102  1  0.50307000  0.94213000  0.25564000  1.0 0.1411173015
C  C103  1  0.94213000  0.68649000  0.43906000  1.0 0.1411173015
C  C104  1  0.68649000  0.24743000  0.74436000  1.0 0.1411173015
C  C105  1  0.77282000  0.49046000  0.40674000  1.0 -0.1612952665
C  C106  1  0.49046000  0.08372000  0.71764000  1.0 -0.1612952665
C  C107  1  0.08372000  0.36608000  0.59326000  1.0 -0.1612952665
C  C108  1  0.36608000  0.77282000  0.28236000  1.0 -0.1612952665
C  C109  1  0.22718000  0.50954000  0.59326000  1.0 -0.1612952665
C  C110  1  0.50954000  0.91628000  0.28236000  1.0 -0.1612952665
C  C111  1  0.91628000  0.63392000  0.40674000  1.0 -0.1612952665
C  C112  1  0.63392000  0.22718000  0.71764000  1.0 -0.1612952665
C  C113  1  0.74093000  0.48359000  0.35222000  1.0 0.0013174104
C  C114  1  0.48359000  0.13137000  0.74266000  1.0 0.0013174104
C  C115  1  0.13137000  0.38871000  0.64778000  1.0 0.0013174104
C  C116  1  0.38871000  0.74093000  0.25734000  1.0 0.0013174104
C  C117  1  0.25907000  0.51641000  0.64778000  1.0 0.0013174104
C  C118  1  0.51641000  0.86863000  0.25734000  1.0 0.0013174104
C  C119  1  0.86863000  0.61129000  0.35222000  1.0 0.0013174104
C  C120  1  0.61129000  0.25907000  0.74266000  1.0 0.0013174104
C  C121  1  0.69050000  0.48362000  0.33054000  1.0 -0.0932048045
C  C122  1  0.48362000  0.15308000  0.79312000  1.0 -0.0932048045
C  C123  1  0.15308000  0.35996000  0.66946000  1.0 -0.0932048045
C  C124  1  0.35996000  0.69050000  0.20688000  1.0 -0.0932048045
C  C125  1  0.30950000  0.51638000  0.66946000  1.0 -0.0932048045
C  C126  1  0.51638000  0.84692000  0.20688000  1.0 -0.0932048045
C  C127  1  0.84692000  0.64004000  0.33054000  1.0 -0.0932048045
C  C128  1  0.64004000  0.30950000  0.79312000  1.0 -0.0932048045
C  C129  1  0.67098000  0.48857000  0.36313000  1.0 0.0073900426
C  C130  1  0.48857000  0.12544000  0.81759000  1.0 0.0073900426
C  C131  1  0.12544000  0.30785000  0.63687000  1.0 0.0073900426
C  C132  1  0.30785000  0.67098000  0.18241000  1.0 0.0073900426
C  C133  1  0.32902000  0.51143000  0.63687000  1.0 0.0073900426
C  C134  1  0.51143000  0.87456000  0.18241000  1.0 0.0073900426
C  C135  1  0.87456000  0.69215000  0.36313000  1.0 0.0073900426
C  C136  1  0.69215000  0.32902000  0.81759000  1.0 0.0073900426
C  C137  1  0.70224000  0.49599000  0.41783000  1.0 -0.1896080989
C  C138  1  0.49599000  0.07816000  0.79375000  1.0 -0.1896080989
C  C139  1  0.07816000  0.28441000  0.58217000  1.0 -0.1896080989
C  C140  1  0.28441000  0.70224000  0.20625000  1.0 -0.1896080989
C  C141  1  0.29776000  0.50401000  0.58217000  1.0 -0.1896080989
C  C142  1  0.50401000  0.92184000  0.20625000  1.0 -0.1896080989
C  C143  1  0.92184000  0.71559000  0.41783000  1.0 -0.1896080989
C  C144  1  0.71559000  0.29776000  0.79375000  1.0 -0.1896080989
C  C145  1  0.76131000  0.47477000  0.31540000  1.0 0.5856459295
C  C146  1  0.47477000  0.15937000  0.71346000  1.0 0.5856459295
C  C147  1  0.15937000  0.44591000  0.68460000  1.0 0.5856459295
C  C148  1  0.44591000  0.76131000  0.28654000  1.0 0.5856459295
C  C149  1  0.23869000  0.52523000  0.68460000  1.0 0.5856459295
C  C150  1  0.52523000  0.84063000  0.28654000  1.0 0.5856459295
C  C151  1  0.84063000  0.55409000  0.31540000  1.0 0.5856459295
C  C152  1  0.55409000  0.23869000  0.71346000  1.0 0.5856459295
C  C153  1  0.61539000  0.48583000  0.33786000  1.0 0.5792216098
C  C154  1  0.48583000  0.14797000  0.87044000  1.0 0.5792216098
C  C155  1  0.14797000  0.27753000  0.66214000  1.0 0.5792216098
C  C156  1  0.27753000  0.61539000  0.12956000  1.0 0.5792216098
C  C157  1  0.38461000  0.51417000  0.66214000  1.0 0.5792216098
C  C158  1  0.51417000  0.85203000  0.12956000  1.0 0.5792216098
C  C159  1  0.85203000  0.72247000  0.33786000  1.0 0.5792216098
C  C160  1  0.72247000  0.38461000  0.87044000  1.0 0.5792216098
C  C161  1  0.76781000  0.53323000  0.71024000  1.0 0.0868830425
C  C162  1  0.53323000  0.82299000  0.76542000  1.0 0.0803309337
C  C163  1  0.82299000  0.05757000  0.28976000  1.0 0.0868830425
C  C164  1  0.05757000  0.76781000  0.23458000  1.0 0.0803309337
C  C165  1  0.23219000  0.46677000  0.28976000  1.0 0.0868830425
C  C166  1  0.46677000  0.17701000  0.23458000  1.0 0.0803309337
C  C167  1  0.17701000  0.94243000  0.71024000  1.0 0.0868830425
C  C168  1  0.94243000  0.23219000  0.76542000  1.0 0.0803309337
C  C169  1  0.76684000  0.53145000  0.75101000  1.0 -0.1710036043
C  C170  1  0.53145000  0.78044000  0.76461000  1.0 -0.1710036043
C  C171  1  0.78044000  0.01583000  0.24899000  1.0 -0.1710036043
C  C172  1  0.01583000  0.76684000  0.23539000  1.0 -0.1710036043
C  C173  1  0.23316000  0.46855000  0.24899000  1.0 -0.1710036043
C  C174  1  0.46855000  0.21956000  0.23539000  1.0 -0.1816890504
C  C175  1  0.21956000  0.98417000  0.75101000  1.0 -0.1710036043
C  C176  1  0.98417000  0.23316000  0.76461000  1.0 -0.1710036043
C  C177  1  0.69769000  0.52629000  0.76714000  1.0 0.1309841178
C  C178  1  0.52629000  0.75915000  0.82860000  1.0 0.1309841178
C  C179  1  0.75915000  0.93055000  0.23286000  1.0 0.1309841178
C  C180  1  0.93055000  0.69769000  0.17140000  1.0 0.1309841178
C  C181  1  0.30231000  0.47371000  0.23286000  1.0 0.1309841178
C  C182  1  0.47371000  0.24085000  0.17140000  1.0 0.1309841178
C  C183  1  0.24085000  0.06945000  0.76714000  1.0 0.1309841178
C  C184  1  0.06945000  0.30231000  0.82860000  1.0 0.1309841178
C  C185  1  0.64892000  0.53053000  0.74817000  1.0 -0.1612952665
C  C186  1  0.53053000  0.78236000  0.88161000  1.0 -0.1612952665
C  C187  1  0.78236000  0.90075000  0.25183000  1.0 -0.1710036043
C  C188  1  0.90075000  0.64892000  0.11839000  1.0 -0.1710036043
C  C189  1  0.35108000  0.46947000  0.25183000  1.0 -0.1612952665
C  C190  1  0.46947000  0.21764000  0.11839000  1.0 -0.1710036043
C  C191  1  0.21764000  0.09925000  0.74817000  1.0 -0.1612952665
C  C192  1  0.09925000  0.35108000  0.88161000  1.0 -0.1612952665
C  C193  1  0.62655000  0.52624000  0.77427000  1.0 0.0073900426
C  C194  1  0.52624000  0.75197000  0.89969000  1.0 0.0073900426
C  C195  1  0.75197000  0.85228000  0.22573000  1.0 0.0073900426
C  C196  1  0.85228000  0.62655000  0.10031000  1.0 0.0073900426
C  C197  1  0.37345000  0.47376000  0.22573000  1.0 0.0073900426
C  C198  1  0.47376000  0.24803000  0.10031000  1.0 0.0073900426
C  C199  1  0.24803000  0.14772000  0.77427000  1.0 0.0073900426
C  C200  1  0.14772000  0.37345000  0.89969000  1.0 0.0073900426
C  C201  1  0.65277000  0.51832000  0.81895000  1.0 -0.0932048045
C  C202  1  0.51832000  0.69937000  0.86555000  1.0 -0.0932048045
C  C203  1  0.69937000  0.83382000  0.18105000  1.0 -0.0932048045
C  C204  1  0.83382000  0.65277000  0.13445000  1.0 -0.0932048045
C  C205  1  0.34723000  0.48168000  0.18105000  1.0 -0.0932048045
C  C206  1  0.48168000  0.30063000  0.13445000  1.0 -0.0932048045
C  C207  1  0.30063000  0.16618000  0.81895000  1.0 -0.0932048045
C  C208  1  0.16618000  0.34723000  0.86555000  1.0 -0.0932048045
C  C209  1  0.70147000  0.51367000  0.83690000  1.0 0.0073900426
C  C210  1  0.51367000  0.67677000  0.81220000  1.0 0.0073900426
C  C211  1  0.67677000  0.86457000  0.16310000  1.0 0.0073900426
C  C212  1  0.86457000  0.70147000  0.18780000  1.0 0.0073900426
C  C213  1  0.29853000  0.48633000  0.16310000  1.0 0.0073900426
C  C214  1  0.48633000  0.32323000  0.18780000  1.0 0.0073900426
C  C215  1  0.32323000  0.13543000  0.83690000  1.0 0.0073900426
C  C216  1  0.13543000  0.29853000  0.81220000  1.0 0.0073900426
C  C217  1  0.72454000  0.51757000  0.81095000  1.0 -0.1896080989
C  C218  1  0.51757000  0.70662000  0.79303000  1.0 -0.1896080989
C  C219  1  0.70662000  0.91359000  0.18905000  1.0 -0.1896080989
C  C220  1  0.91359000  0.72454000  0.20697000  1.0 -0.1896080989
C  C221  1  0.27546000  0.48243000  0.18905000  1.0 -0.1896080989
C  C222  1  0.48243000  0.29338000  0.20697000  1.0 -0.1896080989
C  C223  1  0.29338000  0.08641000  0.81095000  1.0 -0.1896080989
C  C224  1  0.08641000  0.27546000  0.79303000  1.0 -0.1896080989
C  C225  1  0.57212000  0.52762000  0.75164000  1.0 0.5792216098
C  C226  1  0.52762000  0.77598000  0.95550000  1.0 0.5792216098
C  C227  1  0.77598000  0.82048000  0.24836000  1.0 0.5792216098
C  C228  1  0.82048000  0.57212000  0.04450000  1.0 0.5792216098
C  C229  1  0.42788000  0.47238000  0.24836000  1.0 0.5792216098
C  C230  1  0.47238000  0.22402000  0.04450000  1.0 0.5792216098
C  C231  1  0.22402000  0.17952000  0.75164000  1.0 0.5792216098
C  C232  1  0.17952000  0.42788000  0.95550000  1.0 0.5792216098
C  C233  1  0.72887000  0.50243000  0.88326000  1.0 0.5792216098
C  C234  1  0.50243000  0.61917000  0.77356000  1.0 0.5792216098
C  C235  1  0.61917000  0.84561000  0.11674000  1.0 0.5792216098
C  C236  1  0.84561000  0.72887000  0.22644000  1.0 0.5792216098
C  C237  1  0.27113000  0.49757000  0.11674000  1.0 0.5792216098
C  C238  1  0.49757000  0.38083000  0.22644000  1.0 0.5792216098
C  C239  1  0.38083000  0.15439000  0.88326000  1.0 0.5792216098
C  C240  1  0.15439000  0.27113000  0.77356000  1.0 0.5792216098
C  C241  1  0.89803000  0.54623000  0.73562000  1.0 -0.1221457258
C  C242  1  0.54623000  0.81061000  0.64820000  1.0 -0.1221457258
C  C243  1  0.81061000  0.16241000  0.26438000  1.0 -0.1221457258
C  C244  1  0.16241000  0.89803000  0.35180000  1.0 -0.1221457258
C  C245  1  0.10197000  0.45377000  0.26438000  1.0 -0.1221457258
C  C246  1  0.45377000  0.18939000  0.35180000  1.0 -0.1221457258
C  C247  1  0.18939000  0.83759000  0.73562000  1.0 -0.1221457258
C  C248  1  0.83759000  0.10197000  0.64820000  1.0 -0.1221457258
C  C249  1  0.88513000  0.53840000  0.68265000  1.0 0.0520551764
C  C250  1  0.53840000  0.85575000  0.65327000  1.0 0.0520551764
C  C251  1  0.85575000  0.20248000  0.31735000  1.0 0.0520551764
C  C252  1  0.20248000  0.88513000  0.34673000  1.0 0.0520551764
C  C253  1  0.11487000  0.46160000  0.31735000  1.0 0.0520551764
C  C254  1  0.46160000  0.14425000  0.34673000  1.0 0.0520551764
C  C255  1  0.14425000  0.79752000  0.68265000  1.0 0.0520551764
C  C256  1  0.79752000  0.11487000  0.65327000  1.0 0.0520551764
C  C257  1  0.83491000  0.52902000  0.63905000  1.0 -0.1221457258
C  C258  1  0.52902000  0.88997000  0.69411000  1.0 -0.1221457258
C  C259  1  0.88997000  0.19586000  0.36095000  1.0 -0.1221457258
C  C260  1  0.19586000  0.83491000  0.30589000  1.0 -0.1221457258
C  C261  1  0.16509000  0.47098000  0.36095000  1.0 -0.1221457258
C  C262  1  0.47098000  0.11003000  0.30589000  1.0 -0.1221457258
C  C263  1  0.11003000  0.80414000  0.63905000  1.0 -0.1221457258
C  C264  1  0.80414000  0.16509000  0.69411000  1.0 -0.1221457258
C  C265  1  0.79679000  0.52806000  0.64853000  1.0 0.056327812
C  C266  1  0.52806000  0.87953000  0.73127000  1.0 0.056327812
C  C267  1  0.87953000  0.14826000  0.35147000  1.0 0.056327812
C  C268  1  0.14826000  0.79679000  0.26873000  1.0 0.056327812
C  C269  1  0.20321000  0.47194000  0.35147000  1.0 0.056327812
C  C270  1  0.47194000  0.12047000  0.26873000  1.0 0.056327812
C  C271  1  0.12047000  0.85174000  0.64853000  1.0 0.056327812
C  C272  1  0.85174000  0.20321000  0.73127000  1.0 0.056327812
C  C273  1  0.80849000  0.53512000  0.70085000  1.0 -0.1097419122
C  C274  1  0.53512000  0.83427000  0.72663000  1.0 -0.1097419122
C  C275  1  0.83427000  0.10764000  0.29915000  1.0 -0.1097419122
C  C276  1  0.10764000  0.80849000  0.27337000  1.0 -0.1097419122
C  C277  1  0.19151000  0.46488000  0.29915000  1.0 -0.1097419122
C  C278  1  0.46488000  0.16573000  0.27337000  1.0 -0.1097419122
C  C279  1  0.16573000  0.89236000  0.70085000  1.0 -0.1097419122
C  C280  1  0.89236000  0.19151000  0.72663000  1.0 -0.1097419122
C  C281  1  0.85879000  0.54433000  0.74390000  1.0 0.0520551764
C  C282  1  0.54433000  0.80043000  0.68554000  1.0 0.0520551764
C  C283  1  0.80043000  0.11489000  0.25610000  1.0 0.0520551764
C  C284  1  0.11489000  0.85879000  0.31446000  1.0 0.0520551764
C  C285  1  0.14121000  0.45567000  0.25610000  1.0 0.0520551764
C  C286  1  0.45567000  0.19957000  0.31446000  1.0 0.0520551764
C  C287  1  0.19957000  0.88511000  0.74390000  1.0 0.0520551764
C  C288  1  0.88511000  0.14121000  0.68554000  1.0 0.0520551764
N  N1  1  0.03177000  0.55882000  0.83053000  1.0 0.1411173015
N  N2  1  0.55882000  0.72829000  0.52705000  1.0 0.1411173015
N  N3  1  0.72829000  0.20124000  0.16947000  1.0 0.1411173015
N  N4  1  0.20124000  0.03177000  0.47295000  1.0 0.1411173015
N  N5  1  0.96823000  0.44118000  0.16947000  1.0 0.1411173015
N  N6  1  0.44118000  0.27171000  0.47295000  1.0 0.1411173015
N  N7  1  0.27171000  0.79876000  0.83053000  1.0 0.1411173015
N  N8  1  0.79876000  0.96823000  0.52705000  1.0 0.1411173015
N  N9  1  0.01542000  0.57500000  0.86906000  1.0 -0.1710036043
N  N10  1  0.57500000  0.70594000  0.55958000  1.0 -0.1816890504
N  N11  1  0.70594000  0.14636000  0.13094000  1.0 -0.1816890504
N  N12  1  0.14636000  0.01542000  0.44042000  1.0 -0.1816890504
N  N13  1  0.98458000  0.42500000  0.13094000  1.0 -0.1816890504
N  N14  1  0.42500000  0.29406000  0.44042000  1.0 -0.1816890504
N  N15  1  0.29406000  0.85364000  0.86906000  1.0 -0.1816890504
N  N16  1  0.85364000  0.98458000  0.55958000  1.0 -0.1816890504
N  N17  1  0.96250000  0.57100000  0.83600000  1.0 -0.2311386181
N  N18  1  0.57100000  0.73500000  0.60850000  1.0 -0.2311386181
N  N19  1  0.73500000  0.12650000  0.16400000  1.0 -0.2311386181
N  N20  1  0.12650000  0.96250000  0.39150000  1.0 -0.2311386181
N  N21  1  0.03750000  0.42900000  0.16400000  1.0 -0.2311386181
N  N22  1  0.42900000  0.26500000  0.39150000  1.0 -0.2311386181
N  N23  1  0.26500000  0.87350000  0.83600000  1.0 -0.2311386181
N  N24  1  0.87350000  0.03750000  0.60850000  1.0 -0.2311386181
N  N25  1  0.78640000  0.50676000  0.49692000  1.0 0.1508232853
N  N26  1  0.50676000  0.00984000  0.72036000  1.0 0.1411173015
N  N27  1  0.00984000  0.28948000  0.50308000  1.0 0.1411173015
N  N28  1  0.28948000  0.78640000  0.27964000  1.0 0.1508232853
N  N29  1  0.21360000  0.49324000  0.50308000  1.0 0.1411173015
N  N30  1  0.49324000  0.99016000  0.27964000  1.0 0.1411173015
N  N31  1  0.99016000  0.71052000  0.49692000  1.0 0.1411173015
N  N32  1  0.71052000  0.21360000  0.72036000  1.0 0.1411173015
N  N33  1  0.83679000  0.51671000  0.52248000  1.0 -0.1221457258
N  N34  1  0.51671000  0.99423000  0.67992000  1.0 -0.1221457258
N  N35  1  0.99423000  0.31431000  0.47752000  1.0 -0.1221457258
N  N36  1  0.31431000  0.83679000  0.32008000  1.0 -0.1221457258
N  N37  1  0.16321000  0.48329000  0.47752000  1.0 -0.1221457258
N  N38  1  0.48329000  0.00577000  0.32008000  1.0 -0.1221457258
N  N39  1  0.00577000  0.68569000  0.52248000  1.0 -0.1221457258
N  N40  1  0.68569000  0.16321000  0.67992000  1.0 -0.1221457258
N  N41  1  0.85726000  0.52255000  0.57331000  1.0 -0.1710036043
N  N42  1  0.52255000  0.94924000  0.66529000  1.0 -0.1710036043
N  N43  1  0.94924000  0.28395000  0.42669000  1.0 -0.1710036043
N  N44  1  0.28395000  0.85726000  0.33471000  1.0 -0.1710036043
N  N45  1  0.14274000  0.47745000  0.42669000  1.0 -0.1710036043
N  N46  1  0.47745000  0.05076000  0.33471000  1.0 -0.1710036043
N  N47  1  0.05076000  0.71605000  0.57331000  1.0 -0.1710036043
N  N48  1  0.71605000  0.14274000  0.66529000  1.0 -0.1710036043
N  N49  1  0.72020000  0.52949000  0.73871000  1.0 0.1508232853
N  N50  1  0.52949000  0.79078000  0.80929000  1.0 0.1508232853
N  N51  1  0.79078000  0.98149000  0.26129000  1.0 0.1508232853
N  N52  1  0.98149000  0.72020000  0.19071000  1.0 0.1508232853
N  N53  1  0.27980000  0.47051000  0.26129000  1.0 0.1561719304
N  N54  1  0.47051000  0.20922000  0.19071000  1.0 0.1561719304
N  N55  1  0.20922000  0.01851000  0.73871000  1.0 0.1508232853
N  N56  1  0.01851000  0.27980000  0.80929000  1.0 0.1508232853
N  N57  1  0.69154000  0.52840000  0.69034000  1.0 -0.1097419122
N  N58  1  0.52840000  0.83806000  0.83686000  1.0 -0.1097419122
N  N59  1  0.83806000  0.00120000  0.30966000  1.0 -0.1097419122
N  N60  1  0.00120000  0.69154000  0.16314000  1.0 -0.1097419122
N  N61  1  0.30846000  0.47160000  0.30966000  1.0 -0.1097419122
N  N62  1  0.47160000  0.16194000  0.16314000  1.0 -0.1097419122
N  N63  1  0.16194000  0.99880000  0.69034000  1.0 -0.1097419122
N  N64  1  0.99880000  0.30846000  0.83686000  1.0 -0.1097419122
N  N65  1  0.72140000  0.53246000  0.67394000  1.0 -0.1816890504
N  N66  1  0.53246000  0.85852000  0.81106000  1.0 -0.1816890504
N  N67  1  0.85852000  0.04746000  0.32606000  1.0 -0.1816890504
N  N68  1  0.04746000  0.72140000  0.18894000  1.0 -0.1816890504
N  N69  1  0.27860000  0.46754000  0.32606000  1.0 -0.1896080989
N  N70  1  0.46754000  0.14148000  0.18894000  1.0 -0.1896080989
N  N71  1  0.14148000  0.95254000  0.67394000  1.0 -0.1816890504
N  N72  1  0.95254000  0.27860000  0.81106000  1.0 -0.1896080989
N  N73  1  0.91640000  0.52610000  0.66210000  1.0 -0.4216374079
N  N74  1  0.52610000  0.86400000  0.60970000  1.0 -0.4216374079
N  N75  1  0.86400000  0.25430000  0.33790000  1.0 -0.4216374079
N  N76  1  0.25430000  0.91640000  0.39030000  1.0 -0.4216374079
N  N77  1  0.08360000  0.47390000  0.33790000  1.0 -0.4216374079
N  N78  1  0.47390000  0.13600000  0.39030000  1.0 -0.4216374079
N  N79  1  0.13600000  0.74570000  0.66210000  1.0 -0.4216374079
N  N80  1  0.74570000  0.08360000  0.60970000  1.0 -0.4216374079
N  N81  1  0.74500000  0.51930000  0.60750000  1.0 -0.4216374079
N  N82  1  0.51930000  0.91180000  0.77430000  1.0 -0.4216374079
N  N83  1  0.91180000  0.13750000  0.39250000  1.0 -0.4216374079
N  N84  1  0.13750000  0.74500000  0.22570000  1.0 -0.4216374079
N  N85  1  0.25500000  0.48070000  0.39250000  1.0 -0.4216374079
N  N86  1  0.48070000  0.08820000  0.22570000  1.0 -0.4216374079
N  N87  1  0.08820000  0.86250000  0.60750000  1.0 -0.4216374079
N  N88  1  0.86250000  0.25500000  0.77430000  1.0 -0.4216374079
N  N89  1  0.87490000  0.56440000  0.80430000  1.0 -0.4398909392
N  N90  1  0.56440000  0.76010000  0.68950000  1.0 -0.4398909392
N  N91  1  0.76010000  0.07060000  0.19570000  1.0 -0.4398909392
N  N92  1  0.07060000  0.87490000  0.31050000  1.0 -0.4398909392
N  N93  1  0.12510000  0.43560000  0.19570000  1.0 -0.4398909392
N  N94  1  0.43560000  0.23990000  0.31050000  1.0 -0.4398909392
N  N95  1  0.23990000  0.92940000  0.80430000  1.0 -0.4398909392
N  N96  1  0.92940000  0.12510000  0.68950000  1.0 -0.4398909392
O  O1  1  0.16327000  0.54068000  0.99033000  1.0 -0.5185062334
O  O2  1  0.54068000  0.55035000  0.37741000  1.0 -0.5185062334
O  O3  1  0.55035000  0.17294000  0.00967000  1.0 -0.5185062334
O  O4  1  0.17294000  0.16327000  0.62259000  1.0 -0.5185062334
O  O5  1  0.83673000  0.45932000  0.00967000  1.0 -0.5185062334
O  O6  1  0.45932000  0.44965000  0.62259000  1.0 -0.5185062334
O  O7  1  0.44965000  0.82706000  0.99033000  1.0 -0.5185062334
O  O8  1  0.82706000  0.83673000  0.37741000  1.0 -0.5185062334
O  O9  1  0.22998000  0.53862000  0.98280000  1.0 -0.5185062334
O  O10  1  0.53862000  0.55582000  0.30864000  1.0 -0.5185062334
O  O11  1  0.55582000  0.24718000  0.01720000  1.0 -0.5185062334
O  O12  1  0.24718000  0.22998000  0.69136000  1.0 -0.5185062334
O  O13  1  0.77002000  0.46138000  0.01720000  1.0 -0.5185062334
O  O14  1  0.46138000  0.44418000  0.69136000  1.0 -0.5185062334
O  O15  1  0.44418000  0.75282000  0.98280000  1.0 -0.5185062334
O  O16  1  0.75282000  0.77002000  0.30864000  1.0 -0.5185062334
O  O17  1  0.21850000  0.54803000  0.82845000  1.0 -0.5106368385
O  O18  1  0.54803000  0.71958000  0.32953000  1.0 -0.5106368385
O  O19  1  0.71958000  0.39005000  0.17155000  1.0 -0.5106368385
O  O20  1  0.39005000  0.21850000  0.67047000  1.0 -0.5106368385
O  O21  1  0.78150000  0.45197000  0.17155000  1.0 -0.5106368385
O  O22  1  0.45197000  0.28042000  0.67047000  1.0 -0.5106368385
O  O23  1  0.28042000  0.60995000  0.82845000  1.0 -0.5106368385
O  O24  1  0.60995000  0.78150000  0.32953000  1.0 -0.5106368385
O  O25  1  0.14778000  0.55697000  0.76717000  1.0 -0.5300784553
O  O26  1  0.55697000  0.78980000  0.40919000  1.0 -0.5300784553
O  O27  1  0.78980000  0.38061000  0.23283000  1.0 -0.5300784553
O  O28  1  0.38061000  0.14778000  0.59081000  1.0 -0.5300784553
O  O29  1  0.85222000  0.44303000  0.23283000  1.0 -0.5300784553
O  O30  1  0.44303000  0.21020000  0.59081000  1.0 -0.5300784553
O  O31  1  0.21020000  0.61939000  0.76717000  1.0 -0.5300784553
O  O32  1  0.61939000  0.85222000  0.40919000  1.0 -0.5300784553
O  O33  1  0.80391000  0.46752000  0.33261000  1.0 -0.5106368385
O  O34  1  0.46752000  0.13491000  0.66361000  1.0 -0.5106368385
O  O35  1  0.13491000  0.47130000  0.66739000  1.0 -0.5106368385
O  O36  1  0.47130000  0.80391000  0.33639000  1.0 -0.5106368385
O  O37  1  0.19609000  0.53248000  0.66739000  1.0 -0.5106368385
O  O38  1  0.53248000  0.86509000  0.33639000  1.0 -0.5106368385
O  O39  1  0.86509000  0.52870000  0.33261000  1.0 -0.5106368385
O  O40  1  0.52870000  0.19609000  0.66361000  1.0 -0.5106368385
O  O41  1  0.73318000  0.47617000  0.27087000  1.0 -0.5185062334
O  O42  1  0.47617000  0.20530000  0.74299000  1.0 -0.5185062334
O  O43  1  0.20530000  0.46231000  0.72913000  1.0 -0.5185062334
O  O44  1  0.46231000  0.73318000  0.25701000  1.0 -0.5185062334
O  O45  1  0.26682000  0.52383000  0.72913000  1.0 -0.5185062334
O  O46  1  0.52383000  0.79470000  0.25701000  1.0 -0.5185062334
O  O47  1  0.79470000  0.53769000  0.27087000  1.0 -0.5185062334
O  O48  1  0.53769000  0.26682000  0.74299000  1.0 -0.5185062334
O  O49  1  0.59096000  0.48507000  0.29143000  1.0 -0.5106368385
O  O50  1  0.48507000  0.19364000  0.89411000  1.0 -0.5106368385
O  O51  1  0.19364000  0.29953000  0.70857000  1.0 -0.5106368385
O  O52  1  0.29953000  0.59096000  0.10589000  1.0 -0.5106368385
O  O53  1  0.40904000  0.51493000  0.70857000  1.0 -0.5106368385
O  O54  1  0.51493000  0.80636000  0.10589000  1.0 -0.5106368385
O  O55  1  0.80636000  0.70047000  0.29143000  1.0 -0.5106368385
O  O56  1  0.70047000  0.40904000  0.89411000  1.0 -0.5106368385
O  O57  1  0.59717000  0.48347000  0.36422000  1.0 -0.5185062334
O  O58  1  0.48347000  0.11925000  0.88630000  1.0 -0.5185062334
O  O59  1  0.11925000  0.23295000  0.63578000  1.0 -0.5185062334
O  O60  1  0.23295000  0.59717000  0.11370000  1.0 -0.5185062334
O  O61  1  0.40283000  0.51653000  0.63578000  1.0 -0.5185062334
O  O62  1  0.51653000  0.88075000  0.11370000  1.0 -0.5185062334
O  O63  1  0.88075000  0.76705000  0.36422000  1.0 -0.5185062334
O  O64  1  0.76705000  0.40283000  0.88630000  1.0 -0.5185062334
O  O65  1  0.54963000  0.53217000  0.70910000  1.0 -0.5185062334
O  O66  1  0.53217000  0.82307000  0.98254000  1.0 -0.5185062334
O  O67  1  0.82307000  0.84053000  0.29090000  1.0 -0.5185062334
O  O68  1  0.84053000  0.54963000  0.01746000  1.0 -0.5185062334
O  O69  1  0.45037000  0.46783000  0.29090000  1.0 -0.5185062334
O  O70  1  0.46783000  0.17693000  0.01746000  1.0 -0.5185062334
O  O71  1  0.17693000  0.15947000  0.70910000  1.0 -0.5185062334
O  O72  1  0.15947000  0.45037000  0.98254000  1.0 -0.5185062334
O  O73  1  0.55382000  0.52362000  0.77704000  1.0 -0.5185062334
O  O74  1  0.52362000  0.74658000  0.96980000  1.0 -0.5185062334
O  O75  1  0.74658000  0.77678000  0.22296000  1.0 -0.5106368385
O  O76  1  0.77678000  0.55382000  0.03020000  1.0 -0.5185062334
O  O77  1  0.44618000  0.47638000  0.22296000  1.0 -0.5185062334
O  O78  1  0.47638000  0.25342000  0.03020000  1.0 -0.5185062334
O  O79  1  0.25342000  0.22322000  0.77704000  1.0 -0.5185062334
O  O80  1  0.22322000  0.44618000  0.96980000  1.0 -0.5185062334
O  O81  1  0.70729000  0.50196000  0.90723000  1.0 -0.502806365
O  O82  1  0.50196000  0.59473000  0.79467000  1.0 -0.502806365
O  O83  1  0.59473000  0.80006000  0.09277000  1.0 -0.502806365
O  O84  1  0.80006000  0.70729000  0.20533000  1.0 -0.502806365
O  O85  1  0.29271000  0.49804000  0.09277000  1.0 -0.502806365
O  O86  1  0.49804000  0.40527000  0.20533000  1.0 -0.502806365
O  O87  1  0.40527000  0.19994000  0.90723000  1.0 -0.502806365
O  O88  1  0.19994000  0.29271000  0.79467000  1.0 -0.502806365
O  O89  1  0.77065000  0.49381000  0.89390000  1.0 -0.5106368385
O  O90  1  0.49381000  0.59991000  0.72316000  1.0 -0.5106368385
O  O91  1  0.59991000  0.87675000  0.10610000  1.0 -0.5106368385
O  O92  1  0.87675000  0.77065000  0.27684000  1.0 -0.5106368385
O  O93  1  0.22935000  0.50619000  0.10610000  1.0 -0.5106368385
O  O94  1  0.50619000  0.40009000  0.27684000  1.0 -0.5106368385
O  O95  1  0.40009000  0.12325000  0.89390000  1.0 -0.5106368385
O  O96  1  0.12325000  0.22935000  0.72316000  1.0 -0.5106368385
O  O97  1  0.12864000  0.52957000  0.06003000  1.0 -0.8737368834
O  O98  1  0.52957000  0.46954000  0.40093000  1.0 -0.8737368834
O  O99  1  0.46954000  0.06861000  0.93997000  1.0 -0.8737368834
O  O100  1  0.06861000  0.12864000  0.59907000  1.0 -0.8737368834
O  O101  1  0.87136000  0.47043000  0.93997000  1.0 -0.8737368834
O  O102  1  0.47043000  0.53046000  0.59907000  1.0 -0.8737368834
O  O103  1  0.53046000  0.93139000  0.06003000  1.0 -0.8767495746
O  O104  1  0.93139000  0.87136000  0.40093000  1.0 -0.8737368834
O  O105  1  0.33235000  0.51496000  0.03157000  1.0 -0.8494149665
O  O106  1  0.51496000  0.48339000  0.18261000  1.0 -0.8494149665
O  O107  1  0.48339000  0.30078000  0.96843000  1.0 -0.8494149665
O  O108  1  0.30078000  0.33235000  0.81739000  1.0 -0.8494149665
O  O109  1  0.66765000  0.48504000  0.96843000  1.0 -0.8494149665
O  O110  1  0.48504000  0.51661000  0.81739000  1.0 -0.8494149665
O  O111  1  0.51661000  0.69922000  0.03157000  1.0 -0.8494149665
O  O112  1  0.69922000  0.66765000  0.18261000  1.0 -0.8494149665
