# DDEC6 charges by PACMAN v1.1 (https://github.com/mtap-research/PACMAN-charge/)
data_TOHDIF_FSR_pacman
_symmetry_space_group_name_H-M   'P 1'
_cell_length_a   17.70050000
_cell_length_b   17.70050000
_cell_length_c   17.70050000
_cell_angle_alpha   102.72900000
_cell_angle_beta   102.72900000
_cell_angle_gamma   102.72900000
_symmetry_Int_Tables_number   1
_chemical_formula_structural   Zn2H33C40N13O
_chemical_formula_sum   'Zn12 H198 C240 N78 O6'
_cell_volume   5061.36491438
_cell_formula_units_Z   6
loop_
 _symmetry_equiv_pos_site_id
 _symmetry_equiv_pos_as_xyz
  1  'x, y, z'
loop_
 _atom_site_type_symbol
 _atom_site_label
 _atom_site_symmetry_multiplicity
 _atom_site_fract_x
 _atom_site_fract_y
 _atom_site_fract_z
 _atom_site_occupancy
 _atom_site_charge
Zn  Zn1  1  0.63332000  0.84746000  0.41814000  1.0 0.5733718161
Zn  Zn2  1  0.84746000  0.41814000  0.63332000  1.0 0.5733718161
Zn  Zn3  1  0.41814000  0.63332000  0.84746000  1.0 0.5733718161
Zn  Zn4  1  0.36668000  0.15254000  0.58186000  1.0 0.5733718161
Zn  Zn5  1  0.15254000  0.58186000  0.36668000  1.0 0.5733718161
Zn  Zn6  1  0.58186000  0.36668000  0.15254000  1.0 0.5733718161
Zn  Zn7  1  0.41813000  0.84747000  0.63332000  1.0 0.529839832
Zn  Zn8  1  0.84747000  0.63332000  0.41813000  1.0 0.529839832
Zn  Zn9  1  0.63332000  0.41813000  0.84747000  1.0 0.529839832
Zn  Zn10  1  0.58187000  0.15253000  0.36668000  1.0 0.529839832
Zn  Zn11  1  0.15253000  0.36668000  0.58187000  1.0 0.529839832
Zn  Zn12  1  0.36668000  0.58187000  0.15253000  1.0 0.529839832
H  H1  1  0.43545000  0.67389000  0.55840000  1.0 0.0816607514
H  H2  1  0.67389000  0.55840000  0.43545000  1.0 0.0816607514
H  H3  1  0.55840000  0.43545000  0.67389000  1.0 0.0816607514
H  H4  1  0.56455000  0.32611000  0.44160000  1.0 0.0816607514
H  H5  1  0.32611000  0.44160000  0.56455000  1.0 0.0816607514
H  H6  1  0.44160000  0.56455000  0.32611000  1.0 0.0816607514
H  H7  1  0.32645000  0.56379000  0.44570000  1.0 0.0908747091
H  H8  1  0.56379000  0.44570000  0.32645000  1.0 0.0908747091
H  H9  1  0.44570000  0.32645000  0.56379000  1.0 0.0908747091
H  H10  1  0.67355000  0.43621000  0.55430000  1.0 0.0908747091
H  H11  1  0.43621000  0.55430000  0.67355000  1.0 0.0908747091
H  H12  1  0.55430000  0.67355000  0.43621000  1.0 0.0908747091
H  H13  1  0.37985000  0.69979000  0.69850000  1.0 0.0986769354
H  H14  1  0.69979000  0.69850000  0.37985000  1.0 0.0986769354
H  H15  1  0.69850000  0.37985000  0.69979000  1.0 0.0986769354
H  H16  1  0.62015000  0.30021000  0.30150000  1.0 0.0986769354
H  H17  1  0.30021000  0.30150000  0.62015000  1.0 0.0986769354
H  H18  1  0.30150000  0.62015000  0.30021000  1.0 0.0986769354
H  H19  1  0.42515000  0.00159000  0.57430000  1.0 0.1108056685
H  H20  1  0.00159000  0.57430000  0.42515000  1.0 0.1108056685
H  H21  1  0.57430000  0.42515000  0.00159000  1.0 0.1108056685
H  H22  1  0.57485000  0.99841000  0.42570000  1.0 0.1108056685
H  H23  1  0.99841000  0.42570000  0.57485000  1.0 0.1108056685
H  H24  1  0.42570000  0.57485000  0.99841000  1.0 0.1108056685
H  H25  1  0.52305000  0.80679000  0.97960000  1.0 0.1292167735
H  H26  1  0.80679000  0.97960000  0.52305000  1.0 0.1292167735
H  H27  1  0.97960000  0.52305000  0.80679000  1.0 0.1292167735
H  H28  1  0.47695000  0.19321000  0.02040000  1.0 0.1292167735
H  H29  1  0.19321000  0.02040000  0.47695000  1.0 0.1292167735
H  H30  1  0.02040000  0.47695000  0.19321000  1.0 0.1292167735
H  H31  1  0.52265000  0.97799000  0.80640000  1.0 0.1389960416
H  H32  1  0.97799000  0.80640000  0.52265000  1.0 0.1389960416
H  H33  1  0.80640000  0.52265000  0.97799000  1.0 0.1389960416
H  H34  1  0.47735000  0.02201000  0.19360000  1.0 0.1389960416
H  H35  1  0.02201000  0.19360000  0.47735000  1.0 0.1389960416
H  H36  1  0.19360000  0.47735000  0.02201000  1.0 0.1389960416
H  H37  1  0.65635000  0.92759000  0.07530000  1.0 0.1389960416
H  H38  1  0.92759000  0.07530000  0.65635000  1.0 0.1389960416
H  H39  1  0.07530000  0.65635000  0.92759000  1.0 0.1389960416
H  H40  1  0.34365000  0.07241000  0.92470000  1.0 0.1389960416
H  H41  1  0.07241000  0.92470000  0.34365000  1.0 0.1389960416
H  H42  1  0.92470000  0.34365000  0.07241000  1.0 0.1389960416
H  H43  1  0.64645000  0.01539000  0.07540000  1.0 0.1292167735
H  H44  1  0.01539000  0.07540000  0.64645000  1.0 0.1292167735
H  H45  1  0.07540000  0.64645000  0.01539000  1.0 0.1292167735
H  H46  1  0.35355000  0.98461000  0.92460000  1.0 0.1292167735
H  H47  1  0.98461000  0.92460000  0.35355000  1.0 0.1292167735
H  H48  1  0.92460000  0.35355000  0.98461000  1.0 0.1292167735
H  H49  1  0.58395000  0.95489000  0.10300000  1.0 0.1389960416
H  H50  1  0.95489000  0.10300000  0.58395000  1.0 0.1389960416
H  H51  1  0.10300000  0.58395000  0.95489000  1.0 0.1389960416
H  H52  1  0.41605000  0.04511000  0.89700000  1.0 0.1389960416
H  H53  1  0.04511000  0.89700000  0.41605000  1.0 0.1389960416
H  H54  1  0.89700000  0.41605000  0.04511000  1.0 0.1389960416
H  H55  1  0.30535000  0.88189000  0.75380000  1.0 0.1464086805
H  H56  1  0.88189000  0.75380000  0.30535000  1.0 0.1464086805
H  H57  1  0.75380000  0.30535000  0.88189000  1.0 0.1464086805
H  H58  1  0.69465000  0.11811000  0.24620000  1.0 0.1464086805
H  H59  1  0.11811000  0.24620000  0.69465000  1.0 0.1464086805
H  H60  1  0.24620000  0.69465000  0.11811000  1.0 0.1464086805
H  H61  1  0.24795000  0.11919000  0.69600000  1.0 0.1464086805
H  H62  1  0.11919000  0.69600000  0.24795000  1.0 0.1464086805
H  H63  1  0.69600000  0.24795000  0.11919000  1.0 0.1464086805
H  H64  1  0.75205000  0.88081000  0.30400000  1.0 0.1464086805
H  H65  1  0.88081000  0.30400000  0.75205000  1.0 0.1464086805
H  H66  1  0.30400000  0.75205000  0.88081000  1.0 0.1464086805
H  H67  1  0.22355000  0.81299000  0.47190000  1.0 0.0908747091
H  H68  1  0.81299000  0.47190000  0.22355000  1.0 0.0908747091
H  H69  1  0.47190000  0.22355000  0.81299000  1.0 0.0908747091
H  H70  1  0.77645000  0.18701000  0.52810000  1.0 0.0908747091
H  H71  1  0.18701000  0.52810000  0.77645000  1.0 0.0908747091
H  H72  1  0.52810000  0.77645000  0.18701000  1.0 0.0908747091
H  H73  1  0.16195000  0.74079000  0.48690000  1.0 0.0908747091
H  H74  1  0.74079000  0.48690000  0.16195000  1.0 0.0908747091
H  H75  1  0.48690000  0.16195000  0.74079000  1.0 0.0908747091
H  H76  1  0.83805000  0.25921000  0.51310000  1.0 0.0908747091
H  H77  1  0.25921000  0.51310000  0.83805000  1.0 0.0908747091
H  H78  1  0.51310000  0.83805000  0.25921000  1.0 0.0908747091
H  H79  1  0.22915000  0.80719000  0.56180000  1.0 0.0908747091
H  H80  1  0.80719000  0.56180000  0.22915000  1.0 0.0908747091
H  H81  1  0.56180000  0.22915000  0.80719000  1.0 0.0908747091
H  H82  1  0.77085000  0.19281000  0.43820000  1.0 0.0908747091
H  H83  1  0.19281000  0.43820000  0.77085000  1.0 0.0908747091
H  H84  1  0.43820000  0.77085000  0.19281000  1.0 0.0908747091
H  H85  1  0.21475000  0.89239000  0.84500000  1.0 0.1108056685
H  H86  1  0.89239000  0.84500000  0.21475000  1.0 0.1108056685
H  H87  1  0.84500000  0.21475000  0.89239000  1.0 0.1108056685
H  H88  1  0.78525000  0.10761000  0.15500000  1.0 0.1108056685
H  H89  1  0.10761000  0.15500000  0.78525000  1.0 0.1108056685
H  H90  1  0.15500000  0.78525000  0.10761000  1.0 0.1108056685
H  H91  1  0.21405000  0.98329000  0.88140000  1.0 0.1108056685
H  H92  1  0.98329000  0.88140000  0.21405000  1.0 0.1108056685
H  H93  1  0.88140000  0.21405000  0.98329000  1.0 0.1108056685
H  H94  1  0.78595000  0.01671000  0.11860000  1.0 0.1108056685
H  H95  1  0.01671000  0.11860000  0.78595000  1.0 0.1108056685
H  H96  1  0.11860000  0.78595000  0.01671000  1.0 0.1108056685
H  H97  1  0.14095000  0.92349000  0.80700000  1.0 0.1292167735
H  H98  1  0.92349000  0.80700000  0.14095000  1.0 0.1292167735
H  H99  1  0.80700000  0.14095000  0.92349000  1.0 0.1292167735
H  H100  1  0.85905000  0.07651000  0.19300000  1.0 0.1292167735
H  H101  1  0.07651000  0.19300000  0.85905000  1.0 0.1292167735
H  H102  1  0.19300000  0.85905000  0.07651000  1.0 0.1292167735
H  H103  1  0.46075000  0.91629000  0.45450000  1.0 0.2431731258
H  H104  1  0.91629000  0.45450000  0.46075000  1.0 0.2431731258
H  H105  1  0.45450000  0.46075000  0.91629000  1.0 0.2431731258
H  H106  1  0.53925000  0.08371000  0.54550000  1.0 0.2431731258
H  H107  1  0.08371000  0.54550000  0.53925000  1.0 0.2431731258
H  H108  1  0.54550000  0.53925000  0.08371000  1.0 0.2431731258
H  H109  1  0.45665000  0.82889000  0.40140000  1.0 0.0908747091
H  H110  1  0.82889000  0.40140000  0.45665000  1.0 0.0908747091
H  H111  1  0.40140000  0.45665000  0.82889000  1.0 0.0908747091
H  H112  1  0.54335000  0.17111000  0.59860000  1.0 0.0908747091
H  H113  1  0.17111000  0.59860000  0.54335000  1.0 0.0908747091
H  H114  1  0.59860000  0.54335000  0.17111000  1.0 0.0908747091
H  H115  1  0.40125000  0.83719000  0.46140000  1.0 0.0908747091
H  H116  1  0.83719000  0.46140000  0.40125000  1.0 0.0908747091
H  H117  1  0.46140000  0.40125000  0.83719000  1.0 0.0908747091
H  H118  1  0.59875000  0.16281000  0.53860000  1.0 0.0908747091
H  H119  1  0.16281000  0.53860000  0.59875000  1.0 0.0908747091
H  H120  1  0.53860000  0.59875000  0.16281000  1.0 0.0908747091
H  H121  1  0.73075000  0.02529000  0.56090000  1.0 0.1292167735
H  H122  1  0.02529000  0.56090000  0.73075000  1.0 0.1292167735
H  H123  1  0.56090000  0.73075000  0.02529000  1.0 0.1292167735
H  H124  1  0.26925000  0.97471000  0.43910000  1.0 0.1292167735
H  H125  1  0.97471000  0.43910000  0.26925000  1.0 0.1292167735
H  H126  1  0.43910000  0.26925000  0.97471000  1.0 0.1292167735
H  H127  1  0.56095000  0.02649000  0.72950000  1.0 0.1292167735
H  H128  1  0.02649000  0.72950000  0.56095000  1.0 0.1292167735
H  H129  1  0.72950000  0.56095000  0.02649000  1.0 0.1292167735
H  H130  1  0.43905000  0.97351000  0.27050000  1.0 0.1292167735
H  H131  1  0.97351000  0.27050000  0.43905000  1.0 0.1292167735
H  H132  1  0.27050000  0.43905000  0.97351000  1.0 0.1292167735
H  H133  1  0.34065000  0.62209000  0.53400000  1.0 0.0908747091
H  H134  1  0.62209000  0.53400000  0.34065000  1.0 0.0908747091
H  H135  1  0.53400000  0.34065000  0.62209000  1.0 0.0908747091
H  H136  1  0.65935000  0.37791000  0.46600000  1.0 0.0908747091
H  H137  1  0.37791000  0.46600000  0.65935000  1.0 0.0908747091
H  H138  1  0.46600000  0.65935000  0.37791000  1.0 0.0908747091
H  H139  1  0.33485000  0.62579000  0.44340000  1.0 0.0986769354
H  H140  1  0.62579000  0.44340000  0.33485000  1.0 0.0986769354
H  H141  1  0.44340000  0.33485000  0.62579000  1.0 0.0986769354
H  H142  1  0.66515000  0.37421000  0.55660000  1.0 0.0986769354
H  H143  1  0.37421000  0.55660000  0.66515000  1.0 0.0986769354
H  H144  1  0.55660000  0.66515000  0.37421000  1.0 0.0986769354
H  H145  1  0.40165000  0.69379000  0.51740000  1.0 0.0986769354
H  H146  1  0.69379000  0.51740000  0.40165000  1.0 0.0986769354
H  H147  1  0.51740000  0.40165000  0.69379000  1.0 0.0986769354
H  H148  1  0.59835000  0.30621000  0.48260000  1.0 0.0986769354
H  H149  1  0.30621000  0.48260000  0.59835000  1.0 0.0986769354
H  H150  1  0.48260000  0.59835000  0.30621000  1.0 0.0986769354
H  H151  1  0.24805000  0.87209000  0.54100000  1.0 0.0816607514
H  H152  1  0.87209000  0.54100000  0.24805000  1.0 0.0816607514
H  H153  1  0.54100000  0.24805000  0.87209000  1.0 0.0816607514
H  H154  1  0.75195000  0.12791000  0.45900000  1.0 0.0816607514
H  H155  1  0.12791000  0.45900000  0.75195000  1.0 0.0816607514
H  H156  1  0.45900000  0.75195000  0.12791000  1.0 0.0816607514
H  H157  1  0.14225000  0.76229000  0.42510000  1.0 0.0908747091
H  H158  1  0.76229000  0.42510000  0.14225000  1.0 0.0908747091
H  H159  1  0.42510000  0.14225000  0.76229000  1.0 0.0908747091
H  H160  1  0.85775000  0.23771000  0.57490000  1.0 0.0908747091
H  H161  1  0.23771000  0.57490000  0.85775000  1.0 0.0908747091
H  H162  1  0.57490000  0.85775000  0.23771000  1.0 0.0908747091
H  H163  1  0.14145000  0.09179000  0.77260000  1.0 0.1108056685
H  H164  1  0.09179000  0.77260000  0.14145000  1.0 0.1108056685
H  H165  1  0.77260000  0.14145000  0.09179000  1.0 0.1108056685
H  H166  1  0.85855000  0.90821000  0.22740000  1.0 0.1108056685
H  H167  1  0.90821000  0.22740000  0.85855000  1.0 0.1108056685
H  H168  1  0.22740000  0.85855000  0.90821000  1.0 0.1108056685
H  H169  1  0.12405000  0.00609000  0.79110000  1.0 0.0986769354
H  H170  1  0.00609000  0.79110000  0.12405000  1.0 0.0986769354
H  H171  1  0.79110000  0.12405000  0.00609000  1.0 0.0986769354
H  H172  1  0.87595000  0.99391000  0.20890000  1.0 0.0986769354
H  H173  1  0.99391000  0.20890000  0.87595000  1.0 0.0986769354
H  H174  1  0.20890000  0.87595000  0.99391000  1.0 0.0986769354
H  H175  1  0.19265000  0.08209000  0.85470000  1.0 0.1292167735
H  H176  1  0.08209000  0.85470000  0.19265000  1.0 0.1292167735
H  H177  1  0.85470000  0.19265000  0.08209000  1.0 0.1292167735
H  H178  1  0.80735000  0.91791000  0.14530000  1.0 0.1292167735
H  H179  1  0.91791000  0.14530000  0.80735000  1.0 0.1292167735
H  H180  1  0.14530000  0.80735000  0.91791000  1.0 0.1292167735
H  H181  1  0.58505000  0.10149000  0.95770000  1.0 0.1389960416
H  H182  1  0.10149000  0.95770000  0.58505000  1.0 0.1389960416
H  H183  1  0.95770000  0.58505000  0.10149000  1.0 0.1389960416
H  H184  1  0.41495000  0.89851000  0.04230000  1.0 0.1389960416
H  H185  1  0.89851000  0.04230000  0.41495000  1.0 0.1389960416
H  H186  1  0.04230000  0.41495000  0.89851000  1.0 0.1389960416
H  H187  1  0.64285000  0.07049000  0.01940000  1.0 0.1203662814
H  H188  1  0.07049000  0.01940000  0.64285000  1.0 0.1203662814
H  H189  1  0.01940000  0.64285000  0.07049000  1.0 0.1203662814
H  H190  1  0.35715000  0.92951000  0.98060000  1.0 0.1203662814
H  H191  1  0.92951000  0.98060000  0.35715000  1.0 0.1292167735
H  H192  1  0.98060000  0.35715000  0.92951000  1.0 0.1203662814
H  H193  1  0.65905000  0.07379000  0.93450000  1.0 0.1389960416
H  H194  1  0.07379000  0.93450000  0.65905000  1.0 0.1389960416
H  H195  1  0.93450000  0.65905000  0.07379000  1.0 0.1389960416
H  H196  1  0.34095000  0.92621000  0.06550000  1.0 0.1389960416
H  H197  1  0.92621000  0.06550000  0.34095000  1.0 0.1389960416
H  H198  1  0.06550000  0.34095000  0.92621000  1.0 0.1389960416
C  C1  1  0.27455000  0.72599000  0.49890000  1.0 0.1571732893
C  C2  1  0.72599000  0.49890000  0.27455000  1.0 0.1571732893
C  C3  1  0.49890000  0.27455000  0.72599000  1.0 0.1571732893
C  C4  1  0.72545000  0.27401000  0.50110000  1.0 0.1571732893
C  C5  1  0.27401000  0.50110000  0.72545000  1.0 0.1571732893
C  C6  1  0.50110000  0.72545000  0.27401000  1.0 0.1571732893
C  C7  1  0.38375000  0.67749000  0.53270000  1.0 -0.0989104419
C  C8  1  0.67749000  0.53270000  0.38375000  1.0 -0.0989104419
C  C9  1  0.53270000  0.38375000  0.67749000  1.0 -0.0989104419
C  C10  1  0.61625000  0.32251000  0.46730000  1.0 -0.0989104419
C  C11  1  0.32251000  0.46730000  0.61625000  1.0 -0.0989104419
C  C12  1  0.46730000  0.61625000  0.32251000  1.0 -0.0989104419
C  C13  1  0.32275000  0.61589000  0.46960000  1.0 -0.0989104419
C  C14  1  0.61589000  0.46960000  0.32275000  1.0 -0.0989104419
C  C15  1  0.46960000  0.32275000  0.61589000  1.0 -0.0989104419
C  C16  1  0.67725000  0.38411000  0.53040000  1.0 -0.0989104419
C  C17  1  0.38411000  0.53040000  0.67725000  1.0 -0.0989104419
C  C18  1  0.53040000  0.67725000  0.38411000  1.0 -0.0989104419
C  C19  1  0.41295000  0.74399000  0.74330000  1.0 0.1203662814
C  C20  1  0.74399000  0.74330000  0.41295000  1.0 0.1203662814
C  C21  1  0.74330000  0.41295000  0.74399000  1.0 0.1203662814
C  C22  1  0.58705000  0.25601000  0.25670000  1.0 0.1203662814
C  C23  1  0.25601000  0.25670000  0.58705000  1.0 0.1203662814
C  C24  1  0.25670000  0.58705000  0.25601000  1.0 0.1203662814
C  C25  1  0.32695000  0.96549000  0.68940000  1.0 0.0986769354
C  C26  1  0.96549000  0.68940000  0.32695000  1.0 0.0986769354
C  C27  1  0.68940000  0.32695000  0.96549000  1.0 0.0986769354
C  C28  1  0.67305000  0.03451000  0.31060000  1.0 0.0986769354
C  C29  1  0.03451000  0.31060000  0.67305000  1.0 0.0986769354
C  C30  1  0.31060000  0.67305000  0.03451000  1.0 0.0986769354
C  C31  1  0.48235000  0.86199000  0.81300000  1.0 0.1389960416
C  C32  1  0.86199000  0.81300000  0.48235000  1.0 0.1389960416
C  C33  1  0.81300000  0.48235000  0.86199000  1.0 0.1389960416
C  C34  1  0.51765000  0.13801000  0.18700000  1.0 0.1389960416
C  C35  1  0.13801000  0.18700000  0.51765000  1.0 0.1389960416
C  C36  1  0.18700000  0.51765000  0.13801000  1.0 0.1389960416
C  C37  1  0.48045000  0.81099000  0.86260000  1.0 0.1389960416
C  C38  1  0.81099000  0.86260000  0.48045000  1.0 0.1389960416
C  C39  1  0.86260000  0.48045000  0.81099000  1.0 0.1389960416
C  C40  1  0.51955000  0.18901000  0.13740000  1.0 0.1389960416
C  C41  1  0.18901000  0.13740000  0.51955000  1.0 0.1389960416
C  C42  1  0.13740000  0.51955000  0.18901000  1.0 0.1389960416
C  C43  1  0.30965000  0.03469000  0.67350000  1.0 0.0986769354
C  C44  1  0.03469000  0.67350000  0.30965000  1.0 0.0986769354
C  C45  1  0.67350000  0.30965000  0.03469000  1.0 0.0986769354
C  C46  1  0.69035000  0.96531000  0.32650000  1.0 0.0986769354
C  C47  1  0.96531000  0.32650000  0.69035000  1.0 0.0986769354
C  C48  1  0.32650000  0.69035000  0.96531000  1.0 0.0986769354
C  C49  1  0.39095000  0.00089000  0.60860000  1.0 0.0816607514
C  C50  1  0.00089000  0.60860000  0.39095000  1.0 0.0816607514
C  C51  1  0.60860000  0.39095000  0.00089000  1.0 0.0816607514
C  C52  1  0.60905000  0.99911000  0.39140000  1.0 0.0816607514
C  C53  1  0.99911000  0.39140000  0.60905000  1.0 0.0816607514
C  C54  1  0.39140000  0.60905000  0.99911000  1.0 0.0816607514
C  C55  1  0.52195000  0.84109000  0.94520000  1.0 -0.2494981851
C  C56  1  0.84109000  0.94520000  0.52195000  1.0 -0.2494981851
C  C57  1  0.94520000  0.52195000  0.84109000  1.0 -0.2494981851
C  C58  1  0.47805000  0.15891000  0.05480000  1.0 -0.2494981851
C  C59  1  0.15891000  0.05480000  0.47805000  1.0 -0.2494981851
C  C60  1  0.05480000  0.47805000  0.15891000  1.0 -0.2494981851
C  C61  1  0.52235000  0.94439000  0.84150000  1.0 -0.2449156334
C  C62  1  0.94439000  0.84150000  0.52235000  1.0 -0.2449156334
C  C63  1  0.84150000  0.52235000  0.94439000  1.0 -0.2449156334
C  C64  1  0.47765000  0.05561000  0.15850000  1.0 -0.2449156334
C  C65  1  0.05561000  0.15850000  0.47765000  1.0 -0.2449156334
C  C66  1  0.15850000  0.47765000  0.05561000  1.0 -0.2449156334
C  C67  1  0.56105000  0.92299000  0.97450000  1.0 0.1389960416
C  C68  1  0.92299000  0.97450000  0.56105000  1.0 0.1389960416
C  C69  1  0.97450000  0.56105000  0.92299000  1.0 0.1389960416
C  C70  1  0.43895000  0.07701000  0.02550000  1.0 0.1389960416
C  C71  1  0.07701000  0.02550000  0.43895000  1.0 0.1389960416
C  C72  1  0.02550000  0.43895000  0.07701000  1.0 0.1389960416
C  C73  1  0.56095000  0.97439000  0.92230000  1.0 0.1292167735
C  C74  1  0.97439000  0.92230000  0.56095000  1.0 0.1292167735
C  C75  1  0.92230000  0.56095000  0.97439000  1.0 0.1292167735
C  C76  1  0.43905000  0.02561000  0.07770000  1.0 0.1292167735
C  C77  1  0.02561000  0.07770000  0.43905000  1.0 0.1292167735
C  C78  1  0.07770000  0.43905000  0.02561000  1.0 0.1292167735
C  C79  1  0.58805000  0.85799000  0.63720000  1.0 0.042542189
C  C80  1  0.85799000  0.63720000  0.58805000  1.0 0.042542189
C  C81  1  0.63720000  0.58805000  0.85799000  1.0 0.042542189
C  C82  1  0.41195000  0.14201000  0.36280000  1.0 0.042542189
C  C83  1  0.14201000  0.36280000  0.41195000  1.0 0.042542189
C  C84  1  0.36280000  0.41195000  0.14201000  1.0 0.042542189
C  C85  1  0.64155000  0.86009000  0.58910000  1.0 0.1571732893
C  C86  1  0.86009000  0.58910000  0.64155000  1.0 0.1571732893
C  C87  1  0.58910000  0.64155000  0.86009000  1.0 0.1571732893
C  C88  1  0.35845000  0.13991000  0.41090000  1.0 0.1571732893
C  C89  1  0.13991000  0.41090000  0.35845000  1.0 0.1571732893
C  C90  1  0.41090000  0.35845000  0.13991000  1.0 0.1571732893
C  C91  1  0.61745000  0.95869000  0.06600000  1.0 -0.4590592261
C  C92  1  0.95869000  0.06600000  0.61745000  1.0 -0.4590592261
C  C93  1  0.06600000  0.61745000  0.95869000  1.0 -0.4590592261
C  C94  1  0.38255000  0.04131000  0.93400000  1.0 -0.4590592261
C  C95  1  0.04131000  0.93400000  0.38255000  1.0 -0.4590592261
C  C96  1  0.93400000  0.38255000  0.04131000  1.0 -0.4590592261
C  C97  1  0.29335000  0.92849000  0.74200000  1.0 -0.2889355784
C  C98  1  0.92849000  0.74200000  0.29335000  1.0 -0.2889355784
C  C99  1  0.74200000  0.29335000  0.92849000  1.0 -0.2889355784
C  C100  1  0.70665000  0.07151000  0.25800000  1.0 -0.2889355784
C  C101  1  0.07151000  0.25800000  0.70665000  1.0 -0.2889355784
C  C102  1  0.25800000  0.70665000  0.07151000  1.0 -0.2889355784
C  C103  1  0.25855000  0.07179000  0.70700000  1.0 -0.2889355784
C  C104  1  0.07179000  0.70700000  0.25855000  1.0 -0.2889355784
C  C105  1  0.70700000  0.25855000  0.07179000  1.0 -0.2889355784
C  C106  1  0.74145000  0.92821000  0.29300000  1.0 -0.2889355784
C  C107  1  0.92821000  0.29300000  0.74145000  1.0 -0.2889355784
C  C108  1  0.29300000  0.74145000  0.92821000  1.0 -0.2889355784
C  C109  1  0.24155000  0.96479000  0.77550000  1.0 0.1108056685
C  C110  1  0.96479000  0.77550000  0.24155000  1.0 0.1108056685
C  C111  1  0.77550000  0.24155000  0.96479000  1.0 0.1108056685
C  C112  1  0.75845000  0.03521000  0.22450000  1.0 0.1108056685
C  C113  1  0.03521000  0.22450000  0.75845000  1.0 0.1108056685
C  C114  1  0.22450000  0.75845000  0.03521000  1.0 0.1108056685
C  C115  1  0.22405000  0.03459000  0.75800000  1.0 0.1108056685
C  C116  1  0.03459000  0.75800000  0.22405000  1.0 0.1108056685
C  C117  1  0.75800000  0.22405000  0.03459000  1.0 0.1108056685
C  C118  1  0.77595000  0.96541000  0.24200000  1.0 0.1108056685
C  C119  1  0.96541000  0.24200000  0.77595000  1.0 0.1108056685
C  C120  1  0.24200000  0.77595000  0.96541000  1.0 0.1108056685
C  C121  1  0.21745000  0.77599000  0.50540000  1.0 -0.0540612827
C  C122  1  0.77599000  0.50540000  0.21745000  1.0 -0.0540612827
C  C123  1  0.50540000  0.21745000  0.77599000  1.0 -0.0540612827
C  C124  1  0.78255000  0.22401000  0.49460000  1.0 -0.0540612827
C  C125  1  0.22401000  0.49460000  0.78255000  1.0 -0.0540612827
C  C126  1  0.49460000  0.78255000  0.22401000  1.0 -0.0540612827
C  C127  1  0.52875000  0.85319000  0.52910000  1.0 0.2668962662
C  C128  1  0.85319000  0.52910000  0.52875000  1.0 0.2668962662
C  C129  1  0.52910000  0.52875000  0.85319000  1.0 0.2668962662
C  C130  1  0.47125000  0.14681000  0.47090000  1.0 0.2668962662
C  C131  1  0.14681000  0.47090000  0.47125000  1.0 0.2668962662
C  C132  1  0.47090000  0.47125000  0.14681000  1.0 0.2668962662
C  C133  1  0.19935000  0.93889000  0.83190000  1.0 -0.3994787277
C  C134  1  0.93889000  0.83190000  0.19935000  1.0 -0.3994787277
C  C135  1  0.83190000  0.19935000  0.93889000  1.0 -0.3994787277
C  C136  1  0.80065000  0.06111000  0.16810000  1.0 -0.3994787277
C  C137  1  0.06111000  0.16810000  0.80065000  1.0 -0.3994787277
C  C138  1  0.16810000  0.80065000  0.06111000  1.0 -0.3994787277
C  C139  1  0.45395000  0.85949000  0.45360000  1.0 -0.4264652546
C  C140  1  0.85949000  0.45360000  0.45395000  1.0 -0.4264652546
C  C141  1  0.45360000  0.45395000  0.85949000  1.0 -0.4264652546
C  C142  1  0.54605000  0.14051000  0.54640000  1.0 -0.4264652546
C  C143  1  0.14051000  0.54640000  0.54605000  1.0 -0.4264652546
C  C144  1  0.54640000  0.54605000  0.14051000  1.0 -0.4264652546
C  C145  1  0.57945000  0.95969000  0.62930000  1.0 0.042542189
C  C146  1  0.95969000  0.62930000  0.57945000  1.0 0.042542189
C  C147  1  0.62930000  0.57945000  0.95969000  1.0 0.042542189
C  C148  1  0.42055000  0.04031000  0.37070000  1.0 0.042542189
C  C149  1  0.04031000  0.37070000  0.42055000  1.0 0.042542189
C  C150  1  0.37070000  0.42055000  0.04031000  1.0 0.042542189
C  C151  1  0.62995000  0.95929000  0.57920000  1.0 0.0908747091
C  C152  1  0.95929000  0.57920000  0.62995000  1.0 0.0908747091
C  C153  1  0.57920000  0.62995000  0.95929000  1.0 0.0908747091
C  C154  1  0.37005000  0.04071000  0.42080000  1.0 0.0986769354
C  C155  1  0.04071000  0.42080000  0.37005000  1.0 0.0986769354
C  C156  1  0.42080000  0.37005000  0.04071000  1.0 0.0986769354
C  C157  1  0.69635000  0.02549000  0.59510000  1.0 -0.1985229443
C  C158  1  0.02549000  0.59510000  0.69635000  1.0 -0.1985229443
C  C159  1  0.59510000  0.69635000  0.02549000  1.0 -0.1985229443
C  C160  1  0.30365000  0.97451000  0.40490000  1.0 -0.1985229443
C  C161  1  0.97451000  0.40490000  0.30365000  1.0 -0.1985229443
C  C162  1  0.40490000  0.30365000  0.97451000  1.0 -0.1985229443
C  C163  1  0.71205000  0.09199000  0.66110000  1.0 0.0708036681
C  C164  1  0.09199000  0.66110000  0.71205000  1.0 0.0708036681
C  C165  1  0.66110000  0.71205000  0.09199000  1.0 0.0708036681
C  C166  1  0.28795000  0.90801000  0.33890000  1.0 0.0708036681
C  C167  1  0.90801000  0.33890000  0.28795000  1.0 0.0708036681
C  C168  1  0.33890000  0.28795000  0.90801000  1.0 0.0708036681
C  C169  1  0.66185000  0.09239000  0.71120000  1.0 0.0708036681
C  C170  1  0.09239000  0.71120000  0.66185000  1.0 0.0708036681
C  C171  1  0.71120000  0.66185000  0.09239000  1.0 0.0708036681
C  C172  1  0.33815000  0.90761000  0.28880000  1.0 0.0708036681
C  C173  1  0.90761000  0.28880000  0.33815000  1.0 0.0708036681
C  C174  1  0.28880000  0.33815000  0.90761000  1.0 0.0708036681
C  C175  1  0.59535000  0.02629000  0.69530000  1.0 -0.1985229443
C  C176  1  0.02629000  0.69530000  0.59535000  1.0 -0.1985229443
C  C177  1  0.69530000  0.59535000  0.02629000  1.0 -0.1985229443
C  C178  1  0.40465000  0.97371000  0.30470000  1.0 -0.1985229443
C  C179  1  0.97371000  0.30470000  0.40465000  1.0 -0.1985229443
C  C180  1  0.30470000  0.40465000  0.97371000  1.0 -0.1985229443
C  C181  1  0.34645000  0.65809000  0.49940000  1.0 -0.0552463944
C  C182  1  0.65809000  0.49940000  0.34645000  1.0 -0.0552463944
C  C183  1  0.49940000  0.34645000  0.65809000  1.0 -0.0552463944
C  C184  1  0.65355000  0.34191000  0.50060000  1.0 -0.0552463944
C  C185  1  0.34191000  0.50060000  0.65355000  1.0 -0.0552463944
C  C186  1  0.50060000  0.65355000  0.34191000  1.0 -0.0552463944
C  C187  1  0.29285000  0.70389000  0.50420000  1.0 0.1389960416
C  C188  1  0.70389000  0.50420000  0.29285000  1.0 0.1389960416
C  C189  1  0.50420000  0.29285000  0.70389000  1.0 0.1389960416
C  C190  1  0.70715000  0.29611000  0.49580000  1.0 0.1389960416
C  C191  1  0.29611000  0.49580000  0.70715000  1.0 0.1389960416
C  C192  1  0.49580000  0.70715000  0.29611000  1.0 0.1389960416
C  C193  1  0.25015000  0.81839000  0.52090000  1.0 -0.0838470574
C  C194  1  0.81839000  0.52090000  0.25015000  1.0 -0.0838470574
C  C195  1  0.52090000  0.25015000  0.81839000  1.0 -0.0838470574
C  C196  1  0.74985000  0.18161000  0.47910000  1.0 -0.0838470574
C  C197  1  0.18161000  0.47910000  0.74985000  1.0 -0.0838470574
C  C198  1  0.47910000  0.74985000  0.18161000  1.0 -0.0838470574
C  C199  1  0.19095000  0.75699000  0.45610000  1.0 -0.0863650407
C  C200  1  0.75699000  0.45610000  0.19095000  1.0 -0.0863650407
C  C201  1  0.45610000  0.19095000  0.75699000  1.0 -0.0863650407
C  C202  1  0.80905000  0.24301000  0.54390000  1.0 -0.0863650407
C  C203  1  0.24301000  0.54390000  0.80905000  1.0 -0.0863650407
C  C204  1  0.54390000  0.80905000  0.24301000  1.0 -0.0863650407
C  C205  1  0.16595000  0.05529000  0.79720000  1.0 -0.3994787277
C  C206  1  0.05529000  0.79720000  0.16595000  1.0 -0.3994787277
C  C207  1  0.79720000  0.16595000  0.05529000  1.0 -0.3994787277
C  C208  1  0.83405000  0.94471000  0.20280000  1.0 -0.3994787277
C  C209  1  0.94471000  0.20280000  0.83405000  1.0 -0.3994787277
C  C210  1  0.20280000  0.83405000  0.94471000  1.0 -0.3994787277
C  C211  1  0.68295000  0.15499000  0.77300000  1.0 -0.2250304039
C  C212  1  0.15499000  0.77300000  0.68295000  1.0 -0.2245110239
C  C213  1  0.77300000  0.68295000  0.15499000  1.0 -0.2245110239
C  C214  1  0.31705000  0.84501000  0.22700000  1.0 -0.2245110239
C  C215  1  0.84501000  0.22700000  0.31705000  1.0 -0.2245110239
C  C216  1  0.22700000  0.31705000  0.84501000  1.0 -0.2250304039
C  C217  1  0.77095000  0.15899000  0.69000000  1.0 -0.2136322437
C  C218  1  0.15899000  0.69000000  0.77095000  1.0 -0.2136322437
C  C219  1  0.69000000  0.77095000  0.15899000  1.0 -0.2136322437
C  C220  1  0.22905000  0.84101000  0.31000000  1.0 -0.2136322437
C  C221  1  0.84101000  0.31000000  0.22905000  1.0 -0.2136322437
C  C222  1  0.31000000  0.22905000  0.84101000  1.0 -0.2136322437
C  C223  1  0.66965000  0.20899000  0.66930000  1.0 0.0584504216
C  C224  1  0.20899000  0.66930000  0.66965000  1.0 0.0584504216
C  C225  1  0.66930000  0.66965000  0.20899000  1.0 0.0584504216
C  C226  1  0.33035000  0.79101000  0.33070000  1.0 0.0584504216
C  C227  1  0.79101000  0.33070000  0.33035000  1.0 0.0584504216
C  C228  1  0.33070000  0.33035000  0.79101000  1.0 0.0584504216
C  C229  1  0.61285000  0.06089000  0.61320000  1.0 0.2431731258
C  C230  1  0.06089000  0.61320000  0.61285000  1.0 0.2431731258
C  C231  1  0.61320000  0.61285000  0.06089000  1.0 0.2431731258
C  C232  1  0.38715000  0.93911000  0.38680000  1.0 0.2431731258
C  C233  1  0.93911000  0.38680000  0.38715000  1.0 0.2431731258
C  C234  1  0.38680000  0.38715000  0.93911000  1.0 0.2431731258
C  C235  1  0.61725000  0.06349000  0.96230000  1.0 -0.4590592261
C  C236  1  0.06349000  0.96230000  0.61725000  1.0 -0.4590592261
C  C237  1  0.96230000  0.61725000  0.06349000  1.0 -0.454553109
C  C238  1  0.38275000  0.93651000  0.03770000  1.0 -0.454553109
C  C239  1  0.93651000  0.03770000  0.38275000  1.0 -0.4590592261
C  C240  1  0.03770000  0.38275000  0.93651000  1.0 -0.4590592261
N  N1  1  0.43645000  0.73519000  0.81620000  1.0 -0.3410693011
N  N2  1  0.73519000  0.81620000  0.43645000  1.0 -0.3410693011
N  N3  1  0.81620000  0.43645000  0.73519000  1.0 -0.3410693011
N  N4  1  0.56355000  0.26481000  0.18380000  1.0 -0.3410693011
N  N5  1  0.26481000  0.18380000  0.56355000  1.0 -0.3410693011
N  N6  1  0.18380000  0.56355000  0.26481000  1.0 -0.3410693011
N  N7  1  0.43765000  0.81699000  0.73560000  1.0 -0.3487764468
N  N8  1  0.81699000  0.73560000  0.43765000  1.0 -0.3487764468
N  N9  1  0.73560000  0.43765000  0.81699000  1.0 -0.3487764468
N  N10  1  0.56235000  0.18301000  0.26440000  1.0 -0.3410693011
N  N11  1  0.18301000  0.26440000  0.56235000  1.0 -0.3487764468
N  N12  1  0.26440000  0.56235000  0.18301000  1.0 -0.3487764468
N  N13  1  0.35395000  0.74559000  0.55080000  1.0 -0.1567531417
N  N14  1  0.74559000  0.55080000  0.35395000  1.0 -0.1567531417
N  N15  1  0.55080000  0.35395000  0.74559000  1.0 -0.1567531417
N  N16  1  0.64605000  0.25441000  0.44920000  1.0 -0.1567531417
N  N17  1  0.25441000  0.44920000  0.64605000  1.0 -0.1567531417
N  N18  1  0.44920000  0.64605000  0.25441000  1.0 -0.1567531417
N  N19  1  0.25525000  0.64579000  0.44870000  1.0 -0.1465798135
N  N20  1  0.64579000  0.44870000  0.25525000  1.0 -0.1465798135
N  N21  1  0.44870000  0.25525000  0.64579000  1.0 -0.1465798135
N  N22  1  0.74475000  0.35421000  0.55130000  1.0 -0.1465798135
N  N23  1  0.35421000  0.55130000  0.74475000  1.0 -0.1465798135
N  N24  1  0.55130000  0.74475000  0.35421000  1.0 -0.1465798135
N  N25  1  0.35185000  0.05579000  0.62100000  1.0 -0.3487764468
N  N26  1  0.05579000  0.62100000  0.35185000  1.0 -0.3487764468
N  N27  1  0.62100000  0.35185000  0.05579000  1.0 -0.3487764468
N  N28  1  0.64815000  0.94421000  0.37900000  1.0 -0.3487764468
N  N29  1  0.94421000  0.37900000  0.64815000  1.0 -0.3487764468
N  N30  1  0.37900000  0.64815000  0.94421000  1.0 -0.3487764468
N  N31  1  0.37935000  0.94419000  0.64750000  1.0 -0.3584132905
N  N32  1  0.94419000  0.64750000  0.37935000  1.0 -0.3584132905
N  N33  1  0.64750000  0.37935000  0.94419000  1.0 -0.3584132905
N  N34  1  0.62065000  0.05581000  0.35250000  1.0 -0.3584132905
N  N35  1  0.05581000  0.35250000  0.62065000  1.0 -0.3584132905
N  N36  1  0.35250000  0.62065000  0.05581000  1.0 -0.3584132905
N  N37  1  0.51195000  0.85729000  0.59940000  1.0 -0.1898339357
N  N38  1  0.85729000  0.59940000  0.51195000  1.0 -0.1898339357
N  N39  1  0.59940000  0.51195000  0.85729000  1.0 -0.1898339357
N  N40  1  0.48805000  0.14271000  0.40060000  1.0 -0.1898339357
N  N41  1  0.14271000  0.40060000  0.48805000  1.0 -0.1898339357
N  N42  1  0.40060000  0.48805000  0.14271000  1.0 -0.1898339357
N  N43  1  0.59735000  0.86059000  0.52000000  1.0 -0.2803274806
N  N44  1  0.86059000  0.52000000  0.59735000  1.0 -0.2803274806
N  N45  1  0.52000000  0.59735000  0.86059000  1.0 -0.2803274806
N  N46  1  0.40265000  0.13941000  0.48000000  1.0 -0.2803274806
N  N47  1  0.13941000  0.48000000  0.40265000  1.0 -0.2803274806
N  N48  1  0.48000000  0.40265000  0.13941000  1.0 -0.2803274806
N  N49  1  0.31305000  0.78569000  0.55070000  1.0 -0.1394384096
N  N50  1  0.78569000  0.55070000  0.31305000  1.0 -0.1394384096
N  N51  1  0.55070000  0.31305000  0.78569000  1.0 -0.1394384096
N  N52  1  0.68695000  0.21431000  0.44930000  1.0 -0.1394384096
N  N53  1  0.21431000  0.44930000  0.68695000  1.0 -0.1394384096
N  N54  1  0.44930000  0.68695000  0.21431000  1.0 -0.1394384096
N  N55  1  0.21735000  0.68609000  0.44570000  1.0 -0.1394384096
N  N56  1  0.68609000  0.44570000  0.21735000  1.0 -0.1394384096
N  N57  1  0.44570000  0.21735000  0.68609000  1.0 -0.1394384096
N  N58  1  0.78265000  0.31391000  0.55430000  1.0 -0.1394384096
N  N59  1  0.31391000  0.55430000  0.78265000  1.0 -0.1394384096
N  N60  1  0.55430000  0.78265000  0.31391000  1.0 -0.1394384096
N  N61  1  0.52225000  0.88219000  0.59900000  1.0 -0.0176969253
N  N62  1  0.88219000  0.59900000  0.52225000  1.0 -0.0176969253
N  N63  1  0.59900000  0.52225000  0.88219000  1.0 -0.0176969253
N  N64  1  0.47775000  0.11781000  0.40100000  1.0 -0.0176969253
N  N65  1  0.11781000  0.40100000  0.47775000  1.0 -0.0176969253
N  N66  1  0.40100000  0.47775000  0.11781000  1.0 -0.0176969253
N  N67  1  0.60075000  0.87929000  0.51590000  1.0 -0.3344263549
N  N68  1  0.87929000  0.51590000  0.60075000  1.0 -0.3344263549
N  N69  1  0.51590000  0.60075000  0.87929000  1.0 -0.3344263549
N  N70  1  0.39925000  0.12071000  0.48410000  1.0 -0.3344263549
N  N71  1  0.12071000  0.48410000  0.39925000  1.0 -0.3344263549
N  N72  1  0.48410000  0.39925000  0.12071000  1.0 -0.3344263549
N  N73  1  0.66495000  0.11189000  0.66430000  1.0 0.0708036681
N  N74  1  0.11189000  0.66430000  0.66495000  1.0 0.0708036681
N  N75  1  0.66430000  0.66495000  0.11189000  1.0 0.0708036681
N  N76  1  0.33505000  0.88811000  0.33570000  1.0 0.0708036681
N  N77  1  0.88811000  0.33570000  0.33505000  1.0 0.0708036681
N  N78  1  0.33570000  0.33505000  0.88811000  1.0 0.0708036681
O  O1  1  0.56465000  0.06279000  0.56440000  1.0 -0.2136322437
O  O2  1  0.06279000  0.56440000  0.56465000  1.0 -0.2136322437
O  O3  1  0.56440000  0.56465000  0.06279000  1.0 -0.2136322437
O  O4  1  0.43535000  0.93721000  0.43560000  1.0 -0.2136322437
O  O5  1  0.93721000  0.43560000  0.43535000  1.0 -0.2136322437
O  O6  1  0.43560000  0.43535000  0.93721000  1.0 -0.2136322437
