# DDEC6 charges by PACMAN v1.1 (https://github.com/mtap-research/PACMAN-charge/)
data_TOHDAX_FSR_pacman
_symmetry_space_group_name_H-M   'P 1'
_cell_length_a   17.67450000
_cell_length_b   17.67450000
_cell_length_c   17.67450000
_cell_angle_alpha   102.82600000
_cell_angle_beta   102.82600000
_cell_angle_gamma   102.82600000
_symmetry_Int_Tables_number   1
_chemical_formula_structural   Zn2H15C37(Br5N4)2
_chemical_formula_sum   'Zn12 H90 C222 Br60 N48'
_cell_volume   5030.99458834
_cell_formula_units_Z   6
loop_
 _symmetry_equiv_pos_site_id
 _symmetry_equiv_pos_as_xyz
  1  'x, y, z'
loop_
 _atom_site_type_symbol
 _atom_site_label
 _atom_site_symmetry_multiplicity
 _atom_site_fract_x
 _atom_site_fract_y
 _atom_site_fract_z
 _atom_site_occupancy
 _atom_site_charge
Zn  Zn1  1  0.13468000  0.34869000  0.91868000  1.0 0.6030775625
Zn  Zn2  1  0.34869000  0.91868000  0.13468000  1.0 0.6030775625
Zn  Zn3  1  0.91868000  0.13468000  0.34869000  1.0 0.6030775625
Zn  Zn4  1  0.86532000  0.65131000  0.08132000  1.0 0.6056309539
Zn  Zn5  1  0.65131000  0.08132000  0.86532000  1.0 0.6030775625
Zn  Zn6  1  0.08132000  0.86532000  0.65131000  1.0 0.6030775625
Zn  Zn7  1  0.34860000  0.13451000  0.91846000  1.0 0.6426935393
Zn  Zn8  1  0.13451000  0.91846000  0.34860000  1.0 0.6426935393
Zn  Zn9  1  0.91846000  0.34860000  0.13451000  1.0 0.6426935393
Zn  Zn10  1  0.65140000  0.86549000  0.08154000  1.0 0.6426935393
Zn  Zn11  1  0.86549000  0.08154000  0.65140000  1.0 0.6426935393
Zn  Zn12  1  0.08154000  0.65140000  0.86549000  1.0 0.6426935393
H  H1  1  0.06614000  0.93699000  0.81950000  1.0 0.1211013078
H  H2  1  0.93699000  0.81950000  0.06614000  1.0 0.1211013078
H  H3  1  0.81950000  0.06614000  0.93699000  1.0 0.1211013078
H  H4  1  0.93386000  0.06301000  0.18050000  1.0 0.1211013078
H  H5  1  0.06301000  0.18050000  0.93386000  1.0 0.1211013078
H  H6  1  0.18050000  0.93386000  0.06301000  1.0 0.1211013078
H  H7  1  0.52394000  0.23339000  0.06910000  1.0 0.1274448458
H  H8  1  0.23339000  0.06910000  0.52394000  1.0 0.1274448458
H  H9  1  0.06910000  0.52394000  0.23339000  1.0 0.1274448458
H  H10  1  0.47606000  0.76661000  0.93090000  1.0 0.1274448458
H  H11  1  0.76661000  0.93090000  0.47606000  1.0 0.1274448458
H  H12  1  0.93090000  0.47606000  0.76661000  1.0 0.1274448458
H  H13  1  0.51054000  0.05539000  0.22930000  1.0 0.1211013078
H  H14  1  0.05539000  0.22930000  0.51054000  1.0 0.1211013078
H  H15  1  0.22930000  0.51054000  0.05539000  1.0 0.1211013078
H  H16  1  0.48946000  0.94461000  0.77070000  1.0 0.1211013078
H  H17  1  0.94461000  0.77070000  0.48946000  1.0 0.1211013078
H  H18  1  0.77070000  0.48946000  0.94461000  1.0 0.1211013078
H  H19  1  0.16924000  0.05309000  0.92580000  1.0 0.1274448458
H  H20  1  0.05309000  0.92580000  0.16924000  1.0 0.1274448458
H  H21  1  0.92580000  0.16924000  0.05309000  1.0 0.1274448458
H  H22  1  0.83076000  0.94691000  0.07420000  1.0 0.1274448458
H  H23  1  0.94691000  0.07420000  0.83076000  1.0 0.1274448458
H  H24  1  0.07420000  0.83076000  0.94691000  1.0 0.1274448458
H  H25  1  0.30594000  0.05469000  0.71430000  1.0 0.1415906919
H  H26  1  0.05469000  0.71430000  0.30594000  1.0 0.1415906919
H  H27  1  0.71430000  0.30594000  0.05469000  1.0 0.1415906919
H  H28  1  0.69406000  0.94531000  0.28570000  1.0 0.1415906919
H  H29  1  0.94531000  0.28570000  0.69406000  1.0 0.1415906919
H  H30  1  0.28570000  0.69406000  0.94531000  1.0 0.1415906919
H  H31  1  0.33584000  0.98719000  0.74980000  1.0 0.1498800005
H  H32  1  0.98719000  0.74980000  0.33584000  1.0 0.1498800005
H  H33  1  0.74980000  0.33584000  0.98719000  1.0 0.1498800005
H  H34  1  0.66416000  0.01281000  0.25020000  1.0 0.1498800005
H  H35  1  0.01281000  0.25020000  0.66416000  1.0 0.1498800005
H  H36  1  0.25020000  0.66416000  0.01281000  1.0 0.1498800005
H  H37  1  0.26234000  0.96069000  0.66890000  1.0 0.1498800005
H  H38  1  0.96069000  0.66890000  0.26234000  1.0 0.1498800005
H  H39  1  0.66890000  0.26234000  0.96069000  1.0 0.1498800005
H  H40  1  0.73766000  0.03931000  0.33110000  1.0 0.1498800005
H  H41  1  0.03931000  0.33110000  0.73766000  1.0 0.1498800005
H  H42  1  0.33110000  0.73766000  0.03931000  1.0 0.1498800005
H  H43  1  0.22304000  0.25039000  0.78840000  1.0 0.1274448458
H  H44  1  0.25039000  0.78840000  0.22304000  1.0 0.1274448458
H  H45  1  0.78840000  0.22304000  0.25039000  1.0 0.1274448458
H  H46  1  0.77696000  0.74961000  0.21160000  1.0 0.1274448458
H  H47  1  0.74961000  0.21160000  0.77696000  1.0 0.1274448458
H  H48  1  0.21160000  0.77696000  0.74961000  1.0 0.1274448458
H  H49  1  0.22174000  0.16319000  0.80070000  1.0 0.1415906919
H  H50  1  0.16319000  0.80070000  0.22174000  1.0 0.1415906919
H  H51  1  0.80070000  0.22174000  0.16319000  1.0 0.1415906919
H  H52  1  0.77826000  0.83681000  0.19930000  1.0 0.1415906919
H  H53  1  0.83681000  0.19930000  0.77826000  1.0 0.1415906919
H  H54  1  0.19930000  0.77826000  0.83681000  1.0 0.1415906919
H  H55  1  0.14474000  0.19639000  0.80220000  1.0 0.1415906919
H  H56  1  0.19639000  0.80220000  0.14474000  1.0 0.1415906919
H  H57  1  0.80220000  0.14474000  0.19639000  1.0 0.1415906919
H  H58  1  0.85526000  0.80361000  0.19780000  1.0 0.1415906919
H  H59  1  0.80361000  0.19780000  0.85526000  1.0 0.1415906919
H  H60  1  0.19780000  0.85526000  0.80361000  1.0 0.1415906919
H  H61  1  0.38544000  0.92309000  0.98120000  1.0 0.1581515115
H  H62  1  0.92309000  0.98120000  0.38544000  1.0 0.1581515115
H  H63  1  0.98120000  0.38544000  0.92309000  1.0 0.1581515115
H  H64  1  0.61456000  0.07691000  0.01880000  1.0 0.1581515115
H  H65  1  0.07691000  0.01880000  0.61456000  1.0 0.1581515115
H  H66  1  0.01880000  0.61456000  0.07691000  1.0 0.1581515115
H  H67  1  0.29844000  0.92589000  0.93310000  1.0 0.1581515115
H  H68  1  0.92589000  0.93310000  0.29844000  1.0 0.1581515115
H  H69  1  0.93310000  0.29844000  0.92589000  1.0 0.1581515115
H  H70  1  0.70156000  0.07411000  0.06690000  1.0 0.1581515115
H  H71  1  0.07411000  0.06690000  0.70156000  1.0 0.1581515115
H  H72  1  0.06690000  0.70156000  0.07411000  1.0 0.1581515115
H  H73  1  0.37884000  0.97849000  0.92100000  1.0 0.1581515115
H  H74  1  0.97849000  0.92100000  0.37884000  1.0 0.1581515115
H  H75  1  0.92100000  0.37884000  0.97849000  1.0 0.1581515115
H  H76  1  0.62116000  0.02151000  0.07900000  1.0 0.1581515115
H  H77  1  0.02151000  0.07900000  0.62116000  1.0 0.1581515115
H  H78  1  0.07900000  0.62116000  0.02151000  1.0 0.1581515115
H  H79  1  0.37554000  0.20139000  0.11330000  1.0 0.1211013078
H  H80  1  0.20139000  0.11330000  0.37554000  1.0 0.1211013078
H  H81  1  0.11330000  0.37554000  0.20139000  1.0 0.1211013078
H  H82  1  0.62446000  0.79861000  0.88670000  1.0 0.1211013078
H  H83  1  0.79861000  0.88670000  0.62446000  1.0 0.1211013078
H  H84  1  0.88670000  0.62446000  0.79861000  1.0 0.1211013078
H  H85  1  0.37994000  0.12269000  0.19840000  1.0 0.1211013078
H  H86  1  0.12269000  0.19840000  0.37994000  1.0 0.1211013078
H  H87  1  0.19840000  0.37994000  0.12269000  1.0 0.1211013078
H  H88  1  0.62006000  0.87731000  0.80160000  1.0 0.1211013078
H  H89  1  0.87731000  0.80160000  0.62006000  1.0 0.1211013078
H  H90  1  0.80160000  0.62006000  0.87731000  1.0 0.1211013078
C  C1  1  0.35804000  0.02199000  0.02340000  1.0 0.2357456359
C  C2  1  0.02199000  0.02340000  0.35804000  1.0 0.2357456359
C  C3  1  0.02340000  0.35804000  0.02199000  1.0 0.2357456359
C  C4  1  0.64196000  0.97801000  0.97660000  1.0 0.2357456359
C  C5  1  0.97801000  0.97660000  0.64196000  1.0 0.2357456359
C  C6  1  0.97660000  0.64196000  0.97801000  1.0 0.2357456359
C  C7  1  0.11784000  0.96509000  0.81800000  1.0 -0.0600668619
C  C8  1  0.96509000  0.81800000  0.11784000  1.0 -0.0600668619
C  C9  1  0.81800000  0.11784000  0.96509000  1.0 -0.0600668619
C  C10  1  0.88216000  0.03491000  0.18200000  1.0 -0.0600668619
C  C11  1  0.03491000  0.18200000  0.88216000  1.0 -0.0600668619
C  C12  1  0.18200000  0.88216000  0.03491000  1.0 -0.0600668619
C  C13  1  0.22524000  0.00109000  0.77540000  1.0 0.4208348193
C  C14  1  0.00109000  0.77540000  0.22524000  1.0 0.4208348193
C  C15  1  0.77540000  0.22524000  0.00109000  1.0 0.4208348193
C  C16  1  0.77476000  0.99891000  0.22460000  1.0 0.4208348193
C  C17  1  0.99891000  0.22460000  0.77476000  1.0 0.4208348193
C  C18  1  0.22460000  0.77476000  0.99891000  1.0 0.4208348193
C  C19  1  0.45324000  0.07409000  0.12450000  1.0 0.1415906919
C  C20  1  0.07409000  0.12450000  0.45324000  1.0 0.1415906919
C  C21  1  0.12450000  0.45324000  0.07409000  1.0 0.1415906919
C  C22  1  0.54676000  0.92591000  0.87550000  1.0 0.1415906919
C  C23  1  0.92591000  0.87550000  0.54676000  1.0 0.1415906919
C  C24  1  0.87550000  0.54676000  0.92591000  1.0 0.1415906919
C  C25  1  0.45714000  0.12689000  0.07680000  1.0 0.1274448458
C  C26  1  0.12689000  0.07680000  0.45714000  1.0 0.1274448458
C  C27  1  0.07680000  0.45714000  0.12689000  1.0 0.1274448458
C  C28  1  0.54286000  0.87311000  0.92320000  1.0 0.1274448458
C  C29  1  0.87311000  0.92320000  0.54286000  1.0 0.1274448458
C  C30  1  0.92320000  0.54286000  0.87311000  1.0 0.1274448458
C  C31  1  0.52124000  0.19729000  0.10160000  1.0 -0.2288621939
C  C32  1  0.19729000  0.10160000  0.52124000  1.0 -0.2288621939
C  C33  1  0.10160000  0.52124000  0.19729000  1.0 -0.2288621939
C  C34  1  0.47876000  0.80271000  0.89840000  1.0 -0.2288621939
C  C35  1  0.80271000  0.89840000  0.47876000  1.0 -0.2288621939
C  C36  1  0.89840000  0.47876000  0.80271000  1.0 -0.2288621939
C  C37  1  0.58114000  0.21479000  0.17390000  1.0 -0.1414019791
C  C38  1  0.21479000  0.17390000  0.58114000  1.0 -0.1414019791
C  C39  1  0.17390000  0.58114000  0.21479000  1.0 -0.1414019791
C  C40  1  0.41886000  0.78521000  0.82610000  1.0 -0.1414019791
C  C41  1  0.78521000  0.82610000  0.41886000  1.0 -0.1414019791
C  C42  1  0.82610000  0.41886000  0.78521000  1.0 -0.1414019791
C  C43  1  0.57724000  0.16199000  0.22160000  1.0 -0.1096547074
C  C44  1  0.16199000  0.22160000  0.57724000  1.0 -0.1096547074
C  C45  1  0.22160000  0.57724000  0.16199000  1.0 -0.1096547074
C  C46  1  0.42276000  0.83801000  0.77840000  1.0 -0.1096547074
C  C47  1  0.83801000  0.77840000  0.42276000  1.0 -0.1096547074
C  C48  1  0.77840000  0.42276000  0.83801000  1.0 -0.1096547074
C  C49  1  0.51314000  0.09159000  0.19680000  1.0 -0.2759622586
C  C50  1  0.09159000  0.19680000  0.51314000  1.0 -0.2759622586
C  C51  1  0.19680000  0.51314000  0.09159000  1.0 -0.2759622586
C  C52  1  0.48686000  0.90841000  0.80320000  1.0 -0.2759622586
C  C53  1  0.90841000  0.80320000  0.48686000  1.0 -0.2759622586
C  C54  1  0.80320000  0.48686000  0.90841000  1.0 -0.2759622586
C  C55  1  0.27104000  0.32399000  0.02500000  1.0 0.0657863313
C  C56  1  0.32399000  0.02500000  0.27104000  1.0 0.0646526712
C  C57  1  0.02500000  0.27104000  0.32399000  1.0 0.0657863313
C  C58  1  0.72896000  0.67601000  0.97500000  1.0 0.0657863313
C  C59  1  0.67601000  0.97500000  0.72896000  1.0 0.0657863313
C  C60  1  0.97500000  0.72896000  0.67601000  1.0 0.0657863313
C  C61  1  0.32434000  0.27189000  0.03580000  1.0 -0.18972037
C  C62  1  0.27189000  0.03580000  0.32434000  1.0 -0.18972037
C  C63  1  0.03580000  0.32434000  0.27189000  1.0 -0.18972037
C  C64  1  0.67566000  0.72811000  0.96420000  1.0 -0.18972037
C  C65  1  0.72811000  0.96420000  0.67566000  1.0 -0.18972037
C  C66  1  0.96420000  0.67566000  0.72811000  1.0 -0.18972037
C  C67  1  0.17484000  0.02629000  0.87530000  1.0 -0.0500826624
C  C68  1  0.02629000  0.87530000  0.17484000  1.0 -0.0500826624
C  C69  1  0.87530000  0.17484000  0.02629000  1.0 -0.0500826624
C  C70  1  0.82516000  0.97371000  0.12470000  1.0 -0.0500826624
C  C71  1  0.97371000  0.12470000  0.82516000  1.0 -0.0500826624
C  C72  1  0.12470000  0.82516000  0.97371000  1.0 -0.0500826624
C  C73  1  0.28864000  0.00089000  0.72180000  1.0 -0.5508439642
C  C74  1  0.00089000  0.72180000  0.28864000  1.0 -0.5508439642
C  C75  1  0.72180000  0.28864000  0.00089000  1.0 -0.5508439642
C  C76  1  0.71136000  0.99911000  0.27820000  1.0 -0.5508439642
C  C77  1  0.99911000  0.27820000  0.71136000  1.0 -0.5508439642
C  C78  1  0.27820000  0.71136000  0.99911000  1.0 -0.5508439642
C  C79  1  0.20424000  0.21189000  0.81690000  1.0 -0.571248611
C  C80  1  0.21189000  0.81690000  0.20424000  1.0 -0.571248611
C  C81  1  0.81690000  0.20424000  0.21189000  1.0 -0.571248611
C  C82  1  0.79576000  0.78811000  0.18310000  1.0 -0.571248611
C  C83  1  0.78811000  0.18310000  0.79576000  1.0 -0.571248611
C  C84  1  0.18310000  0.79576000  0.78811000  1.0 -0.571248611
C  C85  1  0.24244000  0.25409000  0.91770000  1.0 0.2571965355
C  C86  1  0.25409000  0.91770000  0.24244000  1.0 0.2571965355
C  C87  1  0.91770000  0.24244000  0.25409000  1.0 0.2571965355
C  C88  1  0.75756000  0.74591000  0.08230000  1.0 0.2571965355
C  C89  1  0.74591000  0.08230000  0.75756000  1.0 0.2571965355
C  C90  1  0.08230000  0.75756000  0.74591000  1.0 0.2571965355
C  C91  1  0.11024000  0.49909000  0.88680000  1.0 0.0306970232
C  C92  1  0.49909000  0.88680000  0.11024000  1.0 0.0306970232
C  C93  1  0.88680000  0.11024000  0.49909000  1.0 0.0306970232
C  C94  1  0.88976000  0.50091000  0.11320000  1.0 0.0306970232
C  C95  1  0.50091000  0.11320000  0.88976000  1.0 0.0306970232
C  C96  1  0.11320000  0.88976000  0.50091000  1.0 0.0306970232
C  C97  1  0.21314000  0.49929000  0.68260000  1.0 -0.1414019791
C  C98  1  0.49929000  0.68260000  0.21314000  1.0 -0.1414019791
C  C99  1  0.68260000  0.21314000  0.49929000  1.0 -0.1303981931
C  C100  1  0.78686000  0.50071000  0.31740000  1.0 -0.1303981931
C  C101  1  0.50071000  0.31740000  0.78686000  1.0 -0.1414019791
C  C102  1  0.31740000  0.78686000  0.50071000  1.0 -0.1414019791
C  C103  1  0.23994000  0.43739000  0.70570000  1.0 -0.0600668619
C  C104  1  0.43739000  0.70570000  0.23994000  1.0 -0.0600668619
C  C105  1  0.70570000  0.23994000  0.43739000  1.0 -0.0600668619
C  C106  1  0.76006000  0.56261000  0.29430000  1.0 -0.0600668619
C  C107  1  0.56261000  0.29430000  0.76006000  1.0 -0.0600668619
C  C108  1  0.29430000  0.76006000  0.56261000  1.0 -0.0600668619
C  C109  1  0.22394000  0.41519000  0.77240000  1.0 -0.0600668619
C  C110  1  0.41519000  0.77240000  0.22394000  1.0 -0.0600668619
C  C111  1  0.77240000  0.22394000  0.41519000  1.0 -0.0600668619
C  C112  1  0.77606000  0.58481000  0.22760000  1.0 -0.0600668619
C  C113  1  0.58481000  0.22760000  0.77606000  1.0 -0.0600668619
C  C114  1  0.22760000  0.77606000  0.58481000  1.0 -0.0600668619
C  C115  1  0.18214000  0.45589000  0.81700000  1.0 0.1093059914
C  C116  1  0.45589000  0.81700000  0.18214000  1.0 0.1093059914
C  C117  1  0.81700000  0.18214000  0.45589000  1.0 0.1093059914
C  C118  1  0.81786000  0.54411000  0.18300000  1.0 0.1093059914
C  C119  1  0.54411000  0.18300000  0.81786000  1.0 0.1093059914
C  C120  1  0.18300000  0.81786000  0.54411000  1.0 0.1093059914
C  C121  1  0.15634000  0.51879000  0.79490000  1.0 0.0970220795
C  C122  1  0.51879000  0.79490000  0.15634000  1.0 0.0970220795
C  C123  1  0.79490000  0.15634000  0.51879000  1.0 0.0970220795
C  C124  1  0.84366000  0.48121000  0.20510000  1.0 0.0970220795
C  C125  1  0.48121000  0.20510000  0.84366000  1.0 0.0970220795
C  C126  1  0.20510000  0.84366000  0.48121000  1.0 0.0970220795
C  C127  1  0.17214000  0.54079000  0.72800000  1.0 -0.0361889131
C  C128  1  0.54079000  0.72800000  0.17214000  1.0 -0.0361889131
C  C129  1  0.72800000  0.17214000  0.54079000  1.0 -0.0361889131
C  C130  1  0.82786000  0.45921000  0.27200000  1.0 -0.0361889131
C  C131  1  0.45921000  0.27200000  0.82786000  1.0 -0.0361889131
C  C132  1  0.27200000  0.82786000  0.45921000  1.0 -0.0361889131
C  C133  1  0.31784000  0.37219000  0.96600000  1.0 0.0657863313
C  C134  1  0.37219000  0.96600000  0.31784000  1.0 0.0657863313
C  C135  1  0.96600000  0.31784000  0.37219000  1.0 0.0657863313
C  C136  1  0.68216000  0.62781000  0.03400000  1.0 0.0657863313
C  C137  1  0.62781000  0.03400000  0.68216000  1.0 0.0657863313
C  C138  1  0.03400000  0.68216000  0.62781000  1.0 0.0657863313
C  C139  1  0.35084000  0.44899000  0.02090000  1.0 -0.148858525
C  C140  1  0.44899000  0.02090000  0.35084000  1.0 -0.148858525
C  C141  1  0.02090000  0.35084000  0.44899000  1.0 -0.148858525
C  C142  1  0.64916000  0.55101000  0.97910000  1.0 -0.148858525
C  C143  1  0.55101000  0.97910000  0.64916000  1.0 -0.148858525
C  C144  1  0.97910000  0.64916000  0.55101000  1.0 -0.148858525
C  C145  1  0.43354000  0.47669000  0.05960000  1.0 -0.148858525
C  C146  1  0.47669000  0.05960000  0.43354000  1.0 -0.148858525
C  C147  1  0.05960000  0.43354000  0.47669000  1.0 -0.148858525
C  C148  1  0.56646000  0.52331000  0.94040000  1.0 -0.148858525
C  C149  1  0.52331000  0.94040000  0.56646000  1.0 -0.148858525
C  C150  1  0.94040000  0.56646000  0.52331000  1.0 -0.148858525
C  C151  1  0.48334000  0.42769000  0.04350000  1.0 -0.1303981931
C  C152  1  0.42769000  0.04350000  0.48334000  1.0 -0.1303981931
C  C153  1  0.04350000  0.48334000  0.42769000  1.0 -0.1303981931
C  C154  1  0.51666000  0.57231000  0.95650000  1.0 -0.1303981931
C  C155  1  0.57231000  0.95650000  0.51666000  1.0 -0.1303981931
C  C156  1  0.95650000  0.51666000  0.57231000  1.0 -0.1303981931
C  C157  1  0.45054000  0.35089000  0.98870000  1.0 -0.0815627928
C  C158  1  0.35089000  0.98870000  0.45054000  1.0 -0.0815627928
C  C159  1  0.98870000  0.45054000  0.35089000  1.0 -0.0815627928
C  C160  1  0.54946000  0.64911000  0.01130000  1.0 -0.0815627928
C  C161  1  0.64911000  0.01130000  0.54946000  1.0 -0.0815627928
C  C162  1  0.01130000  0.54946000  0.64911000  1.0 -0.0815627928
C  C163  1  0.36794000  0.32289000  0.94990000  1.0 -0.0815627928
C  C164  1  0.32289000  0.94990000  0.36794000  1.0 -0.0815627928
C  C165  1  0.94990000  0.36794000  0.32289000  1.0 -0.0815627928
C  C166  1  0.63206000  0.67711000  0.05010000  1.0 -0.0815627928
C  C167  1  0.67711000  0.05010000  0.63206000  1.0 -0.0815627928
C  C168  1  0.05010000  0.63206000  0.67711000  1.0 -0.0815627928
C  C169  1  0.35504000  0.95699000  0.96000000  1.0 -0.5337724191
C  C170  1  0.95699000  0.96000000  0.35504000  1.0 -0.5337724191
C  C171  1  0.96000000  0.35504000  0.95699000  1.0 -0.5337724191
C  C172  1  0.64496000  0.04301000  0.04000000  1.0 -0.5337724191
C  C173  1  0.04301000  0.04000000  0.64496000  1.0 -0.5337724191
C  C174  1  0.04000000  0.64496000  0.04301000  1.0 -0.5337724191
C  C175  1  0.37674000  0.14699000  0.09930000  1.0 -0.0110908192
C  C176  1  0.14699000  0.09930000  0.37674000  1.0 -0.0110908192
C  C177  1  0.09930000  0.37674000  0.14699000  1.0 -0.0110908192
C  C178  1  0.62326000  0.85301000  0.90070000  1.0 -0.0110908192
C  C179  1  0.85301000  0.90070000  0.62326000  1.0 -0.0110908192
C  C180  1  0.90070000  0.62326000  0.85301000  1.0 -0.0110908192
C  C181  1  0.37984000  0.10619000  0.14300000  1.0 -0.0500826624
C  C182  1  0.10619000  0.14300000  0.37984000  1.0 -0.0500826624
C  C183  1  0.14300000  0.37984000  0.10619000  1.0 -0.0500826624
C  C184  1  0.62016000  0.89381000  0.85700000  1.0 -0.0500826624
C  C185  1  0.89381000  0.85700000  0.62016000  1.0 -0.0500826624
C  C186  1  0.85700000  0.62016000  0.89381000  1.0 -0.0500826624
C  C187  1  0.41824000  0.23049000  0.77600000  1.0 -0.0291528797
C  C188  1  0.23049000  0.77600000  0.41824000  1.0 -0.0291528797
C  C189  1  0.77600000  0.41824000  0.23049000  1.0 -0.0291528797
C  C190  1  0.58176000  0.76951000  0.22400000  1.0 -0.0291528797
C  C191  1  0.76951000  0.22400000  0.58176000  1.0 -0.0291528797
C  C192  1  0.22400000  0.58176000  0.76951000  1.0 -0.0291528797
C  C193  1  0.45414000  0.18199000  0.81530000  1.0 0.1093059914
C  C194  1  0.18199000  0.81530000  0.45414000  1.0 0.1093059914
C  C195  1  0.81530000  0.45414000  0.18199000  1.0 0.1093059914
C  C196  1  0.54586000  0.81801000  0.18470000  1.0 0.1093059914
C  C197  1  0.81801000  0.18470000  0.54586000  1.0 0.1093059914
C  C198  1  0.18470000  0.54586000  0.81801000  1.0 0.1093059914
C  C199  1  0.51604000  0.15539000  0.79170000  1.0 0.0900203993
C  C200  1  0.15539000  0.79170000  0.51604000  1.0 0.0900203993
C  C201  1  0.79170000  0.51604000  0.15539000  1.0 0.0900203993
C  C202  1  0.48396000  0.84461000  0.20830000  1.0 0.0900203993
C  C203  1  0.84461000  0.20830000  0.48396000  1.0 0.0900203993
C  C204  1  0.20830000  0.48396000  0.84461000  1.0 0.0900203993
C  C205  1  0.54184000  0.17739000  0.72890000  1.0 -0.0600668619
C  C206  1  0.17739000  0.72890000  0.54184000  1.0 -0.0600668619
C  C207  1  0.72890000  0.54184000  0.17739000  1.0 -0.0600668619
C  C208  1  0.45816000  0.82261000  0.27110000  1.0 -0.0600668619
C  C209  1  0.82261000  0.27110000  0.45816000  1.0 -0.0600668619
C  C210  1  0.27110000  0.45816000  0.82261000  1.0 -0.0600668619
C  C211  1  0.50594000  0.22589000  0.68960000  1.0 -0.1303981931
C  C212  1  0.22589000  0.68960000  0.50594000  1.0 -0.1303981931
C  C213  1  0.68960000  0.50594000  0.22589000  1.0 -0.1303981931
C  C214  1  0.49406000  0.77411000  0.31040000  1.0 -0.1303981931
C  C215  1  0.77411000  0.31040000  0.49406000  1.0 -0.1303981931
C  C216  1  0.31040000  0.49406000  0.77411000  1.0 -0.1303981931
C  C217  1  0.44414000  0.25249000  0.71310000  1.0 -0.0500826624
C  C218  1  0.25249000  0.71310000  0.44414000  1.0 -0.0500826624
C  C219  1  0.71310000  0.44414000  0.25249000  1.0 -0.0500826624
C  C220  1  0.55586000  0.74751000  0.28690000  1.0 -0.0500826624
C  C221  1  0.74751000  0.28690000  0.55586000  1.0 -0.0500826624
C  C222  1  0.28690000  0.55586000  0.74751000  1.0 -0.0500826624
Br  Br1  1  0.64874000  0.33369000  0.21480000  1.0 0.0422993437
Br  Br2  1  0.33369000  0.21480000  0.64874000  1.0 0.0422993437
Br  Br3  1  0.21480000  0.64874000  0.33369000  1.0 0.0422993437
Br  Br4  1  0.35126000  0.66631000  0.78520000  1.0 0.0422993437
Br  Br5  1  0.66631000  0.78520000  0.35126000  1.0 0.0422993437
Br  Br6  1  0.78520000  0.35126000  0.66631000  1.0 0.0422993437
Br  Br7  1  0.21534000  0.51879000  0.56640000  1.0 -0.0600668619
Br  Br8  1  0.51879000  0.56640000  0.21534000  1.0 -0.0600668619
Br  Br9  1  0.56640000  0.21534000  0.51879000  1.0 -0.0600668619
Br  Br10  1  0.78466000  0.48121000  0.43360000  1.0 -0.0600668619
Br  Br11  1  0.48121000  0.43360000  0.78466000  1.0 -0.0600668619
Br  Br12  1  0.43360000  0.78466000  0.48121000  1.0 -0.0600668619
Br  Br13  1  0.53324000  0.25749000  0.60520000  1.0 0.0306970232
Br  Br14  1  0.25749000  0.60520000  0.53324000  1.0 0.0306970232
Br  Br15  1  0.60520000  0.53324000  0.25749000  1.0 0.0306970232
Br  Br16  1  0.46676000  0.74251000  0.39480000  1.0 0.0306970232
Br  Br17  1  0.74251000  0.39480000  0.46676000  1.0 0.0306970232
Br  Br18  1  0.39480000  0.46676000  0.74251000  1.0 0.0306970232
Br  Br19  1  0.40574000  0.32009000  0.66260000  1.0 0.0802396261
Br  Br20  1  0.32009000  0.66260000  0.40574000  1.0 0.0802396261
Br  Br21  1  0.66260000  0.40574000  0.32009000  1.0 0.0802396261
Br  Br22  1  0.59426000  0.67991000  0.33740000  1.0 0.0802396261
Br  Br23  1  0.67991000  0.33740000  0.59426000  1.0 0.0802396261
Br  Br24  1  0.33740000  0.59426000  0.67991000  1.0 0.0802396261
Br  Br25  1  0.44894000  0.36829000  0.71430000  1.0 0.1093059914
Br  Br26  1  0.36829000  0.71430000  0.44894000  1.0 0.0970220795
Br  Br27  1  0.71430000  0.44894000  0.36829000  1.0 0.1093059914
Br  Br28  1  0.55106000  0.63171000  0.28570000  1.0 0.1093059914
Br  Br29  1  0.63171000  0.28570000  0.55106000  1.0 0.1093059914
Br  Br30  1  0.28570000  0.55106000  0.63171000  1.0 0.1093059914
Br  Br31  1  0.56824000  0.30829000  0.64750000  1.0 0.0536473727
Br  Br32  1  0.30829000  0.64750000  0.56824000  1.0 0.0536473727
Br  Br33  1  0.64750000  0.56824000  0.30829000  1.0 0.0536473727
Br  Br34  1  0.43176000  0.69171000  0.35250000  1.0 0.0536473727
Br  Br35  1  0.69171000  0.35250000  0.43176000  1.0 0.0536473727
Br  Br36  1  0.35250000  0.43176000  0.69171000  1.0 0.0536473727
Br  Br37  1  0.65284000  0.20129000  0.32750000  1.0 0.0900203993
Br  Br38  1  0.20129000  0.32750000  0.65284000  1.0 0.0900203993
Br  Br39  1  0.32750000  0.65284000  0.20129000  1.0 0.0900203993
Br  Br40  1  0.34716000  0.79871000  0.67250000  1.0 0.0900203993
Br  Br41  1  0.79871000  0.67250000  0.34716000  1.0 0.0900203993
Br  Br42  1  0.67250000  0.34716000  0.79871000  1.0 0.0900203993
Br  Br43  1  0.64184000  0.27589000  0.37280000  1.0 0.0228581075
Br  Br44  1  0.27589000  0.37280000  0.64184000  1.0 0.0228581075
Br  Br45  1  0.37280000  0.64184000  0.27589000  1.0 0.0228581075
Br  Br46  1  0.35816000  0.72411000  0.62720000  1.0 0.0228581075
Br  Br47  1  0.72411000  0.62720000  0.35816000  1.0 0.0228581075
Br  Br48  1  0.62720000  0.35816000  0.72411000  1.0 0.0228581075
Br  Br49  1  0.40484000  0.50949000  0.97750000  1.0 0.1871832359
Br  Br50  1  0.50949000  0.97750000  0.40484000  1.0 0.1833934683
Br  Br51  1  0.97750000  0.40484000  0.50949000  1.0 0.1871832359
Br  Br52  1  0.59516000  0.49051000  0.02250000  1.0 0.1871832359
Br  Br53  1  0.49051000  0.02250000  0.59516000  1.0 0.1833934683
Br  Br54  1  0.02250000  0.59516000  0.49051000  1.0 0.1833934683
Br  Br55  1  0.48704000  0.59919000  0.02340000  1.0 0.1581515115
Br  Br56  1  0.59919000  0.02340000  0.48704000  1.0 0.1581515115
Br  Br57  1  0.02340000  0.48704000  0.59919000  1.0 0.1581515115
Br  Br58  1  0.51296000  0.40081000  0.97660000  1.0 0.1581515115
Br  Br59  1  0.40081000  0.97660000  0.51296000  1.0 0.1581515115
Br  Br60  1  0.97660000  0.51296000  0.40081000  1.0 0.1581515115
N  N1  1  0.37594000  0.10079000  0.01880000  1.0 -0.2871422149
N  N2  1  0.10079000  0.01880000  0.37594000  1.0 -0.2871422149
N  N3  1  0.01880000  0.37594000  0.10079000  1.0 -0.2871422149
N  N4  1  0.62406000  0.89921000  0.98120000  1.0 -0.2871422149
N  N5  1  0.89921000  0.98120000  0.62406000  1.0 -0.2871422149
N  N6  1  0.98120000  0.62406000  0.89921000  1.0 -0.2871422149
N  N7  1  0.15334000  0.95349000  0.75690000  1.0 -0.2871422149
N  N8  1  0.95349000  0.75690000  0.15334000  1.0 -0.2871422149
N  N9  1  0.75690000  0.15334000  0.95349000  1.0 -0.2871422149
N  N10  1  0.84666000  0.04651000  0.24310000  1.0 -0.2871422149
N  N11  1  0.04651000  0.24310000  0.84666000  1.0 -0.2871422149
N  N12  1  0.24310000  0.84666000  0.04651000  1.0 -0.2871422149
N  N13  1  0.38134000  0.01709000  0.09560000  1.0 -0.1829137755
N  N14  1  0.01709000  0.09560000  0.38134000  1.0 -0.1829137755
N  N15  1  0.09560000  0.38134000  0.01709000  1.0 -0.1829137755
N  N16  1  0.61866000  0.98291000  0.90440000  1.0 -0.1829137755
N  N17  1  0.98291000  0.90440000  0.61866000  1.0 -0.1829137755
N  N18  1  0.90440000  0.61866000  0.98291000  1.0 -0.1829137755
N  N19  1  0.24504000  0.04489000  0.84890000  1.0 -0.3239934397
N  N20  1  0.04489000  0.84890000  0.24504000  1.0 -0.3239934397
N  N21  1  0.84890000  0.24504000  0.04489000  1.0 -0.3239934397
N  N22  1  0.75496000  0.95511000  0.15110000  1.0 -0.3239934397
N  N23  1  0.95511000  0.15110000  0.75496000  1.0 -0.3239934397
N  N24  1  0.15110000  0.75496000  0.95511000  1.0 -0.3239934397
N  N25  1  0.23474000  0.31809000  0.94360000  1.0 -0.0815627928
N  N26  1  0.31809000  0.94360000  0.23474000  1.0 -0.0855323178
N  N27  1  0.94360000  0.23474000  0.31809000  1.0 -0.0855323178
N  N28  1  0.76526000  0.68191000  0.05640000  1.0 -0.0815627928
N  N29  1  0.68191000  0.05640000  0.76526000  1.0 -0.0815627928
N  N30  1  0.05640000  0.76526000  0.68191000  1.0 -0.0815627928
N  N31  1  0.31884000  0.23579000  0.94300000  1.0 -0.1681067002
N  N32  1  0.23579000  0.94300000  0.31884000  1.0 -0.1681067002
N  N33  1  0.94300000  0.31884000  0.23579000  1.0 -0.1681067002
N  N34  1  0.68116000  0.76421000  0.05700000  1.0 -0.1681067002
N  N35  1  0.76421000  0.05700000  0.68116000  1.0 -0.1681067002
N  N36  1  0.05700000  0.68116000  0.76421000  1.0 -0.1681067002
N  N37  1  0.12174000  0.55419000  0.84840000  1.0 -0.2509465369
N  N38  1  0.55419000  0.84840000  0.12174000  1.0 -0.2509465369
N  N39  1  0.84840000  0.12174000  0.55419000  1.0 -0.2509465369
N  N40  1  0.87826000  0.44581000  0.15160000  1.0 -0.2509465369
N  N41  1  0.44581000  0.15160000  0.87826000  1.0 -0.2509465369
N  N42  1  0.15160000  0.87826000  0.44581000  1.0 -0.2509465369
N  N43  1  0.14904000  0.44509000  0.87650000  1.0 -0.2619458539
N  N44  1  0.44509000  0.87650000  0.14904000  1.0 -0.2619458539
N  N45  1  0.87650000  0.14904000  0.44509000  1.0 -0.2619458539
N  N46  1  0.85096000  0.55491000  0.12350000  1.0 -0.2619458539
N  N47  1  0.55491000  0.12350000  0.85096000  1.0 -0.2619458539
N  N48  1  0.12350000  0.85096000  0.55491000  1.0 -0.2619458539
