# DDEC6 charges by PACMAN v1.1 (https://github.com/mtap-research/PACMAN-charge/)
data_TOHDEB_FSR_pacman
_symmetry_space_group_name_H-M   'P 1'
_cell_length_a   17.52090000
_cell_length_b   17.52090000
_cell_length_c   17.52090000
_cell_angle_alpha   103.87600000
_cell_angle_beta   103.87600000
_cell_angle_gamma   103.87600000
_symmetry_Int_Tables_number   1
_chemical_formula_structural   ZnH9C23(N2Cl3)2
_chemical_formula_sum   'Zn12 H108 C276 N48 Cl72'
_cell_volume   4810.37729351
_cell_formula_units_Z   12
loop_
 _symmetry_equiv_pos_site_id
 _symmetry_equiv_pos_as_xyz
  1  'x, y, z'
loop_
 _atom_site_type_symbol
 _atom_site_label
 _atom_site_symmetry_multiplicity
 _atom_site_fract_x
 _atom_site_fract_y
 _atom_site_fract_z
 _atom_site_occupancy
 _atom_site_charge
Zn  Zn1  1  0.14089000  0.35388000  0.92528000  1.0 0.5865926648
Zn  Zn2  1  0.35388000  0.92528000  0.14089000  1.0 0.5865926648
Zn  Zn3  1  0.92528000  0.14089000  0.35388000  1.0 0.5865926648
Zn  Zn4  1  0.85911000  0.64612000  0.07472000  1.0 0.5865926648
Zn  Zn5  1  0.64612000  0.07472000  0.85911000  1.0 0.5865926648
Zn  Zn6  1  0.07472000  0.85911000  0.64612000  1.0 0.5865926648
Zn  Zn7  1  0.35392000  0.14088000  0.92537000  1.0 0.5959506834
Zn  Zn8  1  0.14088000  0.92537000  0.35392000  1.0 0.5959506834
Zn  Zn9  1  0.92537000  0.35392000  0.14088000  1.0 0.5959506834
Zn  Zn10  1  0.64608000  0.85912000  0.07463000  1.0 0.5959506834
Zn  Zn11  1  0.85912000  0.07463000  0.64608000  1.0 0.5959506834
Zn  Zn12  1  0.07463000  0.64608000  0.85912000  1.0 0.5959506834
H  H1  1  0.06914000  0.94299000  0.82250000  1.0 0.1109347728
H  H2  1  0.94299000  0.82250000  0.06914000  1.0 0.1109347728
H  H3  1  0.82250000  0.06914000  0.94299000  1.0 0.1109347728
H  H4  1  0.93086000  0.05701000  0.17750000  1.0 0.1109347728
H  H5  1  0.05701000  0.17750000  0.93086000  1.0 0.1109347728
H  H6  1  0.17750000  0.93086000  0.05701000  1.0 0.1109347728
H  H7  1  0.36774000  0.28159000  0.09070000  1.0 0.1109347728
H  H8  1  0.28159000  0.09070000  0.36774000  1.0 0.1109347728
H  H9  1  0.09070000  0.36774000  0.28159000  1.0 0.1109347728
H  H10  1  0.63226000  0.71841000  0.90930000  1.0 0.1109347728
H  H11  1  0.71841000  0.90930000  0.63226000  1.0 0.1109347728
H  H12  1  0.90930000  0.63226000  0.71841000  1.0 0.1109347728
H  H13  1  0.52894000  0.07599000  0.24700000  1.0 0.1109347728
H  H14  1  0.07599000  0.24700000  0.52894000  1.0 0.1109347728
H  H15  1  0.24700000  0.52894000  0.07599000  1.0 0.1109347728
H  H16  1  0.47106000  0.92401000  0.75300000  1.0 0.1109347728
H  H17  1  0.92401000  0.75300000  0.47106000  1.0 0.1109347728
H  H18  1  0.75300000  0.47106000  0.92401000  1.0 0.1109347728
H  H19  1  0.52974000  0.24829000  0.07600000  1.0 0.1109347728
H  H20  1  0.24829000  0.07600000  0.52974000  1.0 0.1109347728
H  H21  1  0.07600000  0.52974000  0.24829000  1.0 0.1109347728
H  H22  1  0.47026000  0.75171000  0.92400000  1.0 0.1109347728
H  H23  1  0.75171000  0.92400000  0.47026000  1.0 0.1109347728
H  H24  1  0.92400000  0.47026000  0.75171000  1.0 0.1109347728
H  H25  1  0.28224000  0.36739000  0.09040000  1.0 0.1109347728
H  H26  1  0.36739000  0.09040000  0.28224000  1.0 0.1109347728
H  H27  1  0.09040000  0.28224000  0.36739000  1.0 0.1109347728
H  H28  1  0.71776000  0.63261000  0.90960000  1.0 0.1109347728
H  H29  1  0.63261000  0.90960000  0.71776000  1.0 0.1109347728
H  H30  1  0.90960000  0.71776000  0.63261000  1.0 0.1109347728
H  H31  1  0.21314000  0.26909000  0.80570000  1.0 0.1109347728
H  H32  1  0.26909000  0.80570000  0.21314000  1.0 0.1109347728
H  H33  1  0.80570000  0.21314000  0.26909000  1.0 0.1109347728
H  H34  1  0.78686000  0.73091000  0.19430000  1.0 0.1109347728
H  H35  1  0.73091000  0.19430000  0.78686000  1.0 0.1109347728
H  H36  1  0.19430000  0.78686000  0.73091000  1.0 0.1109347728
H  H37  1  0.26804000  0.20819000  0.80870000  1.0 0.1109347728
H  H38  1  0.20819000  0.80870000  0.26804000  1.0 0.1109347728
H  H39  1  0.80870000  0.26804000  0.20819000  1.0 0.1109347728
H  H40  1  0.73196000  0.79181000  0.19130000  1.0 0.1109347728
H  H41  1  0.79181000  0.19130000  0.73196000  1.0 0.1109347728
H  H42  1  0.19130000  0.73196000  0.79181000  1.0 0.1109347728
H  H43  1  0.17684000  0.18059000  0.81620000  1.0 0.1285279795
H  H44  1  0.18059000  0.81620000  0.17684000  1.0 0.1285279795
H  H45  1  0.81620000  0.17684000  0.18059000  1.0 0.1285279795
H  H46  1  0.82316000  0.81941000  0.18380000  1.0 0.1285279795
H  H47  1  0.81941000  0.18380000  0.82316000  1.0 0.1285279795
H  H48  1  0.18380000  0.82316000  0.81941000  1.0 0.1285279795
H  H49  1  0.17614000  0.05709000  0.93080000  1.0 0.1109347728
H  H50  1  0.05709000  0.93080000  0.17614000  1.0 0.1109347728
H  H51  1  0.93080000  0.17614000  0.05709000  1.0 0.1109347728
H  H52  1  0.82386000  0.94291000  0.06920000  1.0 0.1109347728
H  H53  1  0.94291000  0.06920000  0.82386000  1.0 0.1109347728
H  H54  1  0.06920000  0.82386000  0.94291000  1.0 0.1109347728
H  H55  1  0.26064000  0.02289000  0.67590000  1.0 0.1285279795
H  H56  1  0.02289000  0.67590000  0.26064000  1.0 0.1285279795
H  H57  1  0.67590000  0.26064000  0.02289000  1.0 0.1285279795
H  H58  1  0.73936000  0.97711000  0.32410000  1.0 0.1285279795
H  H59  1  0.97711000  0.32410000  0.73936000  1.0 0.1285279795
H  H60  1  0.32410000  0.73936000  0.97711000  1.0 0.1285279795
H  H61  1  0.33754000  0.03399000  0.75320000  1.0 0.1213535174
H  H62  1  0.03399000  0.75320000  0.33754000  1.0 0.1213535174
H  H63  1  0.75320000  0.33754000  0.03399000  1.0 0.1213535174
H  H64  1  0.66246000  0.96601000  0.24680000  1.0 0.1213535174
H  H65  1  0.96601000  0.24680000  0.66246000  1.0 0.1213535174
H  H66  1  0.24680000  0.66246000  0.96601000  1.0 0.1213535174
H  H67  1  0.27934000  0.94319000  0.69490000  1.0 0.1109347728
H  H68  1  0.94319000  0.69490000  0.27934000  1.0 0.1109347728
H  H69  1  0.69490000  0.27934000  0.94319000  1.0 0.1109347728
H  H70  1  0.72066000  0.05681000  0.30510000  1.0 0.1109347728
H  H71  1  0.05681000  0.30510000  0.72066000  1.0 0.1109347728
H  H72  1  0.30510000  0.72066000  0.05681000  1.0 0.1109347728
H  H73  1  0.07974000  0.50039000  0.92110000  1.0 0.1109347728
H  H74  1  0.50039000  0.92110000  0.07974000  1.0 0.1109347728
H  H75  1  0.92110000  0.07974000  0.50039000  1.0 0.1109347728
H  H76  1  0.92026000  0.49961000  0.07890000  1.0 0.1109347728
H  H77  1  0.49961000  0.07890000  0.92026000  1.0 0.1109347728
H  H78  1  0.07890000  0.92026000  0.49961000  1.0 0.1109347728
H  H79  1  0.41994000  0.95909000  0.96140000  1.0 0.1359103062
H  H80  1  0.95909000  0.96140000  0.41994000  1.0 0.1359103062
H  H81  1  0.96140000  0.41994000  0.95909000  1.0 0.1359103062
H  H82  1  0.58006000  0.04091000  0.03860000  1.0 0.1359103062
H  H83  1  0.04091000  0.03860000  0.58006000  1.0 0.1359103062
H  H84  1  0.03860000  0.58006000  0.04091000  1.0 0.1359103062
H  H85  1  0.33294000  0.90589000  0.96390000  1.0 0.1480438449
H  H86  1  0.90589000  0.96390000  0.33294000  1.0 0.1480438449
H  H87  1  0.96390000  0.33294000  0.90589000  1.0 0.1480438449
H  H88  1  0.66706000  0.09411000  0.03610000  1.0 0.1480438449
H  H89  1  0.09411000  0.03610000  0.66706000  1.0 0.1480438449
H  H90  1  0.03610000  0.66706000  0.09411000  1.0 0.1480438449
H  H91  1  0.33524000  0.96409000  0.90610000  1.0 0.1480438449
H  H92  1  0.96409000  0.90610000  0.33524000  1.0 0.1480438449
H  H93  1  0.90610000  0.33524000  0.96409000  1.0 0.1480438449
H  H94  1  0.66476000  0.03591000  0.09390000  1.0 0.1480438449
H  H95  1  0.03591000  0.09390000  0.66476000  1.0 0.1480438449
H  H96  1  0.09390000  0.66476000  0.03591000  1.0 0.1480438449
H  H97  1  0.39904000  0.20959000  0.12270000  1.0 0.0916712031
H  H98  1  0.20959000  0.12270000  0.39904000  1.0 0.0916712031
H  H99  1  0.12270000  0.39904000  0.20959000  1.0 0.0916712031
H  H100  1  0.60096000  0.79041000  0.87730000  1.0 0.0916712031
H  H101  1  0.79041000  0.87730000  0.60096000  1.0 0.0916712031
H  H102  1  0.87730000  0.60096000  0.79041000  1.0 0.0916712031
H  H103  1  0.40034000  0.12359000  0.20980000  1.0 0.0916712031
H  H104  1  0.12359000  0.20980000  0.40034000  1.0 0.0916712031
H  H105  1  0.20980000  0.40034000  0.12359000  1.0 0.0916712031
H  H106  1  0.59966000  0.87641000  0.79020000  1.0 0.0916712031
H  H107  1  0.87641000  0.79020000  0.59966000  1.0 0.0916712031
H  H108  1  0.79020000  0.59966000  0.87641000  1.0 0.0916712031
C  C1  1  0.36584000  0.03099000  0.03090000  1.0 0.2822825417
C  C2  1  0.03099000  0.03090000  0.36584000  1.0 0.2822825417
C  C3  1  0.03090000  0.36584000  0.03099000  1.0 0.2822825417
C  C4  1  0.63416000  0.96901000  0.96910000  1.0 0.2822825417
C  C5  1  0.96901000  0.96910000  0.63416000  1.0 0.2822825417
C  C6  1  0.96910000  0.63416000  0.96901000  1.0 0.2822825417
C  C7  1  0.26204000  0.26519000  0.92180000  1.0 0.2221052602
C  C8  1  0.26519000  0.92180000  0.26204000  1.0 0.2221052602
C  C9  1  0.92180000  0.26204000  0.26519000  1.0 0.2221052602
C  C10  1  0.73796000  0.73481000  0.07820000  1.0 0.2221052602
C  C11  1  0.73481000  0.07820000  0.73796000  1.0 0.2221052602
C  C12  1  0.07820000  0.73796000  0.73481000  1.0 0.2221052602
C  C13  1  0.12164000  0.96929000  0.81900000  1.0 -0.0512185001
C  C14  1  0.96929000  0.81900000  0.12164000  1.0 -0.0512185001
C  C15  1  0.81900000  0.12164000  0.96929000  1.0 -0.0512185001
C  C16  1  0.87836000  0.03071000  0.18100000  1.0 -0.0512185001
C  C17  1  0.03071000  0.18100000  0.87836000  1.0 -0.0512185001
C  C18  1  0.18100000  0.87836000  0.03071000  1.0 -0.0512185001
C  C19  1  0.22433000  0.00006000  0.77578000  1.0 0.3533438051
C  C20  1  0.00006000  0.77578000  0.22433000  1.0 0.3533438051
C  C21  1  0.77578000  0.22433000  0.00006000  1.0 0.3533438051
C  C22  1  0.77567000  0.99994000  0.22422000  1.0 0.3533438051
C  C23  1  0.99994000  0.22422000  0.77567000  1.0 0.3533438051
C  C24  1  0.22422000  0.77567000  0.99994000  1.0 0.3533438051
C  C25  1  0.46464000  0.08989000  0.14140000  1.0 0.1285279795
C  C26  1  0.08989000  0.14140000  0.46464000  1.0 0.1285279795
C  C27  1  0.14140000  0.46464000  0.08989000  1.0 0.1285279795
C  C28  1  0.53536000  0.91011000  0.85860000  1.0 0.1285279795
C  C29  1  0.91011000  0.85860000  0.53536000  1.0 0.1285279795
C  C30  1  0.85860000  0.53536000  0.91011000  1.0 0.1285279795
C  C31  1  0.46294000  0.14079000  0.08980000  1.0 0.1359103062
C  C32  1  0.14079000  0.08980000  0.46294000  1.0 0.1359103062
C  C33  1  0.08980000  0.46294000  0.14079000  1.0 0.1359103062
C  C34  1  0.53706000  0.85921000  0.91020000  1.0 0.1359103062
C  C35  1  0.85921000  0.91020000  0.53706000  1.0 0.1359103062
C  C36  1  0.91020000  0.53706000  0.85921000  1.0 0.1359103062
C  C37  1  0.33344000  0.28729000  0.04280000  1.0 -0.1003398791
C  C38  1  0.28729000  0.04280000  0.33344000  1.0 -0.1003398791
C  C39  1  0.04280000  0.33344000  0.28729000  1.0 -0.1003398791
C  C40  1  0.66656000  0.71271000  0.95720000  1.0 -0.1003398791
C  C41  1  0.71271000  0.95720000  0.66656000  1.0 -0.1003398791
C  C42  1  0.95720000  0.66656000  0.71271000  1.0 -0.1003398791
C  C43  1  0.52804000  0.11159000  0.21380000  1.0 -0.3492112453
C  C44  1  0.11159000  0.21380000  0.52804000  1.0 -0.3492112453
C  C45  1  0.21380000  0.52804000  0.11159000  1.0 -0.3492112453
C  C46  1  0.47196000  0.88841000  0.78620000  1.0 -0.3492112453
C  C47  1  0.88841000  0.78620000  0.47196000  1.0 -0.3492112453
C  C48  1  0.78620000  0.47196000  0.88841000  1.0 -0.3492112453
C  C49  1  0.52784000  0.21469000  0.11120000  1.0 -0.3734984542
C  C50  1  0.21469000  0.11120000  0.52784000  1.0 -0.3734984542
C  C51  1  0.11120000  0.52784000  0.21469000  1.0 -0.3734984542
C  C52  1  0.47216000  0.78531000  0.88880000  1.0 -0.3734984542
C  C53  1  0.78531000  0.88880000  0.47216000  1.0 -0.3734984542
C  C54  1  0.88880000  0.47216000  0.78531000  1.0 -0.3734984542
C  C55  1  0.59084000  0.23619000  0.18840000  1.0 -0.1617133811
C  C56  1  0.23619000  0.18840000  0.59084000  1.0 -0.1617133811
C  C57  1  0.18840000  0.59084000  0.23619000  1.0 -0.1617133811
C  C58  1  0.40916000  0.76381000  0.81160000  1.0 -0.1617133811
C  C59  1  0.76381000  0.81160000  0.40916000  1.0 -0.1617133811
C  C60  1  0.81160000  0.40916000  0.76381000  1.0 -0.1617133811
C  C61  1  0.59134000  0.18749000  0.23810000  1.0 -0.1706219013
C  C62  1  0.18749000  0.23810000  0.59134000  1.0 -0.1706219013
C  C63  1  0.23810000  0.59134000  0.18749000  1.0 -0.1706219013
C  C64  1  0.40866000  0.81251000  0.76190000  1.0 -0.1706219013
C  C65  1  0.81251000  0.76190000  0.40866000  1.0 -0.1706219013
C  C66  1  0.76190000  0.40866000  0.81251000  1.0 -0.1706219013
C  C67  1  0.28784000  0.33299000  0.04240000  1.0 -0.1003398791
C  C68  1  0.33299000  0.04240000  0.28784000  1.0 -0.1003398791
C  C69  1  0.04240000  0.28784000  0.33299000  1.0 -0.1003398791
C  C70  1  0.71216000  0.66701000  0.95760000  1.0 -0.1003398791
C  C71  1  0.66701000  0.95760000  0.71216000  1.0 -0.1003398791
C  C72  1  0.95760000  0.71216000  0.66701000  1.0 -0.1003398791
C  C73  1  0.22704000  0.22739000  0.83020000  1.0 -0.3982840076
C  C74  1  0.22739000  0.83020000  0.22704000  1.0 -0.3982840076
C  C75  1  0.83020000  0.22704000  0.22739000  1.0 -0.3982840076
C  C76  1  0.77296000  0.77261000  0.16980000  1.0 -0.3982840076
C  C77  1  0.77261000  0.16980000  0.77296000  1.0 -0.3982840076
C  C78  1  0.16980000  0.77296000  0.77261000  1.0 -0.3982840076
C  C79  1  0.18034000  0.03069000  0.87860000  1.0 -0.0632734567
C  C80  1  0.03069000  0.87860000  0.18034000  1.0 -0.0632734567
C  C81  1  0.87860000  0.18034000  0.03069000  1.0 -0.0632734567
C  C82  1  0.81966000  0.96931000  0.12140000  1.0 -0.0632734567
C  C83  1  0.96931000  0.12140000  0.81966000  1.0 -0.0632734567
C  C84  1  0.12140000  0.81966000  0.96931000  1.0 -0.0632734567
C  C85  1  0.28074000  0.99999000  0.71980000  1.0 -0.5759360328
C  C86  1  0.99999000  0.71980000  0.28074000  1.0 -0.5759360328
C  C87  1  0.71980000  0.28074000  0.99999000  1.0 -0.5759360328
C  C88  1  0.71926000  0.00001000  0.28020000  1.0 -0.5759360328
C  C89  1  0.00001000  0.28020000  0.71926000  1.0 -0.574980487
C  C90  1  0.28020000  0.71926000  0.00001000  1.0 -0.5759360328
C  C91  1  0.11414000  0.50019000  0.88660000  1.0 0.0504697628
C  C92  1  0.50019000  0.88660000  0.11414000  1.0 0.0504697628
C  C93  1  0.88660000  0.11414000  0.50019000  1.0 0.0504697628
C  C94  1  0.88586000  0.49981000  0.11340000  1.0 0.0504697628
C  C95  1  0.49981000  0.11340000  0.88586000  1.0 0.0504697628
C  C96  1  0.11340000  0.88586000  0.49981000  1.0 0.0504697628
C  C97  1  0.18254000  0.47349000  0.65950000  1.0 -0.0948748559
C  C98  1  0.47349000  0.65950000  0.18254000  1.0 -0.1003398791
C  C99  1  0.65950000  0.18254000  0.47349000  1.0 -0.0948748559
C  C100  1  0.81746000  0.52651000  0.34050000  1.0 -0.1003398791
C  C101  1  0.52651000  0.34050000  0.81746000  1.0 -0.0948748559
C  C102  1  0.34050000  0.81746000  0.52651000  1.0 -0.1003398791
C  C103  1  0.20914000  0.41189000  0.68370000  1.0 -0.0512185001
C  C104  1  0.41189000  0.68370000  0.20914000  1.0 -0.0512185001
C  C105  1  0.68370000  0.20914000  0.41189000  1.0 -0.0512185001
C  C106  1  0.79086000  0.58811000  0.31630000  1.0 -0.0512185001
C  C107  1  0.58811000  0.31630000  0.79086000  1.0 -0.0512185001
C  C108  1  0.31630000  0.79086000  0.58811000  1.0 -0.0512185001
C  C109  1  0.20854000  0.40259000  0.76020000  1.0 0.0027152708
C  C110  1  0.40259000  0.76020000  0.20854000  1.0 0.0027152708
C  C111  1  0.76020000  0.20854000  0.40259000  1.0 0.00693176
C  C112  1  0.79146000  0.59741000  0.23980000  1.0 0.00693176
C  C113  1  0.59741000  0.23980000  0.79146000  1.0 0.00693176
C  C114  1  0.23980000  0.79146000  0.59741000  1.0 0.0027152708
C  C115  1  0.18114000  0.45509000  0.81250000  1.0 0.0718364615
C  C116  1  0.45509000  0.81250000  0.18114000  1.0 0.0718364615
C  C117  1  0.81250000  0.18114000  0.45509000  1.0 0.0718364615
C  C118  1  0.81886000  0.54491000  0.18750000  1.0 0.0718364615
C  C119  1  0.54491000  0.18750000  0.81886000  1.0 0.0718364615
C  C120  1  0.18750000  0.81886000  0.54491000  1.0 0.0718364615
C  C121  1  0.15464000  0.51679000  0.78840000  1.0 0.0718364615
C  C122  1  0.51679000  0.78840000  0.15464000  1.0 0.0718364615
C  C123  1  0.78840000  0.15464000  0.51679000  1.0 0.0718364615
C  C124  1  0.84536000  0.48321000  0.21160000  1.0 0.0718364615
C  C125  1  0.48321000  0.21160000  0.84536000  1.0 0.0718364615
C  C126  1  0.21160000  0.84536000  0.48321000  1.0 0.0718364615
C  C127  1  0.15514000  0.52599000  0.71180000  1.0 -0.0092242364
C  C128  1  0.52599000  0.71180000  0.15514000  1.0 -0.0092242364
C  C129  1  0.71180000  0.15514000  0.52599000  1.0 -0.0092242364
C  C130  1  0.84486000  0.47401000  0.28820000  1.0 -0.0092242364
C  C131  1  0.47401000  0.28820000  0.84486000  1.0 -0.0092242364
C  C132  1  0.28820000  0.84486000  0.47401000  1.0 -0.0092242364
C  C133  1  0.37524000  0.32459000  0.96250000  1.0 -0.1253453787
C  C134  1  0.32459000  0.96250000  0.37524000  1.0 -0.1253453787
C  C135  1  0.96250000  0.37524000  0.32459000  1.0 -0.1253453787
C  C136  1  0.62476000  0.67541000  0.03750000  1.0 -0.1253453787
C  C137  1  0.67541000  0.03750000  0.62476000  1.0 -0.1253453787
C  C138  1  0.03750000  0.62476000  0.67541000  1.0 -0.1253453787
C  C139  1  0.32414000  0.37409000  0.96200000  1.0 -0.1164360216
C  C140  1  0.37409000  0.96200000  0.32414000  1.0 -0.1164360216
C  C141  1  0.96200000  0.32414000  0.37409000  1.0 -0.1164360216
C  C142  1  0.67586000  0.62591000  0.03800000  1.0 -0.1164360216
C  C143  1  0.62591000  0.03800000  0.67586000  1.0 -0.1164360216
C  C144  1  0.03800000  0.67586000  0.62591000  1.0 -0.1164360216
C  C145  1  0.46364000  0.36189000  0.97480000  1.0 -0.0811830704
C  C146  1  0.36189000  0.97480000  0.46364000  1.0 -0.0811830704
C  C147  1  0.97480000  0.46364000  0.36189000  1.0 -0.0811830704
C  C148  1  0.53636000  0.63811000  0.02520000  1.0 -0.0811830704
C  C149  1  0.63811000  0.02520000  0.53636000  1.0 -0.0811830704
C  C150  1  0.02520000  0.53636000  0.63811000  1.0 -0.0811830704
C  C151  1  0.36324000  0.95839000  0.95910000  1.0 -0.5104694163
C  C152  1  0.95839000  0.95910000  0.36324000  1.0 -0.5104694163
C  C153  1  0.95910000  0.36324000  0.95839000  1.0 -0.5104694163
C  C154  1  0.63676000  0.04161000  0.04090000  1.0 -0.5104694163
C  C155  1  0.04161000  0.04090000  0.63676000  1.0 -0.5104694163
C  C156  1  0.04090000  0.63676000  0.04161000  1.0 -0.5104694163
C  C157  1  0.39574000  0.15279000  0.10600000  1.0 -0.068611658
C  C158  1  0.15279000  0.10600000  0.39574000  1.0 -0.068611658
C  C159  1  0.10600000  0.39574000  0.15279000  1.0 -0.068611658
C  C160  1  0.60426000  0.84721000  0.89400000  1.0 -0.068611658
C  C161  1  0.84721000  0.89400000  0.60426000  1.0 -0.068611658
C  C162  1  0.89400000  0.60426000  0.84721000  1.0 -0.068611658
C  C163  1  0.39614000  0.10639000  0.15290000  1.0 -0.0632734567
C  C164  1  0.10639000  0.15290000  0.39614000  1.0 -0.0632734567
C  C165  1  0.15290000  0.39614000  0.10639000  1.0 -0.0632734567
C  C166  1  0.60386000  0.89361000  0.84710000  1.0 -0.0632734567
C  C167  1  0.89361000  0.84710000  0.60386000  1.0 -0.0632734567
C  C168  1  0.84710000  0.60386000  0.89361000  1.0 -0.0632734567
C  C169  1  0.24574000  0.24429000  0.92900000  1.0 0.1480438449
C  C170  1  0.24429000  0.92900000  0.24574000  1.0 0.1480438449
C  C171  1  0.92900000  0.24574000  0.24429000  1.0 0.1480438449
C  C172  1  0.75426000  0.75571000  0.07100000  1.0 0.1480438449
C  C173  1  0.75571000  0.07100000  0.75426000  1.0 0.1480438449
C  C174  1  0.07100000  0.75426000  0.75571000  1.0 0.1480438449
C  C175  1  0.36204000  0.46369000  0.97190000  1.0 -0.068611658
C  C176  1  0.46369000  0.97190000  0.36204000  1.0 -0.068611658
C  C177  1  0.97190000  0.36204000  0.46369000  1.0 -0.068611658
C  C178  1  0.63796000  0.53631000  0.02810000  1.0 -0.068611658
C  C179  1  0.53631000  0.02810000  0.63796000  1.0 -0.068611658
C  C180  1  0.02810000  0.63796000  0.53631000  1.0 -0.068611658
C  C181  1  0.49104000  0.44009000  0.98230000  1.0 -0.0200053632
C  C182  1  0.44009000  0.98230000  0.49104000  1.0 -0.0200053632
C  C183  1  0.98230000  0.49104000  0.44009000  1.0 -0.0200053632
C  C184  1  0.50896000  0.55991000  0.01770000  1.0 -0.0200053632
C  C185  1  0.55991000  0.01770000  0.50896000  1.0 -0.0200053632
C  C186  1  0.01770000  0.50896000  0.55991000  1.0 -0.0200053632
C  C187  1  0.41944000  0.23129000  0.77460000  1.0 0.00693176
C  C188  1  0.23129000  0.77460000  0.41944000  1.0 0.00693176
C  C189  1  0.77460000  0.41944000  0.23129000  1.0 0.00693176
C  C190  1  0.58056000  0.76871000  0.22540000  1.0 0.00693176
C  C191  1  0.76871000  0.22540000  0.58056000  1.0 0.00693176
C  C192  1  0.22540000  0.58056000  0.76871000  1.0 0.00693176
C  C193  1  0.45554000  0.18199000  0.81300000  1.0 0.0718364615
C  C194  1  0.18199000  0.81300000  0.45554000  1.0 0.0718364615
C  C195  1  0.81300000  0.45554000  0.18199000  1.0 0.0718364615
C  C196  1  0.54446000  0.81801000  0.18700000  1.0 0.0718364615
C  C197  1  0.81801000  0.18700000  0.54446000  1.0 0.0718364615
C  C198  1  0.18700000  0.54446000  0.81801000  1.0 0.0718364615
C  C199  1  0.51874000  0.15739000  0.79030000  1.0 0.0718364615
C  C200  1  0.15739000  0.79030000  0.51874000  1.0 0.0718364615
C  C201  1  0.79030000  0.51874000  0.15739000  1.0 0.0718364615
C  C202  1  0.48126000  0.84261000  0.20970000  1.0 0.0718364615
C  C203  1  0.84261000  0.20970000  0.48126000  1.0 0.0718364615
C  C204  1  0.20970000  0.48126000  0.84261000  1.0 0.0718364615
C  C205  1  0.54614000  0.18229000  0.72930000  1.0 0.0168842244
C  C206  1  0.18229000  0.72930000  0.54614000  1.0 0.0168842244
C  C207  1  0.72930000  0.54614000  0.18229000  1.0 0.0168842244
C  C208  1  0.45386000  0.81771000  0.27070000  1.0 0.0168842244
C  C209  1  0.81771000  0.27070000  0.45386000  1.0 0.0168842244
C  C210  1  0.27070000  0.45386000  0.81771000  1.0 0.0168842244
C  C211  1  0.51024000  0.23149000  0.69080000  1.0 -0.0200053632
C  C212  1  0.23149000  0.69080000  0.51024000  1.0 -0.0200053632
C  C213  1  0.69080000  0.51024000  0.23149000  1.0 -0.0200053632
C  C214  1  0.48976000  0.76851000  0.30920000  1.0 -0.0200053632
C  C215  1  0.76851000  0.30920000  0.48976000  1.0 -0.0200053632
C  C216  1  0.30920000  0.48976000  0.76851000  1.0 -0.0200053632
C  C217  1  0.44694000  0.25609000  0.71360000  1.0 -0.0200053632
C  C218  1  0.25609000  0.71360000  0.44694000  1.0 -0.0200053632
C  C219  1  0.71360000  0.44694000  0.25609000  1.0 -0.0200053632
C  C220  1  0.55306000  0.74391000  0.28640000  1.0 -0.0200053632
C  C221  1  0.74391000  0.28640000  0.55306000  1.0 -0.0200053632
C  C222  1  0.28640000  0.55306000  0.74391000  1.0 -0.0200053632
C  C223  1  0.44104000  0.48909000  0.97970000  1.0 -0.0200053632
C  C224  1  0.48909000  0.97970000  0.44104000  1.0 -0.0200053632
C  C225  1  0.97970000  0.44104000  0.48909000  1.0 -0.0092242364
C  C226  1  0.55896000  0.51091000  0.02030000  1.0 -0.0200053632
C  C227  1  0.51091000  0.02030000  0.55896000  1.0 -0.0200053632
C  C228  1  0.02030000  0.55896000  0.51091000  1.0 -0.0200053632
C  C229  1  0.52204000  0.15399000  0.71000000  1.0 -0.0092242364
C  C230  1  0.15399000  0.71000000  0.52204000  1.0 -0.0092242364
C  C231  1  0.71000000  0.52204000  0.15399000  1.0 -0.0092242364
C  C232  1  0.47796000  0.84601000  0.29000000  1.0 -0.0092242364
C  C233  1  0.84601000  0.29000000  0.47796000  1.0 -0.0092242364
C  C234  1  0.29000000  0.47796000  0.84601000  1.0 -0.0092242364
C  C235  1  0.47334000  0.16489000  0.64280000  1.0 -0.1706219013
C  C236  1  0.16489000  0.64280000  0.47334000  1.0 -0.1706219013
C  C237  1  0.64280000  0.47334000  0.16489000  1.0 -0.1706219013
C  C238  1  0.52666000  0.83511000  0.35720000  1.0 -0.1706219013
C  C239  1  0.83511000  0.35720000  0.52666000  1.0 -0.1706219013
C  C240  1  0.35720000  0.52666000  0.83511000  1.0 -0.1706219013
C  C241  1  0.39804000  0.20499000  0.76500000  1.0 -0.0092242364
C  C242  1  0.20499000  0.76500000  0.39804000  1.0 -0.0092242364
C  C243  1  0.76500000  0.39804000  0.20499000  1.0 -0.0092242364
C  C244  1  0.60196000  0.79501000  0.23500000  1.0 -0.0092242364
C  C245  1  0.79501000  0.23500000  0.60196000  1.0 -0.0092242364
C  C246  1  0.23500000  0.60196000  0.79501000  1.0 -0.0092242364
C  C247  1  0.41374000  0.21329000  0.68700000  1.0 -0.0092242364
C  C248  1  0.21329000  0.68700000  0.41374000  1.0 -0.0092242364
C  C249  1  0.68700000  0.41374000  0.21329000  1.0 -0.0092242364
C  C250  1  0.58626000  0.78671000  0.31300000  1.0 -0.0092242364
C  C251  1  0.78671000  0.31300000  0.58626000  1.0 -0.0092242364
C  C252  1  0.31300000  0.58626000  0.78671000  1.0 -0.0092242364
C  C253  1  0.57704000  0.21699000  0.76300000  1.0 0.0168842244
C  C254  1  0.21699000  0.76300000  0.57704000  1.0 0.0168842244
C  C255  1  0.76300000  0.57704000  0.21699000  1.0 0.0168842244
C  C256  1  0.42296000  0.78301000  0.23700000  1.0 0.0168842244
C  C257  1  0.78301000  0.23700000  0.42296000  1.0 0.0168842244
C  C258  1  0.23700000  0.42296000  0.78301000  1.0 0.0168842244
C  C259  1  0.54864000  0.29049000  0.74340000  1.0 -0.0200053632
C  C260  1  0.29049000  0.74340000  0.54864000  1.0 -0.0200053632
C  C261  1  0.74340000  0.54864000  0.29049000  1.0 -0.0200053632
C  C262  1  0.45136000  0.70951000  0.25660000  1.0 -0.0200053632
C  C263  1  0.70951000  0.25660000  0.45136000  1.0 -0.0200053632
C  C264  1  0.25660000  0.45136000  0.70951000  1.0 -0.0200053632
C  C265  1  0.45104000  0.26799000  0.81100000  1.0 0.0168842244
C  C266  1  0.26799000  0.81100000  0.45104000  1.0 0.0168842244
C  C267  1  0.81100000  0.45104000  0.26799000  1.0 0.0168842244
C  C268  1  0.54896000  0.73201000  0.18900000  1.0 0.0168842244
C  C269  1  0.73201000  0.18900000  0.54896000  1.0 0.0168842244
C  C270  1  0.18900000  0.54896000  0.73201000  1.0 0.0168842244
C  C271  1  0.48514000  0.31039000  0.76750000  1.0 -0.0019873599
C  C272  1  0.31039000  0.76750000  0.48514000  1.0 -0.0019873599
C  C273  1  0.76750000  0.48514000  0.31039000  1.0 -0.0019873599
C  C274  1  0.51486000  0.68961000  0.23250000  1.0 -0.0019873599
C  C275  1  0.68961000  0.23250000  0.51486000  1.0 -0.0019873599
C  C276  1  0.23250000  0.51486000  0.68961000  1.0 -0.0019873599
N  N1  1  0.38954000  0.10489000  0.02390000  1.0 -0.2783958932
N  N2  1  0.10489000  0.02390000  0.38954000  1.0 -0.2783958932
N  N3  1  0.02390000  0.38954000  0.10489000  1.0 -0.2783958932
N  N4  1  0.61046000  0.89511000  0.97610000  1.0 -0.2783958932
N  N5  1  0.89511000  0.97610000  0.61046000  1.0 -0.2783958932
N  N6  1  0.97610000  0.61046000  0.89511000  1.0 -0.2783958932
N  N7  1  0.14664000  0.94899000  0.75190000  1.0 -0.3405443152
N  N8  1  0.94899000  0.75190000  0.14664000  1.0 -0.3405443152
N  N9  1  0.75190000  0.14664000  0.94899000  1.0 -0.3405443152
N  N10  1  0.85336000  0.05101000  0.24810000  1.0 -0.3405443152
N  N11  1  0.05101000  0.24810000  0.85336000  1.0 -0.3405443152
N  N12  1  0.24810000  0.85336000  0.05101000  1.0 -0.3405443152
N  N13  1  0.38934000  0.02399000  0.10530000  1.0 -0.2878051296
N  N14  1  0.02399000  0.10530000  0.38934000  1.0 -0.2878051296
N  N15  1  0.10530000  0.38934000  0.02399000  1.0 -0.2878051296
N  N16  1  0.61066000  0.97601000  0.89470000  1.0 -0.2878051296
N  N17  1  0.97601000  0.89470000  0.61066000  1.0 -0.2878051296
N  N18  1  0.89470000  0.61066000  0.97601000  1.0 -0.2878051296
N  N19  1  0.24284000  0.32469000  0.95320000  1.0 -0.040714857
N  N20  1  0.32469000  0.95320000  0.24284000  1.0 -0.040714857
N  N21  1  0.95320000  0.24284000  0.32469000  1.0 -0.040714857
N  N22  1  0.75716000  0.67531000  0.04680000  1.0 -0.040714857
N  N23  1  0.67531000  0.04680000  0.75716000  1.0 -0.040714857
N  N24  1  0.04680000  0.75716000  0.67531000  1.0 -0.040714857
N  N25  1  0.24832000  0.05061000  0.85310000  1.0 -0.3405443152
N  N26  1  0.05061000  0.85310000  0.24832000  1.0 -0.3405443152
N  N27  1  0.85310000  0.24832000  0.05061000  1.0 -0.3405443152
N  N28  1  0.75168000  0.94939000  0.14690000  1.0 -0.3405443152
N  N29  1  0.94939000  0.14690000  0.75168000  1.0 -0.3405443152
N  N30  1  0.14690000  0.75168000  0.94939000  1.0 -0.3405443152
N  N31  1  0.32454000  0.24279000  0.95400000  1.0 -0.0512185001
N  N32  1  0.24279000  0.95400000  0.32454000  1.0 -0.0512185001
N  N33  1  0.95400000  0.32454000  0.24279000  1.0 -0.0512185001
N  N34  1  0.67546000  0.75721000  0.04600000  1.0 -0.0512185001
N  N35  1  0.75721000  0.04600000  0.67546000  1.0 -0.0512185001
N  N36  1  0.04600000  0.67546000  0.75721000  1.0 -0.0512185001
N  N37  1  0.12094000  0.55389000  0.84560000  1.0 -0.2783958932
N  N38  1  0.55389000  0.84560000  0.12094000  1.0 -0.2783958932
N  N39  1  0.84560000  0.12094000  0.55389000  1.0 -0.2783958932
N  N40  1  0.87906000  0.44611000  0.15440000  1.0 -0.2783958932
N  N41  1  0.44611000  0.15440000  0.87906000  1.0 -0.2783958932
N  N42  1  0.15440000  0.87906000  0.44611000  1.0 -0.2783958932
N  N43  1  0.15414000  0.44709000  0.87990000  1.0 -0.2712354704
N  N44  1  0.44709000  0.87990000  0.15414000  1.0 -0.2712354704
N  N45  1  0.87990000  0.15414000  0.44709000  1.0 -0.2712354704
N  N46  1  0.84586000  0.55291000  0.12010000  1.0 -0.2712354704
N  N47  1  0.55291000  0.12010000  0.84586000  1.0 -0.2712354704
N  N48  1  0.12010000  0.84586000  0.55291000  1.0 -0.2712354704
Cl  Cl1  1  0.66534000  0.33209000  0.21930000  1.0 0.0968442552
Cl  Cl2  1  0.33209000  0.21930000  0.66534000  1.0 0.0968442552
Cl  Cl3  1  0.21930000  0.66534000  0.33209000  1.0 0.0968442552
Cl  Cl4  1  0.33466000  0.66791000  0.78070000  1.0 0.0968442552
Cl  Cl5  1  0.66791000  0.78070000  0.33466000  1.0 0.0968442552
Cl  Cl6  1  0.78070000  0.33466000  0.66791000  1.0 0.0968442552
Cl  Cl7  1  0.20494000  0.48299000  0.56910000  1.0 0.0027152708
Cl  Cl8  1  0.48299000  0.56910000  0.20494000  1.0 0.0027152708
Cl  Cl9  1  0.56910000  0.20494000  0.48299000  1.0 0.0027152708
Cl  Cl10  1  0.79506000  0.51701000  0.43090000  1.0 0.0027152708
Cl  Cl11  1  0.51701000  0.43090000  0.79506000  1.0 0.0027152708
Cl  Cl12  1  0.43090000  0.79506000  0.51701000  1.0 0.0027152708
Cl  Cl13  1  0.48904000  0.58949000  0.98160000  1.0 0.0916712031
Cl  Cl14  1  0.58949000  0.98160000  0.48904000  1.0 0.0916712031
Cl  Cl15  1  0.98160000  0.48904000  0.58949000  1.0 0.0916712031
Cl  Cl16  1  0.51096000  0.41051000  0.01840000  1.0 0.0916712031
Cl  Cl17  1  0.41051000  0.01840000  0.51096000  1.0 0.0916712031
Cl  Cl18  1  0.01840000  0.51096000  0.41051000  1.0 0.0916712031
Cl  Cl19  1  0.53674000  0.26649000  0.61880000  1.0 0.0285327194
Cl  Cl20  1  0.26649000  0.61880000  0.53674000  1.0 0.0285327194
Cl  Cl21  1  0.61880000  0.53674000  0.26649000  1.0 0.0285327194
Cl  Cl22  1  0.46326000  0.73351000  0.38120000  1.0 0.0285327194
Cl  Cl23  1  0.73351000  0.38120000  0.46326000  1.0 0.0285327194
Cl  Cl24  1  0.38120000  0.46326000  0.73351000  1.0 0.0285327194
Cl  Cl25  1  0.40364000  0.31329000  0.66310000  1.0 0.00693176
Cl  Cl26  1  0.31329000  0.66310000  0.40364000  1.0 0.00693176
Cl  Cl27  1  0.66310000  0.40364000  0.31329000  1.0 0.00693176
Cl  Cl28  1  0.59636000  0.68671000  0.33690000  1.0 0.00693176
Cl  Cl29  1  0.68671000  0.33690000  0.59636000  1.0 0.00693176
Cl  Cl30  1  0.33690000  0.59636000  0.68671000  1.0 0.00693176
Cl  Cl31  1  0.34584000  0.24509000  0.62110000  1.0 0.1359103062
Cl  Cl32  1  0.24509000  0.62110000  0.34584000  1.0 0.1359103062
Cl  Cl33  1  0.62110000  0.34584000  0.24509000  1.0 0.1359103062
Cl  Cl34  1  0.65416000  0.75491000  0.37890000  1.0 0.1359103062
Cl  Cl35  1  0.75491000  0.37890000  0.65416000  1.0 0.1359103062
Cl  Cl36  1  0.37890000  0.65416000  0.75491000  1.0 0.1359103062
Cl  Cl37  1  0.48264000  0.20309000  0.56830000  1.0 -0.0019873599
Cl  Cl38  1  0.20309000  0.56830000  0.48264000  1.0 -0.0019873599
Cl  Cl39  1  0.56830000  0.48264000  0.20309000  1.0 -0.0019873599
Cl  Cl40  1  0.51736000  0.79691000  0.43170000  1.0 -0.0019873599
Cl  Cl41  1  0.79691000  0.43170000  0.51736000  1.0 -0.0019873599
Cl  Cl42  1  0.43170000  0.51736000  0.79691000  1.0 -0.0019873599
Cl  Cl43  1  0.46554000  0.38719000  0.74030000  1.0 0.0504697628
Cl  Cl44  1  0.38719000  0.74030000  0.46554000  1.0 0.0504697628
Cl  Cl45  1  0.74030000  0.46554000  0.38719000  1.0 0.0504697628
Cl  Cl46  1  0.53446000  0.61281000  0.25970000  1.0 0.0504697628
Cl  Cl47  1  0.61281000  0.25970000  0.53446000  1.0 0.0504697628
Cl  Cl48  1  0.25970000  0.53446000  0.61281000  1.0 0.0504697628
Cl  Cl49  1  0.65784000  0.37849000  0.75770000  1.0 0.1571166992
Cl  Cl50  1  0.37849000  0.75770000  0.65784000  1.0 0.1571166992
Cl  Cl51  1  0.75770000  0.65784000  0.37849000  1.0 0.1571166992
Cl  Cl52  1  0.34216000  0.62151000  0.24230000  1.0 0.1571166992
Cl  Cl53  1  0.62151000  0.24230000  0.34216000  1.0 0.1571166992
Cl  Cl54  1  0.24230000  0.34216000  0.62151000  1.0 0.1571166992
Cl  Cl55  1  0.60384000  0.34359000  0.69360000  1.0 0.0285327194
Cl  Cl56  1  0.34359000  0.69360000  0.60384000  1.0 0.0285327194
Cl  Cl57  1  0.69360000  0.60384000  0.34359000  1.0 0.0285327194
Cl  Cl58  1  0.39616000  0.65641000  0.30640000  1.0 0.0285327194
Cl  Cl59  1  0.65641000  0.30640000  0.39616000  1.0 0.0285327194
Cl  Cl60  1  0.30640000  0.39616000  0.65641000  1.0 0.0285327194
Cl  Cl61  1  0.66584000  0.21839000  0.33220000  1.0 0.0916712031
Cl  Cl62  1  0.21839000  0.33220000  0.66584000  1.0 0.0916712031
Cl  Cl63  1  0.33220000  0.66584000  0.21839000  1.0 0.0916712031
Cl  Cl64  1  0.33416000  0.78161000  0.66780000  1.0 0.0916712031
Cl  Cl65  1  0.78161000  0.66780000  0.33416000  1.0 0.0916712031
Cl  Cl66  1  0.66780000  0.33416000  0.78161000  1.0 0.0916712031
Cl  Cl67  1  0.41114000  0.51079000  0.01730000  1.0 0.0791377604
Cl  Cl68  1  0.51079000  0.01730000  0.41114000  1.0 0.0791377604
Cl  Cl69  1  0.01730000  0.41114000  0.51079000  1.0 0.0791377604
Cl  Cl70  1  0.58886000  0.48921000  0.98270000  1.0 0.0791377604
Cl  Cl71  1  0.48921000  0.98270000  0.58886000  1.0 0.0791377604
Cl  Cl72  1  0.98270000  0.58886000  0.48921000  1.0 0.0791377604
