# DDEC6 charges by PACMAN v1.1 (https://github.com/mtap-research/PACMAN-charge/)
data_TOHMIO_ASR_pacman
_symmetry_space_group_name_H-M   'P 1'
_cell_length_a   16.87180000
_cell_length_b   14.03980000
_cell_length_c   26.33960000
_cell_angle_alpha   90.00000000
_cell_angle_beta   97.75900000
_cell_angle_gamma   90.00000000
_symmetry_Int_Tables_number   1
_chemical_formula_structural   Eu5H70C94N19O29
_chemical_formula_sum   'Eu10 H140 C188 N38 O58'
_cell_volume   6182.11539204
_cell_formula_units_Z   2
loop_
 _symmetry_equiv_pos_site_id
 _symmetry_equiv_pos_as_xyz
  1  'x, y, z'
loop_
 _atom_site_type_symbol
 _atom_site_label
 _atom_site_symmetry_multiplicity
 _atom_site_fract_x
 _atom_site_fract_y
 _atom_site_fract_z
 _atom_site_occupancy
 _atom_site_charge
Eu  Eu1  1  0.61054000  0.42327000  0.99858000  1.0 2.0364084802
Eu  Eu2  1  0.88946000  0.42327000  0.00142000  1.0 2.0364084802
Eu  Eu3  1  0.38946000  0.57673000  0.00142000  1.0 2.0364084802
Eu  Eu4  1  0.11054000  0.57673000  0.99858000  1.0 2.0364084802
Eu  Eu5  1  0.75000000  0.88737000  0.50000000  1.0 1.6395063362
Eu  Eu6  1  0.25000000  0.11263000  0.50000000  1.0 1.6395063362
Eu  Eu7  1  0.96362000  0.02452000  0.50242000  1.0 1.05115154
Eu  Eu8  1  0.53638000  0.02452000  0.49758000  1.0 1.05115154
Eu  Eu9  1  0.03638000  0.97548000  0.49758000  1.0 1.05115154
Eu  Eu10  1  0.46362000  0.97548000  0.50242000  1.0 1.05115154
H  H1  1  0.53610000  0.25240000  0.97750000  1.0 0.2303001843
H  H2  1  0.96390000  0.25240000  0.02250000  1.0 0.2303001843
H  H3  1  0.46390000  0.74760000  0.02250000  1.0 0.2303001843
H  H4  1  0.03610000  0.74760000  0.97750000  1.0 0.2303001843
H  H5  1  0.60470000  0.25000000  0.95120000  1.0 0.2232912294
H  H6  1  0.89530000  0.25000000  0.04880000  1.0 0.2232912294
H  H7  1  0.39530000  0.75000000  0.04880000  1.0 0.2232912294
H  H8  1  0.10470000  0.75000000  0.95120000  1.0 0.2232912294
H  H9  1  0.76340000  0.70520000  0.46880000  1.0 0.0608870274
H  H10  1  0.73660000  0.70520000  0.53120000  1.0 0.0608870274
H  H11  1  0.23660000  0.29480000  0.53120000  1.0 0.0608870274
H  H12  1  0.26340000  0.29480000  0.46880000  1.0 0.0608870274
H  H13  1  0.79440000  0.70520000  0.52190000  1.0 0.0711641557
H  H14  1  0.70560000  0.70520000  0.47810000  1.0 0.0711641557
H  H15  1  0.20560000  0.29480000  0.47810000  1.0 0.0711641557
H  H16  1  0.29440000  0.29480000  0.52190000  1.0 0.0711641557
H  H17  1  0.75490000  0.54550000  0.02610000  1.0 0.3503020069
H  H18  1  0.74510000  0.54550000  0.97390000  1.0 0.3503020069
H  H19  1  0.24510000  0.45450000  0.97390000  1.0 0.3503020069
H  H20  1  0.25490000  0.45450000  0.02610000  1.0 0.3503020069
H  H21  1  0.47860000  0.76420000  0.87400000  1.0 0.0897274524
H  H22  1  0.02140000  0.76420000  0.12600000  1.0 0.0897274524
H  H23  1  0.52140000  0.23580000  0.12600000  1.0 0.0897274524
H  H24  1  0.97860000  0.23580000  0.87400000  1.0 0.0897274524
H  H25  1  0.65160000  0.57240000  0.86910000  1.0 0.1289420946
H  H26  1  0.84840000  0.57240000  0.13090000  1.0 0.1289420946
H  H27  1  0.34840000  0.42760000  0.13090000  1.0 0.1289420946
H  H28  1  0.15160000  0.42760000  0.86910000  1.0 0.1289420946
H  H29  1  0.66590000  0.63270000  0.78820000  1.0 0.1228203357
H  H30  1  0.83410000  0.63270000  0.21180000  1.0 0.1228203357
H  H31  1  0.33410000  0.36730000  0.21180000  1.0 0.1228203357
H  H32  1  0.16590000  0.36730000  0.78820000  1.0 0.1228203357
H  H33  1  0.69760000  0.73320000  0.64660000  1.0 0.1114877711
H  H34  1  0.80240000  0.73320000  0.35340000  1.0 0.1114877711
H  H35  1  0.30240000  0.26680000  0.35340000  1.0 0.1114877711
H  H36  1  0.19760000  0.26680000  0.64660000  1.0 0.1114877711
H  H37  1  0.50580000  0.89430000  0.63990000  1.0 0.1114877711
H  H38  1  0.99420000  0.89430000  0.36010000  1.0 0.1114877711
H  H39  1  0.49420000  0.10570000  0.36010000  1.0 0.1114877711
H  H40  1  0.00580000  0.10570000  0.63990000  1.0 0.1228203357
H  H41  1  0.49790000  0.85680000  0.72510000  1.0 0.1228203357
H  H42  1  0.00210000  0.85680000  0.27490000  1.0 0.1228203357
H  H43  1  0.50210000  0.14320000  0.27490000  1.0 0.1228203357
H  H44  1  0.99790000  0.14320000  0.72510000  1.0 0.1228203357
H  H45  1  0.63330000  0.37690000  0.82570000  1.0 0.0897274524
H  H46  1  0.86670000  0.37690000  0.17430000  1.0 0.0897274524
H  H47  1  0.36670000  0.62310000  0.17430000  1.0 0.0897274524
H  H48  1  0.13330000  0.62310000  0.82570000  1.0 0.0897274524
H  H49  1  0.84150000  0.26320000  0.87800000  1.0 0.0834599741
H  H50  1  0.65850000  0.26320000  0.12200000  1.0 0.0834599741
H  H51  1  0.15850000  0.73680000  0.12200000  1.0 0.0834599741
H  H52  1  0.34150000  0.73680000  0.87800000  1.0 0.0834599741
H  H53  1  0.84250000  0.19270000  0.79780000  1.0 0.0897274524
H  H54  1  0.65750000  0.19270000  0.20220000  1.0 0.0897274524
H  H55  1  0.15750000  0.80730000  0.20220000  1.0 0.0897274524
H  H56  1  0.34250000  0.80730000  0.79780000  1.0 0.0897274524
H  H57  1  0.89060000  0.19910000  0.63860000  1.0 0.0897274524
H  H58  1  0.60940000  0.19910000  0.36140000  1.0 0.0897274524
H  H59  1  0.10940000  0.80090000  0.36140000  1.0 0.0897274524
H  H60  1  0.39060000  0.80090000  0.63860000  1.0 0.0897274524
H  H61  1  0.68110000  0.06430000  0.62710000  1.0 0.1114877711
H  H62  1  0.81890000  0.06430000  0.37290000  1.0 0.1114877711
H  H63  1  0.31890000  0.93570000  0.37290000  1.0 0.1114877711
H  H64  1  0.18110000  0.93570000  0.62710000  1.0 0.1114877711
H  H65  1  0.66610000  0.12980000  0.70680000  1.0 0.1114877711
H  H66  1  0.83390000  0.12980000  0.29320000  1.0 0.1114877711
H  H67  1  0.33390000  0.87020000  0.29320000  1.0 0.1114877711
H  H68  1  0.16610000  0.87020000  0.70680000  1.0 0.1114877711
H  H69  1  0.47840000  0.68290000  0.11620000  1.0 0.0897274524
H  H70  1  0.02160000  0.68290000  0.88380000  1.0 0.0897274524
H  H71  1  0.52160000  0.31710000  0.88380000  1.0 0.0897274524
H  H72  1  0.97840000  0.31710000  0.11620000  1.0 0.0897274524
H  H73  1  0.69390000  0.58310000  0.15980000  1.0 0.1228203357
H  H74  1  0.80610000  0.58310000  0.84020000  1.0 0.1228203357
H  H75  1  0.30610000  0.41690000  0.84020000  1.0 0.1228203357
H  H76  1  0.19390000  0.41690000  0.15980000  1.0 0.1228203357
H  H77  1  0.69450000  0.65490000  0.23840000  1.0 0.1289420946
H  H78  1  0.80550000  0.65490000  0.76160000  1.0 0.1289420946
H  H79  1  0.30550000  0.34510000  0.76160000  1.0 0.1289420946
H  H80  1  0.19450000  0.34510000  0.23840000  1.0 0.1289420946
H  H81  1  0.67950000  0.76950000  0.38250000  1.0 0.1114877711
H  H82  1  0.82050000  0.76950000  0.61750000  1.0 0.1114877711
H  H83  1  0.32050000  0.23050000  0.61750000  1.0 0.1114877711
H  H84  1  0.17950000  0.23050000  0.38250000  1.0 0.1114877711
H  H85  1  0.47930000  0.89770000  0.32960000  1.0 0.1114877711
H  H86  1  0.02070000  0.89770000  0.67040000  1.0 0.1114877711
H  H87  1  0.52070000  0.10230000  0.67040000  1.0 0.1114877711
H  H88  1  0.97930000  0.10230000  0.32960000  1.0 0.1114877711
H  H89  1  0.48380000  0.83190000  0.25080000  1.0 0.1114877711
H  H90  1  0.01620000  0.83190000  0.74920000  1.0 0.1114877711
H  H91  1  0.51620000  0.16810000  0.74920000  1.0 0.1114877711
H  H92  1  0.98380000  0.16810000  0.25080000  1.0 0.1114877711
H  H93  1  0.65350000  0.14140000  0.98960000  1.0 0.0990981995
H  H94  1  0.84650000  0.14140000  0.01040000  1.0 0.0990981995
H  H95  1  0.34650000  0.85860000  0.01040000  1.0 0.0990981995
H  H96  1  0.15350000  0.85860000  0.98960000  1.0 0.0990981995
H  H97  1  0.56880000  0.13030000  0.00700000  1.0 0.0990981995
H  H98  1  0.93120000  0.13030000  0.99300000  1.0 0.0990981995
H  H99  1  0.43120000  0.86970000  0.99300000  1.0 0.0990981995
H  H100  1  0.06880000  0.86970000  0.00700000  1.0 0.0990981995
H  H101  1  0.63670000  0.18470000  0.04200000  1.0 0.0990981995
H  H102  1  0.86330000  0.18470000  0.95800000  1.0 0.0990981995
H  H103  1  0.36330000  0.81530000  0.95800000  1.0 0.0990981995
H  H104  1  0.13670000  0.81530000  0.04200000  1.0 0.0990981995
H  H105  1  0.72800000  0.58220000  0.49360000  1.0 0.0488347045
H  H106  1  0.77200000  0.58220000  0.50640000  1.0 0.0488347045
H  H107  1  0.27200000  0.41780000  0.50640000  1.0 0.0488347045
H  H108  1  0.22800000  0.41780000  0.49360000  1.0 0.0488347045
H  H109  1  0.65000000  0.64320000  0.49270000  1.0 0.0711641557
H  H110  1  0.85000000  0.64320000  0.50730000  1.0 0.0711641557
H  H111  1  0.35000000  0.35680000  0.50730000  1.0 0.0711641557
H  H112  1  0.15000000  0.35680000  0.49270000  1.0 0.0711641557
H  H113  1  0.70330000  0.62170000  0.54490000  1.0 0.0711641557
H  H114  1  0.79670000  0.62170000  0.45510000  1.0 0.0711641557
H  H115  1  0.29670000  0.37830000  0.45510000  1.0 0.0711641557
H  H116  1  0.20330000  0.37830000  0.54490000  1.0 0.0711641557
H  H117  1  0.62860000  0.28130000  0.83790000  1.0 0.0711641557
H  H118  1  0.87140000  0.28130000  0.16210000  1.0 0.0711641557
H  H119  1  0.37140000  0.71870000  0.16210000  1.0 0.0711641557
H  H120  1  0.12860000  0.71870000  0.83790000  1.0 0.0711641557
H  H121  1  0.85920000  0.33990000  0.86210000  1.0 0.0897274524
H  H122  1  0.64080000  0.33990000  0.13790000  1.0 0.0897274524
H  H123  1  0.14080000  0.66010000  0.13790000  1.0 0.0897274524
H  H124  1  0.35920000  0.66010000  0.86210000  1.0 0.0897274524
H  H125  1  0.87070000  0.29100000  0.78010000  1.0 0.0990981995
H  H126  1  0.62930000  0.29100000  0.21990000  1.0 0.0990981995
H  H127  1  0.12930000  0.70900000  0.21990000  1.0 0.0990981995
H  H128  1  0.37070000  0.70900000  0.78010000  1.0 0.0990981995
H  H129  1  0.84030000  0.06770000  0.65330000  1.0 0.1114877711
H  H130  1  0.65970000  0.06770000  0.34670000  1.0 0.1114877711
H  H131  1  0.15970000  0.93230000  0.34670000  1.0 0.1114877711
H  H132  1  0.34030000  0.93230000  0.65330000  1.0 0.1114877711
H  H133  1  0.62090000  0.16560000  0.60890000  1.0 0.1114877711
H  H134  1  0.87910000  0.16560000  0.39110000  1.0 0.1114877711
H  H135  1  0.37910000  0.83440000  0.39110000  1.0 0.1114877711
H  H136  1  0.12090000  0.83440000  0.60890000  1.0 0.1114877711
H  H137  1  0.62750000  0.25200000  0.68320000  1.0 0.0990981995
H  H138  1  0.87250000  0.25200000  0.31680000  1.0 0.0990981995
H  H139  1  0.37250000  0.74800000  0.31680000  1.0 0.0990981995
H  H140  1  0.12750000  0.74800000  0.68320000  1.0 0.0990981995
C  C1  1  0.53990000  0.61590000  0.92800000  1.0 0.6317546777
C  C2  1  0.96010000  0.61590000  0.07200000  1.0 0.6317546777
C  C3  1  0.46010000  0.38410000  0.07200000  1.0 0.6317546777
C  C4  1  0.03990000  0.38410000  0.92800000  1.0 0.6317546777
C  C5  1  0.51500000  0.73420000  0.85580000  1.0 0.042633044
C  C6  1  0.98500000  0.73420000  0.14420000  1.0 0.042633044
C  C7  1  0.48500000  0.26580000  0.14420000  1.0 0.0488347045
C  C8  1  0.01500000  0.26580000  0.85580000  1.0 0.042633044
C  C9  1  0.55750000  0.65360000  0.87690000  1.0 -0.0690930967
C  C10  1  0.94250000  0.65360000  0.12310000  1.0 -0.0690930967
C  C11  1  0.44250000  0.34640000  0.12310000  1.0 -0.0690930967
C  C12  1  0.05750000  0.34640000  0.87690000  1.0 -0.0690930967
C  C13  1  0.61730000  0.61920000  0.85380000  1.0 -0.0605608931
C  C14  1  0.88270000  0.61920000  0.14620000  1.0 -0.0605608931
C  C15  1  0.38270000  0.38080000  0.14620000  1.0 -0.0605608931
C  C16  1  0.11730000  0.38080000  0.85380000  1.0 -0.0605608931
C  C17  1  0.62580000  0.65660000  0.80570000  1.0 -0.1778599428
C  C18  1  0.87420000  0.65660000  0.19430000  1.0 -0.1778599428
C  C19  1  0.37420000  0.34340000  0.19430000  1.0 -0.1778599428
C  C20  1  0.12580000  0.34340000  0.80570000  1.0 -0.1778599428
C  C21  1  0.57900000  0.72490000  0.78410000  1.0 0.1808706819
C  C22  1  0.92100000  0.72490000  0.21590000  1.0 0.1808706819
C  C23  1  0.42100000  0.27510000  0.21590000  1.0 0.1808706819
C  C24  1  0.07900000  0.27510000  0.78410000  1.0 0.1808706819
C  C25  1  0.61790000  0.85460000  0.58240000  1.0 0.6114325038
C  C26  1  0.88210000  0.85460000  0.41760000  1.0 0.6114325038
C  C27  1  0.38210000  0.14540000  0.41760000  1.0 0.6114325038
C  C28  1  0.11790000  0.14540000  0.58240000  1.0 0.6114325038
C  C29  1  0.65550000  0.75730000  0.66210000  1.0 0.0341643504
C  C30  1  0.84450000  0.75730000  0.33790000  1.0 0.0341643504
C  C31  1  0.34450000  0.24270000  0.33790000  1.0 0.0341643504
C  C32  1  0.15550000  0.24270000  0.66210000  1.0 0.0341643504
C  C33  1  0.60570000  0.82390000  0.63600000  1.0 -0.0470334777
C  C34  1  0.89430000  0.82390000  0.36400000  1.0 -0.0470334777
C  C35  1  0.39430000  0.17610000  0.36400000  1.0 -0.0419161668
C  C36  1  0.10570000  0.17610000  0.63600000  1.0 -0.0419161668
C  C37  1  0.54400000  0.85490000  0.65800000  1.0 -0.0981472359
C  C38  1  0.95600000  0.85490000  0.34200000  1.0 -0.0981472359
C  C39  1  0.45600000  0.14510000  0.34200000  1.0 -0.0981472359
C  C40  1  0.04400000  0.14510000  0.65800000  1.0 -0.0981472359
C  C41  1  0.53660000  0.82830000  0.70810000  1.0 -0.1894916521
C  C42  1  0.96340000  0.82830000  0.29190000  1.0 -0.1894916521
C  C43  1  0.46340000  0.17170000  0.29190000  1.0 -0.1894916521
C  C44  1  0.03660000  0.17170000  0.70810000  1.0 -0.1894916521
C  C45  1  0.58630000  0.76030000  0.73250000  1.0 0.1621671281
C  C46  1  0.91370000  0.76030000  0.26750000  1.0 0.1621671281
C  C47  1  0.41370000  0.23970000  0.26750000  1.0 0.1621671281
C  C48  1  0.08630000  0.23970000  0.73250000  1.0 0.1621671281
C  C49  1  0.73210000  0.35580000  0.91250000  1.0 0.5479196421
C  C50  1  0.76790000  0.35580000  0.08750000  1.0 0.5479196421
C  C51  1  0.26790000  0.64420000  0.08750000  1.0 0.5479196421
C  C52  1  0.23210000  0.64420000  0.91250000  1.0 0.5479196421
C  C53  1  0.67660000  0.34000000  0.81930000  1.0 -0.009308072
C  C54  1  0.82340000  0.34000000  0.18070000  1.0 -0.009308072
C  C55  1  0.32340000  0.66000000  0.18070000  1.0 -0.009308072
C  C56  1  0.17660000  0.66000000  0.81930000  1.0 -0.009308072
C  C57  1  0.73840000  0.32230000  0.85940000  1.0 -0.0605608931
C  C58  1  0.76160000  0.32230000  0.14060000  1.0 -0.0605608931
C  C59  1  0.26160000  0.67770000  0.14060000  1.0 -0.0605608931
C  C60  1  0.23840000  0.67770000  0.85940000  1.0 -0.0605608931
C  C61  1  0.79950000  0.27300000  0.85190000  1.0 -0.0605608931
C  C62  1  0.70050000  0.27300000  0.14810000  1.0 -0.0605608931
C  C63  1  0.20050000  0.72700000  0.14810000  1.0 -0.0605608931
C  C64  1  0.29950000  0.72700000  0.85190000  1.0 -0.0605608931
C  C65  1  0.80110000  0.23400000  0.80240000  1.0 -0.0690930967
C  C66  1  0.69890000  0.23400000  0.19760000  1.0 -0.0690930967
C  C67  1  0.19890000  0.76600000  0.19760000  1.0 -0.0690930967
C  C68  1  0.30110000  0.76600000  0.80240000  1.0 -0.0690930967
C  C69  1  0.75010000  0.25230000  0.76430000  1.0 0.0897274524
C  C70  1  0.74990000  0.25230000  0.23570000  1.0 0.0897274524
C  C71  1  0.24990000  0.74770000  0.23570000  1.0 0.0897274524
C  C72  1  0.25010000  0.74770000  0.76430000  1.0 0.0897274524
C  C73  1  0.80690000  0.07500000  0.57430000  1.0 0.278214503
C  C74  1  0.69310000  0.07500000  0.42570000  1.0 0.278214503
C  C75  1  0.19310000  0.92500000  0.42570000  1.0 0.278214503
C  C76  1  0.30690000  0.92500000  0.57430000  1.0 0.278214503
C  C77  1  0.84330000  0.18450000  0.65150000  1.0 -0.009308072
C  C78  1  0.65670000  0.18450000  0.34850000  1.0 -0.009308072
C  C79  1  0.15670000  0.81550000  0.34850000  1.0 -0.009308072
C  C80  1  0.34330000  0.81550000  0.65150000  1.0 -0.009308072
C  C81  1  0.79100000  0.12330000  0.62260000  1.0 -0.0299142436
C  C82  1  0.70900000  0.12330000  0.37740000  1.0 -0.0299142436
C  C83  1  0.20900000  0.87670000  0.37740000  1.0 -0.0299142436
C  C84  1  0.29100000  0.87670000  0.62260000  1.0 -0.0299142436
C  C85  1  0.72030000  0.10400000  0.64390000  1.0 -0.0419161668
C  C86  1  0.77970000  0.10400000  0.35610000  1.0 -0.0419161668
C  C87  1  0.27970000  0.89600000  0.35610000  1.0 -0.0419161668
C  C88  1  0.22030000  0.89600000  0.64390000  1.0 -0.0419161668
C  C89  1  0.71000000  0.14600000  0.69080000  1.0 0.0210207071
C  C90  1  0.79000000  0.14600000  0.30920000  1.0 0.0210207071
C  C91  1  0.29000000  0.85400000  0.30920000  1.0 0.0210207071
C  C92  1  0.21000000  0.85400000  0.69080000  1.0 0.0210207071
C  C93  1  0.76400000  0.21000000  0.71300000  1.0 0.0834599741
C  C94  1  0.73600000  0.21000000  0.28700000  1.0 0.0834599741
C  C95  1  0.23600000  0.79000000  0.28700000  1.0 0.0834599741
C  C96  1  0.26400000  0.79000000  0.71300000  1.0 0.0834599741
C  C97  1  0.58100000  0.57370000  0.07970000  1.0 0.6114325038
C  C98  1  0.91900000  0.57370000  0.92030000  1.0 0.6114325038
C  C99  1  0.41900000  0.42630000  0.92030000  1.0 0.6114325038
C  C100  1  0.08100000  0.42630000  0.07970000  1.0 0.6114325038
C  C101  1  0.52280000  0.67680000  0.14110000  1.0 0.0210207071
C  C102  1  0.97720000  0.67680000  0.85890000  1.0 0.0210207071
C  C103  1  0.47720000  0.32320000  0.85890000  1.0 0.0210207071
C  C104  1  0.02280000  0.32320000  0.14110000  1.0 0.0210207071
C  C105  1  0.58560000  0.62350000  0.13000000  1.0 -0.0690930967
C  C106  1  0.91440000  0.62350000  0.87000000  1.0 -0.0690930967
C  C107  1  0.41440000  0.37650000  0.87000000  1.0 -0.0690930967
C  C108  1  0.08560000  0.37650000  0.13000000  1.0 -0.0690930967
C  C109  1  0.64940000  0.61770000  0.16650000  1.0 -0.0690930967
C  C110  1  0.85060000  0.61770000  0.83350000  1.0 -0.0690930967
C  C111  1  0.35060000  0.38230000  0.83350000  1.0 -0.0690930967
C  C112  1  0.14940000  0.38230000  0.16650000  1.0 -0.0690930967
C  C113  1  0.65060000  0.66140000  0.21320000  1.0 -0.171899552
C  C114  1  0.84940000  0.66140000  0.78680000  1.0 -0.171899552
C  C115  1  0.34940000  0.33860000  0.78680000  1.0 -0.171899552
C  C116  1  0.15060000  0.33860000  0.21320000  1.0 -0.171899552
C  C117  1  0.58520000  0.71540000  0.22190000  1.0 0.1886340192
C  C118  1  0.91480000  0.71540000  0.77810000  1.0 0.1886340192
C  C119  1  0.41480000  0.28460000  0.77810000  1.0 0.1886340192
C  C120  1  0.08520000  0.28460000  0.22190000  1.0 0.1886340192
C  C121  1  0.57080000  0.87340000  0.41880000  1.0 0.5642773868
C  C122  1  0.92920000  0.87340000  0.58120000  1.0 0.5642773868
C  C123  1  0.42920000  0.12660000  0.58120000  1.0 0.5657837352
C  C124  1  0.07080000  0.12660000  0.41880000  1.0 0.5642773868
C  C125  1  0.63780000  0.78060000  0.35640000  1.0 -0.0222060537
C  C126  1  0.86220000  0.78060000  0.64360000  1.0 -0.0222060537
C  C127  1  0.36220000  0.21940000  0.64360000  1.0 -0.0222060537
C  C128  1  0.13780000  0.21940000  0.35640000  1.0 -0.0222060537
C  C129  1  0.57460000  0.83370000  0.36620000  1.0 -0.0419161668
C  C130  1  0.92540000  0.83370000  0.63380000  1.0 -0.0419161668
C  C131  1  0.42540000  0.16630000  0.63380000  1.0 -0.0419161668
C  C132  1  0.07460000  0.16630000  0.36620000  1.0 -0.0419161668
C  C133  1  0.52000000  0.85510000  0.32530000  1.0 -0.1056657863
C  C134  1  0.98000000  0.85510000  0.67470000  1.0 -0.1056657863
C  C135  1  0.48000000  0.14490000  0.67470000  1.0 -0.1056657863
C  C136  1  0.02000000  0.14490000  0.32530000  1.0 -0.1056657863
C  C137  1  0.52230000  0.81690000  0.27840000  1.0 -0.1778599428
C  C138  1  0.97770000  0.81690000  0.72160000  1.0 -0.1778599428
C  C139  1  0.47770000  0.18310000  0.72160000  1.0 -0.1778599428
C  C140  1  0.02230000  0.18310000  0.27840000  1.0 -0.1778599428
C  C141  1  0.58150000  0.75730000  0.27320000  1.0 0.1678347847
C  C142  1  0.91850000  0.75730000  0.72680000  1.0 0.1678347847
C  C143  1  0.41850000  0.24270000  0.72680000  1.0 0.1678347847
C  C144  1  0.08150000  0.24270000  0.27320000  1.0 0.1678347847
C  C145  1  0.61410000  0.17170000  0.00720000  1.0 -0.1894916521
C  C146  1  0.88590000  0.17170000  0.99280000  1.0 -0.1894916521
C  C147  1  0.38590000  0.82830000  0.99280000  1.0 -0.1894916521
C  C148  1  0.11410000  0.82830000  0.00720000  1.0 -0.1894916521
C  C149  1  0.70380000  0.63470000  0.50920000  1.0 -0.1778599428
C  C150  1  0.79620000  0.63470000  0.49080000  1.0 -0.1778599428
C  C151  1  0.29620000  0.36530000  0.49080000  1.0 -0.1778599428
C  C152  1  0.20380000  0.36530000  0.50920000  1.0 -0.171899552
C  C153  1  0.67920000  0.28200000  0.82760000  1.0 0.042633044
C  C154  1  0.82080000  0.28200000  0.17240000  1.0 0.042633044
C  C155  1  0.32080000  0.71800000  0.17240000  1.0 0.042633044
C  C156  1  0.17920000  0.71800000  0.82760000  1.0 0.042633044
C  C157  1  0.81400000  0.32000000  0.84070000  1.0 -0.0419161668
C  C158  1  0.68600000  0.32000000  0.15930000  1.0 -0.0419161668
C  C159  1  0.18600000  0.68000000  0.15930000  1.0 -0.0470334777
C  C160  1  0.31400000  0.68000000  0.84070000  1.0 -0.0470334777
C  C161  1  0.82220000  0.28880000  0.79320000  1.0 -0.0893023872
C  C162  1  0.67780000  0.28880000  0.20680000  1.0 -0.0893023872
C  C163  1  0.17780000  0.71120000  0.20680000  1.0 -0.0893023872
C  C164  1  0.32220000  0.71120000  0.79320000  1.0 -0.0893023872
C  C165  1  0.73490000  0.04700000  0.57330000  1.0 0.2545963189
C  C166  1  0.76510000  0.04700000  0.42670000  1.0 0.2545963189
C  C167  1  0.26510000  0.95300000  0.42670000  1.0 0.2545963189
C  C168  1  0.23490000  0.95300000  0.57330000  1.0 0.2545963189
C  C169  1  0.79650000  0.10480000  0.65850000  1.0 -0.0419161668
C  C170  1  0.70350000  0.10480000  0.34150000  1.0 -0.0419161668
C  C171  1  0.20350000  0.89520000  0.34150000  1.0 -0.0419161668
C  C172  1  0.29650000  0.89520000  0.65850000  1.0 -0.0419161668
C  C173  1  0.73470000  0.11000000  0.62060000  1.0 -0.0222060537
C  C174  1  0.76530000  0.11000000  0.37940000  1.0 -0.0222060537
C  C175  1  0.26530000  0.89000000  0.37940000  1.0 -0.0222060537
C  C176  1  0.23470000  0.89000000  0.62060000  1.0 -0.0222060537
C  C177  1  0.66730000  0.16420000  0.63240000  1.0 -0.0893023872
C  C178  1  0.83270000  0.16420000  0.36760000  1.0 -0.0893023872
C  C179  1  0.33270000  0.83580000  0.36760000  1.0 -0.0893023872
C  C180  1  0.16730000  0.83580000  0.63240000  1.0 -0.0893023872
C  C181  1  0.66970000  0.21310000  0.67680000  1.0 -0.128889151
C  C182  1  0.83030000  0.21310000  0.32320000  1.0 -0.128889151
C  C183  1  0.33030000  0.78690000  0.32320000  1.0 -0.128889151
C  C184  1  0.16970000  0.78690000  0.67680000  1.0 -0.128889151
C  C185  1  0.73800000  0.20300000  0.71300000  1.0 0.042633044
C  C186  1  0.76200000  0.20300000  0.28700000  1.0 0.042633044
C  C187  1  0.26200000  0.79700000  0.28700000  1.0 0.042633044
C  C188  1  0.23800000  0.79700000  0.71300000  1.0 0.042633044
N  N1  1  0.52660000  0.76780000  0.80970000  1.0 -0.2971599041
N  N2  1  0.97340000  0.76780000  0.19030000  1.0 -0.2945951262
N  N3  1  0.47340000  0.23220000  0.19030000  1.0 -0.2971599041
N  N4  1  0.02660000  0.23220000  0.80970000  1.0 -0.2945951262
N  N5  1  0.64610000  0.72580000  0.70880000  1.0 -0.1999256574
N  N6  1  0.85390000  0.72580000  0.29120000  1.0 -0.2060670369
N  N7  1  0.35390000  0.27420000  0.29120000  1.0 -0.1999256574
N  N8  1  0.14610000  0.27420000  0.70880000  1.0 -0.2060670369
N  N9  1  0.67820000  0.30420000  0.77060000  1.0 -0.128889151
N  N10  1  0.82180000  0.30420000  0.22940000  1.0 -0.128889151
N  N11  1  0.32180000  0.69580000  0.22940000  1.0 -0.128889151
N  N12  1  0.17820000  0.69580000  0.77060000  1.0 -0.128889151
N  N13  1  0.83300000  0.22300000  0.69420000  1.0 -0.1641586573
N  N14  1  0.66700000  0.22300000  0.30580000  1.0 -0.1641586573
N  N15  1  0.16700000  0.77700000  0.30580000  1.0 -0.1641586573
N  N16  1  0.33300000  0.77700000  0.69420000  1.0 -0.1641586573
N  N17  1  0.52180000  0.72160000  0.18660000  1.0 -0.2971599041
N  N18  1  0.97820000  0.72160000  0.81340000  1.0 -0.2971599041
N  N19  1  0.47820000  0.27840000  0.81340000  1.0 -0.2971599041
N  N20  1  0.02180000  0.27840000  0.18660000  1.0 -0.2971599041
N  N21  1  0.64170000  0.74290000  0.30910000  1.0 -0.2627518886
N  N22  1  0.85830000  0.74290000  0.69090000  1.0 -0.2627518886
N  N23  1  0.35830000  0.25710000  0.69090000  1.0 -0.2627518886
N  N24  1  0.14170000  0.25710000  0.30910000  1.0 -0.2627518886
N  N25  1  0.58970000  0.25750000  0.98240000  1.0 -0.5860206672
N  N26  1  0.91030000  0.25750000  0.01760000  1.0 -0.5860206672
N  N27  1  0.41030000  0.74250000  0.01760000  1.0 -0.5860206672
N  N28  1  0.08970000  0.74250000  0.98240000  1.0 -0.5860206672
N  N29  1  0.75000000  0.71810000  0.50000000  1.0 -0.396186604
N  N30  1  0.25000000  0.28190000  0.50000000  1.0 -0.396186604
N  N31  1  0.68760000  0.24190000  0.78080000  1.0 -0.0893023872
N  N32  1  0.81240000  0.24190000  0.21920000  1.0 -0.0893023872
N  N33  1  0.31240000  0.75810000  0.21920000  1.0 -0.0981472359
N  N34  1  0.18760000  0.75810000  0.78080000  1.0 -0.0981472359
N  N35  1  0.79820000  0.15070000  0.70340000  1.0 0.013520508
N  N36  1  0.70180000  0.15070000  0.29660000  1.0 0.013520508
N  N37  1  0.20180000  0.84930000  0.29660000  1.0 0.013520508
N  N38  1  0.29820000  0.84930000  0.70340000  1.0 0.013520508
O  O1  1  0.59670000  0.56900000  0.95280000  1.0 -0.6654468813
O  O2  1  0.90330000  0.56900000  0.04720000  1.0 -0.6654468813
O  O3  1  0.40330000  0.43100000  0.04720000  1.0 -0.6654468813
O  O4  1  0.09670000  0.43100000  0.95280000  1.0 -0.6654468813
O  O5  1  0.47350000  0.63220000  0.94080000  1.0 -0.6279321004
O  O6  1  0.02650000  0.63220000  0.05920000  1.0 -0.6279321004
O  O7  1  0.52650000  0.36780000  0.05920000  1.0 -0.6279321004
O  O8  1  0.97350000  0.36780000  0.94080000  1.0 -0.6279321004
O  O9  1  0.68420000  0.83640000  0.56960000  1.0 -0.6279321004
O  O10  1  0.81580000  0.83640000  0.43040000  1.0 -0.6279321004
O  O11  1  0.31580000  0.16360000  0.43040000  1.0 -0.6279321004
O  O12  1  0.18420000  0.16360000  0.56960000  1.0 -0.6279321004
O  O13  1  0.56150000  0.89670000  0.55690000  1.0 -0.716842089
O  O14  1  0.93850000  0.89670000  0.44310000  1.0 -0.716842089
O  O15  1  0.43850000  0.10330000  0.44310000  1.0 -0.716842089
O  O16  1  0.06150000  0.10330000  0.55690000  1.0 -0.716842089
O  O17  1  0.66580000  0.38930000  0.92110000  1.0 -0.6279321004
O  O18  1  0.83420000  0.38930000  0.07890000  1.0 -0.6279321004
O  O19  1  0.33420000  0.61070000  0.07890000  1.0 -0.6279321004
O  O20  1  0.16580000  0.61070000  0.92110000  1.0 -0.6279321004
O  O21  1  0.79120000  0.34410000  0.94630000  1.0 -0.6225207114
O  O22  1  0.70880000  0.34410000  0.05370000  1.0 -0.6225207114
O  O23  1  0.20880000  0.65590000  0.05370000  1.0 -0.6225207114
O  O24  1  0.29120000  0.65590000  0.94630000  1.0 -0.6225207114
O  O25  1  0.75230000  0.02750000  0.54930000  1.0 -0.0470334777
O  O26  1  0.74770000  0.02750000  0.45070000  1.0 -0.0470334777
O  O27  1  0.24770000  0.97250000  0.45070000  1.0 -0.0470334777
O  O28  1  0.25230000  0.97250000  0.54930000  1.0 -0.0470334777
O  O29  1  0.87620000  0.07830000  0.56530000  1.0 -0.396186604
O  O30  1  0.62380000  0.07830000  0.43470000  1.0 -0.3932344157
O  O31  1  0.12380000  0.92170000  0.43470000  1.0 -0.3932344157
O  O32  1  0.37620000  0.92170000  0.56530000  1.0 -0.3932344157
O  O33  1  0.51790000  0.57600000  0.04980000  1.0 -0.6779109055
O  O34  1  0.98210000  0.57600000  0.95020000  1.0 -0.6779109055
O  O35  1  0.48210000  0.42400000  0.95020000  1.0 -0.6779109055
O  O36  1  0.01790000  0.42400000  0.04980000  1.0 -0.6779109055
O  O37  1  0.64220000  0.52920000  0.07130000  1.0 -0.6225207114
O  O38  1  0.85780000  0.52920000  0.92870000  1.0 -0.6225207114
O  O39  1  0.35780000  0.47080000  0.92870000  1.0 -0.6225207114
O  O40  1  0.14220000  0.47080000  0.07130000  1.0 -0.6225207114
O  O41  1  0.62690000  0.85890000  0.45260000  1.0 -0.6436885336
O  O42  1  0.87310000  0.85890000  0.54740000  1.0 -0.6436885336
O  O43  1  0.37310000  0.14110000  0.54740000  1.0 -0.6436885336
O  O44  1  0.12690000  0.14110000  0.45260000  1.0 -0.6436885336
O  O45  1  0.51180000  0.92380000  0.42530000  1.0 -0.6779109055
O  O46  1  0.98820000  0.92380000  0.57470000  1.0 -0.6779109055
O  O47  1  0.48820000  0.07620000  0.57470000  1.0 -0.6779109055
O  O48  1  0.01180000  0.07620000  0.42530000  1.0 -0.6779109055
O  O49  1  0.75000000  0.50920000  0.00000000  1.0 -0.8011155167
O  O50  1  0.25000000  0.49080000  0.00000000  1.0 -0.8011155167
O  O51  1  0.79490000  0.01310000  0.56760000  1.0 -0.0222060537
O  O52  1  0.70510000  0.01310000  0.43240000  1.0 -0.0222060537
O  O53  1  0.20510000  0.98690000  0.43240000  1.0 -0.0222060537
O  O54  1  0.29490000  0.98690000  0.56760000  1.0 -0.0299142436
O  O55  1  0.66666667  0.03780000  0.54410000  1.0 -0.4813615867
O  O56  1  0.83333000  0.03780000  0.45590000  1.0 -0.4813615867
O  O57  1  0.33333333  0.96220000  0.45590000  1.0 -0.4813615867
O  O58  1  0.16667000  0.96220000  0.54410000  1.0 -0.4813615867
