# DDEC6 charges by PACMAN v1.1 (https://github.com/mtap-research/PACMAN-charge/)
data_TOHSAL_ASR_pacman
_symmetry_space_group_name_H-M   'P 1'
_cell_length_a   40.14030000
_cell_length_b   40.14030000
_cell_length_c   40.14030000
_cell_angle_alpha   144.39200000
_cell_angle_beta   144.39200000
_cell_angle_gamma   51.24150000
_symmetry_Int_Tables_number   1
_chemical_formula_structural   CuH17C28O5
_chemical_formula_sum   'Cu16 H272 C448 O80'
_cell_volume   21808.14464652
_cell_formula_units_Z   16
loop_
 _symmetry_equiv_pos_site_id
 _symmetry_equiv_pos_as_xyz
  1  'x, y, z'
loop_
 _atom_site_type_symbol
 _atom_site_label
 _atom_site_symmetry_multiplicity
 _atom_site_fract_x
 _atom_site_fract_y
 _atom_site_fract_z
 _atom_site_occupancy
 _atom_site_charge
Cu  Cu1  1  0.05898000  0.13469000  0.99557000  1.0 0.8491405338
Cu  Cu2  1  0.13912000  0.06341000  0.00443000  1.0 0.8491405338
Cu  Cu3  1  0.88469000  0.38912000  0.57571000  1.0 0.8491405338
Cu  Cu4  1  0.81341000  0.30898000  0.42429000  1.0 0.8491405338
Cu  Cu5  1  0.08501000  0.59000000  0.42477000  1.0 0.8759890139
Cu  Cu6  1  0.16523000  0.66024000  0.57523000  1.0 0.8759890139
Cu  Cu7  1  0.34000000  0.41523000  0.00499000  1.0 0.8759890139
Cu  Cu8  1  0.41024000  0.33501000  0.99501000  1.0 0.8759890139
Cu  Cu9  1  0.69102000  0.11531000  0.50443000  1.0 0.8491405338
Cu  Cu10  1  0.61088000  0.18659000  0.49557000  1.0 0.8491405338
Cu  Cu11  1  0.86531000  0.86088000  0.92429000  1.0 0.8491405338
Cu  Cu12  1  0.93659000  0.94102000  0.07571000  1.0 0.8491405338
Cu  Cu13  1  0.66499000  0.66000000  0.07523000  1.0 0.8759890139
Cu  Cu14  1  0.58477000  0.58976000  0.92477000  1.0 0.8759890139
Cu  Cu15  1  0.41000000  0.83477000  0.49501000  1.0 0.8759890139
Cu  Cu16  1  0.33976000  0.91499000  0.50499000  1.0 0.8759890139
H  H1  1  0.87710000  0.63690000  0.39940000  1.0 0.120290101
H  H2  1  0.23750000  0.47770000  0.60060000  1.0 0.120290101
H  H3  1  0.38690000  0.48750000  0.25980000  1.0 0.120290101
H  H4  1  0.22770000  0.12710000  0.74020000  1.0 0.120290101
H  H5  1  0.94370000  0.61310000  0.39420000  1.0 0.1287371259
H  H6  1  0.21890000  0.54950000  0.60580000  1.0 0.120290101
H  H7  1  0.36310000  0.46890000  0.16940000  1.0 0.1287371259
H  H8  1  0.29950000  0.19370000  0.83060000  1.0 0.1287371259
H  H9  1  0.06680000  0.72340000  0.62740000  1.0 0.120290101
H  H10  1  0.09600000  0.43940000  0.37260000  1.0 0.120290101
H  H11  1  0.47340000  0.34600000  0.15660000  1.0 0.120290101
H  H12  1  0.18940000  0.31680000  0.84340000  1.0 0.120290101
H  H13  1  0.00030000  0.74730000  0.63260000  1.0 0.1108426852
H  H14  1  0.11470000  0.36770000  0.36740000  1.0 0.120290101
H  H15  1  0.49730000  0.36470000  0.24700000  1.0 0.1108426852
H  H16  1  0.11770000  0.25030000  0.75300000  1.0 0.120290101
H  H17  1  0.97460000  0.83900000  0.74580000  1.0 0.1108426852
H  H18  1  0.09320000  0.22880000  0.25420000  1.0 0.1108426852
H  H19  1  0.58900000  0.34320000  0.36440000  1.0 0.1108426852
H  H20  1  0.97880000  0.22460000  0.63560000  1.0 0.1108426852
H  H21  1  0.04260000  0.91590000  0.84950000  1.0 0.120290101
H  H22  1  0.06640000  0.19310000  0.15050000  1.0 0.120290101
H  H23  1  0.66590000  0.31640000  0.37330000  1.0 0.120290101
H  H24  1  0.94310000  0.29260000  0.62670000  1.0 0.120290101
H  H25  1  0.91410000  0.01570000  0.80840000  1.0 0.120290101
H  H26  1  0.20730000  0.10570000  0.19160000  1.0 0.120290101
H  H27  1  0.76570000  0.45730000  0.60160000  1.0 0.120290101
H  H28  1  0.85570000  0.16410000  0.39840000  1.0 0.120290101
H  H29  1  0.84610000  0.93890000  0.70480000  1.0 0.120290101
H  H30  1  0.23410000  0.14130000  0.29520000  1.0 0.120290101
H  H31  1  0.68890000  0.48410000  0.59280000  1.0 0.120290101
H  H32  1  0.89130000  0.09610000  0.40720000  1.0 0.120290101
H  H33  1  0.81660000  0.88140000  0.68560000  1.0 0.1287371259
H  H34  1  0.19580000  0.13100000  0.31440000  1.0 0.1287371259
H  H35  1  0.63140000  0.44580000  0.56480000  1.0 0.1287371259
H  H36  1  0.88100000  0.06660000  0.43520000  1.0 0.1287371259
H  H37  1  0.77690000  0.65240000  0.42310000  1.0 0.120290101
H  H38  1  0.22930000  0.35380000  0.57690000  1.0 0.120290101
H  H39  1  0.40240000  0.47930000  0.37550000  1.0 0.120290101
H  H40  1  0.10380000  0.02690000  0.62450000  1.0 0.120290101
H  H41  1  0.84740000  0.62820000  0.42220000  1.0 0.120290101
H  H42  1  0.20600000  0.42520000  0.57780000  1.0 0.120290101
H  H43  1  0.37820000  0.45600000  0.28080000  1.0 0.120290101
H  H44  1  0.17520000  0.09740000  0.71920000  1.0 0.120290101
H  H45  1  0.92580000  0.78770000  0.62210000  1.0 0.1108426852
H  H46  1  0.16560000  0.30370000  0.37790000  1.0 0.1108426852
H  H47  1  0.53770000  0.41560000  0.36190000  1.0 0.1108426852
H  H48  1  0.05370000  0.17580000  0.63810000  1.0 0.1108426852
H  H49  1  0.86000000  0.53260000  0.60760000  1.0 0.1287371259
H  H50  1  0.92500000  0.25240000  0.39240000  1.0 0.1287371259
H  H51  1  0.28260000  0.17500000  0.17260000  1.0 0.1287371259
H  H52  1  0.00240000  0.11000000  0.82740000  1.0 0.1287371259
H  H53  1  0.83940000  0.59690000  0.60130000  1.0 0.1108426852
H  H54  1  0.99560000  0.23810000  0.39870000  1.0 0.1108426852
H  H55  1  0.34690000  0.24560000  0.25750000  1.0 0.1108426852
H  H56  1  0.98810000  0.08940000  0.74250000  1.0 0.1108426852
H  H57  1  0.72180000  0.47580000  0.36800000  1.0 0.120290101
H  H58  1  0.10780000  0.35380000  0.63200000  1.0 0.120290101
H  H59  1  0.22580000  0.35780000  0.25400000  1.0 0.120290101
H  H60  1  0.10380000  0.97180000  0.74600000  1.0 0.120290101
H  H61  1  0.74240000  0.41150000  0.37450000  1.0 0.120290101
H  H62  1  0.03700000  0.36790000  0.62550000  1.0 0.120290101
H  H63  1  0.16150000  0.28700000  0.16910000  1.0 0.120290101
H  H64  1  0.11790000  0.99240000  0.83090000  1.0 0.120290101
H  H65  1  0.63830000  0.50290000  0.26280000  1.0 0.1108426852
H  H66  1  0.24010000  0.37550000  0.73720000  1.0 0.1108426852
H  H67  1  0.25290000  0.49010000  0.36460000  1.0 0.1108426852
H  H68  1  0.12550000  0.88830000  0.63540000  1.0 0.1108426852
H  H69  1  0.56280000  0.43500000  0.16220000  1.0 0.1287371259
H  H70  1  0.27280000  0.40060000  0.83780000  1.0 0.1287371259
H  H71  1  0.18500000  0.52280000  0.37220000  1.0 0.120290101
H  H72  1  0.15060000  0.81280000  0.62780000  1.0 0.120290101
H  H73  1  0.46000000  0.56260000  0.19560000  1.0 0.120290101
H  H74  1  0.36700000  0.26440000  0.80440000  1.0 0.120290101
H  H75  1  0.31260000  0.61700000  0.60260000  1.0 0.120290101
H  H76  1  0.01440000  0.71000000  0.39740000  1.0 0.120290101
H  H77  1  0.53550000  0.63050000  0.29620000  1.0 0.120290101
H  H78  1  0.33430000  0.23930000  0.70380000  1.0 0.120290101
H  H79  1  0.38050000  0.58430000  0.59500000  1.0 0.120290101
H  H80  1  0.98930000  0.78550000  0.40500000  1.0 0.120290101
H  H81  1  0.59280000  0.65550000  0.31270000  1.0 0.1379758357
H  H82  1  0.34280000  0.28010000  0.68730000  1.0 0.1379758357
H  H83  1  0.40550000  0.59280000  0.56270000  1.0 0.1379758357
H  H84  1  0.03010000  0.84280000  0.43730000  1.0 0.1379758357
H  H85  1  0.82470000  0.69440000  0.57750000  1.0 0.120290101
H  H86  1  0.11690000  0.24720000  0.42250000  1.0 0.120290101
H  H87  1  0.44440000  0.36690000  0.36970000  1.0 0.120290101
H  H88  1  0.99720000  0.07470000  0.63030000  1.0 0.120290101
H  H89  1  0.84800000  0.62610000  0.57810000  1.0 0.1108426852
H  H90  1  0.04800000  0.26990000  0.42190000  1.0 0.120290101
H  H91  1  0.37610000  0.29800000  0.27810000  1.0 0.1108426852
H  H92  1  0.01990000  0.09800000  0.72190000  1.0 0.120290101
H  H93  1  0.68310000  0.55660000  0.38670000  1.0 0.1108426852
H  H94  1  0.16990000  0.29640000  0.61330000  1.0 0.1108426852
H  H95  1  0.30660000  0.41990000  0.37350000  1.0 0.1108426852
H  H96  1  0.04640000  0.93310000  0.62650000  1.0 0.1108426852
H  H97  1  0.59450000  0.69810000  0.30060000  1.0 0.0827646958
H  H98  1  0.39750000  0.29390000  0.69940000  1.0 0.0827646958
H  H99  1  0.44810000  0.64750000  0.60360000  1.0 0.0827646958
H  H100  1  0.04390000  0.84450000  0.39640000  1.0 0.0827646958
H  H101  1  0.57870000  0.74820000  0.35170000  1.0 0.0897507776
H  H102  1  0.39650000  0.22700000  0.64830000  1.0 0.0897507776
H  H103  1  0.49820000  0.64650000  0.66950000  1.0 0.0897507776
H  H104  1  0.97700000  0.82870000  0.33050000  1.0 0.0897507776
H  H105  1  0.56890000  0.77370000  0.30640000  1.0 0.0897507776
H  H106  1  0.46730000  0.26250000  0.69360000  1.0 0.0897507776
H  H107  1  0.52370000  0.71730000  0.70480000  1.0 0.0897507776
H  H108  1  0.01250000  0.81890000  0.29520000  1.0 0.0897507776
H  H109  1  0.61430000  0.81780000  0.39670000  1.0 0.0985099698
H  H110  1  0.42110000  0.21760000  0.60330000  1.0 0.0985099698
H  H111  1  0.56780000  0.67110000  0.70350000  1.0 0.0985099698
H  H112  1  0.96760000  0.86430000  0.29650000  1.0 0.0985099698
H  H113  1  0.63480000  0.76920000  0.35120000  1.0 0.1108426852
H  H114  1  0.41800000  0.28360000  0.64880000  1.0 0.1108426852
H  H115  1  0.51920000  0.66800000  0.63440000  1.0 0.1108426852
H  H116  1  0.03360000  0.88480000  0.36560000  1.0 0.1108426852
H  H117  1  0.78690000  0.87020000  0.70710000  1.0 0.0897507776
H  H118  1  0.16310000  0.07980000  0.29290000  1.0 0.0897507776
H  H119  1  0.62020000  0.41310000  0.58330000  1.0 0.0897507776
H  H120  1  0.82980000  0.03690000  0.41670000  1.0 0.0897507776
H  H121  1  0.74720000  0.90040000  0.67560000  1.0 0.0897507776
H  H122  1  0.22480000  0.07160000  0.32440000  1.0 0.0897507776
H  H123  1  0.65040000  0.47480000  0.65320000  1.0 0.0897507776
H  H124  1  0.82160000  0.99720000  0.34680000  1.0 0.0897507776
H  H125  1  0.73200000  0.92100000  0.73560000  1.0 0.1108426852
H  H126  1  0.18540000  0.99640000  0.26440000  1.0 0.1108426852
H  H127  1  0.67100000  0.43540000  0.68900000  1.0 0.1108426852
H  H128  1  0.74640000  0.98200000  0.31100000  1.0 0.1108426852
H  H129  1  0.67520000  0.89420000  0.65040000  1.0 0.0985099698
H  H130  1  0.24380000  0.02480000  0.34960000  1.0 0.0985099698
H  H131  1  0.64420000  0.49380000  0.71900000  1.0 0.0985099698
H  H132  1  0.77480000  0.92520000  0.28100000  1.0 0.0985099698
H  H133  1  0.70960000  0.85640000  0.67100000  1.0 0.1287371259
H  H134  1  0.18540000  0.03860000  0.32900000  1.0 0.1287371259
H  H135  1  0.60640000  0.43540000  0.64680000  1.0 0.1287371259
H  H136  1  0.78860000  0.95960000  0.35320000  1.0 0.1287371259
H  H137  1  0.87290000  0.61310000  0.10060000  1.0 0.120290101
H  H138  1  0.51250000  0.77230000  0.89940000  1.0 0.120290101
H  H139  1  0.36310000  0.76250000  0.24020000  1.0 0.120290101
H  H140  1  0.52230000  0.12290000  0.75980000  1.0 0.120290101
H  H141  1  0.80630000  0.63690000  0.10580000  1.0 0.1287371259
H  H142  1  0.53110000  0.70050000  0.89420000  1.0 0.1287371259
H  H143  1  0.38690000  0.78110000  0.33060000  1.0 0.1287371259
H  H144  1  0.45050000  0.05630000  0.66940000  1.0 0.1287371259
H  H145  1  0.68320000  0.52660000  0.87260000  1.0 0.120290101
H  H146  1  0.65400000  0.81060000  0.12740000  1.0 0.120290101
H  H147  1  0.27660000  0.90400000  0.34340000  1.0 0.120290101
H  H148  1  0.56060000  0.93320000  0.65660000  1.0 0.120290101
H  H149  1  0.74970000  0.50270000  0.86740000  1.0 0.120290101
H  H150  1  0.63530000  0.88230000  0.13260000  1.0 0.1108426852
H  H151  1  0.25270000  0.88530000  0.25300000  1.0 0.120290101
H  H152  1  0.63230000  0.99970000  0.74700000  1.0 0.120290101
H  H153  1  0.77540000  0.41100000  0.75420000  1.0 0.1108426852
H  H154  1  0.65680000  0.02120000  0.24580000  1.0 0.1108426852
H  H155  1  0.16100000  0.90680000  0.13560000  1.0 0.1108426852
H  H156  1  0.77120000  0.02540000  0.86440000  1.0 0.1108426852
H  H157  1  0.70740000  0.33410000  0.65050000  1.0 0.120290101
H  H158  1  0.68360000  0.05690000  0.34950000  1.0 0.120290101
H  H159  1  0.08410000  0.93360000  0.12670000  1.0 0.120290101
H  H160  1  0.80690000  0.95740000  0.87330000  1.0 0.120290101
H  H161  1  0.83590000  0.23430000  0.69160000  1.0 0.120290101
H  H162  1  0.54270000  0.14430000  0.30840000  1.0 0.120290101
H  H163  1  0.98430000  0.79270000  0.89840000  1.0 0.120290101
H  H164  1  0.89430000  0.08590000  0.10160000  1.0 0.120290101
H  H165  1  0.90390000  0.31110000  0.79520000  1.0 0.120290101
H  H166  1  0.51590000  0.10870000  0.20480000  1.0 0.120290101
H  H167  1  0.06110000  0.76590000  0.90720000  1.0 0.120290101
H  H168  1  0.85870000  0.15390000  0.09280000  1.0 0.120290101
H  H169  1  0.93340000  0.36860000  0.81440000  1.0 0.1287371259
H  H170  1  0.55420000  0.11900000  0.18560000  1.0 0.1287371259
H  H171  1  0.11860000  0.80420000  0.93520000  1.0 0.1287371259
H  H172  1  0.86900000  0.18340000  0.06480000  1.0 0.1287371259
H  H173  1  0.97310000  0.59760000  0.07690000  1.0 0.120290101
H  H174  1  0.52070000  0.89620000  0.92310000  1.0 0.120290101
H  H175  1  0.34760000  0.77070000  0.12450000  1.0 0.120290101
H  H176  1  0.64620000  0.22310000  0.87550000  1.0 0.120290101
H  H177  1  0.90260000  0.62180000  0.07780000  1.0 0.120290101
H  H178  1  0.54400000  0.82480000  0.92220000  1.0 0.120290101
H  H179  1  0.37180000  0.79400000  0.21920000  1.0 0.120290101
H  H180  1  0.57480000  0.15260000  0.78080000  1.0 0.120290101
H  H181  1  0.82420000  0.46230000  0.87790000  1.0 0.1108426852
H  H182  1  0.58440000  0.94630000  0.12210000  1.0 0.1108426852
H  H183  1  0.21230000  0.83440000  0.13810000  1.0 0.1108426852
H  H184  1  0.69630000  0.07420000  0.86190000  1.0 0.1108426852
H  H185  1  0.89000000  0.71740000  0.89240000  1.0 0.1287371259
H  H186  1  0.82500000  0.99760000  0.10760000  1.0 0.1287371259
H  H187  1  0.46740000  0.07500000  0.32740000  1.0 0.1287371259
H  H188  1  0.74760000  0.14000000  0.67260000  1.0 0.1287371259
H  H189  1  0.91060000  0.65310000  0.89870000  1.0 0.1108426852
H  H190  1  0.75440000  0.01190000  0.10130000  1.0 0.1108426852
H  H191  1  0.40310000  0.00440000  0.24250000  1.0 0.1108426852
H  H192  1  0.76190000  0.16060000  0.75750000  1.0 0.1108426852
H  H193  1  0.02820000  0.77420000  0.13200000  1.0 0.120290101
H  H194  1  0.64220000  0.89620000  0.86800000  1.0 0.120290101
H  H195  1  0.52420000  0.89220000  0.24600000  1.0 0.120290101
H  H196  1  0.64620000  0.27820000  0.75400000  1.0 0.120290101
H  H197  1  0.00760000  0.83850000  0.12550000  1.0 0.120290101
H  H198  1  0.71300000  0.88210000  0.87450000  1.0 0.120290101
H  H199  1  0.58850000  0.96300000  0.33090000  1.0 0.120290101
H  H200  1  0.63210000  0.25760000  0.66910000  1.0 0.120290101
H  H201  1  0.11170000  0.74710000  0.23720000  1.0 0.1108426852
H  H202  1  0.50990000  0.87450000  0.76280000  1.0 0.1108426852
H  H203  1  0.49710000  0.75990000  0.13540000  1.0 0.1108426852
H  H204  1  0.62450000  0.36170000  0.86460000  1.0 0.1108426852
H  H205  1  0.18720000  0.81500000  0.33780000  1.0 0.1287371259
H  H206  1  0.47720000  0.84940000  0.66220000  1.0 0.120290101
H  H207  1  0.56500000  0.72720000  0.12780000  1.0 0.120290101
H  H208  1  0.59940000  0.43720000  0.87220000  1.0 0.120290101
H  H209  1  0.29000000  0.68740000  0.30440000  1.0 0.120290101
H  H210  1  0.38300000  0.98560000  0.69560000  1.0 0.120290101
H  H211  1  0.43740000  0.63300000  0.89740000  1.0 0.120290101
H  H212  1  0.73560000  0.54000000  0.10260000  1.0 0.120290101
H  H213  1  0.21450000  0.61950000  0.20380000  1.0 0.120290101
H  H214  1  0.41570000  0.01070000  0.79620000  1.0 0.120290101
H  H215  1  0.36950000  0.66570000  0.90500000  1.0 0.120290101
H  H216  1  0.76070000  0.46450000  0.09500000  1.0 0.120290101
H  H217  1  0.15720000  0.59450000  0.18730000  1.0 0.1379758357
H  H218  1  0.40720000  0.96990000  0.81270000  1.0 0.1379758357
H  H219  1  0.34450000  0.65720000  0.93730000  1.0 0.1379758357
H  H220  1  0.71990000  0.40720000  0.06270000  1.0 0.1379758357
H  H221  1  0.92530000  0.55560000  0.92250000  1.0 0.120290101
H  H222  1  0.63310000  0.00280000  0.07750000  1.0 0.120290101
H  H223  1  0.30560000  0.88310000  0.13030000  1.0 0.120290101
H  H224  1  0.75280000  0.17530000  0.86970000  1.0 0.120290101
H  H225  1  0.90200000  0.62390000  0.92190000  1.0 0.1108426852
H  H226  1  0.70200000  0.98010000  0.07810000  1.0 0.1108426852
H  H227  1  0.37390000  0.95200000  0.22190000  1.0 0.1108426852
H  H228  1  0.73010000  0.15200000  0.77810000  1.0 0.120290101
H  H229  1  0.06690000  0.69340000  0.11330000  1.0 0.1108426852
H  H230  1  0.58010000  0.95360000  0.88670000  1.0 0.1108426852
H  H231  1  0.44340000  0.83010000  0.12650000  1.0 0.1108426852
H  H232  1  0.70360000  0.31690000  0.87350000  1.0 0.1108426852
H  H233  1  0.15550000  0.55190000  0.19940000  1.0 0.0827646958
H  H234  1  0.35250000  0.95610000  0.80060000  1.0 0.0827646958
H  H235  1  0.30190000  0.60250000  0.89640000  1.0 0.0827646958
H  H236  1  0.70610000  0.40550000  0.10360000  1.0 0.0827646958
H  H237  1  0.17130000  0.50180000  0.14830000  1.0 0.0897507776
H  H238  1  0.35350000  0.02300000  0.85170000  1.0 0.0897507776
H  H239  1  0.25180000  0.60350000  0.83050000  1.0 0.0897507776
H  H240  1  0.77300000  0.42130000  0.16950000  1.0 0.0827646958
H  H241  1  0.18110000  0.47630000  0.19360000  1.0 0.0897507776
H  H242  1  0.28270000  0.98750000  0.80640000  1.0 0.0897507776
H  H243  1  0.22630000  0.53270000  0.79520000  1.0 0.0897507776
H  H244  1  0.73750000  0.43110000  0.20480000  1.0 0.0897507776
H  H245  1  0.13570000  0.43220000  0.10330000  1.0 0.0897507776
H  H246  1  0.32890000  0.03240000  0.89670000  1.0 0.0985099698
H  H247  1  0.18220000  0.57890000  0.79650000  1.0 0.0985099698
H  H248  1  0.78240000  0.38570000  0.20350000  1.0 0.0985099698
H  H249  1  0.11520000  0.48080000  0.14880000  1.0 0.1108426852
H  H250  1  0.33200000  0.96640000  0.85120000  1.0 0.1108426852
H  H251  1  0.23080000  0.58200000  0.86560000  1.0 0.1108426852
H  H252  1  0.71640000  0.36520000  0.13440000  1.0 0.1108426852
H  H253  1  0.96310000  0.37980000  0.79290000  1.0 0.0897507776
H  H254  1  0.58690000  0.17020000  0.20710000  1.0 0.0897507776
H  H255  1  0.12980000  0.83690000  0.91670000  1.0 0.0897507776
H  H256  1  0.92020000  0.21310000  0.08330000  1.0 0.0897507776
H  H257  1  0.00280000  0.34960000  0.82440000  1.0 0.0897507776
H  H258  1  0.52520000  0.17840000  0.17560000  1.0 0.0897507776
H  H259  1  0.09960000  0.77520000  0.84680000  1.0 0.0897507776
H  H260  1  0.92840000  0.25280000  0.15320000  1.0 0.0897507776
H  H261  1  0.01800000  0.32900000  0.76440000  1.0 0.1108426852
H  H262  1  0.56460000  0.25360000  0.23560000  1.0 0.1108426852
H  H263  1  0.07900000  0.81460000  0.81100000  1.0 0.1108426852
H  H264  1  0.00360000  0.26800000  0.18900000  1.0 0.1108426852
H  H265  1  0.07480000  0.35580000  0.84960000  1.0 0.0985099698
H  H266  1  0.50620000  0.22520000  0.15040000  1.0 0.0985099698
H  H267  1  0.10580000  0.75620000  0.78100000  1.0 0.0985099698
H  H268  1  0.97520000  0.32480000  0.21900000  1.0 0.0985099698
H  H269  1  0.04040000  0.39360000  0.82900000  1.0 0.1287371259
H  H270  1  0.56460000  0.21140000  0.17100000  1.0 0.1287371259
H  H271  1  0.14360000  0.81460000  0.85320000  1.0 0.1287371259
H  H272  1  0.96140000  0.29040000  0.14680000  1.0 0.1287371259
C  C1  1  0.93185000  0.69455000  0.51650000  1.0 0.1108426852
C  C2  1  0.17805000  0.41535000  0.48350000  1.0 0.1108426852
C  C3  1  0.44455000  0.42805000  0.26270000  1.0 0.1108426852
C  C4  1  0.16535000  0.18185000  0.73730000  1.0 0.1108426852
C  C5  1  0.91485000  0.65412000  0.44473000  1.0 -0.1721210453
C  C6  1  0.20939000  0.47012000  0.55527000  1.0 -0.1790537437
C  C7  1  0.40412000  0.45939000  0.23927000  1.0 -0.1790537437
C  C8  1  0.22012000  0.16485000  0.76073000  1.0 -0.1790537437
C  C9  1  0.95495000  0.63975000  0.44160000  1.0 -0.0682967151
C  C10  1  0.19815000  0.51335000  0.55840000  1.0 -0.0682967151
C  C11  1  0.38975000  0.44815000  0.18480000  1.0 -0.0682967151
C  C12  1  0.26335000  0.20495000  0.81520000  1.0 -0.0682967151
C  C13  1  0.01211000  0.66581000  0.51030000  1.0 -0.0884482661
C  C14  1  0.15551000  0.50181000  0.48970000  1.0 -0.0884482661
C  C15  1  0.41581000  0.40551000  0.15370000  1.0 -0.0884482661
C  C16  1  0.25181000  0.26211000  0.84630000  1.0 -0.0884482661
C  C17  1  0.02912000  0.70624000  0.58208000  1.0 -0.0682967151
C  C18  1  0.12416000  0.44704000  0.41792000  1.0 -0.0682967151
C  C19  1  0.45624000  0.37416000  0.17712000  1.0 -0.0682967151
C  C20  1  0.19704000  0.27912000  0.82288000  1.0 -0.0682967151
C  C21  1  0.98901000  0.72061000  0.58520000  1.0 -0.1790537437
C  C22  1  0.13541000  0.40381000  0.41480000  1.0 -0.1790537437
C  C23  1  0.47061000  0.38541000  0.23160000  1.0 -0.1790537437
C  C24  1  0.15381000  0.23901000  0.76840000  1.0 -0.1790537437
C  C25  1  0.02055000  0.01865000  0.88590000  1.0 0.5624529883
C  C26  1  0.13275000  0.13465000  0.11410000  1.0 0.5624529883
C  C27  1  0.76865000  0.38275000  0.49810000  1.0 0.5624529883
C  C28  1  0.88465000  0.27055000  0.50190000  1.0 0.5624529883
C  C29  1  0.90341000  0.88111000  0.71470000  1.0 0.0985099698
C  C30  1  0.16641000  0.18871000  0.28530000  1.0 0.0985099698
C  C31  1  0.63111000  0.41641000  0.47770000  1.0 0.0985099698
C  C32  1  0.93871000  0.15341000  0.52230000  1.0 0.0985099698
C  C33  1  0.96262000  0.87411000  0.75829000  1.0 -0.1906182981
C  C34  1  0.11582000  0.20433000  0.24171000  1.0 -0.1906182981
C  C35  1  0.62411000  0.36582000  0.41149000  1.0 -0.1906182981
C  C36  1  0.95433000  0.21262000  0.58851000  1.0 -0.1906182981
C  C37  1  0.00353000  0.92041000  0.82072000  1.0 -0.0985059404
C  C38  1  0.09969000  0.18281000  0.17928000  1.0 -0.0985059404
C  C39  1  0.67041000  0.34969000  0.41688000  1.0 -0.0985059404
C  C40  1  0.93281000  0.25353000  0.58312000  1.0 -0.0985059404
C  C41  1  0.98528000  0.97368000  0.83960000  1.0 -0.0366377389
C  C42  1  0.13408000  0.14568000  0.16040000  1.0 -0.0346458252
C  C43  1  0.72368000  0.38408000  0.48840000  1.0 -0.0346458252
C  C44  1  0.89568000  0.23528000  0.51160000  1.0 -0.0346458252
C  C45  1  0.92607000  0.98060000  0.79593000  1.0 -0.0985059404
C  C46  1  0.18467000  0.13014000  0.20407000  1.0 -0.0985059404
C  C47  1  0.73060000  0.43467000  0.55453000  1.0 -0.0985059404
C  C48  1  0.88014000  0.17607000  0.44547000  1.0 -0.0985059404
C  C49  1  0.88516000  0.93429000  0.73347000  1.0 -0.1721210453
C  C50  1  0.20082000  0.15169000  0.26653000  1.0 -0.1721210453
C  C51  1  0.68429000  0.45082000  0.54913000  1.0 -0.1721210453
C  C52  1  0.90169000  0.13516000  0.45087000  1.0 -0.1721210453
C  C53  1  0.82392000  0.42272000  0.49800000  1.0 0.5674104126
C  C54  1  0.92472000  0.32592000  0.50200000  1.0 0.5674104126
C  C55  1  0.17272000  0.17472000  0.09880000  1.0 0.5624529883
C  C56  1  0.07592000  0.07392000  0.90120000  1.0 0.5674104126
C  C57  1  0.77019000  0.74559000  0.52580000  1.0 -0.0507501489
C  C58  1  0.21979000  0.24439000  0.47420000  1.0 -0.0507501489
C  C59  1  0.49559000  0.46979000  0.47540000  1.0 -0.0507501489
C  C60  1  0.99439000  0.02019000  0.52460000  1.0 -0.0507501489
C  C61  1  0.77165000  0.80185000  0.58560000  1.0 0.1831782531
C  C62  1  0.21625000  0.18605000  0.41440000  1.0 0.1831782531
C  C63  1  0.55185000  0.46625000  0.53020000  1.0 0.1831782531
C  C64  1  0.93605000  0.02165000  0.46980000  1.0 0.1831782531
C  C65  1  0.81570000  0.84434000  0.64624000  1.0 -0.3087634914
C  C66  1  0.19810000  0.16946000  0.35376000  1.0 -0.3087634914
C  C67  1  0.59434000  0.44810000  0.52864000  1.0 -0.3087634914
C  C68  1  0.91946000  0.06570000  0.47136000  1.0 -0.3087634914
C  C69  1  0.85839000  0.83049000  0.64710000  1.0 0.0402651971
C  C70  1  0.18339000  0.21129000  0.35290000  1.0 0.0402651971
C  C71  1  0.58049000  0.43339000  0.47210000  1.0 0.0402651971
C  C72  1  0.96129000  0.10839000  0.52790000  1.0 0.0402651971
C  C73  1  0.85694000  0.77424000  0.58730000  1.0 0.0215387802
C  C74  1  0.18694000  0.26964000  0.41270000  1.0 0.0215387802
C  C75  1  0.52424000  0.43694000  0.41730000  1.0 0.0215387802
C  C76  1  0.01964000  0.10694000  0.58270000  1.0 0.0215387802
C  C77  1  0.81288000  0.73181000  0.52673000  1.0 0.0402651971
C  C78  1  0.20508000  0.28615000  0.47327000  1.0 0.0402651971
C  C79  1  0.48181000  0.45508000  0.41893000  1.0 0.0402651971
C  C80  1  0.03615000  0.06288000  0.58107000  1.0 0.0402651971
C  C81  1  0.80753000  0.67933000  0.46440000  1.0 -0.1407447025
C  C82  1  0.21493000  0.34313000  0.53560000  1.0 -0.1407447025
C  C83  1  0.42933000  0.46493000  0.37180000  1.0 -0.1407447025
C  C84  1  0.09313000  0.05753000  0.62820000  1.0 -0.1407447025
C  C85  1  0.84852000  0.66522000  0.46190000  1.0 -0.1500030972
C  C86  1  0.20332000  0.38662000  0.53810000  1.0 -0.1500030972
C  C87  1  0.41522000  0.45332000  0.31670000  1.0 -0.1500030972
C  C88  1  0.13662000  0.09852000  0.68330000  1.0 -0.1500030972
C  C89  1  0.88999000  0.70829000  0.52050000  1.0 0.0697266962
C  C90  1  0.18779000  0.36949000  0.47950000  1.0 0.0697266962
C  C91  1  0.45829000  0.43779000  0.31830000  1.0 0.0697266962
C  C92  1  0.11949000  0.13999000  0.68170000  1.0 0.0697266962
C  C93  1  0.89595000  0.76045000  0.58230000  1.0 -0.2008874904
C  C94  1  0.17815000  0.31365000  0.41770000  1.0 -0.2008874904
C  C95  1  0.51045000  0.42815000  0.36450000  1.0 -0.2008874904
C  C96  1  0.06365000  0.14595000  0.63550000  1.0 -0.2008874904
C  C97  1  0.80332000  0.46542000  0.49170000  1.0 -0.0366377389
C  C98  1  0.97372000  0.31162000  0.50830000  1.0 -0.0366377389
C  C99  1  0.21542000  0.22372000  0.16210000  1.0 -0.0366377389
C  C100  1  0.06162000  0.05332000  0.83790000  1.0 -0.0366377389
C  C101  1  0.83253000  0.52129000  0.56004000  1.0 -0.0833757177
C  C102  1  0.96125000  0.27249000  0.43996000  1.0 -0.0833757177
C  C103  1  0.27129000  0.21125000  0.18876000  1.0 -0.0833757177
C  C104  1  0.02249000  0.08253000  0.81124000  1.0 -0.0833757177
C  C105  1  0.82009000  0.56009000  0.55620000  1.0 -0.1721210453
C  C106  1  0.00389000  0.26389000  0.44380000  1.0 -0.1721210453
C  C107  1  0.31009000  0.25389000  0.24000000  1.0 -0.164487721
C  C108  1  0.01389000  0.07009000  0.76000000  1.0 -0.164487721
C  C109  1  0.77852000  0.54302000  0.48410000  1.0 0.0827646958
C  C110  1  0.05892000  0.29442000  0.51590000  1.0 0.0827646958
C  C111  1  0.29302000  0.30892000  0.26450000  1.0 0.0827646958
C  C112  1  0.04442000  0.02852000  0.73550000  1.0 0.0827646958
C  C113  1  0.74928000  0.48715000  0.41573000  1.0 -0.1721210453
C  C114  1  0.07142000  0.33355000  0.58427000  1.0 -0.1721210453
C  C115  1  0.23715000  0.32142000  0.23787000  1.0 -0.1721210453
C  C116  1  0.08355000  0.99928000  0.76213000  1.0 -0.1721210453
C  C117  1  0.76165000  0.44835000  0.41950000  1.0 -0.0833757177
C  C118  1  0.02885000  0.34215000  0.58050000  1.0 -0.0833757177
C  C119  1  0.19835000  0.27885000  0.18670000  1.0 -0.0833757177
C  C120  1  0.09215000  0.01165000  0.81330000  1.0 -0.0833757177
C  C121  1  0.45161000  0.44591000  0.09790000  1.0 0.5624529883
C  C122  1  0.34801000  0.35371000  0.90210000  1.0 0.5674104126
C  C123  1  0.19591000  0.59801000  0.49430000  1.0 0.5674104126
C  C124  1  0.10371000  0.70161000  0.50570000  1.0 0.5624529883
C  C125  1  0.59467000  0.57367000  0.28980000  1.0 0.0697266962
C  C126  1  0.28387000  0.30487000  0.71020000  1.0 0.0697266962
C  C127  1  0.32367000  0.53387000  0.47900000  1.0 0.0697266962
C  C128  1  0.05487000  0.84467000  0.52100000  1.0 0.0697266962
C  C129  1  0.60291000  0.51481000  0.24950000  1.0 -0.1790537437
C  C130  1  0.26531000  0.35341000  0.75050000  1.0 -0.1790537437
C  C131  1  0.26481000  0.51531000  0.41190000  1.0 -0.1790537437
C  C132  1  0.10341000  0.85291000  0.58810000  1.0 -0.1790537437
C  C133  1  0.55740000  0.47380000  0.18880000  1.0 -0.0985059404
C  C134  1  0.28500000  0.36860000  0.81120000  1.0 -0.0985059404
C  C135  1  0.22380000  0.53500000  0.41640000  1.0 -0.0985059404
C  C136  1  0.11860000  0.80740000  0.58360000  1.0 -0.0985059404
C  C137  1  0.50364000  0.49184000  0.16860000  1.0 -0.0071146213
C  C138  1  0.32324000  0.33504000  0.83140000  1.0 -0.0071146213
C  C139  1  0.24184000  0.57324000  0.48820000  1.0 -0.0071146213
C  C140  1  0.08504000  0.75364000  0.51180000  1.0 -0.0071146213
C  C141  1  0.49543000  0.55069000  0.20894000  1.0 -0.0985059404
C  C142  1  0.34175000  0.28649000  0.79106000  1.0 -0.0985059404
C  C143  1  0.30069000  0.59175000  0.55526000  1.0 -0.0985059404
C  C144  1  0.03649000  0.74543000  0.44474000  1.0 -0.0985059404
C  C145  1  0.54091000  0.59161000  0.26950000  1.0 -0.164487721
C  C146  1  0.32211000  0.27141000  0.73050000  1.0 -0.164487721
C  C147  1  0.34161000  0.57211000  0.55070000  1.0 -0.164487721
C  C148  1  0.02141000  0.79091000  0.44930000  1.0 -0.164487721
C  C149  1  0.04898000  0.66028000  0.50910000  1.0 0.5036948686
C  C150  1  0.15118000  0.53988000  0.49090000  1.0 0.5036948686
C  C151  1  0.41028000  0.40118000  0.11130000  1.0 0.5036948686
C  C152  1  0.28988000  0.29898000  0.88870000  1.0 0.5036948686
C  C153  1  0.72836000  0.70276000  0.47300000  1.0 -0.0682967151
C  C154  1  0.22976000  0.25536000  0.52700000  1.0 -0.0682967151
C  C155  1  0.45276000  0.47976000  0.47440000  1.0 -0.0682967151
C  C156  1  0.00536000  0.97836000  0.52560000  1.0 -0.0682967151
C  C157  1  0.67236000  0.70026000  0.41210000  1.0 0.2255795464
C  C158  1  0.28816000  0.26026000  0.58790000  1.0 0.2255795464
C  C159  1  0.45026000  0.53816000  0.52790000  1.0 0.2255795464
C  C160  1  0.01026000  0.92236000  0.47210000  1.0 0.2255795464
C  C161  1  0.62969000  0.65706000  0.35283000  1.0 -0.2784467772
C  C162  1  0.30423000  0.27686000  0.64717000  1.0 -0.2784467772
C  C163  1  0.40706000  0.55423000  0.52737000  1.0 -0.2784467772
C  C164  1  0.02686000  0.87969000  0.47263000  1.0 -0.2784467772
C  C165  1  0.64305000  0.61615000  0.35430000  1.0 0.0402651971
C  C166  1  0.26185000  0.28875000  0.64570000  1.0 0.0402651971
C  C167  1  0.36615000  0.51185000  0.47310000  1.0 0.0402651971
C  C168  1  0.03875000  0.89305000  0.52690000  1.0 0.0402651971
C  C169  1  0.69904000  0.61854000  0.41510000  1.0 0.0215387802
C  C170  1  0.20344000  0.28394000  0.58490000  1.0 0.0215387802
C  C171  1  0.36854000  0.45344000  0.41950000  1.0 0.0215387802
C  C172  1  0.03394000  0.94904000  0.58050000  1.0 0.0215387802
C  C173  1  0.74172000  0.66185000  0.47447000  1.0 0.0402651971
C  C174  1  0.18738000  0.26725000  0.52553000  1.0 0.0402651971
C  C175  1  0.41185000  0.43738000  0.42013000  1.0 0.0402651971
C  C176  1  0.01725000  0.99172000  0.57987000  1.0 0.0402651971
C  C177  1  0.79705000  0.66475000  0.53690000  1.0 -0.1407447025
C  C178  1  0.12785000  0.26015000  0.46310000  1.0 -0.1407447025
C  C179  1  0.41475000  0.37785000  0.36770000  1.0 -0.1407447025
C  C180  1  0.01015000  0.04705000  0.63230000  1.0 -0.1407447025
C  C181  1  0.81081000  0.62561000  0.53920000  1.0 -0.1500030972
C  C182  1  0.08641000  0.27161000  0.46080000  1.0 -0.1500030972
C  C183  1  0.37561000  0.33641000  0.31480000  1.0 -0.1500030972
C  C184  1  0.02161000  0.06081000  0.68520000  1.0 -0.1500030972
C  C185  1  0.76687000  0.58407000  0.48060000  1.0 0.0697266962
C  C186  1  0.10347000  0.28627000  0.51940000  1.0 0.0697266962
C  C187  1  0.33407000  0.35347000  0.31720000  1.0 0.0697266962
C  C188  1  0.03627000  0.01687000  0.68280000  1.0 0.0697266962
C  C189  1  0.71208000  0.58228000  0.42220000  1.0 -0.1906182981
C  C190  1  0.16008000  0.28988000  0.57780000  1.0 -0.1906182981
C  C191  1  0.33228000  0.41008000  0.37020000  1.0 -0.1906182981
C  C192  1  0.03988000  0.96208000  0.62980000  1.0 -0.1906182981
C  C193  1  0.60630000  0.73730000  0.34900000  1.0 0.0215387802
C  C194  1  0.38830000  0.25730000  0.65100000  1.0 0.0215387802
C  C195  1  0.48730000  0.63830000  0.63100000  1.0 0.0215387802
C  C196  1  0.00730000  0.85630000  0.36900000  1.0 0.0215387802
C  C197  1  0.60600000  0.77860000  0.35100000  1.0 -0.2008874904
C  C198  1  0.42760000  0.25500000  0.64900000  1.0 -0.2008874904
C  C199  1  0.52860000  0.67760000  0.67260000  1.0 -0.2008874904
C  C200  1  0.00500000  0.85600000  0.32740000  1.0 -0.2008874904
C  C201  1  0.74750000  0.86940000  0.66666667  1.0 0.0267098957
C  C202  1  0.20270000  0.08080000  0.33333333  1.0 0.0267098957
C  C203  1  0.61940000  0.45270000  0.62190000  1.0 0.0267098957
C  C204  1  0.83080000  0.99750000  0.37810000  1.0 0.0267098957
C  C205  1  0.71290000  0.88680000  0.68230000  1.0 -0.1790537437
C  C206  1  0.20450000  0.03060000  0.31770000  1.0 -0.1906182981
C  C207  1  0.63680000  0.45450000  0.67390000  1.0 -0.1906182981
C  C208  1  0.78060000  0.96290000  0.32610000  1.0 -0.1790537437
C  C209  1  0.61190000  0.77000000  0.39590000  1.0 -0.0507501489
C  C210  1  0.37410000  0.21600000  0.60410000  1.0 -0.0507501489
C  C211  1  0.52000000  0.62410000  0.65810000  1.0 -0.0507501489
C  C212  1  0.96600000  0.86190000  0.34190000  1.0 -0.0507501489
C  C213  1  0.60970000  0.81260000  0.39910000  1.0 -0.0176829209
C  C214  1  0.41350000  0.21060000  0.60090000  1.0 -0.0176829209
C  C215  1  0.56260000  0.66350000  0.70290000  1.0 -0.0176829209
C  C216  1  0.96060000  0.85970000  0.29710000  1.0 -0.0176829209
C  C217  1  0.71830000  0.87370000  0.62980000  1.0 0.0017995018
C  C218  1  0.24390000  0.08850000  0.37020000  1.0 0.0017995018
C  C219  1  0.62370000  0.49390000  0.65540000  1.0 -0.0003000394
C  C220  1  0.83850000  0.96830000  0.34460000  1.0 0.0017995018
C  C221  1  0.67780000  0.87900000  0.63120000  1.0 -0.0884482661
C  C222  1  0.24780000  0.04660000  0.36880000  1.0 -0.0884482661
C  C223  1  0.62900000  0.49780000  0.70120000  1.0 -0.0884482661
C  C224  1  0.79660000  0.92780000  0.29880000  1.0 -0.0884482661
C  C225  1  0.81815000  0.55545000  0.98350000  1.0 0.1108426852
C  C226  1  0.57195000  0.83465000  0.01650000  1.0 0.1108426852
C  C227  1  0.30545000  0.82195000  0.23730000  1.0 0.1108426852
C  C228  1  0.58465000  0.06815000  0.76270000  1.0 0.1108426852
C  C229  1  0.83515000  0.59588000  0.05527000  1.0 -0.1790537437
C  C230  1  0.54061000  0.77988000  0.94473000  1.0 -0.1721210453
C  C231  1  0.34588000  0.79061000  0.26073000  1.0 -0.1721210453
C  C232  1  0.52988000  0.08515000  0.73927000  1.0 -0.1790537437
C  C233  1  0.79505000  0.61025000  0.05840000  1.0 -0.0682967151
C  C234  1  0.55185000  0.73665000  0.94160000  1.0 -0.0682967151
C  C235  1  0.36025000  0.80185000  0.31520000  1.0 -0.0682967151
C  C236  1  0.48665000  0.04505000  0.68480000  1.0 -0.0682967151
C  C237  1  0.73789000  0.58419000  0.98970000  1.0 -0.0884482661
C  C238  1  0.59449000  0.74819000  0.01030000  1.0 -0.0884482661
C  C239  1  0.33419000  0.84449000  0.34630000  1.0 -0.0884482661
C  C240  1  0.49819000  0.98789000  0.65370000  1.0 -0.0884482661
C  C241  1  0.72088000  0.54376000  0.91792000  1.0 -0.0682967151
C  C242  1  0.62584000  0.80296000  0.08208000  1.0 -0.0682967151
C  C243  1  0.29376000  0.87584000  0.32288000  1.0 -0.0682967151
C  C244  1  0.55296000  0.97088000  0.67712000  1.0 -0.0682967151
C  C245  1  0.76099000  0.52939000  0.91480000  1.0 -0.1790537437
C  C246  1  0.61459000  0.84619000  0.08520000  1.0 -0.1790537437
C  C247  1  0.27939000  0.86459000  0.26840000  1.0 -0.1790537437
C  C248  1  0.59619000  0.01099000  0.73160000  1.0 -0.1790537437
C  C249  1  0.72945000  0.23135000  0.61410000  1.0 0.5624529883
C  C250  1  0.61725000  0.11535000  0.38590000  1.0 0.5624529883
C  C251  1  0.98135000  0.86725000  0.00190000  1.0 0.5624529883
C  C252  1  0.86535000  0.97945000  0.99810000  1.0 0.5624529883
C  C253  1  0.84659000  0.36889000  0.78530000  1.0 0.0985099698
C  C254  1  0.58359000  0.06129000  0.21470000  1.0 0.0985099698
C  C255  1  0.11889000  0.83359000  0.02230000  1.0 0.0985099698
C  C256  1  0.81129000  0.09659000  0.97770000  1.0 0.0985099698
C  C257  1  0.78738000  0.37589000  0.74171000  1.0 -0.1906182981
C  C258  1  0.63418000  0.04567000  0.25829000  1.0 -0.1906182981
C  C259  1  0.12589000  0.88418000  0.08851000  1.0 -0.1906182981
C  C260  1  0.79567000  0.03738000  0.91149000  1.0 -0.1906182981
C  C261  1  0.74647000  0.32959000  0.67928000  1.0 -0.0985059404
C  C262  1  0.65031000  0.06719000  0.32072000  1.0 -0.0985059404
C  C263  1  0.07959000  0.90031000  0.08312000  1.0 -0.0985059404
C  C264  1  0.81719000  0.99647000  0.91688000  1.0 -0.0985059404
C  C265  1  0.76472000  0.27632000  0.66040000  1.0 -0.0346458252
C  C266  1  0.61592000  0.10432000  0.33960000  1.0 -0.0346458252
C  C267  1  0.02632000  0.86592000  0.01160000  1.0 -0.0346458252
C  C268  1  0.85432000  0.01472000  0.98840000  1.0 -0.0346458252
C  C269  1  0.82393000  0.26940000  0.70407000  1.0 -0.0985059404
C  C270  1  0.56533000  0.11986000  0.29593000  1.0 -0.0985059404
C  C271  1  0.01940000  0.81533000  0.94547000  1.0 -0.0985059404
C  C272  1  0.86986000  0.07393000  0.05453000  1.0 -0.0985059404
C  C273  1  0.86484000  0.31571000  0.76653000  1.0 -0.1721210453
C  C274  1  0.54918000  0.09831000  0.23347000  1.0 -0.1721210453
C  C275  1  0.06571000  0.79918000  0.95087000  1.0 -0.1721210453
C  C276  1  0.84831000  0.11484000  0.04913000  1.0 -0.1721210453
C  C277  1  0.92608000  0.82728000  0.00200000  1.0 0.5674104126
C  C278  1  0.82528000  0.92408000  0.99800000  1.0 0.5674104126
C  C279  1  0.57728000  0.07528000  0.40120000  1.0 0.5624529883
C  C280  1  0.67408000  0.17608000  0.59880000  1.0 0.5674104126
C  C281  1  0.97981000  0.50441000  0.97420000  1.0 -0.0507501489
C  C282  1  0.53021000  0.00561000  0.02580000  1.0 -0.0507501489
C  C283  1  0.25441000  0.78021000  0.02460000  1.0 -0.0507501489
C  C284  1  0.75561000  0.22981000  0.97540000  1.0 -0.0507501489
C  C285  1  0.97835000  0.44815000  0.91440000  1.0 0.1831782531
C  C286  1  0.53375000  0.06395000  0.08560000  1.0 0.1831782531
C  C287  1  0.19815000  0.78375000  0.96980000  1.0 0.1831782531
C  C288  1  0.81395000  0.22835000  0.03020000  1.0 0.1831782531
C  C289  1  0.93430000  0.40566000  0.85376000  1.0 -0.3087634914
C  C290  1  0.55190000  0.08054000  0.14624000  1.0 -0.3087634914
C  C291  1  0.15566000  0.80190000  0.97136000  1.0 -0.3087634914
C  C292  1  0.83054000  0.18430000  0.02864000  1.0 -0.3087634914
C  C293  1  0.89161000  0.41951000  0.85290000  1.0 0.0402651971
C  C294  1  0.56661000  0.03871000  0.14710000  1.0 0.0402651971
C  C295  1  0.16951000  0.81661000  0.02790000  1.0 0.0402651971
C  C296  1  0.78871000  0.14161000  0.97210000  1.0 0.0402651971
C  C297  1  0.89306000  0.47576000  0.91270000  1.0 0.0215387802
C  C298  1  0.56306000  0.98036000  0.08730000  1.0 0.0215387802
C  C299  1  0.22576000  0.81306000  0.08270000  1.0 0.0215387802
C  C300  1  0.73036000  0.14306000  0.91730000  1.0 0.0215387802
C  C301  1  0.93712000  0.51819000  0.97327000  1.0 0.0402651971
C  C302  1  0.54492000  0.96385000  0.02673000  1.0 0.0402651971
C  C303  1  0.26819000  0.79492000  0.08107000  1.0 0.0402651971
C  C304  1  0.71385000  0.18712000  0.91893000  1.0 0.0402651971
C  C305  1  0.94247000  0.57067000  0.03560000  1.0 -0.1407447025
C  C306  1  0.53507000  0.90687000  0.96440000  1.0 -0.1407447025
C  C307  1  0.32067000  0.78507000  0.12820000  1.0 -0.1407447025
C  C308  1  0.65687000  0.19247000  0.87180000  1.0 -0.1407447025
C  C309  1  0.90148000  0.58478000  0.03810000  1.0 -0.1500030972
C  C310  1  0.54668000  0.86338000  0.96190000  1.0 -0.1500030972
C  C311  1  0.33478000  0.79668000  0.18330000  1.0 -0.1500030972
C  C312  1  0.61338000  0.15148000  0.81670000  1.0 -0.1500030972
C  C313  1  0.86001000  0.54171000  0.97950000  1.0 0.0697266962
C  C314  1  0.56221000  0.88051000  0.02050000  1.0 0.0697266962
C  C315  1  0.29171000  0.81221000  0.18170000  1.0 0.0697266962
C  C316  1  0.63051000  0.11001000  0.81830000  1.0 0.0697266962
C  C317  1  0.85405000  0.48955000  0.91770000  1.0 -0.2008874904
C  C318  1  0.57185000  0.93635000  0.08230000  1.0 -0.2008874904
C  C319  1  0.23955000  0.82185000  0.13550000  1.0 -0.2008874904
C  C320  1  0.68635000  0.10405000  0.86450000  1.0 -0.2008874904
C  C321  1  0.94668000  0.78458000  0.00830000  1.0 -0.0366377389
C  C322  1  0.77628000  0.93838000  0.99170000  1.0 -0.0366377389
C  C323  1  0.53458000  0.02628000  0.33790000  1.0 -0.0366377389
C  C324  1  0.68838000  0.19668000  0.66210000  1.0 -0.0366377389
C  C325  1  0.91747000  0.72871000  0.93996000  1.0 -0.0833757177
C  C326  1  0.78875000  0.97751000  0.06004000  1.0 -0.0833757177
C  C327  1  0.47871000  0.03875000  0.31124000  1.0 -0.0833757177
C  C328  1  0.72751000  0.16747000  0.68876000  1.0 -0.0833757177
C  C329  1  0.92991000  0.68991000  0.94380000  1.0 -0.1721210453
C  C330  1  0.74611000  0.98611000  0.05620000  1.0 -0.1721210453
C  C331  1  0.43991000  0.99611000  0.26000000  1.0 -0.1721210453
C  C332  1  0.73611000  0.17991000  0.74000000  1.0 -0.1721210453
C  C333  1  0.97148000  0.70698000  0.01590000  1.0 0.0827646958
C  C334  1  0.69108000  0.95558000  0.98410000  1.0 0.0827646958
C  C335  1  0.45698000  0.94108000  0.23550000  1.0 0.0827646958
C  C336  1  0.70558000  0.22148000  0.76450000  1.0 0.0827646958
C  C337  1  0.00072000  0.76285000  0.08427000  1.0 -0.1721210453
C  C338  1  0.67858000  0.91645000  0.91573000  1.0 -0.1721210453
C  C339  1  0.51285000  0.92858000  0.26213000  1.0 -0.1721210453
C  C340  1  0.66645000  0.25072000  0.73787000  1.0 -0.1721210453
C  C341  1  0.98835000  0.80165000  0.08050000  1.0 -0.0884482661
C  C342  1  0.72115000  0.90785000  0.91950000  1.0 -0.0833757177
C  C343  1  0.55165000  0.97115000  0.31330000  1.0 -0.0833757177
C  C344  1  0.65785000  0.23835000  0.68670000  1.0 -0.0833757177
C  C345  1  0.29839000  0.80409000  0.40210000  1.0 0.5624529883
C  C346  1  0.40199000  0.89629000  0.59790000  1.0 0.5674104126
C  C347  1  0.55409000  0.65199000  0.00570000  1.0 0.5624529883
C  C348  1  0.64629000  0.54839000  0.99430000  1.0 0.5624529883
C  C349  1  0.15533000  0.67633000  0.21020000  1.0 0.0697266962
C  C350  1  0.46613000  0.94513000  0.78980000  1.0 0.0697266962
C  C351  1  0.42633000  0.71613000  0.02100000  1.0 0.0697266962
C  C352  1  0.69513000  0.40533000  0.97900000  1.0 0.0697266962
C  C353  1  0.14709000  0.73519000  0.25050000  1.0 -0.1790537437
C  C354  1  0.48469000  0.89659000  0.74950000  1.0 -0.1790537437
C  C355  1  0.48519000  0.73469000  0.08810000  1.0 -0.1790537437
C  C356  1  0.64659000  0.39709000  0.91190000  1.0 -0.1790537437
C  C357  1  0.19260000  0.77620000  0.31120000  1.0 -0.0985059404
C  C358  1  0.46500000  0.88140000  0.68880000  1.0 -0.0985059404
C  C359  1  0.52620000  0.71500000  0.08360000  1.0 -0.0985059404
C  C360  1  0.63140000  0.44260000  0.91640000  1.0 -0.0985059404
C  C361  1  0.24636000  0.75816000  0.33140000  1.0 -0.0071146213
C  C362  1  0.42676000  0.91496000  0.66860000  1.0 -0.0071146213
C  C363  1  0.50816000  0.67676000  0.01180000  1.0 -0.0071146213
C  C364  1  0.66496000  0.49636000  0.98820000  1.0 -0.0071146213
C  C365  1  0.25457000  0.69931000  0.29106000  1.0 -0.0985059404
C  C366  1  0.40825000  0.96351000  0.70894000  1.0 -0.0985059404
C  C367  1  0.44931000  0.65825000  0.94474000  1.0 -0.0985059404
C  C368  1  0.71351000  0.50457000  0.05526000  1.0 -0.0985059404
C  C369  1  0.20909000  0.65839000  0.23050000  1.0 -0.164487721
C  C370  1  0.42789000  0.97859000  0.76950000  1.0 -0.164487721
C  C371  1  0.40839000  0.67789000  0.94930000  1.0 -0.164487721
C  C372  1  0.72859000  0.45909000  0.05070000  1.0 -0.164487721
C  C373  1  0.70102000  0.58972000  0.99090000  1.0 0.5036948686
C  C374  1  0.59882000  0.71012000  0.00910000  1.0 0.5036948686
C  C375  1  0.33972000  0.84882000  0.38870000  1.0 0.505359219
C  C376  1  0.46012000  0.95102000  0.61130000  1.0 0.505359219
C  C377  1  0.02164000  0.54724000  0.02700000  1.0 -0.0682967151
C  C378  1  0.52024000  0.99464000  0.97300000  1.0 -0.0682967151
C  C379  1  0.29724000  0.77024000  0.02560000  1.0 -0.0682967151
C  C380  1  0.74464000  0.27164000  0.97440000  1.0 -0.0682967151
C  C381  1  0.07764000  0.54974000  0.08790000  1.0 0.2255795464
C  C382  1  0.46184000  0.98974000  0.91210000  1.0 0.2255795464
C  C383  1  0.29974000  0.71184000  0.97210000  1.0 0.2255795464
C  C384  1  0.73974000  0.32764000  0.02790000  1.0 0.2255795464
C  C385  1  0.12031000  0.59294000  0.14717000  1.0 -0.2784467772
C  C386  1  0.44577000  0.97314000  0.85283000  1.0 -0.2784467772
C  C387  1  0.34294000  0.69577000  0.97263000  1.0 -0.2784467772
C  C388  1  0.72314000  0.37031000  0.02737000  1.0 -0.2784467772
C  C389  1  0.10695000  0.63385000  0.14570000  1.0 0.0402651971
C  C390  1  0.48815000  0.96125000  0.85430000  1.0 0.0402651971
C  C391  1  0.38385000  0.73815000  0.02690000  1.0 0.0402651971
C  C392  1  0.71125000  0.35695000  0.97310000  1.0 0.0402651971
C  C393  1  0.05096000  0.63146000  0.08490000  1.0 0.0215387802
C  C394  1  0.54656000  0.96606000  0.91510000  1.0 0.0215387802
C  C395  1  0.38146000  0.79656000  0.08050000  1.0 0.0215387802
C  C396  1  0.71606000  0.30096000  0.91950000  1.0 0.0215387802
C  C397  1  0.00828000  0.58815000  0.02553000  1.0 0.0402651971
C  C398  1  0.56262000  0.98275000  0.97447000  1.0 0.0402651971
C  C399  1  0.33815000  0.81262000  0.07987000  1.0 0.0402651971
C  C400  1  0.73275000  0.25828000  0.92013000  1.0 0.0402651971
C  C401  1  0.95295000  0.58525000  0.96310000  1.0 -0.1407447025
C  C402  1  0.62215000  0.98985000  0.03690000  1.0 -0.1407447025
C  C403  1  0.33525000  0.87215000  0.13230000  1.0 -0.1500030972
C  C404  1  0.73985000  0.20295000  0.86770000  1.0 -0.1407447025
C  C405  1  0.93919000  0.62439000  0.96080000  1.0 -0.1500030972
C  C406  1  0.66359000  0.97839000  0.03920000  1.0 -0.1500030972
C  C407  1  0.37439000  0.91359000  0.18520000  1.0 -0.1500030972
C  C408  1  0.72839000  0.18919000  0.81480000  1.0 -0.1500030972
C  C409  1  0.98313000  0.66593000  0.01940000  1.0 0.0697266962
C  C410  1  0.64653000  0.96373000  0.98060000  1.0 0.0697266962
C  C411  1  0.41593000  0.89653000  0.18280000  1.0 0.0697266962
C  C412  1  0.71373000  0.23313000  0.81720000  1.0 0.0697266962
C  C413  1  0.03792000  0.66772000  0.07780000  1.0 -0.1906182981
C  C414  1  0.58992000  0.96012000  0.92220000  1.0 -0.1906182981
C  C415  1  0.41772000  0.83992000  0.12980000  1.0 -0.1906182981
C  C416  1  0.71012000  0.28792000  0.87020000  1.0 -0.1906182981
C  C417  1  0.14370000  0.51270000  0.15100000  1.0 0.0215387802
C  C418  1  0.36170000  0.99270000  0.84900000  1.0 0.0215387802
C  C419  1  0.26270000  0.61170000  0.86900000  1.0 0.0215387802
C  C420  1  0.74270000  0.39370000  0.13100000  1.0 0.0215387802
C  C421  1  0.14400000  0.47140000  0.14900000  1.0 -0.2008874904
C  C422  1  0.32240000  0.99500000  0.85100000  1.0 -0.2008874904
C  C423  1  0.22140000  0.57240000  0.82740000  1.0 -0.2008874904
C  C424  1  0.74500000  0.39400000  0.17260000  1.0 -0.2008874904
C  C425  1  0.00250000  0.38060000  0.83330000  1.0 0.0267098957
C  C426  1  0.54730000  0.16920000  0.16670000  1.0 0.0267098957
C  C427  1  0.13060000  0.79730000  0.87810000  1.0 0.0267098957
C  C428  1  0.91920000  0.25250000  0.12190000  1.0 0.0267098957
C  C429  1  0.03710000  0.36320000  0.81770000  1.0 -0.1906182981
C  C430  1  0.54550000  0.21940000  0.18230000  1.0 -0.1906182981
C  C431  1  0.11320000  0.79550000  0.82610000  1.0 -0.1906182981
C  C432  1  0.96940000  0.28710000  0.17390000  1.0 -0.1906182981
C  C433  1  0.13810000  0.48000000  0.10410000  1.0 -0.0507501489
C  C434  1  0.37590000  0.03400000  0.89590000  1.0 -0.0507501489
C  C435  1  0.23000000  0.62590000  0.84190000  1.0 -0.0507501489
C  C436  1  0.78400000  0.38810000  0.15810000  1.0 -0.0507501489
C  C437  1  0.14030000  0.43740000  0.10090000  1.0 -0.0176829209
C  C438  1  0.33650000  0.03940000  0.89910000  1.0 -0.0176829209
C  C439  1  0.18740000  0.58650000  0.79710000  1.0 -0.0176829209
C  C440  1  0.78940000  0.39030000  0.20290000  1.0 -0.0176829209
C  C441  1  0.03170000  0.37630000  0.87020000  1.0 0.0017995018
C  C442  1  0.50610000  0.16150000  0.12980000  1.0 0.0017995018
C  C443  1  0.12630000  0.75610000  0.84460000  1.0 0.0017995018
C  C444  1  0.91150000  0.28170000  0.15540000  1.0 -0.0003000394
C  C445  1  0.07220000  0.37100000  0.86880000  1.0 -0.0884482661
C  C446  1  0.50220000  0.20340000  0.13120000  1.0 -0.0884482661
C  C447  1  0.12100000  0.75220000  0.79880000  1.0 -0.0884482661
C  C448  1  0.95340000  0.32220000  0.20120000  1.0 -0.0884482661
O  O1  1  0.00941000  0.06781000  0.91580000  1.0 -0.4471485637
O  O2  1  0.15201000  0.09361000  0.08420000  1.0 -0.4471485637
O  O3  1  0.81781000  0.40201000  0.55840000  1.0 -0.4471485637
O  O4  1  0.84361000  0.25941000  0.44160000  1.0 -0.4471485637
O  O5  1  0.86053000  0.44123000  0.56350000  1.0 -0.5084628895
O  O6  1  0.87773000  0.29703000  0.43650000  1.0 -0.5084628895
O  O7  1  0.19123000  0.12773000  0.08070000  1.0 -0.5084628895
O  O8  1  0.04703000  0.11053000  0.91930000  1.0 -0.5084628895
O  O9  1  0.03526000  0.61646000  0.44040000  1.0 -0.5506919086
O  O10  1  0.17606000  0.59486000  0.55960000  1.0 -0.5506919086
O  O11  1  0.36646000  0.42606000  0.08120000  1.0 -0.5506919086
O  O12  1  0.34486000  0.28526000  0.91880000  1.0 -0.5506919086
O  O13  1  0.40552000  0.46812000  0.08540000  1.0 -0.5304091856
O  O14  1  0.38272000  0.32012000  0.91460000  1.0 -0.5304091856
O  O15  1  0.21812000  0.63272000  0.56260000  1.0 -0.5304091856
O  O16  1  0.07012000  0.65552000  0.43740000  1.0 -0.5304091856
O  O17  1  0.46485000  0.39775000  0.07390000  1.0 -0.4904272273
O  O18  1  0.32385000  0.39095000  0.92610000  1.0 -0.4904272273
O  O19  1  0.14775000  0.57385000  0.43290000  1.0 -0.4844394758
O  O20  1  0.14095000  0.71485000  0.56710000  1.0 -0.4904272273
O  O21  1  0.10519000  0.67939000  0.57160000  1.0 -0.5419204444
O  O22  1  0.10779000  0.53359000  0.42840000  1.0 -0.5419204444
O  O23  1  0.42939000  0.35779000  0.07420000  1.0 -0.5419204444
O  O24  1  0.28359000  0.35519000  0.92580000  1.0 -0.5419204444
O  O25  1  0.07803000  0.00807000  0.92584000  1.0 -0.5937828705
O  O26  1  0.08223000  0.15219000  0.07416000  1.0 -0.5937828705
O  O27  1  0.75807000  0.33223000  0.43004000  1.0 -0.5937828705
O  O28  1  0.90219000  0.32803000  0.56996000  1.0 -0.5955663756
O  O29  1  0.79631000  0.37571000  0.43480000  1.0 -0.4904272273
O  O30  1  0.94091000  0.36151000  0.56520000  1.0 -0.4904272273
O  O31  1  0.12571000  0.19091000  0.07940000  1.0 -0.4904272273
O  O32  1  0.11151000  0.04631000  0.92060000  1.0 -0.4904272273
O  O33  1  0.73578000  0.81438000  0.59280000  1.0 -0.1500030972
O  O34  1  0.22158000  0.14298000  0.40720000  1.0 -0.1500030972
O  O35  1  0.56438000  0.47158000  0.57860000  1.0 -0.1500030972
O  O36  1  0.89298000  0.98578000  0.42140000  1.0 -0.1500030972
O  O37  1  0.66473000  0.74013000  0.41460000  1.0 -0.1500030972
O  O38  1  0.32553000  0.25013000  0.58540000  1.0 -0.1500030972
O  O39  1  0.49013000  0.57553000  0.57540000  1.0 -0.1500030972
O  O40  1  0.00013000  0.91473000  0.42460000  1.0 -0.1500030972
O  O41  1  0.74059000  0.18219000  0.58420000  1.0 -0.4471485637
O  O42  1  0.59799000  0.15639000  0.41580000  1.0 -0.4471485637
O  O43  1  0.93219000  0.84799000  0.94160000  1.0 -0.4471485637
O  O44  1  0.90639000  0.99059000  0.05840000  1.0 -0.4471485637
O  O45  1  0.88947000  0.80877000  0.93650000  1.0 -0.5084628895
O  O46  1  0.87227000  0.95297000  0.06350000  1.0 -0.5084628895
O  O47  1  0.55877000  0.12227000  0.41930000  1.0 -0.5084628895
O  O48  1  0.70297000  0.13947000  0.58070000  1.0 -0.5084628895
O  O49  1  0.71474000  0.63354000  0.05960000  1.0 -0.5506919086
O  O50  1  0.57394000  0.65514000  0.94040000  1.0 -0.5506919086
O  O51  1  0.38354000  0.82394000  0.41880000  1.0 -0.5506919086
O  O52  1  0.40514000  0.96474000  0.58120000  1.0 -0.5506919086
O  O53  1  0.34448000  0.78188000  0.41460000  1.0 -0.5304091856
O  O54  1  0.36728000  0.92988000  0.58540000  1.0 -0.5304091856
O  O55  1  0.53188000  0.61728000  0.93740000  1.0 -0.5304091856
O  O56  1  0.67988000  0.59448000  0.06260000  1.0 -0.5304091856
O  O57  1  0.28515000  0.85225000  0.42610000  1.0 -0.4904272273
O  O58  1  0.42615000  0.85905000  0.57390000  1.0 -0.4904272273
O  O59  1  0.60225000  0.67615000  0.06710000  1.0 -0.4904272273
O  O60  1  0.60905000  0.53515000  0.93290000  1.0 -0.4904272273
O  O61  1  0.64481000  0.57061000  0.92840000  1.0 -0.5419204444
O  O62  1  0.64221000  0.71641000  0.07160000  1.0 -0.5419204444
O  O63  1  0.32061000  0.89221000  0.42580000  1.0 -0.5419204444
O  O64  1  0.46641000  0.89481000  0.57420000  1.0 -0.5419204444
O  O65  1  0.67197000  0.24193000  0.57416000  1.0 -0.5955663756
O  O66  1  0.66777000  0.09781000  0.42584000  1.0 -0.5937828705
O  O67  1  0.99193000  0.91777000  0.06996000  1.0 -0.5955663756
O  O68  1  0.84781000  0.92197000  0.93004000  1.0 -0.5955663756
O  O69  1  0.95369000  0.87429000  0.06520000  1.0 -0.4904272273
O  O70  1  0.80909000  0.88849000  0.93480000  1.0 -0.4904272273
O  O71  1  0.62429000  0.05909000  0.42060000  1.0 -0.4904272273
O  O72  1  0.63849000  0.20369000  0.57940000  1.0 -0.4904272273
O  O73  1  0.01422000  0.43562000  0.90720000  1.0 -0.1500030972
O  O74  1  0.52842000  0.10702000  0.09280000  1.0 -0.1500030972
O  O75  1  0.18562000  0.77842000  0.92140000  1.0 -0.1500030972
O  O76  1  0.85702000  0.26422000  0.07860000  1.0 -0.1500030972
O  O77  1  0.08527000  0.50987000  0.08540000  1.0 -0.1500030972
O  O78  1  0.42447000  0.99987000  0.91460000  1.0 -0.1500030972
O  O79  1  0.25987000  0.67447000  0.92460000  1.0 -0.1500030972
O  O80  1  0.74987000  0.33527000  0.07540000  1.0 -0.1500030972
