# DDEC6 charges by PACMAN v1.1 (https://github.com/mtap-research/PACMAN-charge/)
data_TOHXIA_ASR_pacman
_symmetry_space_group_name_H-M   'P 1'
_cell_length_a   10.90640000
_cell_length_b   22.92000000
_cell_length_c   30.79300000
_cell_angle_alpha   90.00000000
_cell_angle_beta   90.00000000
_cell_angle_gamma   90.00000000
_symmetry_Int_Tables_number   1
_chemical_formula_structural   KH75(C8O7)6
_chemical_formula_sum   'K4 H300 C192 O168'
_cell_volume   7697.47056758
_cell_formula_units_Z   4
loop_
 _symmetry_equiv_pos_site_id
 _symmetry_equiv_pos_as_xyz
  1  'x, y, z'
loop_
 _atom_site_type_symbol
 _atom_site_label
 _atom_site_symmetry_multiplicity
 _atom_site_fract_x
 _atom_site_fract_y
 _atom_site_fract_z
 _atom_site_occupancy
 _atom_site_charge
K  K1  1  0.99773000  0.07689000  0.13776000  1.0 0.8314354284
K  K2  1  0.50227000  0.92311000  0.63776000  1.0 0.8314354284
K  K3  1  0.00227000  0.57689000  0.36224000  1.0 0.8314354284
K  K4  1  0.49773000  0.42311000  0.86224000  1.0 0.8314354284
H  H1  1  0.35060000  0.97640000  0.14480000  1.0 0.3391440708
H  H2  1  0.79510000  0.60530000  0.88660000  1.0 0.3206518902
H  H3  1  0.67730000  0.78500000  0.14830000  1.0 0.2970649166
H  H4  1  0.57640000  0.61190000  0.76610000  1.0 0.3309248726
H  H5  1  0.86930000  0.58470000  0.96520000  1.0 0.3489380939
H  H6  1  0.65440000  0.88800000  0.18510000  1.0 0.3206518902
H  H7  1  0.82600000  0.70870000  0.12970000  1.0 0.3391440708
H  H8  1  0.33210000  0.68140000  0.79420000  1.0 0.3391440708
H  H9  1  0.90220000  0.67670000  0.05160000  1.0 0.3309248726
H  H10  1  0.40210000  0.02610000  0.70200000  1.0 0.3391440708
H  H11  1  0.98310000  0.05710000  0.99530000  1.0 0.3391440708
H  H12  1  0.17210000  0.75510000  0.76850000  1.0 0.3309248726
H  H13  1  0.93120000  0.00760000  0.79970000  1.0 0.3309248726
H  H14  1  0.07830000  0.84310000  0.74750000  1.0 0.3391440708
H  H15  1  0.08210000  0.75930000  0.84840000  1.0 0.2912429138
H  H16  1  0.90430000  0.99610000  0.89890000  1.0 0.3309248726
H  H17  1  0.00490000  0.85660000  0.90750000  1.0 0.3206518902
H  H18  1  0.39840000  0.15700000  0.87370000  1.0 0.2212250861
H  H19  1  0.62600000  0.16220000  0.95020000  1.0 0.3391440708
H  H20  1  0.19600000  0.15650000  0.82990000  1.0 0.1084301534
H  H21  1  0.89910000  0.88680000  0.13840000  1.0 0.0992171946
H  H22  1  0.62190000  0.99000000  0.19100000  1.0 0.1084301534
H  H23  1  0.91650000  0.67370000  0.84010000  1.0 0.0992171946
H  H24  1  0.67690000  0.00840000  0.07090000  1.0 0.1084301534
H  H25  1  0.50710000  0.95530000  0.11330000  1.0 0.080211844
H  H26  1  0.87530000  0.88390000  0.04570000  1.0 0.0895031823
H  H27  1  0.25350000  0.15450000  0.08770000  1.0 0.0895031823
H  H28  1  0.01710000  0.66740000  0.89410000  1.0 0.0992171946
H  H29  1  0.24350000  0.04180000  0.04840000  1.0 0.0992171946
H  H30  1  0.80670000  0.95420000  0.16660000  1.0 0.0992171946
H  H31  1  0.55730000  0.07260000  0.13870000  1.0 0.0992171946
H  H32  1  0.05740000  0.76280000  0.07160000  1.0 0.0895031823
H  H33  1  0.75440000  0.77140000  0.83710000  1.0 0.0895031823
H  H34  1  0.66140000  0.67550000  0.85880000  1.0 0.0992171946
H  H35  1  0.05950000  0.73420000  0.00790000  1.0 0.0992171946
H  H36  1  0.04760000  0.94880000  0.04700000  1.0 0.1084301534
H  H37  1  0.92480000  0.97790000  0.06200000  1.0 0.1084301534
H  H38  1  0.03100000  0.63900000  0.96400000  1.0 0.0992171946
H  H39  1  0.33660000  0.95960000  0.80020000  1.0 0.1084301534
H  H40  1  0.23910000  0.93020000  0.71820000  1.0 0.1084301534
H  H41  1  0.76560000  0.62030000  0.78520000  1.0 0.0992171946
H  H42  1  0.81540000  0.70030000  0.98590000  1.0 0.0992171946
H  H43  1  0.74440000  0.81340000  0.08770000  1.0 0.0895031823
H  H44  1  0.24380000  0.15200000  0.00620000  1.0 0.0992171946
H  H45  1  0.95550000  0.77860000  0.13630000  1.0 0.0992171946
H  H46  1  0.37610000  0.76760000  0.78960000  1.0 0.080211844
H  H47  1  0.09000000  0.13750000  0.96600000  1.0 0.0992171946
H  H48  1  0.45960000  0.13700000  0.10550000  1.0 0.0895031823
H  H49  1  0.04960000  0.07650000  0.84900000  1.0 0.0895031823
H  H50  1  0.27420000  0.84540000  0.69450000  1.0 0.1084301534
H  H51  1  0.67860000  0.13110000  0.07720000  1.0 0.0992171946
H  H52  1  0.95080000  0.08440000  0.92610000  1.0 0.0895031823
H  H53  1  0.53150000  0.72790000  0.72190000  1.0 0.0992171946
H  H54  1  0.89820000  0.78840000  0.94800000  1.0 0.0992171946
H  H55  1  0.30580000  0.74620000  0.70190000  1.0 0.1084301534
H  H56  1  0.70160000  0.69340000  0.74130000  1.0 0.080211844
H  H57  1  0.10690000  0.05900000  0.78420000  1.0 0.0895031823
H  H58  1  0.54380000  0.84170000  0.76060000  1.0 0.1084301534
H  H59  1  0.51960000  0.97950000  0.76630000  1.0 0.1084301534
H  H60  1  0.43890000  0.06920000  0.00470000  1.0 0.0992171946
H  H61  1  0.92460000  0.82310000  0.80940000  1.0 0.1253180443
H  H62  1  0.93240000  0.81000000  0.85910000  1.0 0.0895031823
H  H63  1  0.28390000  0.07270000  0.88920000  1.0 0.0895031823
H  H64  1  0.13550000  0.90330000  0.80040000  1.0 0.0992171946
H  H65  1  0.13200000  0.99700000  0.91340000  1.0 0.1152407317
H  H66  1  0.29050000  0.10770000  0.81640000  1.0 0.1084301534
H  H67  1  0.42580000  0.12170000  0.93880000  1.0 0.0992171946
H  H68  1  0.43950000  0.18010000  0.96500000  1.0 0.1084301534
H  H69  1  0.04000000  0.98440000  0.74020000  1.0 0.1084301534
H  H70  1  0.10000000  0.84570000  0.98380000  1.0 0.1152407317
H  H71  1  0.71740000  0.79370000  0.70580000  1.0 0.0992171946
H  H72  1  0.33060000  0.15760000  0.85050000  1.0 0.1084301534
H  H73  1  0.14420000  0.19210000  0.84110000  1.0 0.2569960369
H  H74  1  0.72650000  0.10550000  0.04540000  1.0 0.1084301534
H  H75  1  0.29740000  0.10820000  0.81720000  1.0 0.1084301534
H  H76  1  0.14940000  0.02360000  0.64480000  1.0 0.3309248726
H  H77  1  0.70490000  0.39470000  0.38660000  1.0 0.3206518902
H  H78  1  0.82270000  0.21500000  0.64830000  1.0 0.2970649166
H  H79  1  0.92360000  0.38810000  0.26610000  1.0 0.3309248726
H  H80  1  0.63070000  0.41530000  0.46520000  1.0 0.3489380939
H  H81  1  0.84560000  0.11200000  0.68510000  1.0 0.3206518902
H  H82  1  0.67400000  0.29130000  0.62970000  1.0 0.3391440708
H  H83  1  0.16790000  0.31860000  0.29420000  1.0 0.3391440708
H  H84  1  0.59780000  0.32330000  0.55160000  1.0 0.3309248726
H  H85  1  0.09790000  0.97390000  0.20200000  1.0 0.3391440708
H  H86  1  0.51690000  0.94290000  0.49530000  1.0 0.3391440708
H  H87  1  0.32790000  0.24490000  0.26850000  1.0 0.3309248726
H  H88  1  0.56880000  0.99240000  0.29970000  1.0 0.3309248726
H  H89  1  0.42170000  0.15690000  0.24750000  1.0 0.3391440708
H  H90  1  0.41790000  0.24070000  0.34840000  1.0 0.2912429138
H  H91  1  0.59570000  0.00390000  0.39890000  1.0 0.3309248726
H  H92  1  0.49510000  0.14340000  0.40750000  1.0 0.3206518902
H  H93  1  0.10160000  0.84300000  0.37370000  1.0 0.2212250861
H  H94  1  0.87400000  0.83780000  0.45020000  1.0 0.3391440708
H  H95  1  0.30400000  0.84350000  0.32990000  1.0 0.1084301534
H  H96  1  0.60090000  0.11320000  0.63840000  1.0 0.0992171946
H  H97  1  0.87810000  0.01000000  0.69100000  1.0 0.1084301534
H  H98  1  0.58350000  0.32630000  0.34010000  1.0 0.0992171946
H  H99  1  0.82310000  0.99160000  0.57090000  1.0 0.1084301534
H  H100  1  0.99290000  0.04470000  0.61330000  1.0 0.080211844
H  H101  1  0.62470000  0.11610000  0.54570000  1.0 0.0895031823
H  H102  1  0.24650000  0.84550000  0.58770000  1.0 0.0895031823
H  H103  1  0.48290000  0.33260000  0.39410000  1.0 0.0992171946
H  H104  1  0.25650000  0.95820000  0.54840000  1.0 0.0992171946
H  H105  1  0.69330000  0.04580000  0.66666667  1.0 0.0992171946
H  H106  1  0.94270000  0.92740000  0.63870000  1.0 0.0992171946
H  H107  1  0.44260000  0.23720000  0.57160000  1.0 0.0895031823
H  H108  1  0.74560000  0.22860000  0.33710000  1.0 0.0895031823
H  H109  1  0.83860000  0.32450000  0.35880000  1.0 0.0992171946
H  H110  1  0.44050000  0.26580000  0.50790000  1.0 0.0992171946
H  H111  1  0.45240000  0.05120000  0.54700000  1.0 0.1084301534
H  H112  1  0.57520000  0.02210000  0.56200000  1.0 0.1084301534
H  H113  1  0.46900000  0.36100000  0.46400000  1.0 0.0992171946
H  H114  1  0.16340000  0.04040000  0.30020000  1.0 0.1084301534
H  H115  1  0.26090000  0.06980000  0.21820000  1.0 0.1084301534
H  H116  1  0.73440000  0.37970000  0.28520000  1.0 0.0992171946
H  H117  1  0.68460000  0.29970000  0.48590000  1.0 0.0992171946
H  H118  1  0.75560000  0.18660000  0.58770000  1.0 0.0895031823
H  H119  1  0.25620000  0.84800000  0.50620000  1.0 0.0992171946
H  H120  1  0.54450000  0.22140000  0.63630000  1.0 0.0992171946
H  H121  1  0.12390000  0.23240000  0.28960000  1.0 0.080211844
H  H122  1  0.41000000  0.86250000  0.46600000  1.0 0.0992171946
H  H123  1  0.04040000  0.86300000  0.60550000  1.0 0.0895031823
H  H124  1  0.45040000  0.92350000  0.34900000  1.0 0.0895031823
H  H125  1  0.22580000  0.15460000  0.19450000  1.0 0.1084301534
H  H126  1  0.82140000  0.86890000  0.57720000  1.0 0.0992171946
H  H127  1  0.54920000  0.91560000  0.42610000  1.0 0.0895031823
H  H128  1  0.96850000  0.27210000  0.22190000  1.0 0.0992171946
H  H129  1  0.60180000  0.21160000  0.44800000  1.0 0.0992171946
H  H130  1  0.19420000  0.25380000  0.20190000  1.0 0.1084301534
H  H131  1  0.79840000  0.30660000  0.24130000  1.0 0.080211844
H  H132  1  0.39310000  0.94100000  0.28420000  1.0 0.0895031823
H  H133  1  0.95620000  0.15830000  0.26060000  1.0 0.1084301534
H  H134  1  0.98040000  0.02050000  0.26630000  1.0 0.1084301534
H  H135  1  0.06110000  0.93080000  0.50470000  1.0 0.0992171946
H  H136  1  0.57540000  0.17690000  0.30940000  1.0 0.1253180443
H  H137  1  0.56760000  0.19000000  0.35910000  1.0 0.0895031823
H  H138  1  0.21610000  0.92730000  0.38920000  1.0 0.0895031823
H  H139  1  0.36450000  0.09670000  0.30040000  1.0 0.0992171946
H  H140  1  0.36800000  0.00300000  0.41340000  1.0 0.1084301534
H  H141  1  0.20950000  0.89230000  0.31640000  1.0 0.1084301534
H  H142  1  0.07420000  0.87830000  0.43880000  1.0 0.0992171946
H  H143  1  0.06050000  0.81990000  0.46500000  1.0 0.1084301534
H  H144  1  0.46000000  0.01560000  0.24020000  1.0 0.1084301534
H  H145  1  0.40000000  0.15430000  0.48380000  1.0 0.1152407317
H  H146  1  0.78260000  0.20630000  0.20580000  1.0 0.0992171946
H  H147  1  0.16940000  0.84240000  0.35050000  1.0 0.1084301534
H  H148  1  0.35580000  0.80790000  0.34110000  1.0 0.2569960369
H  H149  1  0.77350000  0.89450000  0.54540000  1.0 0.1084301534
H  H150  1  0.20260000  0.89180000  0.31720000  1.0 0.1084301534
H  H151  1  0.64940000  0.47640000  0.35520000  1.0 0.3391440708
H  H152  1  0.20490000  0.10530000  0.61340000  1.0 0.3206518902
H  H153  1  0.32270000  0.28500000  0.35170000  1.0 0.2970649166
H  H154  1  0.42360000  0.11190000  0.73390000  1.0 0.3309248726
H  H155  1  0.13070000  0.08470000  0.53480000  1.0 0.3489380939
H  H156  1  0.34560000  0.38800000  0.31490000  1.0 0.3206518902
H  H157  1  0.17400000  0.20870000  0.37030000  1.0 0.3391440708
H  H158  1  0.66790000  0.18140000  0.70580000  1.0 0.3391440708
H  H159  1  0.09780000  0.17670000  0.44840000  1.0 0.3309248726
H  H160  1  0.59790000  0.52610000  0.79800000  1.0 0.3391440708
H  H161  1  0.01690000  0.55710000  0.50470000  1.0 0.3391440708
H  H162  1  0.82790000  0.25510000  0.73150000  1.0 0.3309248726
H  H163  1  0.06880000  0.50760000  0.70030000  1.0 0.3309248726
H  H164  1  0.92170000  0.34310000  0.75250000  1.0 0.3391440708
H  H165  1  0.91790000  0.25930000  0.65160000  1.0 0.2912429138
H  H166  1  0.09570000  0.49610000  0.60110000  1.0 0.3309248726
H  H167  1  0.99510000  0.35660000  0.59250000  1.0 0.3206518902
H  H168  1  0.60160000  0.65700000  0.62630000  1.0 0.2212250861
H  H169  1  0.37400000  0.66220000  0.54980000  1.0 0.3391440708
H  H170  1  0.80400000  0.65650000  0.67010000  1.0 0.1084301534
H  H171  1  0.10090000  0.38680000  0.36160000  1.0 0.0992171946
H  H172  1  0.37810000  0.49000000  0.30900000  1.0 0.1084301534
H  H173  1  0.08350000  0.17370000  0.65990000  1.0 0.0992171946
H  H174  1  0.32310000  0.50840000  0.42910000  1.0 0.1084301534
H  H175  1  0.49290000  0.45530000  0.38670000  1.0 0.080211844
H  H176  1  0.12470000  0.38390000  0.45430000  1.0 0.0895031823
H  H177  1  0.74650000  0.65450000  0.41230000  1.0 0.0895031823
H  H178  1  0.98290000  0.16740000  0.60590000  1.0 0.0992171946
H  H179  1  0.75650000  0.54180000  0.45160000  1.0 0.0992171946
H  H180  1  0.19330000  0.45420000  0.33340000  1.0 0.0992171946
H  H181  1  0.44270000  0.57260000  0.36130000  1.0 0.0992171946
H  H182  1  0.94260000  0.26280000  0.42840000  1.0 0.0895031823
H  H183  1  0.24560000  0.27140000  0.66290000  1.0 0.0895031823
H  H184  1  0.33860000  0.17550000  0.64120000  1.0 0.0992171946
H  H185  1  0.94050000  0.23420000  0.49210000  1.0 0.0992171946
H  H186  1  0.95240000  0.44880000  0.45300000  1.0 0.1084301534
H  H187  1  0.07520000  0.47790000  0.43800000  1.0 0.1084301534
H  H188  1  0.96900000  0.13900000  0.53600000  1.0 0.0992171946
H  H189  1  0.66340000  0.45960000  0.69980000  1.0 0.1084301534
H  H190  1  0.76090000  0.43020000  0.78180000  1.0 0.1084301534
H  H191  1  0.23440000  0.12030000  0.71480000  1.0 0.0992171946
H  H192  1  0.18460000  0.20030000  0.51410000  1.0 0.0992171946
H  H193  1  0.25560000  0.31340000  0.41230000  1.0 0.0895031823
H  H194  1  0.75620000  0.65200000  0.49380000  1.0 0.0992171946
H  H195  1  0.04450000  0.27860000  0.36370000  1.0 0.0992171946
H  H196  1  0.62390000  0.26760000  0.71040000  1.0 0.080211844
H  H197  1  0.91000000  0.63750000  0.53400000  1.0 0.0992171946
H  H198  1  0.54040000  0.63700000  0.39450000  1.0 0.0895031823
H  H199  1  0.95040000  0.57650000  0.65100000  1.0 0.0895031823
H  H200  1  0.72580000  0.34540000  0.80550000  1.0 0.1084301534
H  H201  1  0.32140000  0.63110000  0.42280000  1.0 0.0992171946
H  H202  1  0.04920000  0.58440000  0.57390000  1.0 0.0895031823
H  H203  1  0.46850000  0.22790000  0.77810000  1.0 0.0992171946
H  H204  1  0.10180000  0.28840000  0.55200000  1.0 0.0992171946
H  H205  1  0.69420000  0.24620000  0.79810000  1.0 0.1084301534
H  H206  1  0.29840000  0.19340000  0.75870000  1.0 0.080211844
H  H207  1  0.89310000  0.55900000  0.71580000  1.0 0.0895031823
H  H208  1  0.45620000  0.34170000  0.73940000  1.0 0.1084301534
H  H209  1  0.48040000  0.47950000  0.73370000  1.0 0.1084301534
H  H210  1  0.56110000  0.56920000  0.49530000  1.0 0.1084301534
H  H211  1  0.07540000  0.32310000  0.69060000  1.0 0.1253180443
H  H212  1  0.06760000  0.31000000  0.64090000  1.0 0.0895031823
H  H213  1  0.71610000  0.57270000  0.61080000  1.0 0.0895031823
H  H214  1  0.86450000  0.40330000  0.69960000  1.0 0.0992171946
H  H215  1  0.86800000  0.49700000  0.58660000  1.0 0.1152407317
H  H216  1  0.70950000  0.60770000  0.68360000  1.0 0.1084301534
H  H217  1  0.57420000  0.62170000  0.56120000  1.0 0.0992171946
H  H218  1  0.56050000  0.68010000  0.53500000  1.0 0.1084301534
H  H219  1  0.96000000  0.48440000  0.75980000  1.0 0.1084301534
H  H220  1  0.90000000  0.34570000  0.51620000  1.0 0.1152407317
H  H221  1  0.28260000  0.29370000  0.79420000  1.0 0.0992171946
H  H222  1  0.66940000  0.65760000  0.64950000  1.0 0.1084301534
H  H223  1  0.85580000  0.69210000  0.65890000  1.0 0.2569960369
H  H224  1  0.27350000  0.60550000  0.45460000  1.0 0.1084301534
H  H225  1  0.70260000  0.60820000  0.68280000  1.0 0.1084301534
H  H226  1  0.85060000  0.52360000  0.85520000  1.0 0.3309248726
H  H227  1  0.29510000  0.89470000  0.11340000  1.0 0.3206518902
H  H228  1  0.17730000  0.71500000  0.85170000  1.0 0.2970649166
H  H229  1  0.07640000  0.88810000  0.23390000  1.0 0.3309248726
H  H230  1  0.36930000  0.91530000  0.03480000  1.0 0.3489380939
H  H231  1  0.15440000  0.61200000  0.81490000  1.0 0.3206518902
H  H232  1  0.32600000  0.79130000  0.87030000  1.0 0.3391440708
H  H233  1  0.83210000  0.81860000  0.20580000  1.0 0.3391440708
H  H234  1  0.40220000  0.82330000  0.94840000  1.0 0.3309248726
H  H235  1  0.90210000  0.47390000  0.29800000  1.0 0.3391440708
H  H236  1  0.48310000  0.44290000  0.00470000  1.0 0.3391440708
H  H237  1  0.67210000  0.74490000  0.23150000  1.0 0.3309248726
H  H238  1  0.43120000  0.49240000  0.20030000  1.0 0.3309248726
H  H239  1  0.57830000  0.65690000  0.25250000  1.0 0.3391440708
H  H240  1  0.58210000  0.74070000  0.15160000  1.0 0.2912429138
H  H241  1  0.40430000  0.50390000  0.10110000  1.0 0.3309248726
H  H242  1  0.50490000  0.64340000  0.09250000  1.0 0.3206518902
H  H243  1  0.89840000  0.34300000  0.12630000  1.0 0.2212250861
H  H244  1  0.12600000  0.33780000  0.04980000  1.0 0.3391440708
H  H245  1  0.69600000  0.34350000  0.17010000  1.0 0.1084301534
H  H246  1  0.39910000  0.61320000  0.86160000  1.0 0.0992171946
H  H247  1  0.12190000  0.51000000  0.80900000  1.0 0.1084301534
H  H248  1  0.41650000  0.82630000  0.15990000  1.0 0.0992171946
H  H249  1  0.17690000  0.49160000  0.92910000  1.0 0.1084301534
H  H250  1  0.00710000  0.54470000  0.88670000  1.0 0.080211844
H  H251  1  0.37530000  0.61610000  0.95430000  1.0 0.0895031823
H  H252  1  0.75350000  0.34550000  0.91230000  1.0 0.0895031823
H  H253  1  0.51710000  0.83260000  0.10590000  1.0 0.0992171946
H  H254  1  0.74350000  0.45820000  0.95160000  1.0 0.0992171946
H  H255  1  0.30670000  0.54580000  0.83340000  1.0 0.0992171946
H  H256  1  0.05730000  0.42740000  0.86130000  1.0 0.0992171946
H  H257  1  0.55740000  0.73720000  0.92840000  1.0 0.0895031823
H  H258  1  0.25440000  0.72860000  0.16290000  1.0 0.0895031823
H  H259  1  0.16140000  0.82450000  0.14120000  1.0 0.0895031823
H  H260  1  0.55950000  0.76580000  0.99210000  1.0 0.0992171946
H  H261  1  0.54760000  0.55120000  0.95300000  1.0 0.1084301534
H  H262  1  0.42480000  0.52210000  0.93800000  1.0 0.1084301534
H  H263  1  0.53100000  0.86100000  0.03600000  1.0 0.0992171946
H  H264  1  0.83660000  0.54040000  0.19980000  1.0 0.1084301534
H  H265  1  0.73910000  0.56980000  0.28180000  1.0 0.1084301534
H  H266  1  0.26560000  0.87970000  0.21480000  1.0 0.0992171946
H  H267  1  0.31540000  0.79970000  0.01410000  1.0 0.0992171946
H  H268  1  0.24440000  0.68660000  0.91230000  1.0 0.0895031823
H  H269  1  0.74380000  0.34800000  0.99380000  1.0 0.0992171946
H  H270  1  0.45550000  0.72140000  0.86370000  1.0 0.0992171946
H  H271  1  0.87610000  0.73240000  0.21040000  1.0 0.080211844
H  H272  1  0.59000000  0.36250000  0.03400000  1.0 0.0992171946
H  H273  1  0.95960000  0.36300000  0.89450000  1.0 0.0895031823
H  H274  1  0.54960000  0.42350000  0.15100000  1.0 0.0895031823
H  H275  1  0.77420000  0.65460000  0.30550000  1.0 0.1084301534
H  H276  1  0.17860000  0.36890000  0.92280000  1.0 0.0992171946
H  H277  1  0.45080000  0.41560000  0.07390000  1.0 0.0895031823
H  H278  1  0.03150000  0.77210000  0.27810000  1.0 0.0992171946
H  H279  1  0.39820000  0.71160000  0.05200000  1.0 0.0992171946
H  H280  1  0.80580000  0.75380000  0.29810000  1.0 0.1084301534
H  H281  1  0.20160000  0.80660000  0.25870000  1.0 0.080211844
H  H282  1  0.60690000  0.44100000  0.21580000  1.0 0.0895031823
H  H283  1  0.04380000  0.65830000  0.23940000  1.0 0.1084301534
H  H284  1  0.01960000  0.52050000  0.23370000  1.0 0.1084301534
H  H285  1  0.93890000  0.43080000  0.99530000  1.0 0.1084301534
H  H286  1  0.42460000  0.67690000  0.19060000  1.0 0.1253180443
H  H287  1  0.43240000  0.69000000  0.14090000  1.0 0.0895031823
H  H288  1  0.78390000  0.42730000  0.11080000  1.0 0.0895031823
H  H289  1  0.63550000  0.59670000  0.19960000  1.0 0.0992171946
H  H290  1  0.63200000  0.50300000  0.08660000  1.0 0.1084301534
H  H291  1  0.79050000  0.39230000  0.18360000  1.0 0.1084301534
H  H292  1  0.92580000  0.37830000  0.06120000  1.0 0.0992171946
H  H293  1  0.93950000  0.31990000  0.03500000  1.0 0.1084301534
H  H294  1  0.54000000  0.51560000  0.25980000  1.0 0.1084301534
H  H295  1  0.60000000  0.65430000  0.01620000  1.0 0.1152407317
H  H296  1  0.21740000  0.70630000  0.29420000  1.0 0.0992171946
H  H297  1  0.83060000  0.34240000  0.14950000  1.0 0.1084301534
H  H298  1  0.64420000  0.30790000  0.15890000  1.0 0.2569960369
H  H299  1  0.22650000  0.39450000  0.95460000  1.0 0.1084301534
H  H300  1  0.79740000  0.39180000  0.18280000  1.0 0.1084301534
C  C1  1  0.84900000  0.88030000  0.11250000  1.0 0.0398670977
C  C2  1  0.61810000  0.96280000  0.16650000  1.0 0.0275950378
C  C3  1  0.84400000  0.69420000  0.85100000  1.0 0.008490282
C  C4  1  0.68110000  0.03720000  0.09430000  1.0 0.0275950378
C  C5  1  0.51880000  0.98400000  0.13650000  1.0 0.080211844
C  C6  1  0.92610000  0.88990000  0.07160000  1.0 0.0992171946
C  C7  1  0.28210000  0.11390000  0.08720000  1.0 0.0491870385
C  C8  1  0.97050000  0.69060000  0.91510000  1.0 0.2013222738
C  C9  1  0.22280000  0.08340000  0.04810000  1.0 0.0992171946
C  C10  1  0.74390000  0.96290000  0.14480000  1.0 0.2060153498
C  C11  1  0.55510000  0.04220000  0.11630000  1.0 0.0398670977
C  C12  1  0.98560000  0.78850000  0.07120000  1.0 0.1886816666
C  C13  1  0.82850000  0.75160000  0.82670000  1.0 0.0704025606
C  C14  1  0.73150000  0.65600000  0.84520000  1.0 0.080211844
C  C15  1  0.97630000  0.74470000  0.99880000  1.0 0.0226427767
C  C16  1  0.98610000  0.94900000  0.06980000  1.0 -0.0320445318
C  C17  1  0.95070000  0.65400000  0.95500000  1.0 0.0398670977
C  C18  1  0.32540000  0.96900000  0.76940000  1.0 0.0590578279
C  C19  1  0.24980000  0.92180000  0.74910000  1.0 0.0226427767
C  C20  1  0.70160000  0.64550000  0.79730000  1.0 0.0275950378
C  C21  1  0.90020000  0.68930000  0.99240000  1.0 0.0895031823
C  C22  1  0.79870000  0.81880000  0.11270000  1.0 0.0590578279
C  C23  1  0.27110000  0.11130000  0.00720000  1.0 0.0226427767
C  C24  1  0.90590000  0.77520000  0.10990000  1.0 0.0275950378
C  C25  1  0.38680000  0.74570000  0.76260000  1.0 0.080211844
C  C26  1  0.12510000  0.10760000  0.94700000  1.0 0.2212250861
C  C27  1  0.42270000  0.11450000  0.08180000  1.0 0.2280211462
C  C28  1  0.11590000  0.05440000  0.86280000  1.0 0.0398670977
C  C29  1  0.32860000  0.83170000  0.71770000  1.0 0.2386093302
C  C30  1  0.72760000  0.09520000  0.07630000  1.0 0.1886816666
C  C31  1  0.02340000  0.06340000  0.93650000  1.0 0.008490282
C  C32  1  0.51740000  0.75310000  0.74710000  1.0 0.0398670977
C  C33  1  0.98150000  0.77820000  0.95710000  1.0 0.0491870385
C  C34  1  0.29590000  0.76940000  0.72840000  1.0 0.0275950378
C  C35  1  0.70370000  0.70260000  0.77240000  1.0 0.1886816666
C  C36  1  0.14680000  0.02110000  0.78830000  1.0 0.1886816666
C  C37  1  0.54570000  0.81670000  0.73480000  1.0 0.0398670977
C  C38  1  0.44740000  0.98100000  0.75030000  1.0 -0.0617405163
C  C39  1  0.41100000  0.10990000  0.00400000  1.0 0.0704025606
C  C40  1  0.93580000  0.79210000  0.83050000  1.0 -0.0529769823
C  C41  1  0.21610000  0.09510000  0.87670000  1.0 -0.0235117945
C  C42  1  0.12530000  0.91670000  0.77040000  1.0 0.080211844
C  C43  1  0.06630000  0.02130000  0.90150000  1.0 0.080211844
C  C44  1  0.26400000  0.13280000  0.83990000  1.0 -0.0320445318
C  C45  1  0.46170000  0.13910000  0.96460000  1.0 -0.0925171641
C  C46  1  0.06080000  0.97430000  0.77030000  1.0 0.0398670977
C  C47  1  0.06050000  0.83320000  0.95870000  1.0 -0.0617405163
C  C48  1  0.66260000  0.82390000  0.71120000  1.0 0.1540432834
C  C49  1  0.65100000  0.11970000  0.61250000  1.0 0.0398670977
C  C50  1  0.88190000  0.03720000  0.66650000  1.0 0.0275950378
C  C51  1  0.65600000  0.30580000  0.35100000  1.0 0.008490282
C  C52  1  0.81890000  0.96280000  0.59430000  1.0 0.0275950378
C  C53  1  0.98120000  0.01600000  0.63650000  1.0 0.080211844
C  C54  1  0.57390000  0.11010000  0.57160000  1.0 0.0992171946
C  C55  1  0.21790000  0.88610000  0.58720000  1.0 0.0491870385
C  C56  1  0.52950000  0.30940000  0.41510000  1.0 0.2013222738
C  C57  1  0.27720000  0.91660000  0.54810000  1.0 0.0895031823
C  C58  1  0.75610000  0.03710000  0.64480000  1.0 0.2060153498
C  C59  1  0.94490000  0.95780000  0.61630000  1.0 0.0398670977
C  C60  1  0.51440000  0.21150000  0.57120000  1.0 0.1886816666
C  C61  1  0.67150000  0.24840000  0.32670000  1.0 0.0704025606
C  C62  1  0.76850000  0.34400000  0.34520000  1.0 0.080211844
C  C63  1  0.52370000  0.25530000  0.49880000  1.0 0.0275950378
C  C64  1  0.51390000  0.05100000  0.56980000  1.0 -0.0320445318
C  C65  1  0.54930000  0.34600000  0.45500000  1.0 0.0398670977
C  C66  1  0.17460000  0.03100000  0.26940000  1.0 0.0590578279
C  C67  1  0.25020000  0.07820000  0.24910000  1.0 0.0226427767
C  C68  1  0.79840000  0.35450000  0.29730000  1.0 0.0275950378
C  C69  1  0.59980000  0.31070000  0.49240000  1.0 0.0895031823
C  C70  1  0.70130000  0.18120000  0.61270000  1.0 0.0704025606
C  C71  1  0.22890000  0.88870000  0.50720000  1.0 0.0226427767
C  C72  1  0.59410000  0.22480000  0.60990000  1.0 0.0275950378
C  C73  1  0.11320000  0.25430000  0.26260000  1.0 0.080211844
C  C74  1  0.37490000  0.89240000  0.44700000  1.0 0.2212250861
C  C75  1  0.07730000  0.88550000  0.58180000  1.0 0.2280211462
C  C76  1  0.38410000  0.94560000  0.36280000  1.0 0.0398670977
C  C77  1  0.17140000  0.16830000  0.21770000  1.0 0.2386093302
C  C78  1  0.77240000  0.90480000  0.57630000  1.0 0.1886816666
C  C79  1  0.47660000  0.93660000  0.43650000  1.0 0.008490282
C  C80  1  0.98260000  0.24690000  0.24710000  1.0 0.0398670977
C  C81  1  0.51850000  0.22180000  0.45710000  1.0 0.0491870385
C  C82  1  0.20410000  0.23060000  0.22840000  1.0 0.0275950378
C  C83  1  0.79630000  0.29740000  0.27240000  1.0 0.1886816666
C  C84  1  0.35320000  0.97890000  0.28830000  1.0 0.1886816666
C  C85  1  0.95430000  0.18330000  0.23480000  1.0 0.0398670977
C  C86  1  0.05260000  0.01900000  0.25030000  1.0 -0.0617405163
C  C87  1  0.08900000  0.89010000  0.50400000  1.0 0.0704025606
C  C88  1  0.56420000  0.20790000  0.33050000  1.0 -0.0529769823
C  C89  1  0.28390000  0.90490000  0.37670000  1.0 -0.0235117945
C  C90  1  0.37470000  0.08330000  0.27040000  1.0 0.080211844
C  C91  1  0.43370000  0.97870000  0.40150000  1.0 0.080211844
C  C92  1  0.23600000  0.86720000  0.33990000  1.0 -0.0320445318
C  C93  1  0.03830000  0.86090000  0.46460000  1.0 -0.0925171641
C  C94  1  0.43920000  0.02570000  0.27030000  1.0 0.0275950378
C  C95  1  0.43950000  0.16680000  0.45870000  1.0 -0.0617405163
C  C96  1  0.83740000  0.17610000  0.21120000  1.0 0.1554187252
C  C97  1  0.15100000  0.38030000  0.38750000  1.0 0.0398670977
C  C98  1  0.38190000  0.46280000  0.33350000  1.0 0.0275950378
C  C99  1  0.15600000  0.19420000  0.64900000  1.0 0.008490282
C  C100  1  0.31890000  0.53720000  0.40570000  1.0 0.0275950378
C  C101  1  0.48120000  0.48400000  0.36350000  1.0 0.080211844
C  C102  1  0.07390000  0.38990000  0.42840000  1.0 0.0992171946
C  C103  1  0.71790000  0.61390000  0.41280000  1.0 0.0491870385
C  C104  1  0.02950000  0.19060000  0.58490000  1.0 0.2013222738
C  C105  1  0.77720000  0.58340000  0.45190000  1.0 0.0992171946
C  C106  1  0.25610000  0.46290000  0.35520000  1.0 0.2060153498
C  C107  1  0.44490000  0.54220000  0.38370000  1.0 0.0398670977
C  C108  1  0.01440000  0.28850000  0.42880000  1.0 0.1886816666
C  C109  1  0.17150000  0.25160000  0.67330000  1.0 0.0704025606
C  C110  1  0.26850000  0.15600000  0.65480000  1.0 0.080211844
C  C111  1  0.02370000  0.24470000  0.50120000  1.0 0.0275950378
C  C112  1  0.01390000  0.44900000  0.43020000  1.0 -0.0320445318
C  C113  1  0.04930000  0.15400000  0.54500000  1.0 0.0398670977
C  C114  1  0.67460000  0.46900000  0.73060000  1.0 0.0590578279
C  C115  1  0.75020000  0.42180000  0.75090000  1.0 0.0226427767
C  C116  1  0.29840000  0.14550000  0.70270000  1.0 0.0275950378
C  C117  1  0.09980000  0.18930000  0.50760000  1.0 0.0895031823
C  C118  1  0.20130000  0.31880000  0.38730000  1.0 0.0704025606
C  C119  1  0.72890000  0.61130000  0.49280000  1.0 0.0226427767
C  C120  1  0.09410000  0.27520000  0.39010000  1.0 0.0275950378
C  C121  1  0.61320000  0.24570000  0.73740000  1.0 0.080211844
C  C122  1  0.87490000  0.60760000  0.55300000  1.0 0.2212250861
C  C123  1  0.57730000  0.61450000  0.41820000  1.0 0.2280211462
C  C124  1  0.88410000  0.55440000  0.63720000  1.0 0.0398670977
C  C125  1  0.67140000  0.33170000  0.78230000  1.0 0.2386093302
C  C126  1  0.27240000  0.59520000  0.42370000  1.0 0.1839692084
C  C127  1  0.97660000  0.56340000  0.56350000  1.0 0.008490282
C  C128  1  0.48260000  0.25310000  0.75290000  1.0 0.0398670977
C  C129  1  0.01850000  0.27820000  0.54290000  1.0 0.0491870385
C  C130  1  0.70410000  0.26940000  0.77160000  1.0 0.0275950378
C  C131  1  0.29630000  0.20260000  0.72760000  1.0 0.1886816666
C  C132  1  0.85320000  0.52110000  0.71170000  1.0 0.1886816666
C  C133  1  0.45430000  0.31670000  0.76520000  1.0 0.0398670977
C  C134  1  0.55260000  0.48100000  0.74970000  1.0 -0.0617405163
C  C135  1  0.58900000  0.60990000  0.49600000  1.0 0.0704025606
C  C136  1  0.06420000  0.29210000  0.66950000  1.0 -0.0529769823
C  C137  1  0.78390000  0.59510000  0.62330000  1.0 -0.0235117945
C  C138  1  0.87470000  0.41670000  0.72960000  1.0 0.080211844
C  C139  1  0.93370000  0.52130000  0.59850000  1.0 0.080211844
C  C140  1  0.73600000  0.63280000  0.66010000  1.0 -0.0320445318
C  C141  1  0.53830000  0.63910000  0.53540000  1.0 -0.0925171641
C  C142  1  0.93920000  0.47430000  0.72970000  1.0 0.0398670977
C  C143  1  0.93950000  0.33320000  0.54130000  1.0 -0.0617405163
C  C144  1  0.33740000  0.32390000  0.78880000  1.0 0.1540432834
C  C145  1  0.34900000  0.61970000  0.88750000  1.0 0.0398670977
C  C146  1  0.11810000  0.53720000  0.83350000  1.0 0.0275950378
C  C147  1  0.34400000  0.80580000  0.14900000  1.0 0.008490282
C  C148  1  0.18110000  0.46280000  0.90570000  1.0 0.0275950378
C  C149  1  0.01880000  0.51600000  0.86350000  1.0 0.080211844
C  C150  1  0.42610000  0.61010000  0.92840000  1.0 0.0992171946
C  C151  1  0.78210000  0.38610000  0.91280000  1.0 0.0491870385
C  C152  1  0.47050000  0.80940000  0.08490000  1.0 0.2013222738
C  C153  1  0.72280000  0.41660000  0.95190000  1.0 0.0992171946
C  C154  1  0.24390000  0.53710000  0.85520000  1.0 0.2060153498
C  C155  1  0.05510000  0.45780000  0.88370000  1.0 0.0398670977
C  C156  1  0.48560000  0.71150000  0.92880000  1.0 0.1886816666
C  C157  1  0.32850000  0.74840000  0.17330000  1.0 0.0704025606
C  C158  1  0.23150000  0.84400000  0.15480000  1.0 0.080211844
C  C159  1  0.47630000  0.75530000  0.00120000  1.0 0.0275950378
C  C160  1  0.48610000  0.55100000  0.93020000  1.0 -0.0320445318
C  C161  1  0.45070000  0.84600000  0.04500000  1.0 0.0398670977
C  C162  1  0.82540000  0.53100000  0.23060000  1.0 0.0590578279
C  C163  1  0.74980000  0.57820000  0.25090000  1.0 0.0226427767
C  C164  1  0.20160000  0.85450000  0.20270000  1.0 0.0275950378
C  C165  1  0.40020000  0.81070000  0.00760000  1.0 0.0895031823
C  C166  1  0.29870000  0.68120000  0.88730000  1.0 0.0704025606
C  C167  1  0.77110000  0.38870000  0.99280000  1.0 0.0226427767
C  C168  1  0.40590000  0.72480000  0.89010000  1.0 0.0275950378
C  C169  1  0.88680000  0.75430000  0.23740000  1.0 0.080211844
C  C170  1  0.62510000  0.39240000  0.05300000  1.0 0.2212250861
C  C171  1  0.92270000  0.38550000  0.91820000  1.0 0.2280211462
C  C172  1  0.61590000  0.44560000  0.13720000  1.0 0.0398670977
C  C173  1  0.82860000  0.66830000  0.28230000  1.0 0.2386093302
C  C174  1  0.22760000  0.40480000  0.92370000  1.0 0.1839692084
C  C175  1  0.52340000  0.43660000  0.06350000  1.0 0.008490282
C  C176  1  0.01740000  0.74690000  0.25290000  1.0 0.0398670977
C  C177  1  0.48150000  0.72180000  0.04290000  1.0 0.0491870385
C  C178  1  0.79590000  0.73060000  0.27160000  1.0 0.0275950378
C  C179  1  0.20370000  0.79740000  0.22760000  1.0 0.1886816666
C  C180  1  0.64680000  0.47890000  0.21170000  1.0 0.1886816666
C  C181  1  0.04570000  0.68330000  0.26520000  1.0 0.0398670977
C  C182  1  0.94740000  0.51900000  0.24970000  1.0 -0.0617405163
C  C183  1  0.91100000  0.39010000  0.99600000  1.0 0.0704025606
C  C184  1  0.43580000  0.70790000  0.16950000  1.0 -0.0529769823
C  C185  1  0.71610000  0.40490000  0.12330000  1.0 -0.0235117945
C  C186  1  0.62530000  0.58330000  0.22960000  1.0 0.080211844
C  C187  1  0.56630000  0.47870000  0.09850000  1.0 0.080211844
C  C188  1  0.76400000  0.36720000  0.16010000  1.0 -0.0320445318
C  C189  1  0.96170000  0.36090000  0.03540000  1.0 -0.0925171641
C  C190  1  0.56080000  0.52570000  0.22970000  1.0 0.0275950378
C  C191  1  0.56050000  0.66680000  0.04130000  1.0 -0.0617405163
C  C192  1  0.16260000  0.67610000  0.28880000  1.0 0.1540432834
O  O1  1  0.83420000  0.09270000  0.05740000  1.0 -0.3531620638
O  O2  1  0.74500000  0.91890000  0.11268000  1.0 -0.2699571
O  O3  1  0.85660000  0.70390000  0.89671000  1.0 -0.2591640563
O  O4  1  0.02570000  0.84790000  0.07211000  1.0 -0.2699571
O  O5  1  0.91720000  0.77790000  0.03271000  1.0 -0.2758800747
O  O6  1  0.40590000  0.99210000  0.15858000  1.0 -0.4514536248
O  O7  1  0.46270000  0.05600000  0.08435000  1.0 -0.2591640563
O  O8  1  0.25020000  0.08770000  0.12705000  1.0 -0.5793514239
O  O9  1  0.74860000  0.60130000  0.86591000  1.0 -0.426069981
O  O10  1  0.76860000  0.01860000  0.12610000  1.0 -0.2502911934
O  O11  1  0.73010000  0.81000000  0.15230000  1.0 -0.4927696274
O  O12  1  0.22010000  0.08020000  0.96961000  1.0 -0.2591640563
O  O13  1  0.04190000  0.96580000  0.10900000  1.0 -0.5087473677
O  O14  1  0.09340000  0.09050000  0.05120000  1.0 -0.5875914233
O  O15  1  0.59830000  0.73560000  0.78223000  1.0 -0.2699571
O  O16  1  0.44970000  0.83510000  0.70310000  1.0 -0.2924530723
O  O17  1  0.58910000  0.61710000  0.79200000  1.0 -0.4184014672
O  O18  1  0.87800000  0.60580000  0.94390000  1.0 -0.4390007036
O  O19  1  0.45590000  0.13960000  0.04170000  1.0 -0.2924530723
O  O20  1  0.03780000  0.74050000  0.92450000  1.0 -0.2973812537
O  O21  1  0.59130000  0.90730000  0.18350000  1.0 -0.4728064101
O  O22  1  0.31040000  0.86620000  0.75395000  1.0 -0.2699571
O  O23  1  0.81250000  0.73540000  0.78070000  1.0 -0.2591640563
O  O24  1  0.86000000  0.71740000  0.10690000  1.0 -0.4390007036
O  O25  1  0.16220000  0.01270000  0.83360000  1.0 -0.2502911934
O  O26  1  0.36970000  0.68520000  0.77130000  1.0 -0.4800901102
O  O27  1  0.25690000  0.02260000  0.76650000  1.0 -0.2699571
O  O28  1  0.16590000  0.13500000  0.90950000  1.0 -0.2924530723
O  O29  1  0.90190000  0.65520000  0.03030000  1.0 -0.4728064101
O  O30  1  0.44450000  0.99490000  0.70560000  1.0 -0.4390007036
O  O31  1  0.99320000  0.03330000  0.97570000  1.0 -0.4390007036
O  O32  1  0.17290000  0.76330000  0.74250000  1.0 -0.4609216252
O  O33  1  0.95180000  0.97380000  0.79510000  1.0 -0.4390007036
O  O34  1  0.04760000  0.87580000  0.74700000  1.0 -0.4609216252
O  O35  1  0.68040000  0.88010000  0.69850000  1.0 -0.4800901102
O  O36  1  0.05440000  0.76960000  0.82490000  1.0 -0.4184014672
O  O37  1  0.96830000  0.98430000  0.88810000  1.0 -0.4728064101
O  O38  1  0.06800000  0.86120000  0.92160000  1.0 -0.3207678633
O  O39  1  0.36400000  0.16990000  0.85200000  1.0 -0.3794683304
O  O40  1  0.59680000  0.13360000  0.96250000  1.0 -0.4100326138
O  O41  1  0.75600000  0.13360000  0.10880000  1.0 -0.3794683304
O  O42  1  0.16600000  0.16780000  0.82310000  1.0 -0.3794683304
O  O43  1  0.66580000  0.90730000  0.55740000  1.0 -0.3570401208
O  O44  1  0.75500000  0.08110000  0.61268000  1.0 -0.2699571
O  O45  1  0.64340000  0.29610000  0.39671000  1.0 -0.2591640563
O  O46  1  0.47430000  0.15210000  0.57211000  1.0 -0.2699571
O  O47  1  0.58280000  0.22210000  0.53271000  1.0 -0.2758800747
O  O48  1  0.09410000  0.00790000  0.65858000  1.0 -0.4514536248
O  O49  1  0.03730000  0.94400000  0.58435000  1.0 -0.2591640563
O  O50  1  0.24980000  0.91230000  0.62705000  1.0 -0.5749107735
O  O51  1  0.75140000  0.39870000  0.36591000  1.0 -0.426069981
O  O52  1  0.73140000  0.98140000  0.62610000  1.0 -0.2502911934
O  O53  1  0.76990000  0.19000000  0.65230000  1.0 -0.4927696274
O  O54  1  0.27990000  0.91980000  0.46961000  1.0 -0.2591640563
O  O55  1  0.45810000  0.03420000  0.60900000  1.0 -0.5087473677
O  O56  1  0.40660000  0.90950000  0.55120000  1.0 -0.5875914233
O  O57  1  0.90170000  0.26440000  0.28223000  1.0 -0.2699571
O  O58  1  0.05030000  0.16490000  0.20310000  1.0 -0.2924530723
O  O59  1  0.91090000  0.38290000  0.29200000  1.0 -0.4184014672
O  O60  1  0.62200000  0.39420000  0.44390000  1.0 -0.4390007036
O  O61  1  0.04410000  0.86040000  0.54170000  1.0 -0.2924530723
O  O62  1  0.46220000  0.25950000  0.42450000  1.0 -0.2973812537
O  O63  1  0.90870000  0.09270000  0.68350000  1.0 -0.4728064101
O  O64  1  0.18960000  0.13380000  0.25395000  1.0 -0.2699571
O  O65  1  0.68750000  0.26460000  0.28070000  1.0 -0.2591640563
O  O66  1  0.64000000  0.28260000  0.60690000  1.0 -0.4390007036
O  O67  1  0.33780000  0.98730000  0.33360000  1.0 -0.2502911934
O  O68  1  0.13030000  0.31480000  0.27130000  1.0 -0.4800901102
O  O69  1  0.24310000  0.97740000  0.26650000  1.0 -0.2699571
O  O70  1  0.33410000  0.86500000  0.40950000  1.0 -0.2924530723
O  O71  1  0.59810000  0.34480000  0.53030000  1.0 -0.4728064101
O  O72  1  0.05550000  0.00510000  0.20560000  1.0 -0.4390007036
O  O73  1  0.50680000  0.96670000  0.47570000  1.0 -0.4390007036
O  O74  1  0.32710000  0.23670000  0.24250000  1.0 -0.4609216252
O  O75  1  0.54820000  0.02620000  0.29510000  1.0 -0.4390007036
O  O76  1  0.45240000  0.12420000  0.24700000  1.0 -0.4609216252
O  O77  1  0.81960000  0.11990000  0.19850000  1.0 -0.4800901102
O  O78  1  0.44560000  0.23040000  0.32490000  1.0 -0.4184014672
O  O79  1  0.53170000  0.01570000  0.38810000  1.0 -0.4728064101
O  O80  1  0.43200000  0.13880000  0.42160000  1.0 -0.3207678633
O  O81  1  0.13600000  0.83010000  0.35200000  1.0 -0.3794683304
O  O82  1  0.90320000  0.86640000  0.46250000  1.0 -0.4100326138
O  O83  1  0.74400000  0.86640000  0.60880000  1.0 -0.3794683304
O  O84  1  0.33400000  0.83220000  0.32310000  1.0 -0.3794683304
O  O85  1  0.16580000  0.59270000  0.44260000  1.0 -0.3531620638
O  O86  1  0.25500000  0.41890000  0.38732000  1.0 -0.2699571
O  O87  1  0.14340000  0.20390000  0.60329000  1.0 -0.2591640563
O  O88  1  0.97430000  0.34790000  0.42789000  1.0 -0.2699571
O  O89  1  0.08280000  0.27790000  0.46729000  1.0 -0.2758800747
O  O90  1  0.59410000  0.49210000  0.34142000  1.0 -0.4514536248
O  O91  1  0.53730000  0.55600000  0.41565000  1.0 -0.2591640563
O  O92  1  0.74980000  0.58770000  0.37295000  1.0 -0.5793514239
O  O93  1  0.25140000  0.10130000  0.63409000  1.0 -0.426069981
O  O94  1  0.23140000  0.51860000  0.37390000  1.0 -0.2502911934
O  O95  1  0.26990000  0.31000000  0.34770000  1.0 -0.4927696274
O  O96  1  0.77990000  0.58020000  0.53039000  1.0 -0.2591640563
O  O97  1  0.95810000  0.46580000  0.39100000  1.0 -0.5087473677
O  O98  1  0.90660000  0.59050000  0.44880000  1.0 -0.5793514239
O  O99  1  0.40170000  0.23560000  0.71777000  1.0 -0.2699571
O  O100  1  0.55030000  0.33510000  0.79690000  1.0 -0.2973812537
O  O101  1  0.41090000  0.11710000  0.70800000  1.0 -0.4184014672
O  O102  1  0.12200000  0.10580000  0.55610000  1.0 -0.4390007036
O  O103  1  0.54410000  0.63960000  0.45830000  1.0 -0.2924530723
O  O104  1  0.96220000  0.24050000  0.57550000  1.0 -0.2973812537
O  O105  1  0.40870000  0.40730000  0.31650000  1.0 -0.4728064101
O  O106  1  0.68960000  0.36620000  0.74605000  1.0 -0.2699571
O  O107  1  0.18750000  0.23540000  0.71930000  1.0 -0.2591640563
O  O108  1  0.14000000  0.21740000  0.39310000  1.0 -0.4390007036
O  O109  1  0.83780000  0.51270000  0.66640000  1.0 -0.2502911934
O  O110  1  0.63030000  0.18520000  0.72870000  1.0 -0.4800901102
O  O111  1  0.74310000  0.52260000  0.73350000  1.0 -0.2699571
O  O112  1  0.83410000  0.63500000  0.59050000  1.0 -0.2924530723
O  O113  1  0.09810000  0.15520000  0.46970000  1.0 -0.4728064101
O  O114  1  0.55550000  0.49490000  0.79440000  1.0 -0.4390007036
O  O115  1  0.00680000  0.53330000  0.52430000  1.0 -0.4390007036
O  O116  1  0.82710000  0.26330000  0.75750000  1.0 -0.4609216252
O  O117  1  0.04820000  0.47380000  0.70490000  1.0 -0.4390007036
O  O118  1  0.95240000  0.37580000  0.75300000  1.0 -0.4609216252
O  O119  1  0.31960000  0.38010000  0.80150000  1.0 -0.4800901102
O  O120  1  0.94560000  0.26960000  0.67510000  1.0 -0.4184014672
O  O121  1  0.03170000  0.48430000  0.61190000  1.0 -0.4728064101
O  O122  1  0.93200000  0.36120000  0.57840000  1.0 -0.3207678633
O  O123  1  0.63600000  0.66990000  0.64800000  1.0 -0.3794683304
O  O124  1  0.40320000  0.63360000  0.53750000  1.0 -0.4100326138
O  O125  1  0.24400000  0.63360000  0.39120000  1.0 -0.3794683304
O  O126  1  0.83400000  0.66780000  0.67690000  1.0 -0.3794683304
O  O127  1  0.33420000  0.40730000  0.94260000  1.0 -0.3531620638
O  O128  1  0.24500000  0.58110000  0.88732000  1.0 -0.2699571
O  O129  1  0.35660000  0.79610000  0.10329000  1.0 -0.2591640563
O  O130  1  0.52570000  0.65210000  0.92789000  1.0 -0.2699571
O  O131  1  0.41720000  0.72210000  0.96729000  1.0 -0.2758800747
O  O132  1  0.90590000  0.50790000  0.84142000  1.0 -0.4514536248
O  O133  1  0.96270000  0.44400000  0.91565000  1.0 -0.2591640563
O  O134  1  0.75020000  0.41230000  0.87295000  1.0 -0.5793514239
O  O135  1  0.24860000  0.89870000  0.13409000  1.0 -0.426069981
O  O136  1  0.26860000  0.48140000  0.87390000  1.0 -0.2502911934
O  O137  1  0.23010000  0.69000000  0.84770000  1.0 -0.4927696274
O  O138  1  0.72010000  0.41980000  0.03039000  1.0 -0.2591640563
O  O139  1  0.54190000  0.53420000  0.89100000  1.0 -0.5087473677
O  O140  1  0.59340000  0.40950000  0.94880000  1.0 -0.5875914233
O  O141  1  0.09830000  0.76440000  0.21777000  1.0 -0.2699571
O  O142  1  0.94970000  0.66490000  0.29690000  1.0 -0.2924530723
O  O143  1  0.08910000  0.88290000  0.20800000  1.0 -0.4184014672
O  O144  1  0.37800000  0.89420000  0.05610000  1.0 -0.4390007036
O  O145  1  0.95590000  0.36040000  0.95830000  1.0 -0.2924530723
O  O146  1  0.53780000  0.75950000  0.07550000  1.0 -0.2973812537
O  O147  1  0.09130000  0.59270000  0.81650000  1.0 -0.4728064101
O  O148  1  0.81040000  0.63380000  0.24605000  1.0 -0.2699571
O  O149  1  0.31250000  0.76460000  0.21930000  1.0 -0.2591640563
O  O150  1  0.36000000  0.78260000  0.89310000  1.0 -0.4390007036
O  O151  1  0.66220000  0.48730000  0.16640000  1.0 -0.2502911934
O  O152  1  0.86970000  0.81480000  0.22870000  1.0 -0.4800901102
O  O153  1  0.75690000  0.47740000  0.23350000  1.0 -0.2699571
O  O154  1  0.66590000  0.36500000  0.09050000  1.0 -0.2924530723
O  O155  1  0.40190000  0.84480000  0.96970000  1.0 -0.4728064101
O  O156  1  0.94450000  0.50510000  0.29440000  1.0 -0.4390007036
O  O157  1  0.49320000  0.46670000  0.02430000  1.0 -0.4390007036
O  O158  1  0.67290000  0.73670000  0.25750000  1.0 -0.4609216252
O  O159  1  0.45180000  0.52620000  0.20490000  1.0 -0.4390007036
O  O160  1  0.54760000  0.62420000  0.25300000  1.0 -0.4609216252
O  O161  1  0.18040000  0.61990000  0.30150000  1.0 -0.4800901102
O  O162  1  0.55440000  0.73040000  0.17510000  1.0 -0.4184014672
O  O163  1  0.46830000  0.51570000  0.11190000  1.0 -0.4728064101
O  O164  1  0.56800000  0.63880000  0.07840000  1.0 -0.3207678633
O  O165  1  0.86400000  0.33010000  0.14800000  1.0 -0.3794683304
O  O166  1  0.09680000  0.36640000  0.03750000  1.0 -0.4100326138
O  O167  1  0.25600000  0.36640000  0.89120000  1.0 -0.3794683304
O  O168  1  0.66600000  0.33220000  0.17690000  1.0 -0.3794683304
