# DDEC6 charges by PACMAN v1.1 (https://github.com/mtap-research/PACMAN-charge/)
data_TOJLOT_ion_pacman
_symmetry_space_group_name_H-M   'P 1'
_cell_length_a   18.24100000
_cell_length_b   18.24100000
_cell_length_c   18.24100000
_cell_angle_alpha   90.00000000
_cell_angle_beta   90.00000000
_cell_angle_gamma   90.00000000
_symmetry_Int_Tables_number   1
_chemical_formula_structural   Cu3H48C72N24Cl7
_chemical_formula_sum   'Cu6 H96 C144 N48 Cl14'
_cell_volume   6069.40237152
_cell_formula_units_Z   2
loop_
 _symmetry_equiv_pos_site_id
 _symmetry_equiv_pos_as_xyz
  1  'x, y, z'
loop_
 _atom_site_type_symbol
 _atom_site_label
 _atom_site_symmetry_multiplicity
 _atom_site_fract_x
 _atom_site_fract_y
 _atom_site_fract_z
 _atom_site_occupancy
 _atom_site_charge
Cu  Cu1  1  0.00000000  0.50000000  0.50000000  1.0 0.2739106422
Cu  Cu2  1  0.50000000  0.50000000  0.00000000  1.0 0.2739106422
Cu  Cu3  1  0.50000000  0.00000000  0.50000000  1.0 0.2739106422
Cu  Cu4  1  0.00000000  0.50000000  0.00000000  1.0 0.2739106422
Cu  Cu5  1  0.00000000  0.00000000  0.50000000  1.0 0.2739106422
Cu  Cu6  1  0.50000000  0.00000000  0.00000000  1.0 0.2739106422
H  H1  1  0.07290000  0.49450000  0.35400000  1.0 0.0949069491
H  H2  1  0.92710000  0.49450000  0.64600000  1.0 0.0949069491
H  H3  1  0.50550000  0.35400000  0.92710000  1.0 0.0949069491
H  H4  1  0.92710000  0.50550000  0.35400000  1.0 0.0949069491
H  H5  1  0.07290000  0.50550000  0.64600000  1.0 0.0949069491
H  H6  1  0.49450000  0.64600000  0.92710000  1.0 0.0949069491
H  H7  1  0.50550000  0.64600000  0.07290000  1.0 0.0949069491
H  H8  1  0.49450000  0.35400000  0.07290000  1.0 0.0949069491
H  H9  1  0.35400000  0.07290000  0.49450000  1.0 0.0949069491
H  H10  1  0.64600000  0.92710000  0.49450000  1.0 0.0949069491
H  H11  1  0.35400000  0.92710000  0.50550000  1.0 0.0949069491
H  H12  1  0.64600000  0.07290000  0.50550000  1.0 0.0949069491
H  H13  1  0.50550000  0.07290000  0.64600000  1.0 0.0949069491
H  H14  1  0.50550000  0.92710000  0.35400000  1.0 0.0949069491
H  H15  1  0.64600000  0.50550000  0.07290000  1.0 0.0949069491
H  H16  1  0.49450000  0.92710000  0.64600000  1.0 0.0949069491
H  H17  1  0.49450000  0.07290000  0.35400000  1.0 0.0949069491
H  H18  1  0.35400000  0.49450000  0.07290000  1.0 0.0949069491
H  H19  1  0.64600000  0.49450000  0.92710000  1.0 0.0949069491
H  H20  1  0.35400000  0.50550000  0.92710000  1.0 0.0949069491
H  H21  1  0.07290000  0.64600000  0.50550000  1.0 0.0949069491
H  H22  1  0.07290000  0.35400000  0.49450000  1.0 0.0949069491
H  H23  1  0.92710000  0.64600000  0.49450000  1.0 0.0949069491
H  H24  1  0.92710000  0.35400000  0.50550000  1.0 0.0949069491
H  H25  1  0.16830000  0.54820000  0.29510000  1.0 0.1305991864
H  H26  1  0.83170000  0.54820000  0.70490000  1.0 0.1305991864
H  H27  1  0.45180000  0.29510000  0.83170000  1.0 0.1305991864
H  H28  1  0.83170000  0.45180000  0.29510000  1.0 0.1305991864
H  H29  1  0.16830000  0.45180000  0.70490000  1.0 0.1305991864
H  H30  1  0.54820000  0.70490000  0.83170000  1.0 0.1305991864
H  H31  1  0.45180000  0.70490000  0.16830000  1.0 0.1305991864
H  H32  1  0.54820000  0.29510000  0.16830000  1.0 0.1305991864
H  H33  1  0.29510000  0.16830000  0.54820000  1.0 0.1305991864
H  H34  1  0.70490000  0.83170000  0.54820000  1.0 0.1305991864
H  H35  1  0.29510000  0.83170000  0.45180000  1.0 0.1305991864
H  H36  1  0.70490000  0.16830000  0.45180000  1.0 0.1305991864
H  H37  1  0.45180000  0.16830000  0.70490000  1.0 0.1305991864
H  H38  1  0.45180000  0.83170000  0.29510000  1.0 0.1305991864
H  H39  1  0.70490000  0.45180000  0.16830000  1.0 0.1305991864
H  H40  1  0.54820000  0.83170000  0.70490000  1.0 0.1305991864
H  H41  1  0.54820000  0.16830000  0.29510000  1.0 0.1305991864
H  H42  1  0.29510000  0.54820000  0.16830000  1.0 0.1305991864
H  H43  1  0.70490000  0.54820000  0.83170000  1.0 0.1305991864
H  H44  1  0.29510000  0.45180000  0.83170000  1.0 0.1305991864
H  H45  1  0.16830000  0.70490000  0.45180000  1.0 0.1305991864
H  H46  1  0.16830000  0.29510000  0.54820000  1.0 0.1305991864
H  H47  1  0.83170000  0.70490000  0.54820000  1.0 0.1305991864
H  H48  1  0.83170000  0.29510000  0.45180000  1.0 0.1305991864
H  H49  1  0.99450000  0.42710000  0.85400000  1.0 0.0949069491
H  H50  1  0.99450000  0.57290000  0.14600000  1.0 0.0949069491
H  H51  1  0.85400000  0.99450000  0.42710000  1.0 0.0949069491
H  H52  1  0.00550000  0.57290000  0.85400000  1.0 0.0949069491
H  H53  1  0.00550000  0.42710000  0.14600000  1.0 0.0949069491
H  H54  1  0.14600000  0.00550000  0.42710000  1.0 0.0949069491
H  H55  1  0.85400000  0.00550000  0.57290000  1.0 0.0949069491
H  H56  1  0.14600000  0.99450000  0.57290000  1.0 0.0949069491
H  H57  1  0.42710000  0.85400000  0.99450000  1.0 0.0949069491
H  H58  1  0.42710000  0.14600000  0.00550000  1.0 0.0949069491
H  H59  1  0.57290000  0.85400000  0.00550000  1.0 0.0949069491
H  H60  1  0.57290000  0.14600000  0.99450000  1.0 0.0949069491
H  H61  1  0.42710000  0.00550000  0.14600000  1.0 0.0949069491
H  H62  1  0.57290000  0.00550000  0.85400000  1.0 0.0949069491
H  H63  1  0.99450000  0.14600000  0.57290000  1.0 0.0949069491
H  H64  1  0.57290000  0.99450000  0.14600000  1.0 0.0949069491
H  H65  1  0.42710000  0.99450000  0.85400000  1.0 0.0949069491
H  H66  1  0.00550000  0.85400000  0.57290000  1.0 0.0949069491
H  H67  1  0.99450000  0.85400000  0.42710000  1.0 0.0949069491
H  H68  1  0.00550000  0.14600000  0.42710000  1.0 0.0949069491
H  H69  1  0.14600000  0.42710000  0.00550000  1.0 0.0949069491
H  H70  1  0.85400000  0.57290000  0.00550000  1.0 0.0949069491
H  H71  1  0.14600000  0.57290000  0.99450000  1.0 0.0949069491
H  H72  1  0.85400000  0.42710000  0.99450000  1.0 0.0949069491
H  H73  1  0.04820000  0.33170000  0.79510000  1.0 0.1305991864
H  H74  1  0.04820000  0.66830000  0.20490000  1.0 0.1305991864
H  H75  1  0.79510000  0.04820000  0.33170000  1.0 0.1305991864
H  H76  1  0.95180000  0.66830000  0.79510000  1.0 0.1305991864
H  H77  1  0.95180000  0.33170000  0.20490000  1.0 0.1305991864
H  H78  1  0.20490000  0.95180000  0.33170000  1.0 0.1305991864
H  H79  1  0.79510000  0.95180000  0.66830000  1.0 0.1305991864
H  H80  1  0.20490000  0.04820000  0.66830000  1.0 0.1305991864
H  H81  1  0.33170000  0.79510000  0.04820000  1.0 0.1305991864
H  H82  1  0.33170000  0.20490000  0.95180000  1.0 0.1305991864
H  H83  1  0.66830000  0.79510000  0.95180000  1.0 0.1305991864
H  H84  1  0.66830000  0.20490000  0.04820000  1.0 0.1305991864
H  H85  1  0.33170000  0.95180000  0.20490000  1.0 0.1305991864
H  H86  1  0.66830000  0.95180000  0.79510000  1.0 0.1305991864
H  H87  1  0.04820000  0.20490000  0.66830000  1.0 0.1305991864
H  H88  1  0.66830000  0.04820000  0.20490000  1.0 0.1305991864
H  H89  1  0.33170000  0.04820000  0.79510000  1.0 0.1305991864
H  H90  1  0.95180000  0.79510000  0.66830000  1.0 0.1305991864
H  H91  1  0.04820000  0.79510000  0.33170000  1.0 0.1305991864
H  H92  1  0.95180000  0.20490000  0.33170000  1.0 0.1305991864
H  H93  1  0.20490000  0.33170000  0.95180000  1.0 0.1305991864
H  H94  1  0.79510000  0.66830000  0.95180000  1.0 0.1305991864
H  H95  1  0.20490000  0.66830000  0.04820000  1.0 0.1305991864
H  H96  1  0.79510000  0.33170000  0.04820000  1.0 0.1305991864
C  C1  1  0.09390000  0.53740000  0.37470000  1.0 0.0446938456
C  C2  1  0.90610000  0.53740000  0.62530000  1.0 0.0446938456
C  C3  1  0.46260000  0.37470000  0.90610000  1.0 0.0446938456
C  C4  1  0.90610000  0.46260000  0.37470000  1.0 0.0446938456
C  C5  1  0.09390000  0.46260000  0.62530000  1.0 0.0446938456
C  C6  1  0.53740000  0.62530000  0.90610000  1.0 0.0446938456
C  C7  1  0.46260000  0.62530000  0.09390000  1.0 0.0446938456
C  C8  1  0.53740000  0.37470000  0.09390000  1.0 0.0446938456
C  C9  1  0.37470000  0.09390000  0.53740000  1.0 0.0446938456
C  C10  1  0.62530000  0.90610000  0.53740000  1.0 0.0446938456
C  C11  1  0.37470000  0.90610000  0.46260000  1.0 0.0446938456
C  C12  1  0.62530000  0.09390000  0.46260000  1.0 0.0446938456
C  C13  1  0.46260000  0.09390000  0.62530000  1.0 0.0446938456
C  C14  1  0.46260000  0.90610000  0.37470000  1.0 0.0446938456
C  C15  1  0.62530000  0.46260000  0.09390000  1.0 0.0446938456
C  C16  1  0.53740000  0.90610000  0.62530000  1.0 0.0446938456
C  C17  1  0.53740000  0.09390000  0.37470000  1.0 0.0446938456
C  C18  1  0.37470000  0.53740000  0.09390000  1.0 0.0446938456
C  C19  1  0.62530000  0.53740000  0.90610000  1.0 0.0446938456
C  C20  1  0.37470000  0.46260000  0.90610000  1.0 0.0446938456
C  C21  1  0.09390000  0.62530000  0.46260000  1.0 0.0446938456
C  C22  1  0.09390000  0.37470000  0.53740000  1.0 0.0446938456
C  C23  1  0.90610000  0.62530000  0.53740000  1.0 0.0446938456
C  C24  1  0.90610000  0.37470000  0.46260000  1.0 0.0446938456
C  C25  1  0.14990000  0.56950000  0.33890000  1.0 -0.1645094151
C  C26  1  0.85010000  0.56950000  0.66110000  1.0 -0.1645094151
C  C27  1  0.43050000  0.33890000  0.85010000  1.0 -0.1645094151
C  C28  1  0.85010000  0.43050000  0.33890000  1.0 -0.1645094151
C  C29  1  0.14990000  0.43050000  0.66110000  1.0 -0.1645094151
C  C30  1  0.56950000  0.66110000  0.85010000  1.0 -0.1645094151
C  C31  1  0.43050000  0.66110000  0.14990000  1.0 -0.1645094151
C  C32  1  0.56950000  0.33890000  0.14990000  1.0 -0.1645094151
C  C33  1  0.33890000  0.14990000  0.56950000  1.0 -0.1645094151
C  C34  1  0.66110000  0.85010000  0.56950000  1.0 -0.1645094151
C  C35  1  0.33890000  0.85010000  0.43050000  1.0 -0.1645094151
C  C36  1  0.66110000  0.14990000  0.43050000  1.0 -0.1645094151
C  C37  1  0.43050000  0.14990000  0.66110000  1.0 -0.1645094151
C  C38  1  0.43050000  0.85010000  0.33890000  1.0 -0.1645094151
C  C39  1  0.66110000  0.43050000  0.14990000  1.0 -0.1645094151
C  C40  1  0.56950000  0.85010000  0.66110000  1.0 -0.1645094151
C  C41  1  0.56950000  0.14990000  0.33890000  1.0 -0.1645094151
C  C42  1  0.33890000  0.56950000  0.14990000  1.0 -0.1645094151
C  C43  1  0.66110000  0.56950000  0.85010000  1.0 -0.1645094151
C  C44  1  0.33890000  0.43050000  0.85010000  1.0 -0.1645094151
C  C45  1  0.14990000  0.66110000  0.43050000  1.0 -0.1645094151
C  C46  1  0.14990000  0.33890000  0.56950000  1.0 -0.1645094151
C  C47  1  0.85010000  0.66110000  0.56950000  1.0 -0.1645094151
C  C48  1  0.85010000  0.33890000  0.43050000  1.0 -0.1645094151
C  C49  1  0.18110000  0.63400000  0.36600000  1.0 0.0701768314
C  C50  1  0.81890000  0.63400000  0.63400000  1.0 0.0701768314
C  C51  1  0.36600000  0.36600000  0.81890000  1.0 0.0701768314
C  C52  1  0.81890000  0.36600000  0.36600000  1.0 0.0701768314
C  C53  1  0.18110000  0.36600000  0.63400000  1.0 0.0701768314
C  C54  1  0.63400000  0.63400000  0.81890000  1.0 0.0701768314
C  C55  1  0.36600000  0.63400000  0.18110000  1.0 0.0701768314
C  C56  1  0.63400000  0.36600000  0.18110000  1.0 0.0701768314
C  C57  1  0.36600000  0.18110000  0.63400000  1.0 0.0701768314
C  C58  1  0.63400000  0.81890000  0.63400000  1.0 0.0701768314
C  C59  1  0.36600000  0.81890000  0.36600000  1.0 0.0701768314
C  C60  1  0.63400000  0.18110000  0.36600000  1.0 0.0701768314
C  C61  1  0.24470000  0.66880000  0.33120000  1.0 0.333267883
C  C62  1  0.75530000  0.66880000  0.66880000  1.0 0.333267883
C  C63  1  0.33120000  0.33120000  0.75530000  1.0 0.333267883
C  C64  1  0.75530000  0.33120000  0.33120000  1.0 0.333267883
C  C65  1  0.24470000  0.33120000  0.66880000  1.0 0.333267883
C  C66  1  0.66880000  0.66880000  0.75530000  1.0 0.333267883
C  C67  1  0.33120000  0.66880000  0.24470000  1.0 0.333267883
C  C68  1  0.66880000  0.33120000  0.24470000  1.0 0.333267883
C  C69  1  0.33120000  0.24470000  0.66880000  1.0 0.333267883
C  C70  1  0.66880000  0.75530000  0.66880000  1.0 0.333267883
C  C71  1  0.33120000  0.75530000  0.33120000  1.0 0.333267883
C  C72  1  0.66880000  0.24470000  0.33120000  1.0 0.333267883
C  C73  1  0.03740000  0.40610000  0.87470000  1.0 0.0446938456
C  C74  1  0.03740000  0.59390000  0.12530000  1.0 0.0446938456
C  C75  1  0.87470000  0.03740000  0.40610000  1.0 0.0446938456
C  C76  1  0.96260000  0.59390000  0.87470000  1.0 0.0446938456
C  C77  1  0.96260000  0.40610000  0.12530000  1.0 0.0446938456
C  C78  1  0.12530000  0.96260000  0.40610000  1.0 0.0446938456
C  C79  1  0.87470000  0.96260000  0.59390000  1.0 0.0446938456
C  C80  1  0.12530000  0.03740000  0.59390000  1.0 0.0446938456
C  C81  1  0.40610000  0.87470000  0.03740000  1.0 0.0446938456
C  C82  1  0.40610000  0.12530000  0.96260000  1.0 0.0446938456
C  C83  1  0.59390000  0.87470000  0.96260000  1.0 0.0446938456
C  C84  1  0.59390000  0.12530000  0.03740000  1.0 0.0446938456
C  C85  1  0.40610000  0.96260000  0.12530000  1.0 0.0446938456
C  C86  1  0.59390000  0.96260000  0.87470000  1.0 0.0446938456
C  C87  1  0.03740000  0.12530000  0.59390000  1.0 0.0446938456
C  C88  1  0.59390000  0.03740000  0.12530000  1.0 0.0446938456
C  C89  1  0.40610000  0.03740000  0.87470000  1.0 0.0446938456
C  C90  1  0.96260000  0.87470000  0.59390000  1.0 0.0446938456
C  C91  1  0.03740000  0.87470000  0.40610000  1.0 0.0446938456
C  C92  1  0.96260000  0.12530000  0.40610000  1.0 0.0446938456
C  C93  1  0.12530000  0.40610000  0.96260000  1.0 0.0446938456
C  C94  1  0.87470000  0.59390000  0.96260000  1.0 0.0446938456
C  C95  1  0.12530000  0.59390000  0.03740000  1.0 0.0446938456
C  C96  1  0.87470000  0.40610000  0.03740000  1.0 0.0446938456
C  C97  1  0.06950000  0.35010000  0.83890000  1.0 -0.1645094151
C  C98  1  0.06950000  0.64990000  0.16110000  1.0 -0.1645094151
C  C99  1  0.83890000  0.06950000  0.35010000  1.0 -0.1645094151
C  C100  1  0.93050000  0.64990000  0.83890000  1.0 -0.1645094151
C  C101  1  0.93050000  0.35010000  0.16110000  1.0 -0.1645094151
C  C102  1  0.16110000  0.93050000  0.35010000  1.0 -0.1645094151
C  C103  1  0.83890000  0.93050000  0.64990000  1.0 -0.1645094151
C  C104  1  0.16110000  0.06950000  0.64990000  1.0 -0.1645094151
C  C105  1  0.35010000  0.83890000  0.06950000  1.0 -0.1645094151
C  C106  1  0.35010000  0.16110000  0.93050000  1.0 -0.1645094151
C  C107  1  0.64990000  0.83890000  0.93050000  1.0 -0.1645094151
C  C108  1  0.64990000  0.16110000  0.06950000  1.0 -0.1645094151
C  C109  1  0.35010000  0.93050000  0.16110000  1.0 -0.1645094151
C  C110  1  0.64990000  0.93050000  0.83890000  1.0 -0.1645094151
C  C111  1  0.06950000  0.16110000  0.64990000  1.0 -0.1645094151
C  C112  1  0.64990000  0.06950000  0.16110000  1.0 -0.1645094151
C  C113  1  0.35010000  0.06950000  0.83890000  1.0 -0.1645094151
C  C114  1  0.93050000  0.83890000  0.64990000  1.0 -0.1645094151
C  C115  1  0.06950000  0.83890000  0.35010000  1.0 -0.1645094151
C  C116  1  0.93050000  0.16110000  0.35010000  1.0 -0.1645094151
C  C117  1  0.16110000  0.35010000  0.93050000  1.0 -0.1645094151
C  C118  1  0.83890000  0.64990000  0.93050000  1.0 -0.1645094151
C  C119  1  0.16110000  0.64990000  0.06950000  1.0 -0.1645094151
C  C120  1  0.83890000  0.35010000  0.06950000  1.0 -0.1645094151
C  C121  1  0.13400000  0.31890000  0.86600000  1.0 0.0701768314
C  C122  1  0.13400000  0.68110000  0.13400000  1.0 0.0701768314
C  C123  1  0.86600000  0.13400000  0.31890000  1.0 0.0701768314
C  C124  1  0.86600000  0.68110000  0.86600000  1.0 0.0701768314
C  C125  1  0.86600000  0.31890000  0.13400000  1.0 0.0701768314
C  C126  1  0.13400000  0.86600000  0.31890000  1.0 0.0701768314
C  C127  1  0.86600000  0.86600000  0.68110000  1.0 0.0701768314
C  C128  1  0.13400000  0.13400000  0.68110000  1.0 0.0701768314
C  C129  1  0.31890000  0.86600000  0.13400000  1.0 0.0701768314
C  C130  1  0.31890000  0.13400000  0.86600000  1.0 0.0701768314
C  C131  1  0.68110000  0.86600000  0.86600000  1.0 0.0701768314
C  C132  1  0.68110000  0.13400000  0.13400000  1.0 0.0701768314
C  C133  1  0.16880000  0.25530000  0.83120000  1.0 0.333267883
C  C134  1  0.16880000  0.74470000  0.16880000  1.0 0.333267883
C  C135  1  0.83120000  0.16880000  0.25530000  1.0 0.333267883
C  C136  1  0.83120000  0.74470000  0.83120000  1.0 0.333267883
C  C137  1  0.83120000  0.25530000  0.16880000  1.0 0.333267883
C  C138  1  0.16880000  0.83120000  0.25530000  1.0 0.333267883
C  C139  1  0.83120000  0.83120000  0.74470000  1.0 0.333267883
C  C140  1  0.16880000  0.16880000  0.74470000  1.0 0.333267883
C  C141  1  0.25530000  0.83120000  0.16880000  1.0 0.333267883
C  C142  1  0.25530000  0.16880000  0.83120000  1.0 0.333267883
C  C143  1  0.74470000  0.83120000  0.83120000  1.0 0.333267883
C  C144  1  0.74470000  0.16880000  0.16880000  1.0 0.333267883
N  N1  1  0.06610000  0.56250000  0.43750000  1.0 -0.2136100525
N  N2  1  0.93390000  0.56250000  0.56250000  1.0 -0.2136100525
N  N3  1  0.43750000  0.43750000  0.93390000  1.0 -0.2136100525
N  N4  1  0.93390000  0.43750000  0.43750000  1.0 -0.2136100525
N  N5  1  0.06610000  0.43750000  0.56250000  1.0 -0.2136100525
N  N6  1  0.56250000  0.56250000  0.93390000  1.0 -0.2136100525
N  N7  1  0.43750000  0.56250000  0.06610000  1.0 -0.2136100525
N  N8  1  0.56250000  0.43750000  0.06610000  1.0 -0.2136100525
N  N9  1  0.43750000  0.06610000  0.56250000  1.0 -0.2136100525
N  N10  1  0.56250000  0.93390000  0.56250000  1.0 -0.2136100525
N  N11  1  0.43750000  0.93390000  0.43750000  1.0 -0.2136100525
N  N12  1  0.56250000  0.06610000  0.43750000  1.0 -0.2136100525
N  N13  1  0.27110000  0.63740000  0.27110000  1.0 -0.3992549027
N  N14  1  0.72890000  0.63740000  0.72890000  1.0 -0.3992549027
N  N15  1  0.36260000  0.27110000  0.72890000  1.0 -0.3992549027
N  N16  1  0.72890000  0.36260000  0.27110000  1.0 -0.3992549027
N  N17  1  0.27110000  0.36260000  0.72890000  1.0 -0.3992549027
N  N18  1  0.63740000  0.72890000  0.72890000  1.0 -0.3992549027
N  N19  1  0.36260000  0.72890000  0.27110000  1.0 -0.3992549027
N  N20  1  0.63740000  0.27110000  0.27110000  1.0 -0.3992549027
N  N21  1  0.27110000  0.27110000  0.63740000  1.0 -0.3992549027
N  N22  1  0.72890000  0.72890000  0.63740000  1.0 -0.3992549027
N  N23  1  0.27110000  0.72890000  0.36260000  1.0 -0.3992549027
N  N24  1  0.72890000  0.27110000  0.36260000  1.0 -0.3992549027
N  N25  1  0.06250000  0.43390000  0.93750000  1.0 -0.2136100525
N  N26  1  0.06250000  0.56610000  0.06250000  1.0 -0.2136100525
N  N27  1  0.93750000  0.06250000  0.43390000  1.0 -0.2136100525
N  N28  1  0.93750000  0.56610000  0.93750000  1.0 -0.2136100525
N  N29  1  0.93750000  0.43390000  0.06250000  1.0 -0.2136100525
N  N30  1  0.06250000  0.93750000  0.43390000  1.0 -0.2136100525
N  N31  1  0.93750000  0.93750000  0.56610000  1.0 -0.2136100525
N  N32  1  0.06250000  0.06250000  0.56610000  1.0 -0.2136100525
N  N33  1  0.43390000  0.93750000  0.06250000  1.0 -0.2136100525
N  N34  1  0.43390000  0.06250000  0.93750000  1.0 -0.2136100525
N  N35  1  0.56610000  0.93750000  0.93750000  1.0 -0.2136100525
N  N36  1  0.56610000  0.06250000  0.06250000  1.0 -0.2136100525
N  N37  1  0.13740000  0.22890000  0.77110000  1.0 -0.3992549027
N  N38  1  0.13740000  0.77110000  0.22890000  1.0 -0.3992549027
N  N39  1  0.77110000  0.13740000  0.22890000  1.0 -0.3992549027
N  N40  1  0.86260000  0.77110000  0.77110000  1.0 -0.3992549027
N  N41  1  0.86260000  0.22890000  0.22890000  1.0 -0.3992549027
N  N42  1  0.22890000  0.86260000  0.22890000  1.0 -0.3992549027
N  N43  1  0.77110000  0.86260000  0.77110000  1.0 -0.3992549027
N  N44  1  0.22890000  0.13740000  0.77110000  1.0 -0.3992549027
N  N45  1  0.22890000  0.77110000  0.13740000  1.0 -0.3992549027
N  N46  1  0.22890000  0.22890000  0.86260000  1.0 -0.3992549027
N  N47  1  0.77110000  0.77110000  0.86260000  1.0 -0.3992549027
N  N48  1  0.77110000  0.22890000  0.13740000  1.0 -0.3992549027
Cl  Cl1  1  0.50000000  0.50000000  0.50000000  1.0 0.2502702033
Cl  Cl2  1  0.00000000  0.00000000  0.00000000  1.0 0.2502702033
Cl  Cl3  1  0.00000000  0.00000000  0.25450000  1.0 -0.182588804
Cl  Cl4  1  0.50000000  0.50000000  0.75450000  1.0 -0.182588804
Cl  Cl5  1  0.50000000  0.50000000  0.24550000  1.0 -0.182588804
Cl  Cl6  1  0.00000000  0.00000000  0.74550000  1.0 -0.182588804
Cl  Cl7  1  0.24550000  0.50000000  0.50000000  1.0 -0.182588804
Cl  Cl8  1  0.00000000  0.25450000  0.00000000  1.0 -0.182588804
Cl  Cl9  1  0.50000000  0.75450000  0.50000000  1.0 -0.182588804
Cl  Cl10  1  0.75450000  0.50000000  0.50000000  1.0 -0.182588804
Cl  Cl11  1  0.25450000  0.00000000  0.00000000  1.0 -0.182588804
Cl  Cl12  1  0.00000000  0.74550000  0.00000000  1.0 -0.182588804
Cl  Cl13  1  0.50000000  0.24550000  0.50000000  1.0 -0.182588804
Cl  Cl14  1  0.74550000  0.00000000  0.00000000  1.0 -0.182588804
