# DDEC6 charges by PACMAN v1.1 (https://github.com/mtap-research/PACMAN-charge/)
data_TONKIR_ASR_pacman
_symmetry_space_group_name_H-M   'P 1'
_cell_length_a   15.25970000
_cell_length_b   15.25970000
_cell_length_c   19.09170000
_cell_angle_alpha   90.00000000
_cell_angle_beta   90.00000000
_cell_angle_gamma   90.00000000
_symmetry_Int_Tables_number   1
_chemical_formula_structural   CoH36C24NO4
_chemical_formula_sum   'Co8 H288 C192 N8 O32'
_cell_volume   4445.66355703
_cell_formula_units_Z   8
loop_
 _symmetry_equiv_pos_site_id
 _symmetry_equiv_pos_as_xyz
  1  'x, y, z'
loop_
 _atom_site_type_symbol
 _atom_site_label
 _atom_site_symmetry_multiplicity
 _atom_site_fract_x
 _atom_site_fract_y
 _atom_site_fract_z
 _atom_site_occupancy
 _atom_site_charge
Co  Co1  1  0.50000000  0.50000000  0.82118000  1.0 0.6685961808
Co  Co2  1  0.00000000  0.00000000  0.32118000  1.0 0.6632212724
Co  Co3  1  0.00000000  0.00000000  0.67882000  1.0 0.6685961808
Co  Co4  1  0.50000000  0.50000000  0.17882000  1.0 0.6685961808
Co  Co5  1  0.50000000  0.50000000  0.67873000  1.0 0.6685961808
Co  Co6  1  0.00000000  0.00000000  0.17873000  1.0 0.6685961808
Co  Co7  1  0.00000000  0.00000000  0.82127000  1.0 0.6685961808
Co  Co8  1  0.50000000  0.50000000  0.32127000  1.0 0.6685961808
H  H1  1  0.50000000  0.36950000  0.94100000  1.0 0.0600441566
H  H2  1  0.13050000  0.00000000  0.44100000  1.0 0.0600441566
H  H3  1  0.50000000  0.63050000  0.94100000  1.0 0.0600441566
H  H4  1  0.86950000  0.00000000  0.44100000  1.0 0.0600441566
H  H5  1  0.00000000  0.86950000  0.55900000  1.0 0.0600441566
H  H6  1  0.36950000  0.50000000  0.05900000  1.0 0.0600441566
H  H7  1  0.00000000  0.13050000  0.55900000  1.0 0.0600441566
H  H8  1  0.63050000  0.50000000  0.05900000  1.0 0.0600441566
H  H9  1  0.59110000  0.80410000  0.70160000  1.0 0.0600441566
H  H10  1  0.69590000  0.09110000  0.20160000  1.0 0.0600441566
H  H11  1  0.40890000  0.19590000  0.70160000  1.0 0.0600441566
H  H12  1  0.30410000  0.90890000  0.20160000  1.0 0.0600441566
H  H13  1  0.90890000  0.30410000  0.79840000  1.0 0.0600441566
H  H14  1  0.80410000  0.59110000  0.29840000  1.0 0.0600441566
H  H15  1  0.09110000  0.69590000  0.79840000  1.0 0.0600441566
H  H16  1  0.19590000  0.40890000  0.29840000  1.0 0.0600441566
H  H17  1  0.65240000  0.75360000  0.64930000  1.0 0.1009995511
H  H18  1  0.74640000  0.15240000  0.14930000  1.0 0.1009995511
H  H19  1  0.34760000  0.24640000  0.64930000  1.0 0.1009995511
H  H20  1  0.25360000  0.84760000  0.14930000  1.0 0.1009995511
H  H21  1  0.84760000  0.25360000  0.85070000  1.0 0.1009995511
H  H22  1  0.75360000  0.65240000  0.35070000  1.0 0.1009995511
H  H23  1  0.15240000  0.74640000  0.85070000  1.0 0.1009995511
H  H24  1  0.24640000  0.34760000  0.35070000  1.0 0.1009995511
H  H25  1  0.77540000  0.63070000  0.77270000  1.0 0.1088961127
H  H26  1  0.86930000  0.27540000  0.27270000  1.0 0.1088961127
H  H27  1  0.22460000  0.36930000  0.77270000  1.0 0.1088961127
H  H28  1  0.13070000  0.72460000  0.27270000  1.0 0.1088961127
H  H29  1  0.72460000  0.13070000  0.72730000  1.0 0.1088961127
H  H30  1  0.63070000  0.77540000  0.22730000  1.0 0.1088961127
H  H31  1  0.27540000  0.86930000  0.72730000  1.0 0.1088961127
H  H32  1  0.36930000  0.22460000  0.22730000  1.0 0.1088961127
H  H33  1  0.75450000  0.63500000  0.69210000  1.0 0.0600441566
H  H34  1  0.86500000  0.25450000  0.19210000  1.0 0.0600441566
H  H35  1  0.24550000  0.36500000  0.69210000  1.0 0.0600441566
H  H36  1  0.13500000  0.74550000  0.19210000  1.0 0.0600441566
H  H37  1  0.74550000  0.13500000  0.80790000  1.0 0.0600441566
H  H38  1  0.63500000  0.75450000  0.30790000  1.0 0.0600441566
H  H39  1  0.25450000  0.86500000  0.80790000  1.0 0.0600441566
H  H40  1  0.36500000  0.24550000  0.30790000  1.0 0.0600441566
H  H41  1  0.68360000  0.70790000  0.85820000  1.0 0.0502686812
H  H42  1  0.79210000  0.18360000  0.35820000  1.0 0.0502686812
H  H43  1  0.31640000  0.29210000  0.85820000  1.0 0.0502686812
H  H44  1  0.20790000  0.81640000  0.35820000  1.0 0.0502686812
H  H45  1  0.81640000  0.20790000  0.64180000  1.0 0.0502686812
H  H46  1  0.70790000  0.68360000  0.14180000  1.0 0.0502686812
H  H47  1  0.18360000  0.79210000  0.64180000  1.0 0.0502686812
H  H48  1  0.29210000  0.31640000  0.14180000  1.0 0.0502686812
H  H49  1  0.61880000  0.78240000  0.83420000  1.0 0.1009995511
H  H50  1  0.71760000  0.11880000  0.33420000  1.0 0.1009995511
H  H51  1  0.38120000  0.21760000  0.83420000  1.0 0.1009995511
H  H52  1  0.28240000  0.88120000  0.33420000  1.0 0.1009995511
H  H53  1  0.88120000  0.28240000  0.66580000  1.0 0.1009995511
H  H54  1  0.78240000  0.61880000  0.16580000  1.0 0.1009995511
H  H55  1  0.11880000  0.71760000  0.66580000  1.0 0.1009995511
H  H56  1  0.21760000  0.38120000  0.16580000  1.0 0.1009995511
H  H57  1  0.74220000  0.86760000  0.65420000  1.0 0.0600441566
H  H58  1  0.63240000  0.24220000  0.15420000  1.0 0.0600441566
H  H59  1  0.25780000  0.13240000  0.65420000  1.0 0.0600441566
H  H60  1  0.36760000  0.75780000  0.15420000  1.0 0.0600441566
H  H61  1  0.75780000  0.36760000  0.84580000  1.0 0.0600441566
H  H62  1  0.86760000  0.74220000  0.34580000  1.0 0.0600441566
H  H63  1  0.24220000  0.63240000  0.84580000  1.0 0.0600441566
H  H64  1  0.13240000  0.25780000  0.34580000  1.0 0.0600441566
H  H65  1  0.69000000  0.90870000  0.71700000  1.0 0.0708579922
H  H66  1  0.59130000  0.19000000  0.21700000  1.0 0.0708579922
H  H67  1  0.31000000  0.09130000  0.71700000  1.0 0.0708579922
H  H68  1  0.40870000  0.81000000  0.21700000  1.0 0.0708579922
H  H69  1  0.81000000  0.40870000  0.78300000  1.0 0.0708579922
H  H70  1  0.90870000  0.69000000  0.28300000  1.0 0.0708579922
H  H71  1  0.19000000  0.59130000  0.78300000  1.0 0.0708579922
H  H72  1  0.09130000  0.31000000  0.28300000  1.0 0.0708579922
H  H73  1  0.87810000  0.72820000  0.75220000  1.0 0.0600441566
H  H74  1  0.77180000  0.37810000  0.25220000  1.0 0.0600441566
H  H75  1  0.12190000  0.27180000  0.75220000  1.0 0.0600441566
H  H76  1  0.22820000  0.62190000  0.25220000  1.0 0.0600441566
H  H77  1  0.62190000  0.22820000  0.74780000  1.0 0.0600441566
H  H78  1  0.72820000  0.87810000  0.24780000  1.0 0.0600441566
H  H79  1  0.37810000  0.77180000  0.74780000  1.0 0.0600441566
H  H80  1  0.27180000  0.12190000  0.24780000  1.0 0.0600441566
H  H81  1  0.84180000  0.74750000  0.67700000  1.0 0.0600441566
H  H82  1  0.75250000  0.34180000  0.17700000  1.0 0.0600441566
H  H83  1  0.15820000  0.25250000  0.67700000  1.0 0.0600441566
H  H84  1  0.24750000  0.65820000  0.17700000  1.0 0.0600441566
H  H85  1  0.65820000  0.24750000  0.82300000  1.0 0.0600441566
H  H86  1  0.74750000  0.84180000  0.32300000  1.0 0.0600441566
H  H87  1  0.34180000  0.75250000  0.82300000  1.0 0.0600441566
H  H88  1  0.25250000  0.15820000  0.32300000  1.0 0.0600441566
H  H89  1  0.72830000  0.87540000  0.83800000  1.0 0.0600441566
H  H90  1  0.62460000  0.22830000  0.33800000  1.0 0.0600441566
H  H91  1  0.27170000  0.12460000  0.83800000  1.0 0.0600441566
H  H92  1  0.37540000  0.77170000  0.33800000  1.0 0.0600441566
H  H93  1  0.77170000  0.37540000  0.66200000  1.0 0.0600441566
H  H94  1  0.87540000  0.72830000  0.16200000  1.0 0.0600441566
H  H95  1  0.22830000  0.62460000  0.66200000  1.0 0.0600441566
H  H96  1  0.12460000  0.27170000  0.16200000  1.0 0.0600441566
H  H97  1  0.79400000  0.79970000  0.85560000  1.0 0.0600441566
H  H98  1  0.70030000  0.29400000  0.35560000  1.0 0.0600441566
H  H99  1  0.20600000  0.20030000  0.85560000  1.0 0.0600441566
H  H100  1  0.29970000  0.70600000  0.35560000  1.0 0.0600441566
H  H101  1  0.70600000  0.29970000  0.64440000  1.0 0.0600441566
H  H102  1  0.79970000  0.79400000  0.14440000  1.0 0.0600441566
H  H103  1  0.29400000  0.70030000  0.64440000  1.0 0.0600441566
H  H104  1  0.20030000  0.20600000  0.14440000  1.0 0.0600441566
H  H105  1  0.40650000  0.41080000  0.94940000  1.0 0.1009995511
H  H106  1  0.08920000  0.90650000  0.44940000  1.0 0.1009995511
H  H107  1  0.59350000  0.58920000  0.94940000  1.0 0.1009995511
H  H108  1  0.91080000  0.09350000  0.44940000  1.0 0.1009995511
H  H109  1  0.09350000  0.91080000  0.55060000  1.0 0.1009995511
H  H110  1  0.41080000  0.40650000  0.05060000  1.0 0.1009995511
H  H111  1  0.90650000  0.08920000  0.55060000  1.0 0.1009995511
H  H112  1  0.58920000  0.59350000  0.05060000  1.0 0.1009995511
H  H113  1  0.38240000  0.56570000  0.93690000  1.0 0.0708579922
H  H114  1  0.93430000  0.88240000  0.43690000  1.0 0.0708579922
H  H115  1  0.61760000  0.43430000  0.93690000  1.0 0.0708579922
H  H116  1  0.06570000  0.11760000  0.43690000  1.0 0.0708579922
H  H117  1  0.11760000  0.06570000  0.56310000  1.0 0.0708579922
H  H118  1  0.56570000  0.38240000  0.06310000  1.0 0.0708579922
H  H119  1  0.88240000  0.93430000  0.56310000  1.0 0.0708579922
H  H120  1  0.43430000  0.61760000  0.06310000  1.0 0.0708579922
H  H121  1  0.53690000  0.37180000  0.94830000  1.0 0.0600441566
H  H122  1  0.12820000  0.03690000  0.44830000  1.0 0.0600441566
H  H123  1  0.46310000  0.62820000  0.94830000  1.0 0.0600441566
H  H124  1  0.87180000  0.96310000  0.44830000  1.0 0.0600441566
H  H125  1  0.96310000  0.87180000  0.55170000  1.0 0.0600441566
H  H126  1  0.37180000  0.53690000  0.05170000  1.0 0.0600441566
H  H127  1  0.03690000  0.12820000  0.55170000  1.0 0.0600441566
H  H128  1  0.62820000  0.46310000  0.05170000  1.0 0.0600441566
H  H129  1  0.39540000  0.42320000  0.93830000  1.0 0.0915937336
H  H130  1  0.07680000  0.89540000  0.43830000  1.0 0.0915937336
H  H131  1  0.60460000  0.57680000  0.93830000  1.0 0.0915937336
H  H132  1  0.92320000  0.10460000  0.43830000  1.0 0.0915937336
H  H133  1  0.10460000  0.92320000  0.56170000  1.0 0.0915937336
H  H134  1  0.42320000  0.39540000  0.06170000  1.0 0.0915937336
H  H135  1  0.89540000  0.07680000  0.56170000  1.0 0.0915937336
H  H136  1  0.57680000  0.60460000  0.06170000  1.0 0.0915937336
H  H137  1  0.37330000  0.52310000  0.94680000  1.0 0.0600441566
H  H138  1  0.97690000  0.87330000  0.44680000  1.0 0.0600441566
H  H139  1  0.62670000  0.47690000  0.94680000  1.0 0.0600441566
H  H140  1  0.02310000  0.12670000  0.44680000  1.0 0.0600441566
H  H141  1  0.12670000  0.02310000  0.55320000  1.0 0.0600441566
H  H142  1  0.52310000  0.37330000  0.05320000  1.0 0.0600441566
H  H143  1  0.87330000  0.97690000  0.55320000  1.0 0.0600441566
H  H144  1  0.47690000  0.62670000  0.05320000  1.0 0.0600441566
H  H145  1  0.39410000  0.57740000  0.56200000  1.0 0.0915937336
H  H146  1  0.92260000  0.89410000  0.06200000  1.0 0.0915937336
H  H147  1  0.60590000  0.42260000  0.56200000  1.0 0.0915937336
H  H148  1  0.07740000  0.10590000  0.06200000  1.0 0.0915937336
H  H149  1  0.10590000  0.07740000  0.93800000  1.0 0.0915937336
H  H150  1  0.57740000  0.39410000  0.43800000  1.0 0.0915937336
H  H151  1  0.89410000  0.92260000  0.93800000  1.0 0.0915937336
H  H152  1  0.42260000  0.60590000  0.43800000  1.0 0.0915937336
H  H153  1  0.37210000  0.47740000  0.55290000  1.0 0.0600441566
H  H154  1  0.02260000  0.87210000  0.05290000  1.0 0.0600441566
H  H155  1  0.62790000  0.52260000  0.55290000  1.0 0.0600441566
H  H156  1  0.97740000  0.12790000  0.05290000  1.0 0.0600441566
H  H157  1  0.12790000  0.97740000  0.94710000  1.0 0.0600441566
H  H158  1  0.47740000  0.37210000  0.44710000  1.0 0.0600441566
H  H159  1  0.87210000  0.02260000  0.94710000  1.0 0.0600441566
H  H160  1  0.52260000  0.62790000  0.44710000  1.0 0.0600441566
H  H161  1  0.38390000  0.43120000  0.56430000  1.0 0.0708579922
H  H162  1  0.06880000  0.88390000  0.06430000  1.0 0.0779956194
H  H163  1  0.61610000  0.56880000  0.56430000  1.0 0.0708579922
H  H164  1  0.93120000  0.11610000  0.06430000  1.0 0.0779956194
H  H165  1  0.11610000  0.93120000  0.93570000  1.0 0.0708579922
H  H166  1  0.43120000  0.38390000  0.43570000  1.0 0.0708579922
H  H167  1  0.88390000  0.06880000  0.93570000  1.0 0.0708579922
H  H168  1  0.56880000  0.61610000  0.43570000  1.0 0.0779956194
H  H169  1  0.53400000  0.62880000  0.55080000  1.0 0.0600441566
H  H170  1  0.87120000  0.03400000  0.05080000  1.0 0.0600441566
H  H171  1  0.46600000  0.37120000  0.55080000  1.0 0.0600441566
H  H172  1  0.12880000  0.96600000  0.05080000  1.0 0.0600441566
H  H173  1  0.96600000  0.12880000  0.94920000  1.0 0.0600441566
H  H174  1  0.62880000  0.53400000  0.44920000  1.0 0.0600441566
H  H175  1  0.03400000  0.87120000  0.94920000  1.0 0.0600441566
H  H176  1  0.37120000  0.46600000  0.44920000  1.0 0.0600441566
H  H177  1  0.49770000  0.62890000  0.56170000  1.0 0.0600441566
H  H178  1  0.87110000  0.99770000  0.06170000  1.0 0.0600441566
H  H179  1  0.50230000  0.37110000  0.56170000  1.0 0.0600441566
H  H180  1  0.12890000  0.00230000  0.06170000  1.0 0.0600441566
H  H181  1  0.00230000  0.12890000  0.93830000  1.0 0.0600441566
H  H182  1  0.62890000  0.49770000  0.43830000  1.0 0.0600441566
H  H183  1  0.99770000  0.87110000  0.93830000  1.0 0.0600441566
H  H184  1  0.37110000  0.50230000  0.43830000  1.0 0.0600441566
H  H185  1  0.40530000  0.58560000  0.55230000  1.0 0.1088961127
H  H186  1  0.91440000  0.90530000  0.05230000  1.0 0.1088961127
H  H187  1  0.59470000  0.41440000  0.55230000  1.0 0.1088961127
H  H188  1  0.08560000  0.09470000  0.05230000  1.0 0.1088961127
H  H189  1  0.09470000  0.08560000  0.94770000  1.0 0.1088961127
H  H190  1  0.58560000  0.40530000  0.44770000  1.0 0.1088961127
H  H191  1  0.90530000  0.91440000  0.94770000  1.0 0.1088961127
H  H192  1  0.41440000  0.59470000  0.44770000  1.0 0.1088961127
H  H193  1  0.27050000  0.35080000  0.35700000  1.0 0.0915937336
H  H194  1  0.14920000  0.77050000  0.85700000  1.0 0.0915937336
H  H195  1  0.72950000  0.64920000  0.35700000  1.0 0.0915937336
H  H196  1  0.85080000  0.22950000  0.85700000  1.0 0.0915937336
H  H197  1  0.22950000  0.85080000  0.14300000  1.0 0.0779956194
H  H198  1  0.35080000  0.27050000  0.64300000  1.0 0.0915937336
H  H199  1  0.77050000  0.14920000  0.14300000  1.0 0.0915937336
H  H200  1  0.64920000  0.72950000  0.64300000  1.0 0.0915937336
H  H201  1  0.31460000  0.25920000  0.34240000  1.0 0.0395524501
H  H202  1  0.24080000  0.81460000  0.84240000  1.0 0.0395524501
H  H203  1  0.68540000  0.74080000  0.34240000  1.0 0.0395524501
H  H204  1  0.75920000  0.18540000  0.84240000  1.0 0.0395524501
H  H205  1  0.18540000  0.75920000  0.15760000  1.0 0.0395524501
H  H206  1  0.25920000  0.31460000  0.65760000  1.0 0.0395524501
H  H207  1  0.81460000  0.24080000  0.15760000  1.0 0.0395524501
H  H208  1  0.74080000  0.68540000  0.65760000  1.0 0.0395524501
H  H209  1  0.37810000  0.22960000  0.22220000  1.0 0.1009995511
H  H210  1  0.27040000  0.87810000  0.72220000  1.0 0.1009995511
H  H211  1  0.62190000  0.77040000  0.22220000  1.0 0.1009995511
H  H212  1  0.72960000  0.12190000  0.72220000  1.0 0.1009995511
H  H213  1  0.12190000  0.72960000  0.27780000  1.0 0.1009995511
H  H214  1  0.22960000  0.37810000  0.77780000  1.0 0.1009995511
H  H215  1  0.87810000  0.27040000  0.27780000  1.0 0.1009995511
H  H216  1  0.77040000  0.62190000  0.77780000  1.0 0.1009995511
H  H217  1  0.31470000  0.25590000  0.16060000  1.0 0.0395524501
H  H218  1  0.24410000  0.81470000  0.66060000  1.0 0.0395524501
H  H219  1  0.68530000  0.74410000  0.16060000  1.0 0.0395524501
H  H220  1  0.75590000  0.18530000  0.66060000  1.0 0.0395524501
H  H221  1  0.18530000  0.75590000  0.33940000  1.0 0.0395524501
H  H222  1  0.25590000  0.31470000  0.83940000  1.0 0.0395524501
H  H223  1  0.81470000  0.24410000  0.33940000  1.0 0.0395524501
H  H224  1  0.74410000  0.68530000  0.83940000  1.0 0.0395524501
H  H225  1  0.22120000  0.40000000  0.17920000  1.0 0.0915937336
H  H226  1  0.10000000  0.72120000  0.67920000  1.0 0.0915937336
H  H227  1  0.77880000  0.60000000  0.17920000  1.0 0.0915937336
H  H228  1  0.90000000  0.27880000  0.67920000  1.0 0.0915937336
H  H229  1  0.27880000  0.90000000  0.32080000  1.0 0.0915937336
H  H230  1  0.40000000  0.22120000  0.82080000  1.0 0.0915937336
H  H231  1  0.72120000  0.10000000  0.32080000  1.0 0.0915937336
H  H232  1  0.60000000  0.77880000  0.82080000  1.0 0.0915937336
H  H233  1  0.17740000  0.40010000  0.25380000  1.0 0.0502686812
H  H234  1  0.09990000  0.67740000  0.75380000  1.0 0.0502686812
H  H235  1  0.82260000  0.59990000  0.25380000  1.0 0.0502686812
H  H236  1  0.90010000  0.32260000  0.75380000  1.0 0.0502686812
H  H237  1  0.32260000  0.90010000  0.24620000  1.0 0.0502686812
H  H238  1  0.40010000  0.17740000  0.74620000  1.0 0.0502686812
H  H239  1  0.67740000  0.09990000  0.24620000  1.0 0.0502686812
H  H240  1  0.59990000  0.82260000  0.74620000  1.0 0.0502686812
H  H241  1  0.17260000  0.21300000  0.35990000  1.0 0.0600441566
H  H242  1  0.28700000  0.67260000  0.85990000  1.0 0.0600441566
H  H243  1  0.82740000  0.78700000  0.35990000  1.0 0.0600441566
H  H244  1  0.71300000  0.32740000  0.85990000  1.0 0.0600441566
H  H245  1  0.32740000  0.71300000  0.14010000  1.0 0.0600441566
H  H246  1  0.21300000  0.17260000  0.64010000  1.0 0.0600441566
H  H247  1  0.67260000  0.28700000  0.14010000  1.0 0.0600441566
H  H248  1  0.78700000  0.82740000  0.64010000  1.0 0.0600441566
H  H249  1  0.13260000  0.30020000  0.32950000  1.0 0.0502686812
H  H250  1  0.19980000  0.63260000  0.82950000  1.0 0.0502686812
H  H251  1  0.86740000  0.69980000  0.32950000  1.0 0.0502686812
H  H252  1  0.80020000  0.36740000  0.82950000  1.0 0.0502686812
H  H253  1  0.36740000  0.80020000  0.17050000  1.0 0.0502686812
H  H254  1  0.30020000  0.13260000  0.67050000  1.0 0.0502686812
H  H255  1  0.63260000  0.19980000  0.17050000  1.0 0.0502686812
H  H256  1  0.69980000  0.86740000  0.67050000  1.0 0.0502686812
H  H257  1  0.13060000  0.24670000  0.80650000  1.0 0.0600441566
H  H258  1  0.25330000  0.63060000  0.30650000  1.0 0.0600441566
H  H259  1  0.86940000  0.75330000  0.80650000  1.0 0.0600441566
H  H260  1  0.74670000  0.36940000  0.30650000  1.0 0.0600441566
H  H261  1  0.36940000  0.74670000  0.69350000  1.0 0.0600441566
H  H262  1  0.24670000  0.13060000  0.19350000  1.0 0.0600441566
H  H263  1  0.63060000  0.25330000  0.69350000  1.0 0.0600441566
H  H264  1  0.75330000  0.86940000  0.19350000  1.0 0.0600441566
H  H265  1  0.13900000  0.27820000  0.72830000  1.0 0.0600441566
H  H266  1  0.22180000  0.63900000  0.22830000  1.0 0.0600441566
H  H267  1  0.86100000  0.72180000  0.72830000  1.0 0.0600441566
H  H268  1  0.77820000  0.36100000  0.22830000  1.0 0.0600441566
H  H269  1  0.36100000  0.77820000  0.77170000  1.0 0.0600441566
H  H270  1  0.27820000  0.13900000  0.27170000  1.0 0.0600441566
H  H271  1  0.63900000  0.22180000  0.77170000  1.0 0.0600441566
H  H272  1  0.72180000  0.86100000  0.27170000  1.0 0.0600441566
H  H273  1  0.08820000  0.30140000  0.19900000  1.0 0.0600441566
H  H274  1  0.19860000  0.58820000  0.69900000  1.0 0.0600441566
H  H275  1  0.91180000  0.69860000  0.19900000  1.0 0.0600441566
H  H276  1  0.80140000  0.41180000  0.69900000  1.0 0.0600441566
H  H277  1  0.41180000  0.80140000  0.30100000  1.0 0.0600441566
H  H278  1  0.30140000  0.08820000  0.80100000  1.0 0.0600441566
H  H279  1  0.58820000  0.19860000  0.30100000  1.0 0.0600441566
H  H280  1  0.69860000  0.91180000  0.80100000  1.0 0.0600441566
H  H281  1  0.16450000  0.26570000  0.15110000  1.0 0.0502686812
H  H282  1  0.23430000  0.66450000  0.65110000  1.0 0.0502686812
H  H283  1  0.83550000  0.73430000  0.15110000  1.0 0.0502686812
H  H284  1  0.76570000  0.33550000  0.65110000  1.0 0.0502686812
H  H285  1  0.33550000  0.76570000  0.34890000  1.0 0.0502686812
H  H286  1  0.26570000  0.16450000  0.84890000  1.0 0.0502686812
H  H287  1  0.66450000  0.23430000  0.34890000  1.0 0.0502686812
H  H288  1  0.73430000  0.83550000  0.84890000  1.0 0.0502686812
C  C1  1  0.60090000  0.63600000  0.74930000  1.0 0.2199336945
C  C2  1  0.86400000  0.10090000  0.24930000  1.0 0.2253135766
C  C3  1  0.39910000  0.36400000  0.74930000  1.0 0.2199336945
C  C4  1  0.13600000  0.89910000  0.24930000  1.0 0.2199336945
C  C5  1  0.89910000  0.13600000  0.75070000  1.0 0.2253135766
C  C6  1  0.63600000  0.60090000  0.25070000  1.0 0.2253135766
C  C7  1  0.10090000  0.86400000  0.75070000  1.0 0.2199336945
C  C8  1  0.36400000  0.39910000  0.25070000  1.0 0.2199336945
C  C9  1  0.86370000  0.89800000  0.75070000  1.0 0.2199336945
C  C10  1  0.60200000  0.36370000  0.25070000  1.0 0.2199336945
C  C11  1  0.13630000  0.10200000  0.75070000  1.0 0.213931876
C  C12  1  0.39800000  0.63630000  0.25070000  1.0 0.213931876
C  C13  1  0.63630000  0.39800000  0.74930000  1.0 0.2199336945
C  C14  1  0.89800000  0.86370000  0.24930000  1.0 0.2199336945
C  C15  1  0.36370000  0.60200000  0.74930000  1.0 0.213931876
C  C16  1  0.10200000  0.13630000  0.24930000  1.0 0.213931876
C  C17  1  0.46780000  0.41780000  0.96160000  1.0 -0.0887468184
C  C18  1  0.08220000  0.96780000  0.46160000  1.0 -0.0887468184
C  C19  1  0.53220000  0.58220000  0.96160000  1.0 -0.0887468184
C  C20  1  0.91780000  0.03220000  0.46160000  1.0 -0.0887468184
C  C21  1  0.03220000  0.91780000  0.53840000  1.0 -0.0887468184
C  C22  1  0.41780000  0.46780000  0.03840000  1.0 -0.0887468184
C  C23  1  0.96780000  0.08220000  0.53840000  1.0 -0.0887468184
C  C24  1  0.58220000  0.53220000  0.03840000  1.0 -0.0887468184
C  C25  1  0.43920000  0.57090000  0.95940000  1.0 -0.1173250386
C  C26  1  0.92910000  0.93920000  0.45940000  1.0 -0.1173250386
C  C27  1  0.56080000  0.42910000  0.95940000  1.0 -0.1173250386
C  C28  1  0.07090000  0.06080000  0.45940000  1.0 -0.1173250386
C  C29  1  0.06080000  0.07090000  0.54060000  1.0 -0.1173250386
C  C30  1  0.57090000  0.43920000  0.04060000  1.0 -0.1173250386
C  C31  1  0.93920000  0.92910000  0.54060000  1.0 -0.1173250386
C  C32  1  0.42910000  0.56080000  0.04060000  1.0 -0.1173250386
C  C33  1  0.58510000  0.52230000  0.95930000  1.0 -0.1173250386
C  C34  1  0.97770000  0.08510000  0.45930000  1.0 -0.1173250386
C  C35  1  0.41490000  0.47770000  0.95930000  1.0 -0.1173250386
C  C36  1  0.02230000  0.91490000  0.45930000  1.0 -0.1173250386
C  C37  1  0.91490000  0.02230000  0.54070000  1.0 -0.1173250386
C  C38  1  0.52230000  0.58510000  0.04070000  1.0 -0.1173250386
C  C39  1  0.08510000  0.97770000  0.54070000  1.0 -0.1173250386
C  C40  1  0.47770000  0.41490000  0.04070000  1.0 -0.1173250386
C  C41  1  0.58610000  0.47710000  0.54110000  1.0 -0.1117106586
C  C42  1  0.02290000  0.08610000  0.04110000  1.0 -0.1117106586
C  C43  1  0.41390000  0.52290000  0.54110000  1.0 -0.1117106586
C  C44  1  0.97710000  0.91390000  0.04110000  1.0 -0.1117106586
C  C45  1  0.91390000  0.97710000  0.95890000  1.0 -0.1117106586
C  C46  1  0.47710000  0.58610000  0.45890000  1.0 -0.1117106586
C  C47  1  0.08610000  0.02290000  0.95890000  1.0 -0.1117106586
C  C48  1  0.52290000  0.41390000  0.45890000  1.0 -0.1117106586
C  C49  1  0.44040000  0.42810000  0.54110000  1.0 -0.1173250386
C  C50  1  0.07190000  0.94040000  0.04110000  1.0 -0.1173250386
C  C51  1  0.55960000  0.57190000  0.54110000  1.0 -0.1173250386
C  C52  1  0.92810000  0.05960000  0.04110000  1.0 -0.1173250386
C  C53  1  0.05960000  0.92810000  0.95890000  1.0 -0.1173250386
C  C54  1  0.42810000  0.44040000  0.45890000  1.0 -0.1173250386
C  C55  1  0.94040000  0.07190000  0.95890000  1.0 -0.1173250386
C  C56  1  0.57190000  0.55960000  0.45890000  1.0 -0.1173250386
C  C57  1  0.46690000  0.58020000  0.54030000  1.0 -0.0812059387
C  C58  1  0.91980000  0.96690000  0.04030000  1.0 -0.0812059387
C  C59  1  0.53310000  0.41980000  0.54030000  1.0 -0.0812059387
C  C60  1  0.08020000  0.03310000  0.04030000  1.0 -0.0812059387
C  C61  1  0.03310000  0.08020000  0.95970000  1.0 -0.0812059387
C  C62  1  0.58020000  0.46690000  0.45970000  1.0 -0.0812059387
C  C63  1  0.96690000  0.91980000  0.95970000  1.0 -0.0812059387
C  C64  1  0.41980000  0.53310000  0.45970000  1.0 -0.0812059387
C  C65  1  0.66760000  0.71160000  0.75120000  1.0 0.0915937336
C  C66  1  0.78840000  0.16760000  0.25120000  1.0 0.0915937336
C  C67  1  0.33240000  0.28840000  0.75120000  1.0 0.0915937336
C  C68  1  0.21160000  0.83240000  0.25120000  1.0 0.0915937336
C  C69  1  0.83240000  0.21160000  0.74880000  1.0 0.0915937336
C  C70  1  0.71160000  0.66760000  0.24880000  1.0 0.0915937336
C  C71  1  0.16760000  0.78840000  0.74880000  1.0 0.0915937336
C  C72  1  0.28840000  0.33240000  0.24880000  1.0 0.0915937336
C  C73  1  0.64950000  0.78040000  0.69530000  1.0 -0.0812059387
C  C74  1  0.71960000  0.14950000  0.19530000  1.0 -0.0812059387
C  C75  1  0.35050000  0.21960000  0.69530000  1.0 -0.0812059387
C  C76  1  0.28040000  0.85050000  0.19530000  1.0 -0.0812059387
C  C77  1  0.85050000  0.28040000  0.80470000  1.0 -0.0812059387
C  C78  1  0.78040000  0.64950000  0.30470000  1.0 -0.0812059387
C  C79  1  0.14950000  0.71960000  0.80470000  1.0 -0.0812059387
C  C80  1  0.21960000  0.35050000  0.30470000  1.0 -0.0812059387
C  C81  1  0.75810000  0.66930000  0.73470000  1.0 -0.0887468184
C  C82  1  0.83070000  0.25810000  0.23470000  1.0 -0.0887468184
C  C83  1  0.24190000  0.33070000  0.73470000  1.0 -0.0887468184
C  C84  1  0.16930000  0.74190000  0.23470000  1.0 -0.0887468184
C  C85  1  0.74190000  0.16930000  0.76530000  1.0 -0.0887468184
C  C86  1  0.66930000  0.75810000  0.26530000  1.0 -0.0887468184
C  C87  1  0.25810000  0.83070000  0.76530000  1.0 -0.0887468184
C  C88  1  0.33070000  0.24190000  0.26530000  1.0 -0.0887468184
C  C89  1  0.67330000  0.75270000  0.82310000  1.0 -0.0887468184
C  C90  1  0.74730000  0.17330000  0.32310000  1.0 -0.0887468184
C  C91  1  0.32670000  0.24730000  0.82310000  1.0 -0.0887468184
C  C92  1  0.25270000  0.82670000  0.32310000  1.0 -0.0887468184
C  C93  1  0.82670000  0.25270000  0.67690000  1.0 -0.0887468184
C  C94  1  0.75270000  0.67330000  0.17690000  1.0 -0.0887468184
C  C95  1  0.17330000  0.74730000  0.67690000  1.0 -0.0887468184
C  C96  1  0.24730000  0.32670000  0.17690000  1.0 -0.0887468184
C  C97  1  0.79240000  0.82980000  0.75050000  1.0 0.0779956194
C  C98  1  0.67020000  0.29240000  0.25050000  1.0 0.0779956194
C  C99  1  0.20760000  0.17020000  0.75050000  1.0 0.0779956194
C  C100  1  0.32980000  0.70760000  0.25050000  1.0 0.0779956194
C  C101  1  0.70760000  0.32980000  0.74950000  1.0 0.0779956194
C  C102  1  0.82980000  0.79240000  0.24950000  1.0 0.0779956194
C  C103  1  0.29240000  0.67020000  0.74950000  1.0 0.0779956194
C  C104  1  0.17020000  0.20760000  0.24950000  1.0 0.0779956194
C  C105  1  0.71820000  0.85580000  0.70020000  1.0 -0.1296393281
C  C106  1  0.64420000  0.21820000  0.20020000  1.0 -0.1296393281
C  C107  1  0.28180000  0.14420000  0.70020000  1.0 -0.1296393281
C  C108  1  0.35580000  0.78180000  0.20020000  1.0 -0.1296393281
C  C109  1  0.78180000  0.35580000  0.79980000  1.0 -0.1296393281
C  C110  1  0.85580000  0.71820000  0.29980000  1.0 -0.1296393281
C  C111  1  0.21820000  0.64420000  0.79980000  1.0 -0.1296393281
C  C112  1  0.14420000  0.28180000  0.29980000  1.0 -0.1296393281
C  C113  1  0.82570000  0.74310000  0.72600000  1.0 -0.1173250386
C  C114  1  0.75690000  0.32570000  0.22600000  1.0 -0.1173250386
C  C115  1  0.17430000  0.25690000  0.72600000  1.0 -0.1173250386
C  C116  1  0.24310000  0.67430000  0.22600000  1.0 -0.1173250386
C  C117  1  0.67430000  0.24310000  0.77400000  1.0 -0.1173250386
C  C118  1  0.74310000  0.82570000  0.27400000  1.0 -0.1173250386
C  C119  1  0.32570000  0.75690000  0.77400000  1.0 -0.1173250386
C  C120  1  0.25690000  0.17430000  0.27400000  1.0 -0.1173250386
C  C121  1  0.74980000  0.81890000  0.82240000  1.0 -0.1173250386
C  C122  1  0.68110000  0.24980000  0.32240000  1.0 -0.1173250386
C  C123  1  0.25020000  0.18110000  0.82240000  1.0 -0.1173250386
C  C124  1  0.31890000  0.75020000  0.32240000  1.0 -0.1173250386
C  C125  1  0.75020000  0.31890000  0.67760000  1.0 -0.1173250386
C  C126  1  0.81890000  0.74980000  0.17760000  1.0 -0.1173250386
C  C127  1  0.24980000  0.68110000  0.67760000  1.0 -0.1173250386
C  C128  1  0.18110000  0.25020000  0.17760000  1.0 -0.1173250386
C  C129  1  0.29150000  0.32910000  0.25110000  1.0 0.0915937336
C  C130  1  0.17090000  0.79150000  0.75110000  1.0 0.0915937336
C  C131  1  0.70850000  0.67090000  0.25110000  1.0 0.0915937336
C  C132  1  0.82910000  0.20850000  0.75110000  1.0 0.0915937336
C  C133  1  0.20850000  0.82910000  0.24890000  1.0 0.0915937336
C  C134  1  0.32910000  0.29150000  0.74890000  1.0 0.0915937336
C  C135  1  0.79150000  0.17090000  0.24890000  1.0 0.0915937336
C  C136  1  0.67090000  0.70850000  0.74890000  1.0 0.0915937336
C  C137  1  0.27100000  0.30060000  0.32580000  1.0 -0.1296393281
C  C138  1  0.19940000  0.77100000  0.82580000  1.0 -0.1296393281
C  C139  1  0.72900000  0.69940000  0.32580000  1.0 -0.1296393281
C  C140  1  0.80060000  0.22900000  0.82580000  1.0 -0.1296393281
C  C141  1  0.22900000  0.80060000  0.17420000  1.0 -0.1296393281
C  C142  1  0.30060000  0.27100000  0.67420000  1.0 -0.1296393281
C  C143  1  0.77100000  0.19940000  0.17420000  1.0 -0.1296393281
C  C144  1  0.69940000  0.72900000  0.67420000  1.0 -0.1296393281
C  C145  1  0.31830000  0.24560000  0.21070000  1.0 -0.1117106586
C  C146  1  0.25440000  0.81830000  0.71070000  1.0 -0.1117106586
C  C147  1  0.68170000  0.75440000  0.21070000  1.0 -0.1117106586
C  C148  1  0.74560000  0.18170000  0.71070000  1.0 -0.1117106586
C  C149  1  0.18170000  0.74560000  0.28930000  1.0 -0.1117106586
C  C150  1  0.24560000  0.31830000  0.78930000  1.0 -0.1117106586
C  C151  1  0.81830000  0.25440000  0.28930000  1.0 -0.1117106586
C  C152  1  0.75440000  0.68170000  0.78930000  1.0 -0.1117106586
C  C153  1  0.20800000  0.36410000  0.21980000  1.0 -0.1296393281
C  C154  1  0.13590000  0.70800000  0.71980000  1.0 -0.1296393281
C  C155  1  0.79200000  0.63590000  0.21980000  1.0 -0.1296393281
C  C156  1  0.86410000  0.29200000  0.71980000  1.0 -0.1296393281
C  C157  1  0.29200000  0.86410000  0.28020000  1.0 -0.1296393281
C  C158  1  0.36410000  0.20800000  0.78020000  1.0 -0.1296393281
C  C159  1  0.70800000  0.13590000  0.28020000  1.0 -0.1296393281
C  C160  1  0.63590000  0.79200000  0.78020000  1.0 -0.1296393281
C  C161  1  0.17800000  0.25640000  0.32300000  1.0 -0.0812059387
C  C162  1  0.24360000  0.67800000  0.82300000  1.0 -0.0812059387
C  C163  1  0.82200000  0.74360000  0.32300000  1.0 -0.0812059387
C  C164  1  0.75640000  0.32200000  0.82300000  1.0 -0.0812059387
C  C165  1  0.32200000  0.75640000  0.17700000  1.0 -0.0812059387
C  C166  1  0.25640000  0.17800000  0.67700000  1.0 -0.0812059387
C  C167  1  0.67800000  0.24360000  0.17700000  1.0 -0.0812059387
C  C168  1  0.74360000  0.82200000  0.67700000  1.0 -0.0812059387
C  C169  1  0.17110000  0.25470000  0.76790000  1.0 -0.0887468184
C  C170  1  0.24530000  0.67110000  0.26790000  1.0 -0.0887468184
C  C171  1  0.82890000  0.74530000  0.76790000  1.0 -0.0887468184
C  C172  1  0.75470000  0.32890000  0.26790000  1.0 -0.0887468184
C  C173  1  0.32890000  0.75470000  0.73210000  1.0 -0.0887468184
C  C174  1  0.25470000  0.17110000  0.23210000  1.0 -0.0887468184
C  C175  1  0.67110000  0.24530000  0.73210000  1.0 -0.0887468184
C  C176  1  0.74530000  0.82890000  0.23210000  1.0 -0.0887468184
C  C177  1  0.14970000  0.28520000  0.19800000  1.0 -0.0812059387
C  C178  1  0.21480000  0.64970000  0.69800000  1.0 -0.0812059387
C  C179  1  0.85030000  0.71480000  0.19800000  1.0 -0.0812059387
C  C180  1  0.78520000  0.35030000  0.69800000  1.0 -0.0812059387
C  C181  1  0.35030000  0.78520000  0.30200000  1.0 -0.0812059387
C  C182  1  0.28520000  0.14970000  0.80200000  1.0 -0.0812059387
C  C183  1  0.64970000  0.21480000  0.30200000  1.0 -0.0812059387
C  C184  1  0.71480000  0.85030000  0.80200000  1.0 -0.0812059387
C  C185  1  0.16830000  0.21300000  0.25150000  1.0 0.0779956194
C  C186  1  0.28700000  0.66830000  0.75150000  1.0 0.0779956194
C  C187  1  0.83170000  0.78700000  0.25150000  1.0 0.0779956194
C  C188  1  0.71300000  0.33170000  0.75150000  1.0 0.0779956194
C  C189  1  0.33170000  0.71300000  0.24850000  1.0 0.0779956194
C  C190  1  0.21300000  0.16830000  0.74850000  1.0 0.0779956194
C  C191  1  0.66830000  0.28700000  0.24850000  1.0 0.0779956194
C  C192  1  0.78700000  0.83170000  0.74850000  1.0 0.0779956194
N  N1  1  0.50000000  0.50000000  0.93270000  1.0 -0.0887468184
N  N2  1  0.00000000  0.00000000  0.43270000  1.0 -0.0887468184
N  N3  1  0.00000000  0.00000000  0.56730000  1.0 -0.0887468184
N  N4  1  0.50000000  0.50000000  0.06730000  1.0 -0.0887468184
N  N5  1  0.50000000  0.50000000  0.56850000  1.0 -0.0887468184
N  N6  1  0.00000000  0.00000000  0.06850000  1.0 -0.0887468184
N  N7  1  0.00000000  0.00000000  0.93150000  1.0 -0.0887468184
N  N8  1  0.50000000  0.50000000  0.43150000  1.0 -0.0887468184
O  O1  1  0.57580000  0.60790000  0.80757000  1.0 -0.4966905469
O  O2  1  0.89210000  0.07580000  0.30757000  1.0 -0.4966905469
O  O3  1  0.42420000  0.39210000  0.80757000  1.0 -0.4966905469
O  O4  1  0.10790000  0.92420000  0.30757000  1.0 -0.4940312077
O  O5  1  0.92420000  0.10790000  0.69243000  1.0 -0.4966905469
O  O6  1  0.60790000  0.57580000  0.19243000  1.0 -0.4966905469
O  O7  1  0.07580000  0.89210000  0.69243000  1.0 -0.4966905469
O  O8  1  0.39210000  0.42420000  0.19243000  1.0 -0.4966905469
O  O9  1  0.57790000  0.60640000  0.69030000  1.0 -0.4966905469
O  O10  1  0.89360000  0.07790000  0.19030000  1.0 -0.4966905469
O  O11  1  0.42210000  0.39360000  0.69030000  1.0 -0.4966905469
O  O12  1  0.10640000  0.92210000  0.19030000  1.0 -0.4966905469
O  O13  1  0.92210000  0.10640000  0.80970000  1.0 -0.4966905469
O  O14  1  0.60640000  0.57790000  0.30970000  1.0 -0.4966905469
O  O15  1  0.07790000  0.89360000  0.80970000  1.0 -0.4966905469
O  O16  1  0.39360000  0.42210000  0.30970000  1.0 -0.4966905469
O  O17  1  0.89140000  0.92390000  0.69135000  1.0 -0.4940312077
O  O18  1  0.57610000  0.39140000  0.19135000  1.0 -0.4940312077
O  O19  1  0.10860000  0.07610000  0.69135000  1.0 -0.4940312077
O  O20  1  0.42390000  0.60860000  0.19135000  1.0 -0.4940312077
O  O21  1  0.60860000  0.42390000  0.80865000  1.0 -0.4940312077
O  O22  1  0.92390000  0.89140000  0.30865000  1.0 -0.4940312077
O  O23  1  0.39140000  0.57610000  0.80865000  1.0 -0.4940312077
O  O24  1  0.07610000  0.10860000  0.30865000  1.0 -0.4940312077
O  O25  1  0.89370000  0.92280000  0.80711000  1.0 -0.4940312077
O  O26  1  0.57720000  0.39370000  0.30711000  1.0 -0.4940312077
O  O27  1  0.10630000  0.07720000  0.80711000  1.0 -0.4940312077
O  O28  1  0.42280000  0.60630000  0.30711000  1.0 -0.4940312077
O  O29  1  0.60630000  0.42280000  0.69289000  1.0 -0.4940312077
O  O30  1  0.92280000  0.89370000  0.19289000  1.0 -0.4940312077
O  O31  1  0.39370000  0.57720000  0.69289000  1.0 -0.4940312077
O  O32  1  0.07720000  0.10630000  0.19289000  1.0 -0.4940312077
