# DDEC6 charges by PACMAN v1.1 (https://github.com/mtap-research/PACMAN-charge/)
data_TOTMUN_FSR_pacman
_symmetry_space_group_name_H-M   'P 1'
_cell_length_a   14.55700000
_cell_length_b   15.01800000
_cell_length_c   25.18000000
_cell_angle_alpha   103.42000000
_cell_angle_beta   88.47000000
_cell_angle_gamma   118.52000000
_symmetry_Int_Tables_number   1
_chemical_formula_structural   Zn3H55C82(N2O5)3
_chemical_formula_sum   'Zn6 H110 C164 N12 O30'
_cell_volume   4681.86596035
_cell_formula_units_Z   2
loop_
 _symmetry_equiv_pos_site_id
 _symmetry_equiv_pos_as_xyz
  1  'x, y, z'
loop_
 _atom_site_type_symbol
 _atom_site_label
 _atom_site_symmetry_multiplicity
 _atom_site_fract_x
 _atom_site_fract_y
 _atom_site_fract_z
 _atom_site_occupancy
 _atom_site_charge
Zn  Zn1  1  0.61952000  0.48348000  0.82226000  1.0 0.849689464
Zn  Zn2  1  0.60030000  0.42860000  0.70130000  1.0 0.849689464
Zn  Zn3  1  0.38048000  0.51652000  0.17774000  1.0 0.849689464
Zn  Zn4  1  0.39970000  0.57140000  0.29870000  1.0 0.849689464
Zn  Zn5  1  0.49139000  0.97352000  0.93930000  1.0 0.849689464
Zn  Zn6  1  0.50861000  0.02648000  0.06070000  1.0 0.849689464
H  H1  1  0.53640000  0.67040000  0.68720000  1.0 0.1193719534
H  H2  1  0.56110000  0.83410000  0.68260000  1.0 0.1109366194
H  H3  1  0.64690000  0.94370000  0.84640000  1.0 0.1279502451
H  H4  1  0.62220000  0.78000000  0.85090000  1.0 0.1193719534
H  H5  1  0.01770000  0.93710000  0.83560000  1.0 0.1109366194
H  H6  1  0.87230000  0.77190000  0.82900000  1.0 0.1193719534
H  H7  1  0.93240000  0.67020000  0.67530000  1.0 0.1193719534
H  H8  1  0.07780000  0.83540000  0.68190000  1.0 0.1109366194
H  H9  1  0.68550000  0.08750000  0.83880000  1.0 0.1279502451
H  H10  1  0.70130000  0.24690000  0.83460000  1.0 0.1279502451
H  H11  1  0.16940000  0.99160000  0.68150000  1.0 0.1109366194
H  H12  1  0.16720000  0.06210000  0.84680000  1.0 0.1109366194
H  H13  1  0.31370000  0.22660000  0.85330000  1.0 0.1109366194
H  H14  1  0.31590000  0.15600000  0.68800000  1.0 0.1193719534
H  H15  1  0.55730000  0.11740000  0.68030000  1.0 0.0802802541
H  H16  1  0.53000000  0.95460000  0.68740000  1.0 0.0802802541
H  H17  1  0.91840000  0.78150000  0.05810000  1.0 0.2739400519
H  H18  1  0.72380000  0.68650000  0.90850000  1.0 0.1193719534
H  H19  1  0.80410000  0.74900000  0.99830000  1.0 0.1279502451
H  H20  1  0.74760000  0.45740000  0.99850000  1.0 0.1279502451
H  H21  1  0.66730000  0.39480000  0.90870000  1.0 0.1193719534
H  H22  1  0.29370000  0.12720000  0.46960000  1.0 0.2626374466
H  H23  1  0.39770000  0.16100000  0.53000000  1.0 0.1193719534
H  H24  1  0.49180000  0.22530000  0.61650000  1.0 0.1109366194
H  H25  1  0.55840000  0.51930000  0.61490000  1.0 0.1279502451
H  H26  1  0.46430000  0.45490000  0.52840000  1.0 0.1279502451
H  H27  1  0.25010000  0.22770000  0.36630000  1.0 0.1352525158
H  H28  1  0.15530000  0.12420000  0.28190000  1.0 0.1193719534
H  H29  1  0.95990000  0.79580000  0.26500000  1.0 0.1109366194
H  H30  1  0.86700000  0.69440000  0.17920000  1.0 0.1515061362
H  H31  1  0.06790000  0.92220000  0.10840000  1.0 0.1279502451
H  H32  1  0.16080000  0.02360000  0.19420000  1.0 0.1193719534
H  H33  1  0.06910000  0.86360000  0.33530000  1.0 0.1109366194
H  H34  1  0.17790000  0.96750000  0.41750000  1.0 0.0896053168
H  H35  1  0.26270000  0.97880000  0.39100000  1.0 0.0802802541
H  H36  1  0.16730000  0.88070000  0.30790000  1.0 0.0972422463
H  H37  1  0.61290000  0.98540000  0.67750000  1.0 0.0718931571
H  H38  1  0.63720000  0.14760000  0.67370000  1.0 0.0718931571
H  H39  1  0.46360000  0.32960000  0.31280000  1.0 0.1193719534
H  H40  1  0.43890000  0.16590000  0.31740000  1.0 0.1109366194
H  H41  1  0.35310000  0.05630000  0.15360000  1.0 0.1279502451
H  H42  1  0.37780000  0.22000000  0.14910000  1.0 0.1193719534
H  H43  1  0.98230000  0.06290000  0.16440000  1.0 0.1109366194
H  H44  1  0.12770000  0.22810000  0.17100000  1.0 0.1193719534
H  H45  1  0.06760000  0.32980000  0.32470000  1.0 0.1193719534
H  H46  1  0.92220000  0.16460000  0.31810000  1.0 0.1109366194
H  H47  1  0.31450000  0.91250000  0.16120000  1.0 0.1279502451
H  H48  1  0.29870000  0.75310000  0.16540000  1.0 0.1279502451
H  H49  1  0.83060000  0.00840000  0.31850000  1.0 0.1109366194
H  H50  1  0.83280000  0.93790000  0.15320000  1.0 0.1109366194
H  H51  1  0.68630000  0.77340000  0.14670000  1.0 0.1109366194
H  H52  1  0.68410000  0.84400000  0.31200000  1.0 0.1193719534
H  H53  1  0.44270000  0.88260000  0.31970000  1.0 0.0802802541
H  H54  1  0.47000000  0.04540000  0.31260000  1.0 0.0802802541
H  H55  1  0.08160000  0.21850000  0.94190000  1.0 0.2739400519
H  H56  1  0.27620000  0.31350000  0.09150000  1.0 0.1193719534
H  H57  1  0.19590000  0.25100000  0.00170000  1.0 0.1279502451
H  H58  1  0.25240000  0.54260000  0.00150000  1.0 0.1279502451
H  H59  1  0.33270000  0.60520000  0.09130000  1.0 0.1193719534
H  H60  1  0.70630000  0.87280000  0.53040000  1.0 0.2626374466
H  H61  1  0.60230000  0.83900000  0.47000000  1.0 0.1193719534
H  H62  1  0.50820000  0.77470000  0.38350000  1.0 0.1109366194
H  H63  1  0.44160000  0.48070000  0.38510000  1.0 0.1193719534
H  H64  1  0.53570000  0.54510000  0.47160000  1.0 0.1279502451
H  H65  1  0.74990000  0.77230000  0.63370000  1.0 0.1279502451
H  H66  1  0.84470000  0.87580000  0.71810000  1.0 0.1193719534
H  H67  1  0.04010000  0.20420000  0.73500000  1.0 0.1109366194
H  H68  1  0.13300000  0.30560000  0.82080000  1.0 0.1515061362
H  H69  1  0.93210000  0.07780000  0.89160000  1.0 0.1279502451
H  H70  1  0.83920000  0.97640000  0.80580000  1.0 0.1193719534
H  H71  1  0.93090000  0.13640000  0.66470000  1.0 0.1109366194
H  H72  1  0.82210000  0.03250000  0.58250000  1.0 0.0896053168
H  H73  1  0.73730000  0.02120000  0.60900000  1.0 0.0802802541
H  H74  1  0.83270000  0.11930000  0.69210000  1.0 0.0972422463
H  H75  1  0.38710000  0.01460000  0.32250000  1.0 0.0718931571
H  H76  1  0.36280000  0.85240000  0.32630000  1.0 0.0718931571
H  H77  1  0.38770000  0.77210000  0.85360000  1.0 0.1193719534
H  H78  1  0.44360000  0.06350000  0.85330000  1.0 0.1193719534
H  H79  1  0.30220000  0.70820000  0.76490000  1.0 0.1279502451
H  H80  1  0.35800000  0.99960000  0.76460000  1.0 0.1279502451
H  H81  1  0.47760000  0.67200000  0.91190000  1.0 0.1193719534
H  H82  1  0.58260000  0.78930000  0.07350000  1.0 0.1193719534
H  H83  1  0.82250000  0.21430000  0.91320000  1.0 0.1109366194
H  H84  1  0.76990000  0.31130000  0.06950000  1.0 0.1193719534
H  H85  1  0.45770000  0.51000000  0.91670000  1.0 0.1193719534
H  H86  1  0.56270000  0.62730000  0.07830000  1.0 0.1109366194
H  H87  1  0.96670000  0.38020000  0.91970000  1.0 0.1109366194
H  H88  1  0.91420000  0.47720000  0.07590000  1.0 0.1109366194
H  H89  1  0.18740000  0.67350000  0.70600000  1.0 0.2739400519
H  H90  1  0.19880000  0.77570000  0.59120000  1.0 0.1515061362
H  H91  1  0.06420000  0.51910000  0.65220000  1.0 0.1279502451
H  H92  1  0.10460000  0.67390000  0.50580000  1.0 0.1109366194
H  H93  1  0.97000000  0.41730000  0.56680000  1.0 0.1109366194
H  H94  1  0.61230000  0.22790000  0.14640000  1.0 0.1193719534
H  H95  1  0.55640000  0.93650000  0.14670000  1.0 0.1193719534
H  H96  1  0.69780000  0.29180000  0.23510000  1.0 0.1279502451
H  H97  1  0.64200000  0.00040000  0.23540000  1.0 0.1279502451
H  H98  1  0.52240000  0.32800000  0.08810000  1.0 0.1193719534
H  H99  1  0.41740000  0.21070000  0.92650000  1.0 0.1193719534
H  H100  1  0.17750000  0.78570000  0.08680000  1.0 0.1109366194
H  H101  1  0.23010000  0.68870000  0.93050000  1.0 0.1193719534
H  H102  1  0.54230000  0.49000000  0.08330000  1.0 0.1193719534
H  H103  1  0.43730000  0.37270000  0.92170000  1.0 0.1109366194
H  H104  1  0.03330000  0.61980000  0.08030000  1.0 0.1109366194
H  H105  1  0.08580000  0.52280000  0.92410000  1.0 0.1109366194
H  H106  1  0.81260000  0.32650000  0.29400000  1.0 0.2739400519
H  H107  1  0.80120000  0.22430000  0.40880000  1.0 0.1515061362
H  H108  1  0.93580000  0.48090000  0.34780000  1.0 0.1279502451
H  H109  1  0.89540000  0.32610000  0.49420000  1.0 0.1109366194
H  H110  1  0.03000000  0.58270000  0.43320000  1.0 0.1109366194
C  C1  1  0.42780000  0.31020000  0.77510000  1.0 0.5794130293
C  C2  1  0.57100000  0.60720000  0.77127000  1.0 0.5794130293
C  C3  1  0.57700000  0.70979000  0.76950000  1.0 -0.0279303028
C  C4  1  0.55880000  0.72585000  0.71951000  1.0 -0.0901029157
C  C5  1  0.57350000  0.82311000  0.71679000  1.0 -0.2007641615
C  C6  1  0.60630000  0.90431000  0.76406000  1.0 0.050094502
C  C7  1  0.62440000  0.88825000  0.81405000  1.0 -0.1502217314
C  C8  1  0.60980000  0.79099000  0.81677000  1.0 -0.0999364527
C  C9  1  0.62470000  0.01040000  0.76044000  1.0 0.0605610748
C  C10  1  0.65020000  0.30470000  0.75343000  1.0 0.5678644581
C  C11  1  0.00040000  0.88295000  0.80307000  1.0 -0.1583362103
C  C12  1  0.91404000  0.78481000  0.79917000  1.0 -0.1092861429
C  C13  1  0.88869000  0.70553000  0.75156000  1.0 -0.0218520773
C  C14  1  0.94970000  0.72438000  0.70786000  1.0 -0.1092861429
C  C15  1  0.03607000  0.82252000  0.71177000  1.0 -0.1583362103
C  C16  1  0.06142000  0.90180000  0.75937000  1.0 0.0802802541
C  C17  1  0.64710000  0.20450000  0.75546000  1.0 -0.0218520773
C  C18  1  0.79170000  0.60100000  0.74782000  1.0 0.5794130293
C  C19  1  0.66450000  0.09470000  0.80530000  1.0 -0.2007641615
C  C20  1  0.67460000  0.19030000  0.80270000  1.0 -0.1696035834
C  C21  1  0.19870000  0.03928000  0.71641000  1.0 -0.1423876958
C  C22  1  0.15452000  0.01140000  0.76358000  1.0 0.0802802541
C  C23  1  0.19740000  0.08120000  0.81461000  1.0 -0.1583362103
C  C24  1  0.28440000  0.17889000  0.81847000  1.0 -0.1092861429
C  C25  1  0.32858000  0.20678000  0.77130000  1.0 -0.0279303028
C  C26  1  0.28570000  0.13700000  0.72028000  1.0 -0.1092861429
C  C27  1  0.58730000  0.11200000  0.71170000  1.0 -0.0218520773
C  C28  1  0.57330000  0.01610000  0.71500000  1.0 -0.0218520773
C  C29  1  0.82930000  0.64340000  0.06610000  1.0 0.4602173893
C  C30  1  0.95870000  0.79870000  0.13577000  1.0 0.2197869857
C  C31  1  0.72864000  0.63997000  0.92675000  1.0 0.0802802541
C  C32  1  0.77636000  0.67711000  0.98013000  1.0 -0.190939405
C  C33  1  0.78343000  0.60905000  0.00687000  1.0 0.0189405825
C  C34  1  0.74280000  0.50387000  0.98024000  1.0 -0.1423876958
C  C35  1  0.69506000  0.46673000  0.92686000  1.0 0.0802802541
C  C36  1  0.36690000  0.26730000  0.46393000  1.0 0.4602173893
C  C37  1  0.24480000  0.10930000  0.39370000  1.0 0.1640777392
C  C38  1  0.42210000  0.30191000  0.52106000  1.0 0.0189405825
C  C39  1  0.43030000  0.23370000  0.54724000  1.0 -0.178979032
C  C40  1  0.46990000  0.40833000  0.54628000  1.0 -0.1423876958
C  C41  1  0.48620000  0.27191000  0.59865000  1.0 0.0718931571
C  C42  1  0.52580000  0.44653000  0.59768000  1.0 0.0896053168
C  C43  1  0.22500000  0.15430000  0.35729000  1.0 -0.178979032
C  C44  1  0.16800000  0.09210000  0.30710000  1.0 -0.178979032
C  C45  1  0.12970000  0.98650000  0.29280000  1.0 0.050094502
C  C46  1  0.17870000  0.99750000  0.38800000  1.0 -0.0687828297
C  C47  1  0.06910000  0.91920000  0.23768000  1.0 0.0384347113
C  C48  1  0.11730000  0.93570000  0.33930000  1.0 -0.0279303028
C  C49  1  0.98180000  0.82140000  0.23322000  1.0 -0.1423876958
C  C50  1  0.92670000  0.76120000  0.18226000  1.0 -0.178979032
C  C51  1  0.04600000  0.89650000  0.14023000  1.0 -0.2007641615
C  C52  1  0.10110000  0.95680000  0.19118000  1.0 -0.1326308782
C  C53  1  0.23180000  0.00630000  0.37130000  1.0 -0.0768182846
C  C54  1  0.17550000  0.94870000  0.32240000  1.0 -0.0687828297
C  C55  1  0.62320000  0.03590000  0.71070000  1.0 -0.0454799598
C  C56  1  0.63600000  0.13190000  0.70820000  1.0 -0.037217564
C  C57  1  0.57220000  0.68980000  0.22490000  1.0 0.5794130293
C  C58  1  0.42900000  0.39280000  0.22873000  1.0 0.5794130293
C  C59  1  0.42300000  0.29021000  0.23050000  1.0 -0.0279303028
C  C60  1  0.44120000  0.27415000  0.28049000  1.0 -0.0901029157
C  C61  1  0.42650000  0.17689000  0.28321000  1.0 -0.2007641615
C  C62  1  0.39370000  0.09569000  0.23594000  1.0 0.050094502
C  C63  1  0.37560000  0.11175000  0.18595000  1.0 -0.1502217314
C  C64  1  0.39020000  0.20901000  0.18323000  1.0 -0.0999364527
C  C65  1  0.37530000  0.98960000  0.23956000  1.0 0.0605610748
C  C66  1  0.34980000  0.69530000  0.24657000  1.0 0.5678644581
C  C67  1  0.99960000  0.11705000  0.19693000  1.0 -0.1502217314
C  C68  1  0.08596000  0.21519000  0.20083000  1.0 -0.1092861429
C  C69  1  0.11131000  0.29447000  0.24844000  1.0 -0.0218520773
C  C70  1  0.05030000  0.27562000  0.29214000  1.0 -0.1092861429
C  C71  1  0.96393000  0.17748000  0.28823000  1.0 -0.1583362103
C  C72  1  0.93858000  0.09820000  0.24063000  1.0 0.0802802541
C  C73  1  0.35290000  0.79550000  0.24454000  1.0 -0.0218520773
C  C74  1  0.20830000  0.39900000  0.25218000  1.0 0.5794130293
C  C75  1  0.33550000  0.90530000  0.19470000  1.0 -0.2007641615
C  C76  1  0.32540000  0.80970000  0.19730000  1.0 -0.1696035834
C  C77  1  0.80130000  0.96072000  0.28359000  1.0 -0.1423876958
C  C78  1  0.84548000  0.98860000  0.23642000  1.0 0.0802802541
C  C79  1  0.80260000  0.91880000  0.18539000  1.0 -0.1583362103
C  C80  1  0.71560000  0.82111000  0.18153000  1.0 -0.1092861429
C  C81  1  0.67142000  0.79322000  0.22870000  1.0 -0.0279303028
C  C82  1  0.71430000  0.86300000  0.27972000  1.0 -0.1092861429
C  C83  1  0.41270000  0.88800000  0.28830000  1.0 -0.0218520773
C  C84  1  0.42670000  0.98390000  0.28500000  1.0 -0.0218520773
C  C85  1  0.17070000  0.35660000  0.93390000  1.0 0.4602173893
C  C86  1  0.04130000  0.20130000  0.86423000  1.0 0.2197869857
C  C87  1  0.27136000  0.36003000  0.07325000  1.0 0.0802802541
C  C88  1  0.22364000  0.32289000  0.01987000  1.0 -0.190939405
C  C89  1  0.21657000  0.39095000  0.99313000  1.0 0.0189405825
C  C90  1  0.25720000  0.49613000  0.01976000  1.0 -0.1423876958
C  C91  1  0.30494000  0.53327000  0.07314000  1.0 0.0802802541
C  C92  1  0.63310000  0.73270000  0.53607000  1.0 0.4602173893
C  C93  1  0.75520000  0.89070000  0.60630000  1.0 0.1640777392
C  C94  1  0.57790000  0.69809000  0.47894000  1.0 0.0189405825
C  C95  1  0.56970000  0.76630000  0.45276000  1.0 -0.178979032
C  C96  1  0.53010000  0.59167000  0.45372000  1.0 -0.1423876958
C  C97  1  0.51380000  0.72809000  0.40135000  1.0 0.0718931571
C  C98  1  0.47420000  0.55347000  0.40232000  1.0 0.0896053168
C  C99  1  0.77500000  0.84570000  0.64271000  1.0 -0.178979032
C  C100  1  0.83200000  0.90790000  0.69290000  1.0 -0.178979032
C  C101  1  0.87030000  0.01350000  0.70720000  1.0 0.050094502
C  C102  1  0.82130000  0.00250000  0.61200000  1.0 -0.0687828297
C  C103  1  0.93090000  0.08080000  0.76232000  1.0 0.0384347113
C  C104  1  0.88270000  0.06430000  0.66070000  1.0 -0.0279303028
C  C105  1  0.01820000  0.17860000  0.76678000  1.0 -0.1423876958
C  C106  1  0.07330000  0.23880000  0.81774000  1.0 -0.178979032
C  C107  1  0.95400000  0.10350000  0.85977000  1.0 -0.2007641615
C  C108  1  0.89890000  0.04320000  0.80882000  1.0 -0.1326308782
C  C109  1  0.76820000  0.99370000  0.62870000  1.0 -0.0768182846
C  C110  1  0.82450000  0.05130000  0.67760000  1.0 -0.0687828297
C  C111  1  0.37680000  0.96410000  0.28930000  1.0 -0.0454799598
C  C112  1  0.36400000  0.86810000  0.29180000  1.0 -0.037217564
C  C113  1  0.53570000  0.84670000  0.99042000  1.0 0.5854579908
C  C114  1  0.68430000  0.14300000  0.98676000  1.0 0.5794130293
C  C115  1  0.38170000  0.81825000  0.83554000  1.0 0.0896053168
C  C116  1  0.41487000  0.99134000  0.83538000  1.0 0.0718931571
C  C117  1  0.53200000  0.74590000  0.99229000  1.0 -0.0279303028
C  C118  1  0.78264000  0.24725000  0.99075000  1.0 -0.0279303028
C  C119  1  0.33090000  0.78032000  0.78283000  1.0 -0.190939405
C  C120  1  0.36410000  0.95340000  0.78267000  1.0 -0.1696035834
C  C121  1  0.49488000  0.66295000  0.94571000  1.0 -0.0999364527
C  C122  1  0.55730000  0.73263000  0.04169000  1.0 -0.1092861429
C  C123  1  0.84109000  0.26770000  0.94626000  1.0 -0.1092861429
C  C124  1  0.80989000  0.32532000  0.03907000  1.0 -0.0999364527
C  C125  1  0.32210000  0.84789000  0.75640000  1.0 0.0189405825
C  C126  1  0.48305000  0.56673000  0.94854000  1.0 -0.1326308782
C  C127  1  0.54540000  0.63641000  0.04452000  1.0 -0.1583362103
C  C128  1  0.92679000  0.36622000  0.95010000  1.0 -0.1583362103
C  C129  1  0.89559000  0.42385000  0.04291000  1.0 -0.1502217314
C  C130  1  0.27090000  0.81300000  0.69835000  1.0 0.449266891
C  C131  1  0.50834000  0.55346000  0.99794000  1.0 0.0718931571
C  C132  1  0.95403000  0.44430000  0.99843000  1.0 0.0802802541
C  C133  1  0.14030000  0.65700000  0.62977000  1.0 0.2197869857
C  C134  1  0.15230000  0.70300000  0.58627000  1.0 -0.178979032
C  C135  1  0.07240000  0.55050000  0.62250000  1.0 -0.2007641615
C  C136  1  0.09640000  0.64250000  0.53552000  1.0 -0.1502217314
C  C137  1  0.01640000  0.49000000  0.57175000  1.0 -0.1423876958
C  C138  1  0.02840000  0.53600000  0.52826000  1.0 0.0718931571
C  C139  1  0.46430000  0.15330000  0.00958000  1.0 0.5854579908
C  C140  1  0.31570000  0.85700000  0.01324000  1.0 0.5794130293
C  C141  1  0.61830000  0.18175000  0.16446000  1.0 0.0896053168
C  C142  1  0.58513000  0.00866000  0.16462000  1.0 0.0718931571
C  C143  1  0.46800000  0.25410000  0.00771000  1.0 -0.0279303028
C  C144  1  0.21736000  0.75275000  0.00925000  1.0 -0.0279303028
C  C145  1  0.66910000  0.21968000  0.21717000  1.0 -0.190939405
C  C146  1  0.63590000  0.04660000  0.21733000  1.0 -0.1696035834
C  C147  1  0.50512000  0.33705000  0.05429000  1.0 -0.0999364527
C  C148  1  0.44270000  0.26737000  0.95831000  1.0 -0.1092861429
C  C149  1  0.15891000  0.73230000  0.05374000  1.0 -0.1092861429
C  C150  1  0.19011000  0.67468000  0.96093000  1.0 -0.0999364527
C  C151  1  0.67790000  0.15211000  0.24360000  1.0 0.0189405825
C  C152  1  0.51695000  0.43327000  0.05146000  1.0 -0.1326308782
C  C153  1  0.45460000  0.36359000  0.95548000  1.0 -0.1583362103
C  C154  1  0.07321000  0.63378000  0.04990000  1.0 -0.1583362103
C  C155  1  0.10441000  0.57615000  0.95709000  1.0 -0.1502217314
C  C156  1  0.72910000  0.18700000  0.30165000  1.0 0.449266891
C  C157  1  0.49166000  0.44654000  0.00206000  1.0 0.0718931571
C  C158  1  0.04597000  0.55570000  0.00157000  1.0 0.0802802541
C  C159  1  0.85970000  0.34300000  0.37023000  1.0 0.2197869857
C  C160  1  0.84770000  0.29700000  0.41373000  1.0 -0.178979032
C  C161  1  0.92760000  0.44950000  0.37750000  1.0 -0.2007641615
C  C162  1  0.90360000  0.35750000  0.46448000  1.0 -0.1502217314
C  C163  1  0.98360000  0.51000000  0.42825000  1.0 -0.1423876958
C  C164  1  0.97160000  0.46400000  0.47174000  1.0 0.0718931571
N  N1  1  0.53390000  0.37832000  0.62387000  1.0 -0.2274556058
N  N2  1  0.68799000  0.53478000  0.90012000  1.0 -0.2430892335
N  N3  1  0.90300000  0.74460000  0.08275000  1.0 -0.3695135908
N  N4  1  0.30210000  0.16500000  0.44605000  1.0 -0.4312381195
N  N5  1  0.46610000  0.62168000  0.37613000  1.0 -0.2274556058
N  N6  1  0.31201000  0.46522000  0.09988000  1.0 -0.2430892335
N  N7  1  0.09700000  0.25540000  0.91725000  1.0 -0.3695135908
N  N8  1  0.69790000  0.83500000  0.55395000  1.0 -0.4312381195
N  N9  1  0.42369000  0.92376000  0.86181000  1.0 -0.2430892335
N  N10  1  0.19910000  0.71080000  0.68190000  1.0 -0.3592331903
N  N11  1  0.57631000  0.07624000  0.13819000  1.0 -0.2430892335
N  N12  1  0.80090000  0.28920000  0.31810000  1.0 -0.3592331903
O  O1  1  0.46990000  0.36851000  0.82180000  1.0 -0.5299942987
O  O2  1  0.57600000  0.59087000  0.81791000  1.0 -0.5390970207
O  O3  1  0.75040000  0.54100000  0.70072000  1.0 -0.5299942987
O  O4  1  0.65800000  0.36607000  0.79863000  1.0 -0.5299942987
O  O5  1  0.46260000  0.32960000  0.73038000  1.0 -0.5663289027
O  O6  1  0.56370000  0.54655000  0.72617000  1.0 -0.5467057722
O  O7  1  0.64330000  0.32080000  0.70705000  1.0 -0.516715874
O  O8  1  0.75550000  0.58250000  0.79215000  1.0 -0.5597181317
O  O9  1  0.79850000  0.58070000  0.09452000  1.0 -0.4408376711
O  O10  1  0.38540000  0.32900000  0.43718000  1.0 -0.4312381195
O  O11  1  0.53010000  0.63149000  0.17820000  1.0 -0.5299942987
O  O12  1  0.42400000  0.40913000  0.18209000  1.0 -0.5390970207
O  O13  1  0.24960000  0.45900000  0.29928000  1.0 -0.5299942987
O  O14  1  0.34200000  0.63393000  0.20137000  1.0 -0.5299942987
O  O15  1  0.53740000  0.67040000  0.26962000  1.0 -0.5663289027
O  O16  1  0.43630000  0.45345000  0.27383000  1.0 -0.5467057722
O  O17  1  0.35670000  0.67920000  0.29295000  1.0 -0.516715874
O  O18  1  0.24450000  0.41750000  0.20785000  1.0 -0.5597181317
O  O19  1  0.20150000  0.41930000  0.90548000  1.0 -0.4408376711
O  O20  1  0.61460000  0.67100000  0.56282000  1.0 -0.4312381195
O  O21  1  0.53010000  0.86334000  0.94420000  1.0 -0.5390970207
O  O22  1  0.64373000  0.08392000  0.93971000  1.0 -0.5390970207
O  O23  1  0.35210000  0.87586000  0.96897000  1.0 -0.5597181317
O  O24  1  0.45740000  0.09224000  0.96384000  1.0 -0.5597181317
O  O25  1  0.29600000  0.87560000  0.67038000  1.0 -0.4451862322
O  O26  1  0.46990000  0.13666000  0.05580000  1.0 -0.5390970207
O  O27  1  0.35627000  0.91608000  0.06029000  1.0 -0.5390970207
O  O28  1  0.64790000  0.12414000  0.03103000  1.0 -0.5597181317
O  O29  1  0.54260000  0.90776000  0.03616000  1.0 -0.5597181317
O  O30  1  0.70400000  0.12440000  0.32962000  1.0 -0.4451862322
