# DDEC6 charges by PACMAN v1.1 (https://github.com/mtap-research/PACMAN-charge/)
data_TOVHOD_ASR_pacman
_symmetry_space_group_name_H-M   'P 1'
_cell_length_a   14.43130000
_cell_length_b   14.43130000
_cell_length_c   21.79000000
_cell_angle_alpha   90.00000000
_cell_angle_beta   90.00000000
_cell_angle_gamma   116.02300000
_symmetry_Int_Tables_number   1
_chemical_formula_structural   Fe3H34C62O13
_chemical_formula_sum   'Fe6 H68 C124 O26'
_cell_volume   4077.96274580
_cell_formula_units_Z   2
loop_
 _symmetry_equiv_pos_site_id
 _symmetry_equiv_pos_as_xyz
  1  'x, y, z'
loop_
 _atom_site_type_symbol
 _atom_site_label
 _atom_site_symmetry_multiplicity
 _atom_site_fract_x
 _atom_site_fract_y
 _atom_site_fract_z
 _atom_site_occupancy
 _atom_site_charge
Fe  Fe1  1  0.75000000  0.25000000  0.17320000  1.0 1.1257424077
Fe  Fe2  1  0.25000000  0.75000000  0.82680000  1.0 1.1248686036
Fe  Fe3  1  0.85610000  0.35610000  0.30657000  1.0 1.0982233902
Fe  Fe4  1  0.64390000  0.14390000  0.30657000  1.0 1.0982233902
Fe  Fe5  1  0.35610000  0.85610000  0.69343000  1.0 1.0982233902
Fe  Fe6  1  0.14390000  0.64390000  0.69343000  1.0 1.0982233902
H  H1  1  0.93650000  0.65990000  0.25770000  1.0 0.1193375459
H  H2  1  0.56350000  0.84010000  0.25770000  1.0 0.1193375459
H  H3  1  0.65990000  0.93650000  0.74230000  1.0 0.1193375459
H  H4  1  0.84010000  0.56350000  0.74230000  1.0 0.1193375459
H  H5  1  0.06350000  0.34010000  0.74230000  1.0 0.1193375459
H  H6  1  0.43650000  0.15990000  0.74230000  1.0 0.1193375459
H  H7  1  0.34010000  0.06350000  0.25770000  1.0 0.1193375459
H  H8  1  0.15990000  0.43650000  0.25770000  1.0 0.1193375459
H  H9  1  0.96470000  0.82510000  0.23250000  1.0 0.1121240999
H  H10  1  0.53530000  0.67490000  0.23250000  1.0 0.1121240999
H  H11  1  0.82510000  0.96470000  0.76750000  1.0 0.1121240999
H  H12  1  0.67490000  0.53530000  0.76750000  1.0 0.1121240999
H  H13  1  0.03530000  0.17490000  0.76750000  1.0 0.1121240999
H  H14  1  0.46470000  0.32510000  0.76750000  1.0 0.1121240999
H  H15  1  0.17490000  0.03530000  0.23250000  1.0 0.1121240999
H  H16  1  0.32510000  0.46470000  0.23250000  1.0 0.1121240999
H  H17  1  0.88300000  0.85360000  0.14570000  1.0 0.1121240999
H  H18  1  0.61700000  0.64640000  0.14570000  1.0 0.1121240999
H  H19  1  0.85360000  0.88300000  0.85430000  1.0 0.1121240999
H  H20  1  0.64640000  0.61700000  0.85430000  1.0 0.1121240999
H  H21  1  0.11700000  0.14640000  0.85430000  1.0 0.1121240999
H  H22  1  0.38300000  0.35360000  0.85430000  1.0 0.1121240999
H  H23  1  0.14640000  0.11700000  0.14570000  1.0 0.1121240999
H  H24  1  0.35360000  0.38300000  0.14570000  1.0 0.1121240999
H  H25  1  0.76990000  0.54790000  0.10270000  1.0 0.1275734487
H  H26  1  0.73010000  0.95210000  0.10270000  1.0 0.1275734487
H  H27  1  0.54790000  0.76990000  0.89730000  1.0 0.1275734487
H  H28  1  0.95210000  0.73010000  0.89730000  1.0 0.1275734487
H  H29  1  0.23010000  0.45210000  0.89730000  1.0 0.1275734487
H  H30  1  0.26990000  0.04790000  0.89730000  1.0 0.1275734487
H  H31  1  0.45210000  0.23010000  0.10270000  1.0 0.1275734487
H  H32  1  0.04790000  0.26990000  0.10270000  1.0 0.1275734487
H  H33  1  0.84380000  0.65620000  0.00000000  1.0 0.1275734487
H  H34  1  0.65620000  0.84380000  0.00000000  1.0 0.1275734487
H  H35  1  0.15620000  0.34380000  0.00000000  1.0 0.1275734487
H  H36  1  0.34380000  0.15620000  0.00000000  1.0 0.1275734487
H  H37  1  0.53690000  0.46310000  0.56520000  1.0 0.1121240999
H  H38  1  0.96310000  0.03690000  0.56520000  1.0 0.1121240999
H  H39  1  0.46310000  0.53690000  0.43480000  1.0 0.1121240999
H  H40  1  0.03690000  0.96310000  0.43480000  1.0 0.1121240999
H  H41  1  0.74010000  0.51890000  0.42480000  1.0 0.0999278781
H  H42  1  0.75990000  0.98110000  0.42480000  1.0 0.0999278781
H  H43  1  0.51890000  0.74010000  0.57520000  1.0 0.0999278781
H  H44  1  0.98110000  0.75990000  0.57520000  1.0 0.0999278781
H  H45  1  0.25990000  0.48110000  0.57520000  1.0 0.0999278781
H  H46  1  0.24010000  0.01890000  0.57520000  1.0 0.0999278781
H  H47  1  0.48110000  0.25990000  0.42480000  1.0 0.0999278781
H  H48  1  0.01890000  0.24010000  0.42480000  1.0 0.0999278781
H  H49  1  0.44420000  0.30120000  0.53400000  1.0 0.0852938687
H  H50  1  0.05580000  0.19880000  0.53400000  1.0 0.0852938687
H  H51  1  0.30120000  0.44420000  0.46600000  1.0 0.0852938687
H  H52  1  0.19880000  0.05580000  0.46600000  1.0 0.0852938687
H  H53  1  0.55580000  0.69880000  0.46600000  1.0 0.0852938687
H  H54  1  0.94420000  0.80120000  0.46600000  1.0 0.0852938687
H  H55  1  0.69880000  0.55580000  0.53400000  1.0 0.0852938687
H  H56  1  0.80120000  0.94420000  0.53400000  1.0 0.0852938687
H  H57  1  0.51180000  0.23300000  0.45760000  1.0 0.0999278781
H  H58  1  0.98820000  0.26700000  0.45760000  1.0 0.0999278781
H  H59  1  0.23300000  0.51180000  0.54240000  1.0 0.0999278781
H  H60  1  0.26700000  0.98820000  0.54240000  1.0 0.0999278781
H  H61  1  0.48820000  0.76700000  0.54240000  1.0 0.0999278781
H  H62  1  0.01180000  0.73300000  0.54240000  1.0 0.0999278781
H  H63  1  0.76700000  0.48820000  0.45760000  1.0 0.0999278781
H  H64  1  0.73300000  0.01180000  0.45760000  1.0 0.0999278781
H  H65  1  0.84110000  0.65890000  0.50000000  1.0 0.1121240999
H  H66  1  0.65890000  0.84110000  0.50000000  1.0 0.1121240999
H  H67  1  0.15890000  0.34110000  0.50000000  1.0 0.1121240999
H  H68  1  0.34110000  0.15890000  0.50000000  1.0 0.1121240999
C  C1  1  0.82840000  0.48000000  0.20150000  1.0 0.6014962514
C  C2  1  0.67160000  0.02000000  0.20150000  1.0 0.6014962514
C  C3  1  0.48000000  0.82840000  0.79850000  1.0 0.6014962514
C  C4  1  0.02000000  0.67160000  0.79850000  1.0 0.6014962514
C  C5  1  0.17160000  0.52000000  0.79850000  1.0 0.6014962514
C  C6  1  0.32840000  0.98000000  0.79850000  1.0 0.6014962514
C  C7  1  0.52000000  0.17160000  0.20150000  1.0 0.6014962514
C  C8  1  0.98000000  0.32840000  0.20150000  1.0 0.6014962514
C  C9  1  0.85000000  0.58500000  0.18350000  1.0 -0.045021152
C  C10  1  0.65000000  0.91500000  0.18350000  1.0 -0.045021152
C  C11  1  0.58500000  0.85000000  0.81650000  1.0 -0.045021152
C  C12  1  0.91500000  0.65000000  0.81650000  1.0 -0.045021152
C  C13  1  0.15000000  0.41500000  0.81650000  1.0 -0.045021152
C  C14  1  0.35000000  0.08500000  0.81650000  1.0 -0.045021152
C  C15  1  0.41500000  0.15000000  0.18350000  1.0 -0.045021152
C  C16  1  0.08500000  0.35000000  0.18350000  1.0 -0.045021152
C  C17  1  0.90740000  0.67080000  0.22090000  1.0 -0.0971004719
C  C18  1  0.59260000  0.82920000  0.22090000  1.0 -0.0971004719
C  C19  1  0.67080000  0.90740000  0.77910000  1.0 -0.0971004719
C  C20  1  0.82920000  0.59260000  0.77910000  1.0 -0.0971004719
C  C21  1  0.09260000  0.32920000  0.77910000  1.0 -0.0971004719
C  C22  1  0.40740000  0.17080000  0.77910000  1.0 -0.0971004719
C  C23  1  0.32920000  0.09260000  0.22090000  1.0 -0.0971004719
C  C24  1  0.17080000  0.40740000  0.22090000  1.0 -0.0971004719
C  C25  1  0.92310000  0.76910000  0.20670000  1.0 -0.0900167169
C  C26  1  0.57690000  0.73090000  0.20670000  1.0 -0.0900167169
C  C27  1  0.76910000  0.92310000  0.79330000  1.0 -0.0900167169
C  C28  1  0.73090000  0.57690000  0.79330000  1.0 -0.0900167169
C  C29  1  0.07690000  0.23090000  0.79330000  1.0 -0.0900167169
C  C30  1  0.42310000  0.26910000  0.79330000  1.0 -0.0900167169
C  C31  1  0.23090000  0.07690000  0.20670000  1.0 -0.0900167169
C  C32  1  0.26910000  0.42310000  0.20670000  1.0 -0.0900167169
C  C33  1  0.87730000  0.78670000  0.15410000  1.0 -0.1510267774
C  C34  1  0.62270000  0.71330000  0.15410000  1.0 -0.1510267774
C  C35  1  0.78670000  0.87730000  0.84590000  1.0 -0.1510267774
C  C36  1  0.71330000  0.62270000  0.84590000  1.0 -0.1510267774
C  C37  1  0.12270000  0.21330000  0.84590000  1.0 -0.1510267774
C  C38  1  0.37730000  0.28670000  0.84590000  1.0 -0.1510267774
C  C39  1  0.21330000  0.12270000  0.15410000  1.0 -0.1510267774
C  C40  1  0.28670000  0.37730000  0.15410000  1.0 -0.1510267774
C  C41  1  0.82310000  0.70470000  0.11380000  1.0 0.0788002937
C  C42  1  0.67690000  0.79530000  0.11380000  1.0 0.0788002937
C  C43  1  0.70470000  0.82310000  0.88620000  1.0 0.0788002937
C  C44  1  0.79530000  0.67690000  0.88620000  1.0 0.0788002937
C  C45  1  0.17690000  0.29530000  0.88620000  1.0 0.0788002937
C  C46  1  0.32310000  0.20470000  0.88620000  1.0 0.0788002937
C  C47  1  0.29530000  0.17690000  0.11380000  1.0 0.0788002937
C  C48  1  0.20470000  0.32310000  0.11380000  1.0 0.0788002937
C  C49  1  0.80840000  0.60360000  0.12930000  1.0 -0.1510267774
C  C50  1  0.69160000  0.89640000  0.12930000  1.0 -0.1510267774
C  C51  1  0.60360000  0.80840000  0.87070000  1.0 -0.1510267774
C  C52  1  0.89640000  0.69160000  0.87070000  1.0 -0.1510267774
C  C53  1  0.19160000  0.39640000  0.87070000  1.0 -0.1510267774
C  C54  1  0.30840000  0.10360000  0.87070000  1.0 -0.1510267774
C  C55  1  0.39640000  0.19160000  0.12930000  1.0 -0.1510267774
C  C56  1  0.10360000  0.30840000  0.12930000  1.0 -0.1510267774
C  C57  1  0.78080000  0.72320000  0.05520000  1.0 0.0283482807
C  C58  1  0.71920000  0.77680000  0.05520000  1.0 0.0283482807
C  C59  1  0.72320000  0.78080000  0.94480000  1.0 0.0283482807
C  C60  1  0.77680000  0.71920000  0.94480000  1.0 0.0283482807
C  C61  1  0.21920000  0.27680000  0.94480000  1.0 0.0283482807
C  C62  1  0.28080000  0.22320000  0.94480000  1.0 0.0283482807
C  C63  1  0.27680000  0.21920000  0.05520000  1.0 0.0283482807
C  C64  1  0.22320000  0.28080000  0.05520000  1.0 0.0283482807
C  C65  1  0.80500000  0.69500000  0.00000000  1.0 -0.1640463004
C  C66  1  0.69500000  0.80500000  0.00000000  1.0 -0.1640463004
C  C67  1  0.19500000  0.30500000  0.00000000  1.0 -0.1640463004
C  C68  1  0.30500000  0.19500000  0.00000000  1.0 -0.1640463004
C  C69  1  0.67640000  0.32360000  0.38820000  1.0 0.5467388948
C  C70  1  0.82360000  0.17640000  0.38820000  1.0 0.5467388948
C  C71  1  0.32360000  0.67640000  0.61180000  1.0 0.5467388948
C  C72  1  0.17640000  0.82360000  0.61180000  1.0 0.5467388948
C  C73  1  0.63160000  0.36840000  0.43470000  1.0 -0.0112810995
C  C74  1  0.86840000  0.13160000  0.43470000  1.0 -0.0112810995
C  C75  1  0.36840000  0.63160000  0.56530000  1.0 -0.0112810995
C  C76  1  0.13160000  0.86840000  0.56530000  1.0 -0.0112810995
C  C77  1  0.55090000  0.44910000  0.52450000  1.0 -0.1510267774
C  C78  1  0.94910000  0.05090000  0.52450000  1.0 -0.1510267774
C  C79  1  0.44910000  0.55090000  0.47550000  1.0 -0.1510267774
C  C80  1  0.05090000  0.94910000  0.47550000  1.0 -0.1510267774
C  C81  1  0.80230000  0.69770000  0.50000000  1.0 -0.2716341446
C  C82  1  0.69770000  0.80230000  0.50000000  1.0 -0.2716341446
C  C83  1  0.19770000  0.30230000  0.50000000  1.0 -0.2716341446
C  C84  1  0.30230000  0.19770000  0.50000000  1.0 -0.2716341446
C  C85  1  0.68010000  0.47490000  0.44700000  1.0 -0.0420933383
C  C86  1  0.81990000  0.02510000  0.44700000  1.0 -0.0420933383
C  C87  1  0.47490000  0.68010000  0.55300000  1.0 -0.0420933383
C  C88  1  0.02510000  0.81990000  0.55300000  1.0 -0.0420933383
C  C89  1  0.31990000  0.52510000  0.55300000  1.0 -0.0420933383
C  C90  1  0.18010000  0.97490000  0.55300000  1.0 -0.0420933383
C  C91  1  0.52510000  0.31990000  0.44700000  1.0 -0.0420933383
C  C92  1  0.97490000  0.18010000  0.44700000  1.0 -0.0420933383
C  C93  1  0.63960000  0.51540000  0.49200000  1.0 0.056822858
C  C94  1  0.86040000  0.98460000  0.49200000  1.0 0.056822858
C  C95  1  0.51540000  0.63960000  0.50800000  1.0 0.056822858
C  C96  1  0.98460000  0.86040000  0.50800000  1.0 0.056822858
C  C97  1  0.36040000  0.48460000  0.50800000  1.0 0.056822858
C  C98  1  0.13960000  0.01540000  0.50800000  1.0 0.056822858
C  C99  1  0.48460000  0.36040000  0.49200000  1.0 0.056822858
C  C100  1  0.01540000  0.13960000  0.49200000  1.0 0.056822858
C  C101  1  0.70180000  0.64720000  0.49840000  1.0 -0.0615468043
C  C102  1  0.79820000  0.85280000  0.49840000  1.0 -0.0615468043
C  C103  1  0.64720000  0.70180000  0.50160000  1.0 -0.0615468043
C  C104  1  0.85280000  0.79820000  0.50160000  1.0 -0.0615468043
C  C105  1  0.29820000  0.35280000  0.50160000  1.0 -0.0615468043
C  C106  1  0.20180000  0.14720000  0.50160000  1.0 -0.0615468043
C  C107  1  0.35280000  0.29820000  0.49840000  1.0 -0.0615468043
C  C108  1  0.14720000  0.20180000  0.49840000  1.0 -0.0615468043
C  C109  1  0.50410000  0.34550000  0.51190000  1.0 -0.0017944942
C  C110  1  0.99590000  0.15450000  0.51190000  1.0 -0.0017944942
C  C111  1  0.34550000  0.50410000  0.48810000  1.0 -0.0017944942
C  C112  1  0.15450000  0.99590000  0.48810000  1.0 -0.0017944942
C  C113  1  0.49590000  0.65450000  0.48810000  1.0 -0.0017944942
C  C114  1  0.00410000  0.84550000  0.48810000  1.0 -0.0017944942
C  C115  1  0.65450000  0.49590000  0.51190000  1.0 -0.0017944942
C  C116  1  0.84550000  0.00410000  0.51190000  1.0 -0.0017944942
C  C117  1  0.54460000  0.30480000  0.46640000  1.0 -0.0420933383
C  C118  1  0.95540000  0.19520000  0.46640000  1.0 -0.0420933383
C  C119  1  0.30480000  0.54460000  0.53360000  1.0 -0.0420933383
C  C120  1  0.19520000  0.95540000  0.53360000  1.0 -0.0420933383
C  C121  1  0.45540000  0.69520000  0.53360000  1.0 -0.0420933383
C  C122  1  0.04460000  0.80480000  0.53360000  1.0 -0.0420933383
C  C123  1  0.69520000  0.45540000  0.46640000  1.0 -0.0420933383
C  C124  1  0.80480000  0.04460000  0.46640000  1.0 -0.0420933383
O  O1  1  0.75000000  0.25000000  0.26480000  1.0 -0.8751146475
O  O2  1  0.25000000  0.75000000  0.73520000  1.0 -0.8751146475
O  O3  1  0.78638000  0.40822000  0.16570000  1.0 -0.5205031837
O  O4  1  0.71362000  0.09178000  0.16570000  1.0 -0.5205031837
O  O5  1  0.40822000  0.78638000  0.83430000  1.0 -0.5205031837
O  O6  1  0.09178000  0.71362000  0.83430000  1.0 -0.5205031837
O  O7  1  0.21362000  0.59178000  0.83430000  1.0 -0.5205031837
O  O8  1  0.28638000  0.90822000  0.83430000  1.0 -0.5205031837
O  O9  1  0.59178000  0.21362000  0.16570000  1.0 -0.5205031837
O  O10  1  0.90822000  0.28638000  0.16570000  1.0 -0.5205031837
O  O11  1  0.76530000  0.38090000  0.36980000  1.0 -0.5205031837
O  O12  1  0.73470000  0.11910000  0.36980000  1.0 -0.5205031837
O  O13  1  0.38090000  0.76530000  0.63020000  1.0 -0.5205031837
O  O14  1  0.11910000  0.73470000  0.63020000  1.0 -0.5205031837
O  O15  1  0.23470000  0.61910000  0.63020000  1.0 -0.5205031837
O  O16  1  0.26530000  0.88090000  0.63020000  1.0 -0.5205031837
O  O17  1  0.61910000  0.23470000  0.36980000  1.0 -0.5205031837
O  O18  1  0.88090000  0.26530000  0.36980000  1.0 -0.5205031837
O  O19  1  0.85780000  0.47240000  0.25620000  1.0 -0.5609957854
O  O20  1  0.64220000  0.02760000  0.25620000  1.0 -0.5609957854
O  O21  1  0.47240000  0.85780000  0.74380000  1.0 -0.5609957854
O  O22  1  0.02760000  0.64220000  0.74380000  1.0 -0.5609957854
O  O23  1  0.14220000  0.52760000  0.74380000  1.0 -0.5609957854
O  O24  1  0.35780000  0.97240000  0.74380000  1.0 -0.5609957854
O  O25  1  0.52760000  0.14220000  0.25620000  1.0 -0.5609957854
O  O26  1  0.97240000  0.35780000  0.25620000  1.0 -0.5609957854
