# DDEC6 charges by PACMAN v1.1 (https://github.com/mtap-research/PACMAN-charge/)
data_TOVHET_ASR_pacman
_symmetry_space_group_name_H-M   'P 1'
_cell_length_a   32.35600000
_cell_length_b   32.35600000
_cell_length_c   33.36300000
_cell_angle_alpha   90.00000000
_cell_angle_beta   90.00000000
_cell_angle_gamma   120.00000000
_symmetry_Int_Tables_number   1
_chemical_formula_structural   Fe10Ni3H42(C2O)54
_chemical_formula_sum   'Fe60 Ni18 H252 C648 O324'
_cell_volume   30248.60708404
_cell_formula_units_Z   6
loop_
 _symmetry_equiv_pos_site_id
 _symmetry_equiv_pos_as_xyz
  1  'x, y, z'
loop_
 _atom_site_type_symbol
 _atom_site_label
 _atom_site_symmetry_multiplicity
 _atom_site_fract_x
 _atom_site_fract_y
 _atom_site_fract_z
 _atom_site_occupancy
 _atom_site_charge
Fe  Fe1  1  0.10340000  0.77000000  0.08330000  1.0 1.3528612499
Fe  Fe2  1  0.23000000  0.33340000  0.08330000  1.0 1.3528612499
Fe  Fe3  1  0.66666667  0.89660000  0.08330000  1.0 1.3528612499
Fe  Fe4  1  0.33340000  0.23000000  0.41670000  1.0 1.3528612499
Fe  Fe5  1  0.89660000  0.66666667  0.41670000  1.0 1.3528612499
Fe  Fe6  1  0.77000000  0.10340000  0.41670000  1.0 1.3528612499
Fe  Fe7  1  0.00007000  0.56333000  0.75003000  1.0 1.3528612499
Fe  Fe8  1  0.56326000  0.99993000  0.75003000  1.0 1.3528612499
Fe  Fe9  1  0.43667000  0.43674000  0.75003000  1.0 1.3528612499
Fe  Fe10  1  0.89660000  0.23000000  0.91670000  1.0 1.3528612499
Fe  Fe11  1  0.77000000  0.66666667  0.91670000  1.0 1.3528612499
Fe  Fe12  1  0.33340000  0.10340000  0.91670000  1.0 1.3528612499
Fe  Fe13  1  0.66666667  0.77000000  0.58330000  1.0 1.3528612499
Fe  Fe14  1  0.10340000  0.33340000  0.58330000  1.0 1.3528612499
Fe  Fe15  1  0.23000000  0.89660000  0.58330000  1.0 1.3528612499
Fe  Fe16  1  0.99993000  0.43667000  0.24997000  1.0 1.3528612499
Fe  Fe17  1  0.43674000  0.00007000  0.24997000  1.0 1.3528612499
Fe  Fe18  1  0.56333000  0.56326000  0.24997000  1.0 1.3528612499
Fe  Fe19  1  0.19650000  0.85270000  0.03549000  1.0 1.060007568
Fe  Fe20  1  0.14730000  0.34380000  0.03549000  1.0 1.0701212861
Fe  Fe21  1  0.65620000  0.80350000  0.03549000  1.0 1.060007568
Fe  Fe22  1  0.34380000  0.14730000  0.46451000  1.0 1.060007568
Fe  Fe23  1  0.80350000  0.65620000  0.46451000  1.0 1.0701212861
Fe  Fe24  1  0.85270000  0.19650000  0.46451000  1.0 1.060007568
Fe  Fe25  1  0.86317000  0.18603000  0.36882000  1.0 1.060007568
Fe  Fe26  1  0.81397000  0.67714000  0.36882000  1.0 1.0701212861
Fe  Fe27  1  0.32286000  0.13683000  0.36882000  1.0 1.0701212861
Fe  Fe28  1  0.01047000  0.48063000  0.79784000  1.0 1.0701212861
Fe  Fe29  1  0.47016000  0.98953000  0.79784000  1.0 1.0701212861
Fe  Fe30  1  0.51937000  0.52984000  0.79784000  1.0 1.060007568
Fe  Fe31  1  0.52983000  0.51937000  0.70216000  1.0 1.060007568
Fe  Fe32  1  0.48063000  0.01046000  0.70216000  1.0 1.0701212861
Fe  Fe33  1  0.98954000  0.47017000  0.70216000  1.0 1.060007568
Fe  Fe34  1  0.67713000  0.81397000  0.13118000  1.0 1.060007568
Fe  Fe35  1  0.13684000  0.32287000  0.13118000  1.0 1.0701212861
Fe  Fe36  1  0.18603000  0.86316000  0.13118000  1.0 1.0701212861
Fe  Fe37  1  0.80350000  0.14730000  0.96451000  1.0 1.0701212861
Fe  Fe38  1  0.85270000  0.65620000  0.96451000  1.0 1.0701212861
Fe  Fe39  1  0.34380000  0.19650000  0.96451000  1.0 1.060007568
Fe  Fe40  1  0.65620000  0.85270000  0.53549000  1.0 1.060007568
Fe  Fe41  1  0.19650000  0.34380000  0.53549000  1.0 1.0701212861
Fe  Fe42  1  0.14730000  0.80350000  0.53549000  1.0 1.060007568
Fe  Fe43  1  0.13683000  0.81397000  0.63118000  1.0 1.060007568
Fe  Fe44  1  0.18603000  0.32286000  0.63118000  1.0 1.0701212861
Fe  Fe45  1  0.67714000  0.86317000  0.63118000  1.0 1.060007568
Fe  Fe46  1  0.98953000  0.51937000  0.20216000  1.0 1.0753623556
Fe  Fe47  1  0.52984000  0.01047000  0.20216000  1.0 1.0701212861
Fe  Fe48  1  0.48063000  0.47016000  0.20216000  1.0 1.0701212861
Fe  Fe49  1  0.47017000  0.48063000  0.29784000  1.0 1.060007568
Fe  Fe50  1  0.51937000  0.98954000  0.29784000  1.0 1.0701212861
Fe  Fe51  1  0.01046000  0.52983000  0.29784000  1.0 1.060007568
Fe  Fe52  1  0.32287000  0.18603000  0.86882000  1.0 1.0701212861
Fe  Fe53  1  0.86316000  0.67713000  0.86882000  1.0 1.0701212861
Fe  Fe54  1  0.81397000  0.13684000  0.86882000  1.0 1.060007568
Fe  Fe55  1  0.33333333  0.66666667  0.91670000  1.0 1.01403463
Fe  Fe56  1  0.66666667  0.33333333  0.58330000  1.0 1.01403463
Fe  Fe57  1  0.00000000  0.00000000  0.25003000  1.0 1.0192623448
Fe  Fe58  1  0.66666667  0.33333333  0.08330000  1.0 1.01403463
Fe  Fe59  1  0.33333333  0.66666667  0.41670000  1.0 1.01403463
Fe  Fe60  1  0.00000000  0.00000000  0.74997000  1.0 1.0192623448
Ni  Ni1  1  0.10000000  0.76700000  0.08330000  1.0 1.2228112421
Ni  Ni2  1  0.23300000  0.33300000  0.08330000  1.0 1.2228112421
Ni  Ni3  1  0.66700000  0.90000000  0.08330000  1.0 1.2256149363
Ni  Ni4  1  0.33300000  0.23300000  0.41670000  1.0 1.2228112421
Ni  Ni5  1  0.90000000  0.66700000  0.41670000  1.0 1.2228112421
Ni  Ni6  1  0.76700000  0.10000000  0.41670000  1.0 1.2228112421
Ni  Ni7  1  0.99967000  0.56633000  0.75003000  1.0 1.2256149363
Ni  Ni8  1  0.56666000  0.00033000  0.75003000  1.0 1.2228112421
Ni  Ni9  1  0.43367000  0.43334000  0.75003000  1.0 1.2228112421
Ni  Ni10  1  0.90000000  0.23300000  0.91670000  1.0 1.2256149363
Ni  Ni11  1  0.76700000  0.66700000  0.91670000  1.0 1.2256149363
Ni  Ni12  1  0.33300000  0.10000000  0.91670000  1.0 1.2256149363
Ni  Ni13  1  0.66700000  0.76700000  0.58330000  1.0 1.2256149363
Ni  Ni14  1  0.10000000  0.33300000  0.58330000  1.0 1.2256149363
Ni  Ni15  1  0.23300000  0.90000000  0.58330000  1.0 1.2228112421
Ni  Ni16  1  0.00033000  0.43367000  0.24997000  1.0 1.2228112421
Ni  Ni17  1  0.43334000  0.99967000  0.24997000  1.0 1.2228112421
Ni  Ni18  1  0.56633000  0.56666000  0.24997000  1.0 1.2228112421
H  H1  1  0.32240000  0.76590000  0.92460000  1.0 0.2956491124
H  H2  1  0.23410000  0.55650000  0.92460000  1.0 0.2956491124
H  H3  1  0.44350000  0.67760000  0.92460000  1.0 0.2956491124
H  H4  1  0.55650000  0.23410000  0.57540000  1.0 0.2956491124
H  H5  1  0.67760000  0.44350000  0.57540000  1.0 0.2956491124
H  H6  1  0.76590000  0.32240000  0.57540000  1.0 0.2956491124
H  H7  1  0.98907000  0.09923000  0.25793000  1.0 0.2945813285
H  H8  1  0.90077000  0.88984000  0.25793000  1.0 0.2945813285
H  H9  1  0.11016000  0.01093000  0.25793000  1.0 0.2945813285
H  H10  1  0.22317000  0.56743000  0.90873000  1.0 0.2956491124
H  H11  1  0.34426000  0.77683000  0.90873000  1.0 0.2956491124
H  H12  1  0.43257000  0.65574000  0.90873000  1.0 0.2956491124
H  H13  1  0.65573000  0.43257000  0.59127000  1.0 0.2945813285
H  H14  1  0.56743000  0.22316000  0.59127000  1.0 0.2945813285
H  H15  1  0.77684000  0.34427000  0.59127000  1.0 0.2945813285
H  H16  1  0.88983000  0.90077000  0.24207000  1.0 0.2945813285
H  H17  1  0.01094000  0.11017000  0.24207000  1.0 0.2945813285
H  H18  1  0.09923000  0.98906000  0.24207000  1.0 0.2945813285
H  H19  1  0.67760000  0.23410000  0.07540000  1.0 0.2945813285
H  H20  1  0.76590000  0.44350000  0.07540000  1.0 0.2956491124
H  H21  1  0.55650000  0.32240000  0.07540000  1.0 0.2945813285
H  H22  1  0.44350000  0.76590000  0.42460000  1.0 0.2956491124
H  H23  1  0.32240000  0.55650000  0.42460000  1.0 0.2956491124
H  H24  1  0.23410000  0.67760000  0.42460000  1.0 0.2956491124
H  H25  1  0.01093000  0.90077000  0.74207000  1.0 0.2956491124
H  H26  1  0.09923000  0.11016000  0.74207000  1.0 0.2945813285
H  H27  1  0.88984000  0.98907000  0.74207000  1.0 0.2945813285
H  H28  1  0.77683000  0.43257000  0.09127000  1.0 0.2945813285
H  H29  1  0.65574000  0.22317000  0.09127000  1.0 0.2945813285
H  H30  1  0.56743000  0.34426000  0.09127000  1.0 0.2945813285
H  H31  1  0.34427000  0.56743000  0.40873000  1.0 0.2956491124
H  H32  1  0.43257000  0.77684000  0.40873000  1.0 0.2956491124
H  H33  1  0.22316000  0.65573000  0.40873000  1.0 0.2956491124
H  H34  1  0.11017000  0.09923000  0.75793000  1.0 0.2945813285
H  H35  1  0.98906000  0.88983000  0.75793000  1.0 0.2956491124
H  H36  1  0.90077000  0.01094000  0.75793000  1.0 0.2956491124
H  H37  1  0.23650000  0.76340000  0.98130000  1.0 0.1303832609
H  H38  1  0.23660000  0.47310000  0.98130000  1.0 0.1303832609
H  H39  1  0.52690000  0.76350000  0.98130000  1.0 0.1303832609
H  H40  1  0.47310000  0.23660000  0.51870000  1.0 0.1303832609
H  H41  1  0.76350000  0.52690000  0.51870000  1.0 0.1303832609
H  H42  1  0.76340000  0.23650000  0.51870000  1.0 0.1303832609
H  H43  1  0.90317000  0.09673000  0.31463000  1.0 0.1303832609
H  H44  1  0.90327000  0.80644000  0.31463000  1.0 0.1303832609
H  H45  1  0.19356000  0.09683000  0.31463000  1.0 0.1303832609
H  H46  1  0.13977000  0.56993000  0.85203000  1.0 0.1303832609
H  H47  1  0.43016000  0.86023000  0.85203000  1.0 0.1303832609
H  H48  1  0.43007000  0.56984000  0.85203000  1.0 0.1303832609
H  H49  1  0.56983000  0.43007000  0.64797000  1.0 0.1303832609
H  H50  1  0.56993000  0.13976000  0.64797000  1.0 0.1303832609
H  H51  1  0.86024000  0.43017000  0.64797000  1.0 0.1303832609
H  H52  1  0.80643000  0.90327000  0.18537000  1.0 0.1303832609
H  H53  1  0.09684000  0.19357000  0.18537000  1.0 0.1303832609
H  H54  1  0.09673000  0.90316000  0.18537000  1.0 0.1303832609
H  H55  1  0.76350000  0.23660000  0.01870000  1.0 0.1303832609
H  H56  1  0.76340000  0.52690000  0.01870000  1.0 0.1303832609
H  H57  1  0.47310000  0.23650000  0.01870000  1.0 0.1303832609
H  H58  1  0.52690000  0.76340000  0.48130000  1.0 0.1303832609
H  H59  1  0.23650000  0.47310000  0.48130000  1.0 0.1303832609
H  H60  1  0.23660000  0.76350000  0.48130000  1.0 0.1303832609
H  H61  1  0.09683000  0.90327000  0.68537000  1.0 0.1303832609
H  H62  1  0.09673000  0.19356000  0.68537000  1.0 0.1303832609
H  H63  1  0.80644000  0.90317000  0.68537000  1.0 0.1303832609
H  H64  1  0.86023000  0.43007000  0.14797000  1.0 0.1303832609
H  H65  1  0.56984000  0.13977000  0.14797000  1.0 0.1303832609
H  H66  1  0.56993000  0.43016000  0.14797000  1.0 0.1303832609
H  H67  1  0.43017000  0.56993000  0.35203000  1.0 0.1303832609
H  H68  1  0.43007000  0.86024000  0.35203000  1.0 0.1303832609
H  H69  1  0.13976000  0.56983000  0.35203000  1.0 0.1303832609
H  H70  1  0.19357000  0.09673000  0.81463000  1.0 0.1303832609
H  H71  1  0.90316000  0.80643000  0.81463000  1.0 0.1303832609
H  H72  1  0.90327000  0.09684000  0.81463000  1.0 0.1303832609
H  H73  1  0.22510000  0.63300000  0.98180000  1.0 0.1303832609
H  H74  1  0.36700000  0.59210000  0.98180000  1.0 0.1303832609
H  H75  1  0.40790000  0.77490000  0.98180000  1.0 0.1303832609
H  H76  1  0.59210000  0.36700000  0.51820000  1.0 0.1303832609
H  H77  1  0.77490000  0.40790000  0.51820000  1.0 0.1303832609
H  H78  1  0.63300000  0.22510000  0.51820000  1.0 0.1303832609
H  H79  1  0.89177000  0.96633000  0.31513000  1.0 0.1303832609
H  H80  1  0.03367000  0.92544000  0.31513000  1.0 0.1303832609
H  H81  1  0.07456000  0.10823000  0.31513000  1.0 0.1303832609
H  H82  1  0.25877000  0.70033000  0.85153000  1.0 0.1303832609
H  H83  1  0.44156000  0.74123000  0.85153000  1.0 0.1303832609
H  H84  1  0.29967000  0.55844000  0.85153000  1.0 0.1303832609
H  H85  1  0.55843000  0.29967000  0.64847000  1.0 0.1303832609
H  H86  1  0.70033000  0.25876000  0.64847000  1.0 0.1303832609
H  H87  1  0.74124000  0.44157000  0.64847000  1.0 0.1303832609
H  H88  1  0.92543000  0.03367000  0.18487000  1.0 0.1303832609
H  H89  1  0.10824000  0.07457000  0.18487000  1.0 0.1303832609
H  H90  1  0.96633000  0.89176000  0.18487000  1.0 0.1303832609
H  H91  1  0.77490000  0.36700000  0.01820000  1.0 0.1303832609
H  H92  1  0.63300000  0.40790000  0.01820000  1.0 0.1303832609
H  H93  1  0.59210000  0.22510000  0.01820000  1.0 0.1303832609
H  H94  1  0.40790000  0.63300000  0.48180000  1.0 0.1303832609
H  H95  1  0.22510000  0.59210000  0.48180000  1.0 0.1303832609
H  H96  1  0.36700000  0.77490000  0.48180000  1.0 0.1303832609
H  H97  1  0.10823000  0.03367000  0.68487000  1.0 0.1303832609
H  H98  1  0.96633000  0.07456000  0.68487000  1.0 0.1303832609
H  H99  1  0.92544000  0.89177000  0.68487000  1.0 0.1303832609
H  H100  1  0.74123000  0.29967000  0.14847000  1.0 0.1303832609
H  H101  1  0.55844000  0.25877000  0.14847000  1.0 0.1303832609
H  H102  1  0.70033000  0.44156000  0.14847000  1.0 0.1303832609
H  H103  1  0.44157000  0.70033000  0.35153000  1.0 0.1303832609
H  H104  1  0.29967000  0.74124000  0.35153000  1.0 0.1303832609
H  H105  1  0.25876000  0.55843000  0.35153000  1.0 0.1303832609
H  H106  1  0.07457000  0.96633000  0.81513000  1.0 0.1303832609
H  H107  1  0.89176000  0.92543000  0.81513000  1.0 0.1303832609
H  H108  1  0.03367000  0.10824000  0.81513000  1.0 0.1303832609
H  H109  1  0.13050000  0.65610000  0.04320000  1.0 0.139741204
H  H110  1  0.34390000  0.47440000  0.04320000  1.0 0.139741204
H  H111  1  0.52560000  0.86950000  0.04320000  1.0 0.139741204
H  H112  1  0.47440000  0.34390000  0.45680000  1.0 0.139741204
H  H113  1  0.86950000  0.52560000  0.45680000  1.0 0.139741204
H  H114  1  0.65610000  0.13050000  0.45680000  1.0 0.139741204
H  H115  1  0.79717000  0.98943000  0.37653000  1.0 0.139741204
H  H116  1  0.01057000  0.80774000  0.37653000  1.0 0.139741204
H  H117  1  0.19226000  0.20283000  0.37653000  1.0 0.139741204
H  H118  1  0.14107000  0.67723000  0.79013000  1.0 0.139741204
H  H119  1  0.53616000  0.85893000  0.79013000  1.0 0.139741204
H  H120  1  0.32277000  0.46384000  0.79013000  1.0 0.139741204
H  H121  1  0.46383000  0.32277000  0.70987000  1.0 0.139741204
H  H122  1  0.67723000  0.14106000  0.70987000  1.0 0.139741204
H  H123  1  0.85894000  0.53617000  0.70987000  1.0 0.139741204
H  H124  1  0.80773000  0.01057000  0.12347000  1.0 0.139741204
H  H125  1  0.20284000  0.19227000  0.12347000  1.0 0.139741204
H  H126  1  0.98943000  0.79716000  0.12347000  1.0 0.139741204
H  H127  1  0.86950000  0.34390000  0.95680000  1.0 0.139741204
H  H128  1  0.65610000  0.52560000  0.95680000  1.0 0.139741204
H  H129  1  0.47440000  0.13050000  0.95680000  1.0 0.139741204
H  H130  1  0.52560000  0.65610000  0.54320000  1.0 0.139741204
H  H131  1  0.13050000  0.47440000  0.54320000  1.0 0.139741204
H  H132  1  0.34390000  0.86950000  0.54320000  1.0 0.139741204
H  H133  1  0.20283000  0.01057000  0.62347000  1.0 0.139741204
H  H134  1  0.98943000  0.19226000  0.62347000  1.0 0.139741204
H  H135  1  0.80774000  0.79717000  0.62347000  1.0 0.139741204
H  H136  1  0.85893000  0.32277000  0.20987000  1.0 0.139741204
H  H137  1  0.46384000  0.14107000  0.20987000  1.0 0.139741204
H  H138  1  0.67723000  0.53616000  0.20987000  1.0 0.139741204
H  H139  1  0.53617000  0.67723000  0.29013000  1.0 0.139741204
H  H140  1  0.32277000  0.85894000  0.29013000  1.0 0.139741204
H  H141  1  0.14106000  0.46383000  0.29013000  1.0 0.139741204
H  H142  1  0.19227000  0.98943000  0.87653000  1.0 0.139741204
H  H143  1  0.79716000  0.80773000  0.87653000  1.0 0.139741204
H  H144  1  0.01057000  0.20284000  0.87653000  1.0 0.139741204
H  H145  1  0.14090000  0.47170000  0.04540000  1.0 0.1303832609
H  H146  1  0.52830000  0.66920000  0.04540000  1.0 0.1303832609
H  H147  1  0.33080000  0.85910000  0.04540000  1.0 0.1303832609
H  H148  1  0.66920000  0.52830000  0.45460000  1.0 0.1303832609
H  H149  1  0.85910000  0.33080000  0.45460000  1.0 0.1303832609
H  H150  1  0.47170000  0.14090000  0.45460000  1.0 0.1303832609
H  H151  1  0.80757000  0.80503000  0.37873000  1.0 0.1303832609
H  H152  1  0.19497000  0.00254000  0.37873000  1.0 0.1303832609
H  H153  1  0.99746000  0.19243000  0.37873000  1.0 0.1303832609
H  H154  1  0.33587000  0.86163000  0.78793000  1.0 0.1303832609
H  H155  1  0.52576000  0.66413000  0.78793000  1.0 0.1303832609
H  H156  1  0.13837000  0.47424000  0.78793000  1.0 0.1303832609
H  H157  1  0.47423000  0.13837000  0.71207000  1.0 0.1303832609
H  H158  1  0.86163000  0.33586000  0.71207000  1.0 0.1303832609
H  H159  1  0.66414000  0.52577000  0.71207000  1.0 0.139741204
H  H160  1  0.00253000  0.19497000  0.12127000  1.0 0.1303832609
H  H161  1  0.19244000  0.99747000  0.12127000  1.0 0.1303832609
H  H162  1  0.80503000  0.80756000  0.12127000  1.0 0.139741204
H  H163  1  0.85910000  0.52830000  0.95460000  1.0 0.1303832609
H  H164  1  0.47170000  0.33080000  0.95460000  1.0 0.1303832609
H  H165  1  0.66920000  0.14090000  0.95460000  1.0 0.1303832609
H  H166  1  0.33080000  0.47170000  0.54540000  1.0 0.1303832609
H  H167  1  0.14090000  0.66920000  0.54540000  1.0 0.1303832609
H  H168  1  0.52830000  0.85910000  0.54540000  1.0 0.1303832609
H  H169  1  0.19243000  0.19497000  0.62127000  1.0 0.1303832609
H  H170  1  0.80503000  0.99746000  0.62127000  1.0 0.1303832609
H  H171  1  0.00254000  0.80757000  0.62127000  1.0 0.1303832609
H  H172  1  0.66413000  0.13837000  0.21207000  1.0 0.1303832609
H  H173  1  0.47424000  0.33587000  0.21207000  1.0 0.1303832609
H  H174  1  0.86163000  0.52576000  0.21207000  1.0 0.1303832609
H  H175  1  0.52577000  0.86163000  0.28793000  1.0 0.1303832609
H  H176  1  0.13837000  0.66414000  0.28793000  1.0 0.1303832609
H  H177  1  0.33586000  0.47423000  0.28793000  1.0 0.1303832609
H  H178  1  0.99747000  0.80503000  0.87873000  1.0 0.139741204
H  H179  1  0.80756000  0.00253000  0.87873000  1.0 0.139741204
H  H180  1  0.19497000  0.19244000  0.87873000  1.0 0.1303832609
H  H181  1  0.07540000  0.41510000  0.15040000  1.0 0.139741204
H  H182  1  0.58490000  0.66030000  0.15040000  1.0 0.139741204
H  H183  1  0.33970000  0.92460000  0.15040000  1.0 0.139741204
H  H184  1  0.66030000  0.58490000  0.34960000  1.0 0.139741204
H  H185  1  0.92460000  0.33970000  0.34960000  1.0 0.139741204
H  H186  1  0.41510000  0.07540000  0.34960000  1.0 0.139741204
H  H187  1  0.74207000  0.74843000  0.48373000  1.0 0.139741204
H  H188  1  0.25157000  0.99364000  0.48373000  1.0 0.139741204
H  H189  1  0.00636000  0.25793000  0.48373000  1.0 0.139741204
H  H190  1  0.32697000  0.91823000  0.68293000  1.0 0.139741204
H  H191  1  0.59126000  0.67303000  0.68293000  1.0 0.139741204
H  H192  1  0.08177000  0.40874000  0.68293000  1.0 0.139741204
H  H193  1  0.40873000  0.08177000  0.81707000  1.0 0.139741204
H  H194  1  0.91823000  0.32696000  0.81707000  1.0 0.139741204
H  H195  1  0.67304000  0.59127000  0.81707000  1.0 0.139741204
H  H196  1  0.99363000  0.25157000  0.01627000  1.0 0.139741204
H  H197  1  0.25794000  0.00637000  0.01627000  1.0 0.139741204
H  H198  1  0.74843000  0.74206000  0.01627000  1.0 0.139741204
H  H199  1  0.92460000  0.58490000  0.84960000  1.0 0.139741204
H  H200  1  0.41510000  0.33970000  0.84960000  1.0 0.139741204
H  H201  1  0.66030000  0.07540000  0.84960000  1.0 0.139741204
H  H202  1  0.33970000  0.41510000  0.65040000  1.0 0.139741204
H  H203  1  0.07540000  0.66030000  0.65040000  1.0 0.139741204
H  H204  1  0.58490000  0.92460000  0.65040000  1.0 0.139741204
H  H205  1  0.25793000  0.25157000  0.51627000  1.0 0.139741204
H  H206  1  0.74843000  0.00636000  0.51627000  1.0 0.139741204
H  H207  1  0.99364000  0.74207000  0.51627000  1.0 0.139741204
H  H208  1  0.67303000  0.08177000  0.31707000  1.0 0.139741204
H  H209  1  0.40874000  0.32697000  0.31707000  1.0 0.139741204
H  H210  1  0.91823000  0.59126000  0.31707000  1.0 0.139741204
H  H211  1  0.59127000  0.91823000  0.18293000  1.0 0.139741204
H  H212  1  0.08177000  0.67304000  0.18293000  1.0 0.139741204
H  H213  1  0.32696000  0.40873000  0.18293000  1.0 0.139741204
H  H214  1  0.00637000  0.74843000  0.98373000  1.0 0.139741204
H  H215  1  0.74206000  0.99363000  0.98373000  1.0 0.139741204
H  H216  1  0.25157000  0.25794000  0.98373000  1.0 0.139741204
H  H217  1  0.08420000  0.53680000  0.11000000  1.0 0.139741204
H  H218  1  0.46320000  0.54740000  0.11000000  1.0 0.139741204
H  H219  1  0.45260000  0.91580000  0.11000000  1.0 0.139741204
H  H220  1  0.54740000  0.46320000  0.39000000  1.0 0.139741204
H  H221  1  0.91580000  0.45260000  0.39000000  1.0 0.139741204
H  H222  1  0.53680000  0.08420000  0.39000000  1.0 0.139741204
H  H223  1  0.75087000  0.87013000  0.44333000  1.0 0.139741204
H  H224  1  0.12987000  0.88074000  0.44333000  1.0 0.139741204
H  H225  1  0.11926000  0.24913000  0.44333000  1.0 0.139741204
H  H226  1  0.21407000  0.79653000  0.72333000  1.0 0.139741204
H  H227  1  0.58246000  0.78593000  0.72333000  1.0 0.139741204
H  H228  1  0.20347000  0.41754000  0.72333000  1.0 0.139741204
H  H229  1  0.41753000  0.20347000  0.77667000  1.0 0.139741204
H  H230  1  0.79653000  0.21406000  0.77667000  1.0 0.139741204
H  H231  1  0.78594000  0.58247000  0.77667000  1.0 0.139741204
H  H232  1  0.88073000  0.12987000  0.05667000  1.0 0.139741204
H  H233  1  0.24914000  0.11927000  0.05667000  1.0 0.139741204
H  H234  1  0.87013000  0.75086000  0.05667000  1.0 0.139741204
H  H235  1  0.91580000  0.46320000  0.89000000  1.0 0.139741204
H  H236  1  0.53680000  0.45260000  0.89000000  1.0 0.139741204
H  H237  1  0.54740000  0.08420000  0.89000000  1.0 0.139741204
H  H238  1  0.45260000  0.53680000  0.61000000  1.0 0.139741204
H  H239  1  0.08420000  0.54740000  0.61000000  1.0 0.139741204
H  H240  1  0.46320000  0.91580000  0.61000000  1.0 0.139741204
H  H241  1  0.24913000  0.12987000  0.55667000  1.0 0.139741204
H  H242  1  0.87013000  0.11926000  0.55667000  1.0 0.139741204
H  H243  1  0.88074000  0.75087000  0.55667000  1.0 0.139741204
H  H244  1  0.78593000  0.20347000  0.27667000  1.0 0.139741204
H  H245  1  0.41754000  0.21407000  0.27667000  1.0 0.139741204
H  H246  1  0.79653000  0.58246000  0.27667000  1.0 0.139741204
H  H247  1  0.58247000  0.79653000  0.22333000  1.0 0.139741204
H  H248  1  0.20347000  0.78594000  0.22333000  1.0 0.139741204
H  H249  1  0.21406000  0.41753000  0.22333000  1.0 0.139741204
H  H250  1  0.11927000  0.87013000  0.94333000  1.0 0.139741204
H  H251  1  0.75086000  0.88073000  0.94333000  1.0 0.139741204
H  H252  1  0.12987000  0.24914000  0.94333000  1.0 0.139741204
C  C1  1  0.16470000  0.74790000  0.02960000  1.0 0.6116645943
C  C2  1  0.25210000  0.41680000  0.02960000  1.0 0.6116645943
C  C3  1  0.58320000  0.83530000  0.02960000  1.0 0.6116645943
C  C4  1  0.41680000  0.25210000  0.47040000  1.0 0.6116645943
C  C5  1  0.83530000  0.58320000  0.47040000  1.0 0.6116645943
C  C6  1  0.74790000  0.16470000  0.47040000  1.0 0.6116645943
C  C7  1  0.83137000  0.08123000  0.36293000  1.0 0.6116645943
C  C8  1  0.91877000  0.75014000  0.36293000  1.0 0.6116645943
C  C9  1  0.24986000  0.16863000  0.36293000  1.0 0.6116645943
C  C10  1  0.08347000  0.58543000  0.80373000  1.0 0.6116645943
C  C11  1  0.50196000  0.91653000  0.80373000  1.0 0.6116645943
C  C12  1  0.41457000  0.49804000  0.80373000  1.0 0.6116645943
C  C13  1  0.49803000  0.41457000  0.69627000  1.0 0.6116645943
C  C14  1  0.58543000  0.08346000  0.69627000  1.0 0.6116645943
C  C15  1  0.91654000  0.50197000  0.69627000  1.0 0.6116645943
C  C16  1  0.75013000  0.91877000  0.13707000  1.0 0.6116645943
C  C17  1  0.16864000  0.24987000  0.13707000  1.0 0.6116645943
C  C18  1  0.08123000  0.83136000  0.13707000  1.0 0.6116645943
C  C19  1  0.83530000  0.25210000  0.97040000  1.0 0.6116645943
C  C20  1  0.74790000  0.58320000  0.97040000  1.0 0.6116645943
C  C21  1  0.41680000  0.16470000  0.97040000  1.0 0.6116645943
C  C22  1  0.58320000  0.74790000  0.52960000  1.0 0.6116645943
C  C23  1  0.16470000  0.41680000  0.52960000  1.0 0.6116645943
C  C24  1  0.25210000  0.83530000  0.52960000  1.0 0.6116645943
C  C25  1  0.16863000  0.91877000  0.63707000  1.0 0.6116645943
C  C26  1  0.08123000  0.24986000  0.63707000  1.0 0.6116645943
C  C27  1  0.75014000  0.83137000  0.63707000  1.0 0.6116645943
C  C28  1  0.91653000  0.41457000  0.19627000  1.0 0.6116645943
C  C29  1  0.49804000  0.08347000  0.19627000  1.0 0.6116645943
C  C30  1  0.58543000  0.50196000  0.19627000  1.0 0.6116645943
C  C31  1  0.50197000  0.58543000  0.30373000  1.0 0.6116645943
C  C32  1  0.41457000  0.91654000  0.30373000  1.0 0.6116645943
C  C33  1  0.08346000  0.49803000  0.30373000  1.0 0.6116645943
C  C34  1  0.24987000  0.08123000  0.86293000  1.0 0.6116645943
C  C35  1  0.83136000  0.75013000  0.86293000  1.0 0.6116645943
C  C36  1  0.91877000  0.16864000  0.86293000  1.0 0.6116645943
C  C37  1  0.18070000  0.71420000  0.01471000  1.0 -0.0125319937
C  C38  1  0.28580000  0.46650000  0.01471000  1.0 -0.0125319937
C  C39  1  0.53350000  0.81930000  0.01471000  1.0 -0.0125319937
C  C40  1  0.46650000  0.28580000  0.48529000  1.0 -0.0125319937
C  C41  1  0.81930000  0.53350000  0.48529000  1.0 -0.0125319937
C  C42  1  0.71420000  0.18070000  0.48529000  1.0 -0.0125319937
C  C43  1  0.84737000  0.04753000  0.34804000  1.0 -0.0125319937
C  C44  1  0.95247000  0.79984000  0.34804000  1.0 -0.0125319937
C  C45  1  0.20016000  0.15263000  0.34804000  1.0 -0.0125319937
C  C46  1  0.13317000  0.61913000  0.81862000  1.0 -0.0125319937
C  C47  1  0.48596000  0.86683000  0.81862000  1.0 -0.0125319937
C  C48  1  0.38087000  0.51404000  0.81862000  1.0 -0.0125319937
C  C49  1  0.51403000  0.38087000  0.68138000  1.0 -0.0125319937
C  C50  1  0.61913000  0.13316000  0.68138000  1.0 -0.0125319937
C  C51  1  0.86684000  0.48597000  0.68138000  1.0 -0.0125319937
C  C52  1  0.79983000  0.95247000  0.15196000  1.0 -0.0125319937
C  C53  1  0.15264000  0.20017000  0.15196000  1.0 -0.0125319937
C  C54  1  0.04753000  0.84736000  0.15196000  1.0 -0.0125319937
C  C55  1  0.81930000  0.28580000  0.98529000  1.0 -0.0125319937
C  C56  1  0.71420000  0.53350000  0.98529000  1.0 -0.0125319937
C  C57  1  0.46650000  0.18070000  0.98529000  1.0 -0.0125319937
C  C58  1  0.53350000  0.71420000  0.51471000  1.0 -0.0125319937
C  C59  1  0.18070000  0.46650000  0.51471000  1.0 -0.0125319937
C  C60  1  0.28580000  0.81930000  0.51471000  1.0 -0.0125319937
C  C61  1  0.15263000  0.95247000  0.65196000  1.0 -0.0125319937
C  C62  1  0.04753000  0.20016000  0.65196000  1.0 -0.0125319937
C  C63  1  0.79984000  0.84737000  0.65196000  1.0 -0.0125319937
C  C64  1  0.86683000  0.38087000  0.18138000  1.0 -0.0125319937
C  C65  1  0.51404000  0.13317000  0.18138000  1.0 -0.0125319937
C  C66  1  0.61913000  0.48596000  0.18138000  1.0 -0.0125319937
C  C67  1  0.48597000  0.61913000  0.31862000  1.0 -0.0125319937
C  C68  1  0.38087000  0.86684000  0.31862000  1.0 -0.0125319937
C  C69  1  0.13316000  0.51403000  0.31862000  1.0 -0.0125319937
C  C70  1  0.20017000  0.04753000  0.84804000  1.0 -0.0125319937
C  C71  1  0.84736000  0.79983000  0.84804000  1.0 -0.0125319937
C  C72  1  0.95247000  0.15264000  0.84804000  1.0 -0.0125319937
C  C73  1  0.22080000  0.73110000  0.99010000  1.0 -0.1179859093
C  C74  1  0.26890000  0.48970000  0.99010000  1.0 -0.1179859093
C  C75  1  0.51030000  0.77920000  0.99010000  1.0 -0.1179859093
C  C76  1  0.48970000  0.26890000  0.50990000  1.0 -0.1135074044
C  C77  1  0.77920000  0.51030000  0.50990000  1.0 -0.1135074044
C  C78  1  0.73110000  0.22080000  0.50990000  1.0 -0.1135074044
C  C79  1  0.88747000  0.06443000  0.32343000  1.0 -0.1135074044
C  C80  1  0.93557000  0.82304000  0.32343000  1.0 -0.1135074044
C  C81  1  0.17696000  0.11253000  0.32343000  1.0 -0.1135074044
C  C82  1  0.15637000  0.60223000  0.84323000  1.0 -0.1179859093
C  C83  1  0.44586000  0.84363000  0.84323000  1.0 -0.1179859093
C  C84  1  0.39777000  0.55414000  0.84323000  1.0 -0.1179859093
C  C85  1  0.55413000  0.39777000  0.65677000  1.0 -0.1135074044
C  C86  1  0.60223000  0.15636000  0.65677000  1.0 -0.1135074044
C  C87  1  0.84364000  0.44587000  0.65677000  1.0 -0.1179859093
C  C88  1  0.82303000  0.93557000  0.17657000  1.0 -0.1179859093
C  C89  1  0.11254000  0.17697000  0.17657000  1.0 -0.1135074044
C  C90  1  0.06443000  0.88746000  0.17657000  1.0 -0.1135074044
C  C91  1  0.77920000  0.26890000  0.00990000  1.0 -0.1135074044
C  C92  1  0.73110000  0.51030000  0.00990000  1.0 -0.1135074044
C  C93  1  0.48970000  0.22080000  0.00990000  1.0 -0.1135074044
C  C94  1  0.51030000  0.73110000  0.49010000  1.0 -0.1179859093
C  C95  1  0.22080000  0.48970000  0.49010000  1.0 -0.1179859093
C  C96  1  0.26890000  0.77920000  0.49010000  1.0 -0.1179859093
C  C97  1  0.11253000  0.93557000  0.67657000  1.0 -0.1179859093
C  C98  1  0.06443000  0.17696000  0.67657000  1.0 -0.1135074044
C  C99  1  0.82304000  0.88747000  0.67657000  1.0 -0.1179859093
C  C100  1  0.84363000  0.39777000  0.15677000  1.0 -0.1135074044
C  C101  1  0.55414000  0.15637000  0.15677000  1.0 -0.1135074044
C  C102  1  0.60223000  0.44586000  0.15677000  1.0 -0.1135074044
C  C103  1  0.44587000  0.60223000  0.34323000  1.0 -0.1179859093
C  C104  1  0.39777000  0.84364000  0.34323000  1.0 -0.1179859093
C  C105  1  0.15636000  0.55413000  0.34323000  1.0 -0.1179859093
C  C106  1  0.17697000  0.06443000  0.82343000  1.0 -0.1179859093
C  C107  1  0.88746000  0.82303000  0.82343000  1.0 -0.1135074044
C  C108  1  0.93557000  0.11254000  0.82343000  1.0 -0.1179859093
C  C109  1  0.23790000  0.70110000  0.97820000  1.0 -0.0410381651
C  C110  1  0.29890000  0.53680000  0.97820000  1.0 -0.0410381651
C  C111  1  0.46320000  0.76210000  0.97820000  1.0 -0.0410381651
C  C112  1  0.53680000  0.29890000  0.52180000  1.0 -0.0410381651
C  C113  1  0.76210000  0.46320000  0.52180000  1.0 -0.0410381651
C  C114  1  0.70110000  0.23790000  0.52180000  1.0 -0.0410381651
C  C115  1  0.90457000  0.03443000  0.31153000  1.0 -0.0410381651
C  C116  1  0.96557000  0.87014000  0.31153000  1.0 -0.0410381651
C  C117  1  0.12986000  0.09543000  0.31153000  1.0 -0.0410381651
C  C118  1  0.20347000  0.63223000  0.85513000  1.0 -0.0410381651
C  C119  1  0.42876000  0.79653000  0.85513000  1.0 -0.0410381651
C  C120  1  0.36777000  0.57124000  0.85513000  1.0 -0.0410381651
C  C121  1  0.57123000  0.36777000  0.64487000  1.0 -0.0410381651
C  C122  1  0.63223000  0.20346000  0.64487000  1.0 -0.0410381651
C  C123  1  0.79654000  0.42877000  0.64487000  1.0 -0.0410381651
C  C124  1  0.87013000  0.96557000  0.18847000  1.0 -0.0410381651
C  C125  1  0.09544000  0.12987000  0.18847000  1.0 -0.0410381651
C  C126  1  0.03443000  0.90456000  0.18847000  1.0 -0.0410381651
C  C127  1  0.76210000  0.29890000  0.02180000  1.0 -0.0410381651
C  C128  1  0.70110000  0.46320000  0.02180000  1.0 -0.0410381651
C  C129  1  0.53680000  0.23790000  0.02180000  1.0 -0.0410381651
C  C130  1  0.46320000  0.70110000  0.47820000  1.0 -0.0410381651
C  C131  1  0.23790000  0.53680000  0.47820000  1.0 -0.0410381651
C  C132  1  0.29890000  0.76210000  0.47820000  1.0 -0.0410381651
C  C133  1  0.09543000  0.96557000  0.68847000  1.0 -0.0410381651
C  C134  1  0.03443000  0.12986000  0.68847000  1.0 -0.0410381651
C  C135  1  0.87014000  0.90457000  0.68847000  1.0 -0.0410381651
C  C136  1  0.79653000  0.36777000  0.14487000  1.0 -0.0410381651
C  C137  1  0.57124000  0.20347000  0.14487000  1.0 -0.0410381651
C  C138  1  0.63223000  0.42876000  0.14487000  1.0 -0.0410381651
C  C139  1  0.42877000  0.63223000  0.35513000  1.0 -0.0410381651
C  C140  1  0.36777000  0.79654000  0.35513000  1.0 -0.0410381651
C  C141  1  0.20346000  0.57123000  0.35513000  1.0 -0.0410381651
C  C142  1  0.12987000  0.03443000  0.81153000  1.0 -0.0410381651
C  C143  1  0.90456000  0.87013000  0.81153000  1.0 -0.0410381651
C  C144  1  0.96557000  0.09544000  0.81153000  1.0 -0.0410381651
C  C145  1  0.21400000  0.65380000  0.99040000  1.0 -0.1423277774
C  C146  1  0.34620000  0.56020000  0.99040000  1.0 -0.1423277774
C  C147  1  0.43980000  0.78600000  0.99040000  1.0 -0.1423277774
C  C148  1  0.56020000  0.34620000  0.50960000  1.0 -0.1423277774
C  C149  1  0.78600000  0.43980000  0.50960000  1.0 -0.1423277774
C  C150  1  0.65380000  0.21400000  0.50960000  1.0 -0.1423277774
C  C151  1  0.88067000  0.98713000  0.32373000  1.0 -0.1423277774
C  C152  1  0.01287000  0.89354000  0.32373000  1.0 -0.1423277774
C  C153  1  0.10646000  0.11933000  0.32373000  1.0 -0.1423277774
C  C154  1  0.22687000  0.67953000  0.84293000  1.0 -0.1423277774
C  C155  1  0.45266000  0.77313000  0.84293000  1.0 -0.1423277774
C  C156  1  0.32047000  0.54734000  0.84293000  1.0 -0.1423277774
C  C157  1  0.54733000  0.32047000  0.65707000  1.0 -0.1423277774
C  C158  1  0.67953000  0.22686000  0.65707000  1.0 -0.1423277774
C  C159  1  0.77314000  0.45267000  0.65707000  1.0 -0.1423277774
C  C160  1  0.89353000  0.01287000  0.17627000  1.0 -0.1423277774
C  C161  1  0.11934000  0.10647000  0.17627000  1.0 -0.1423277774
C  C162  1  0.98713000  0.88066000  0.17627000  1.0 -0.1423277774
C  C163  1  0.78600000  0.34620000  0.00960000  1.0 -0.1423277774
C  C164  1  0.65380000  0.43980000  0.00960000  1.0 -0.1423277774
C  C165  1  0.56020000  0.21400000  0.00960000  1.0 -0.1423277774
C  C166  1  0.43980000  0.65380000  0.49040000  1.0 -0.1423277774
C  C167  1  0.21400000  0.56020000  0.49040000  1.0 -0.1423277774
C  C168  1  0.34620000  0.78600000  0.49040000  1.0 -0.1423277774
C  C169  1  0.11933000  0.01287000  0.67627000  1.0 -0.1423277774
C  C170  1  0.98713000  0.10646000  0.67627000  1.0 -0.1423277774
C  C171  1  0.89354000  0.88067000  0.67627000  1.0 -0.1423277774
C  C172  1  0.77313000  0.32047000  0.15707000  1.0 -0.1423277774
C  C173  1  0.54734000  0.22687000  0.15707000  1.0 -0.1423277774
C  C174  1  0.67953000  0.45266000  0.15707000  1.0 -0.1423277774
C  C175  1  0.45267000  0.67953000  0.34293000  1.0 -0.1423277774
C  C176  1  0.32047000  0.77314000  0.34293000  1.0 -0.1423277774
C  C177  1  0.22686000  0.54733000  0.34293000  1.0 -0.1423277774
C  C178  1  0.10647000  0.98713000  0.82373000  1.0 -0.1423277774
C  C179  1  0.88066000  0.89353000  0.82373000  1.0 -0.1423277774
C  C180  1  0.01287000  0.11934000  0.82373000  1.0 -0.1423277774
C  C181  1  0.17410000  0.63650000  0.01490000  1.0 0.139741204
C  C182  1  0.36350000  0.53760000  0.01490000  1.0 0.139741204
C  C183  1  0.46240000  0.82590000  0.01490000  1.0 0.139741204
C  C184  1  0.53760000  0.36350000  0.48510000  1.0 0.139741204
C  C185  1  0.82590000  0.46240000  0.48510000  1.0 0.139741204
C  C186  1  0.63650000  0.17410000  0.48510000  1.0 0.139741204
C  C187  1  0.84077000  0.96983000  0.34823000  1.0 0.139741204
C  C188  1  0.03017000  0.87094000  0.34823000  1.0 0.139741204
C  C189  1  0.12906000  0.15923000  0.34823000  1.0 0.139741204
C  C190  1  0.20427000  0.69683000  0.81843000  1.0 0.139741204
C  C191  1  0.49256000  0.79573000  0.81843000  1.0 0.139741204
C  C192  1  0.30317000  0.50744000  0.81843000  1.0 0.139741204
C  C193  1  0.50743000  0.30317000  0.68157000  1.0 0.139741204
C  C194  1  0.69683000  0.20426000  0.68157000  1.0 0.139741204
C  C195  1  0.79574000  0.49257000  0.68157000  1.0 0.139741204
C  C196  1  0.87093000  0.03017000  0.15177000  1.0 0.139741204
C  C197  1  0.15924000  0.12907000  0.15177000  1.0 0.139741204
C  C198  1  0.96983000  0.84076000  0.15177000  1.0 0.139741204
C  C199  1  0.82590000  0.36350000  0.98510000  1.0 0.139741204
C  C200  1  0.63650000  0.46240000  0.98510000  1.0 0.139741204
C  C201  1  0.53760000  0.17410000  0.98510000  1.0 0.139741204
C  C202  1  0.46240000  0.63650000  0.51490000  1.0 0.139741204
C  C203  1  0.17410000  0.53760000  0.51490000  1.0 0.139741204
C  C204  1  0.36350000  0.82590000  0.51490000  1.0 0.139741204
C  C205  1  0.15923000  0.03017000  0.65177000  1.0 0.139741204
C  C206  1  0.96983000  0.12906000  0.65177000  1.0 0.139741204
C  C207  1  0.87094000  0.84077000  0.65177000  1.0 0.139741204
C  C208  1  0.79573000  0.30317000  0.18157000  1.0 0.139741204
C  C209  1  0.50744000  0.20427000  0.18157000  1.0 0.139741204
C  C210  1  0.69683000  0.49256000  0.18157000  1.0 0.139741204
C  C211  1  0.49257000  0.69683000  0.31843000  1.0 0.139741204
C  C212  1  0.30317000  0.79574000  0.31843000  1.0 0.139741204
C  C213  1  0.20426000  0.50743000  0.31843000  1.0 0.139741204
C  C214  1  0.12907000  0.96983000  0.84823000  1.0 0.139741204
C  C215  1  0.84076000  0.87093000  0.84823000  1.0 0.139741204
C  C216  1  0.03017000  0.15924000  0.84823000  1.0 0.139741204
C  C217  1  0.15800000  0.66770000  0.02660000  1.0 -0.1179859093
C  C218  1  0.33230000  0.49030000  0.02660000  1.0 -0.1179859093
C  C219  1  0.50970000  0.84200000  0.02660000  1.0 -0.1179859093
C  C220  1  0.49030000  0.33230000  0.47340000  1.0 -0.1179859093
C  C221  1  0.84200000  0.50970000  0.47340000  1.0 -0.1179859093
C  C222  1  0.66770000  0.15800000  0.47340000  1.0 -0.1179859093
C  C223  1  0.82467000  0.00103000  0.35993000  1.0 -0.1135074044
C  C224  1  0.99897000  0.82364000  0.35993000  1.0 -0.1179859093
C  C225  1  0.17636000  0.17533000  0.35993000  1.0 -0.1179859093
C  C226  1  0.15697000  0.66563000  0.80673000  1.0 -0.1179859093
C  C227  1  0.50866000  0.84303000  0.80673000  1.0 -0.1179859093
C  C228  1  0.33437000  0.49134000  0.80673000  1.0 -0.1179859093
C  C229  1  0.49133000  0.33437000  0.69327000  1.0 -0.1179859093
C  C230  1  0.66563000  0.15696000  0.69327000  1.0 -0.1179859093
C  C231  1  0.84304000  0.50867000  0.69327000  1.0 -0.1135074044
C  C232  1  0.82363000  0.99897000  0.14007000  1.0 -0.1179859093
C  C233  1  0.17534000  0.17637000  0.14007000  1.0 -0.1179859093
C  C234  1  0.00103000  0.82466000  0.14007000  1.0 -0.1179859093
C  C235  1  0.84200000  0.33230000  0.97340000  1.0 -0.1179859093
C  C236  1  0.66770000  0.50970000  0.97340000  1.0 -0.1179859093
C  C237  1  0.49030000  0.15800000  0.97340000  1.0 -0.1179859093
C  C238  1  0.50970000  0.66770000  0.52660000  1.0 -0.1179859093
C  C239  1  0.15800000  0.49030000  0.52660000  1.0 -0.1179859093
C  C240  1  0.33230000  0.84200000  0.52660000  1.0 -0.1179859093
C  C241  1  0.17533000  0.99897000  0.64007000  1.0 -0.1179859093
C  C242  1  0.00103000  0.17636000  0.64007000  1.0 -0.1135074044
C  C243  1  0.82364000  0.82467000  0.64007000  1.0 -0.1179859093
C  C244  1  0.84303000  0.33437000  0.19327000  1.0 -0.1135074044
C  C245  1  0.49134000  0.15697000  0.19327000  1.0 -0.1179859093
C  C246  1  0.66563000  0.50866000  0.19327000  1.0 -0.1135074044
C  C247  1  0.50867000  0.66563000  0.30673000  1.0 -0.1135074044
C  C248  1  0.33437000  0.84304000  0.30673000  1.0 -0.1179859093
C  C249  1  0.15696000  0.49133000  0.30673000  1.0 -0.1179859093
C  C250  1  0.17637000  0.00103000  0.85993000  1.0 -0.1135074044
C  C251  1  0.82466000  0.82363000  0.85993000  1.0 -0.1179859093
C  C252  1  0.99897000  0.17534000  0.85993000  1.0 -0.1135074044
C  C253  1  0.28290000  0.71900000  0.95520000  1.0 0.5635081342
C  C254  1  0.28100000  0.56390000  0.95520000  1.0 0.5635081342
C  C255  1  0.43610000  0.71710000  0.95520000  1.0 0.5635081342
C  C256  1  0.56390000  0.28100000  0.54480000  1.0 0.5635081342
C  C257  1  0.71710000  0.43610000  0.54480000  1.0 0.5635081342
C  C258  1  0.71900000  0.28290000  0.54480000  1.0 0.5635081342
C  C259  1  0.94957000  0.05233000  0.28853000  1.0 0.5635081342
C  C260  1  0.94767000  0.89724000  0.28853000  1.0 0.5635081342
C  C261  1  0.10276000  0.05043000  0.28853000  1.0 0.5635081342
C  C262  1  0.23057000  0.61433000  0.87813000  1.0 0.5635081342
C  C263  1  0.38376000  0.76943000  0.87813000  1.0 0.5635081342
C  C264  1  0.38567000  0.61624000  0.87813000  1.0 0.5635081342
C  C265  1  0.61623000  0.38567000  0.62187000  1.0 0.5635081342
C  C266  1  0.61433000  0.23056000  0.62187000  1.0 0.5635081342
C  C267  1  0.76944000  0.38377000  0.62187000  1.0 0.5635081342
C  C268  1  0.89723000  0.94767000  0.21147000  1.0 0.5635081342
C  C269  1  0.05044000  0.10277000  0.21147000  1.0 0.5635081342
C  C270  1  0.05233000  0.94956000  0.21147000  1.0 0.5635081342
C  C271  1  0.71710000  0.28100000  0.04480000  1.0 0.5635081342
C  C272  1  0.71900000  0.43610000  0.04480000  1.0 0.5635081342
C  C273  1  0.56390000  0.28290000  0.04480000  1.0 0.5635081342
C  C274  1  0.43610000  0.71900000  0.45520000  1.0 0.5635081342
C  C275  1  0.28290000  0.56390000  0.45520000  1.0 0.5635081342
C  C276  1  0.28100000  0.71710000  0.45520000  1.0 0.5635081342
C  C277  1  0.05043000  0.94767000  0.71147000  1.0 0.5635081342
C  C278  1  0.05233000  0.10276000  0.71147000  1.0 0.5635081342
C  C279  1  0.89724000  0.94957000  0.71147000  1.0 0.5635081342
C  C280  1  0.76943000  0.38567000  0.12187000  1.0 0.5635081342
C  C281  1  0.61624000  0.23057000  0.12187000  1.0 0.5635081342
C  C282  1  0.61433000  0.38376000  0.12187000  1.0 0.5635081342
C  C283  1  0.38377000  0.61433000  0.37813000  1.0 0.5635081342
C  C284  1  0.38567000  0.76944000  0.37813000  1.0 0.5635081342
C  C285  1  0.23056000  0.61623000  0.37813000  1.0 0.5635081342
C  C286  1  0.10277000  0.05233000  0.78853000  1.0 0.5635081342
C  C287  1  0.94956000  0.89723000  0.78853000  1.0 0.5635081342
C  C288  1  0.94767000  0.05044000  0.78853000  1.0 0.5635081342
C  C289  1  0.15120000  0.58860000  0.03000000  1.0 -0.1135074044
C  C290  1  0.41140000  0.56260000  0.03000000  1.0 -0.1135074044
C  C291  1  0.43740000  0.84880000  0.03000000  1.0 -0.1135074044
C  C292  1  0.56260000  0.41140000  0.47000000  1.0 -0.1135074044
C  C293  1  0.84880000  0.43740000  0.47000000  1.0 -0.1135074044
C  C294  1  0.58860000  0.15120000  0.47000000  1.0 -0.1135074044
C  C295  1  0.81787000  0.92193000  0.36333000  1.0 -0.1135074044
C  C296  1  0.07807000  0.89594000  0.36333000  1.0 -0.1135074044
C  C297  1  0.10406000  0.18213000  0.36333000  1.0 -0.1135074044
C  C298  1  0.22927000  0.74473000  0.80333000  1.0 -0.1135074044
C  C299  1  0.51546000  0.77073000  0.80333000  1.0 -0.1135074044
C  C300  1  0.25527000  0.48454000  0.80333000  1.0 -0.1135074044
C  C301  1  0.48453000  0.25527000  0.69667000  1.0 -0.1135074044
C  C302  1  0.74473000  0.22926000  0.69667000  1.0 -0.1135074044
C  C303  1  0.77074000  0.51547000  0.69667000  1.0 -0.1135074044
C  C304  1  0.89593000  0.07807000  0.13667000  1.0 -0.1135074044
C  C305  1  0.18214000  0.10407000  0.13667000  1.0 -0.1135074044
C  C306  1  0.92193000  0.81786000  0.13667000  1.0 -0.1135074044
C  C307  1  0.84880000  0.41140000  0.97000000  1.0 -0.1135074044
C  C308  1  0.58860000  0.43740000  0.97000000  1.0 -0.1135074044
C  C309  1  0.56260000  0.15120000  0.97000000  1.0 -0.1135074044
C  C310  1  0.43740000  0.58860000  0.53000000  1.0 -0.1135074044
C  C311  1  0.15120000  0.56260000  0.53000000  1.0 -0.1135074044
C  C312  1  0.41140000  0.84880000  0.53000000  1.0 -0.1135074044
C  C313  1  0.18213000  0.07807000  0.63667000  1.0 -0.1135074044
C  C314  1  0.92193000  0.10406000  0.63667000  1.0 -0.1135074044
C  C315  1  0.89594000  0.81787000  0.63667000  1.0 -0.1135074044
C  C316  1  0.77073000  0.25527000  0.19667000  1.0 -0.1135074044
C  C317  1  0.48454000  0.22927000  0.19667000  1.0 -0.1135074044
C  C318  1  0.74473000  0.51546000  0.19667000  1.0 -0.1135074044
C  C319  1  0.51547000  0.74473000  0.30333000  1.0 -0.1135074044
C  C320  1  0.25527000  0.77074000  0.30333000  1.0 -0.1135074044
C  C321  1  0.22926000  0.48453000  0.30333000  1.0 -0.1135074044
C  C322  1  0.10407000  0.92193000  0.86333000  1.0 -0.1135074044
C  C323  1  0.81786000  0.89593000  0.86333000  1.0 -0.1135074044
C  C324  1  0.07807000  0.18214000  0.86333000  1.0 -0.1135074044
C  C325  1  0.13450000  0.55130000  0.04630000  1.0 -0.0988513133
C  C326  1  0.44870000  0.58320000  0.04630000  1.0 -0.0988513133
C  C327  1  0.41680000  0.86550000  0.04630000  1.0 -0.0988513133
C  C328  1  0.58320000  0.44870000  0.45370000  1.0 -0.0988513133
C  C329  1  0.86550000  0.41680000  0.45370000  1.0 -0.0988513133
C  C330  1  0.55130000  0.13450000  0.45370000  1.0 -0.0988513133
C  C331  1  0.80117000  0.88463000  0.37963000  1.0 -0.0988513133
C  C332  1  0.11537000  0.91654000  0.37963000  1.0 -0.0988513133
C  C333  1  0.08346000  0.19883000  0.37963000  1.0 -0.0988513133
C  C334  1  0.24987000  0.78203000  0.78703000  1.0 -0.0988513133
C  C335  1  0.53216000  0.75013000  0.78703000  1.0 -0.0988513133
C  C336  1  0.21797000  0.46784000  0.78703000  1.0 -0.0988513133
C  C337  1  0.46783000  0.21797000  0.71297000  1.0 -0.0988513133
C  C338  1  0.78203000  0.24986000  0.71297000  1.0 -0.0988513133
C  C339  1  0.75014000  0.53217000  0.71297000  1.0 -0.0988513133
C  C340  1  0.91653000  0.11537000  0.12037000  1.0 -0.0988513133
C  C341  1  0.19884000  0.08347000  0.12037000  1.0 -0.0988513133
C  C342  1  0.88463000  0.80116000  0.12037000  1.0 -0.0988513133
C  C343  1  0.86550000  0.44870000  0.95370000  1.0 -0.0988513133
C  C344  1  0.55130000  0.41680000  0.95370000  1.0 -0.0988513133
C  C345  1  0.58320000  0.13450000  0.95370000  1.0 -0.0988513133
C  C346  1  0.41680000  0.55130000  0.54630000  1.0 -0.0988513133
C  C347  1  0.13450000  0.58320000  0.54630000  1.0 -0.0988513133
C  C348  1  0.44870000  0.86550000  0.54630000  1.0 -0.0988513133
C  C349  1  0.19883000  0.11537000  0.62037000  1.0 -0.0988513133
C  C350  1  0.88463000  0.08346000  0.62037000  1.0 -0.0988513133
C  C351  1  0.91654000  0.80117000  0.62037000  1.0 -0.0988513133
C  C352  1  0.75013000  0.21797000  0.21297000  1.0 -0.0988513133
C  C353  1  0.46784000  0.24987000  0.21297000  1.0 -0.0988513133
C  C354  1  0.78203000  0.53216000  0.21297000  1.0 -0.0988513133
C  C355  1  0.53217000  0.78203000  0.28703000  1.0 -0.0988513133
C  C356  1  0.21797000  0.75014000  0.28703000  1.0 -0.0988513133
C  C357  1  0.24986000  0.46783000  0.28703000  1.0 -0.0988513133
C  C358  1  0.08347000  0.88463000  0.87963000  1.0 -0.0988513133
C  C359  1  0.80116000  0.91653000  0.87963000  1.0 -0.0988513133
C  C360  1  0.11537000  0.19884000  0.87963000  1.0 -0.0988513133
C  C361  1  0.11620000  0.51090000  0.07324000  1.0 0.1187759558
C  C362  1  0.48910000  0.60530000  0.07324000  1.0 0.1187759558
C  C363  1  0.39470000  0.88380000  0.07324000  1.0 0.1187759558
C  C364  1  0.60530000  0.48910000  0.42676000  1.0 0.1187759558
C  C365  1  0.88380000  0.39470000  0.42676000  1.0 0.1187759558
C  C366  1  0.51090000  0.11620000  0.42676000  1.0 0.1187759558
C  C367  1  0.78287000  0.84423000  0.40657000  1.0 0.1187759558
C  C368  1  0.15577000  0.93864000  0.40657000  1.0 0.1187759558
C  C369  1  0.06136000  0.21713000  0.40657000  1.0 0.1187759558
C  C370  1  0.27197000  0.82243000  0.76009000  1.0 0.1187759558
C  C371  1  0.55046000  0.72803000  0.76009000  1.0 0.1187759558
C  C372  1  0.17757000  0.44954000  0.76009000  1.0 0.1187759558
C  C373  1  0.44953000  0.17757000  0.73991000  1.0 0.1187759558
C  C374  1  0.82243000  0.27196000  0.73991000  1.0 0.1187759558
C  C375  1  0.72804000  0.55047000  0.73991000  1.0 0.1187759558
C  C376  1  0.93863000  0.15577000  0.09343000  1.0 0.1187759558
C  C377  1  0.21714000  0.06137000  0.09343000  1.0 0.1187759558
C  C378  1  0.84423000  0.78286000  0.09343000  1.0 0.1187759558
C  C379  1  0.88380000  0.48910000  0.92676000  1.0 0.1187759558
C  C380  1  0.51090000  0.39470000  0.92676000  1.0 0.1187759558
C  C381  1  0.60530000  0.11620000  0.92676000  1.0 0.1187759558
C  C382  1  0.39470000  0.51090000  0.57324000  1.0 0.1187759558
C  C383  1  0.11620000  0.60530000  0.57324000  1.0 0.1187759558
C  C384  1  0.48910000  0.88380000  0.57324000  1.0 0.1187759558
C  C385  1  0.21713000  0.15577000  0.59343000  1.0 0.1187759558
C  C386  1  0.84423000  0.06136000  0.59343000  1.0 0.1187759558
C  C387  1  0.93864000  0.78287000  0.59343000  1.0 0.1187759558
C  C388  1  0.72803000  0.17757000  0.23991000  1.0 0.1187759558
C  C389  1  0.44954000  0.27197000  0.23991000  1.0 0.1187759558
C  C390  1  0.82243000  0.55046000  0.23991000  1.0 0.1187759558
C  C391  1  0.55047000  0.82243000  0.26009000  1.0 0.1187759558
C  C392  1  0.17757000  0.72804000  0.26009000  1.0 0.1187759558
C  C393  1  0.27196000  0.44953000  0.26009000  1.0 0.1187759558
C  C394  1  0.06137000  0.84423000  0.90657000  1.0 0.1187759558
C  C395  1  0.78286000  0.93863000  0.90657000  1.0 0.1187759558
C  C396  1  0.15577000  0.21714000  0.90657000  1.0 0.1187759558
C  C397  1  0.12480000  0.47330000  0.06871000  1.0 -0.1340710427
C  C398  1  0.52670000  0.65150000  0.06871000  1.0 -0.1423277774
C  C399  1  0.34850000  0.87520000  0.06871000  1.0 -0.1423277774
C  C400  1  0.65150000  0.52670000  0.43129000  1.0 -0.1423277774
C  C401  1  0.87520000  0.34850000  0.43129000  1.0 -0.1423277774
C  C402  1  0.47330000  0.12480000  0.43129000  1.0 -0.1340710427
C  C403  1  0.79147000  0.80663000  0.40204000  1.0 -0.1340710427
C  C404  1  0.19337000  0.98484000  0.40204000  1.0 -0.1423277774
C  C405  1  0.01516000  0.20853000  0.40204000  1.0 -0.1423277774
C  C406  1  0.31817000  0.86003000  0.76462000  1.0 -0.1340710427
C  C407  1  0.54186000  0.68183000  0.76462000  1.0 -0.1340710427
C  C408  1  0.13997000  0.45814000  0.76462000  1.0 -0.1340710427
C  C409  1  0.45813000  0.13997000  0.73538000  1.0 -0.1340710427
C  C410  1  0.86003000  0.31816000  0.73538000  1.0 -0.1340710427
C  C411  1  0.68184000  0.54187000  0.73538000  1.0 -0.1340710427
C  C412  1  0.98483000  0.19337000  0.09796000  1.0 -0.1340710427
C  C413  1  0.20854000  0.01517000  0.09796000  1.0 -0.1423277774
C  C414  1  0.80663000  0.79146000  0.09796000  1.0 -0.1340710427
C  C415  1  0.87520000  0.52670000  0.93129000  1.0 -0.1340710427
C  C416  1  0.47330000  0.34850000  0.93129000  1.0 -0.1340710427
C  C417  1  0.65150000  0.12480000  0.93129000  1.0 -0.1340710427
C  C418  1  0.34850000  0.47330000  0.56871000  1.0 -0.1340710427
C  C419  1  0.12480000  0.65150000  0.56871000  1.0 -0.1340710427
C  C420  1  0.52670000  0.87520000  0.56871000  1.0 -0.1340710427
C  C421  1  0.20853000  0.19337000  0.59796000  1.0 -0.1340710427
C  C422  1  0.80663000  0.01516000  0.59796000  1.0 -0.1340710427
C  C423  1  0.98484000  0.79147000  0.59796000  1.0 -0.1340710427
C  C424  1  0.68183000  0.13997000  0.23538000  1.0 -0.1340710427
C  C425  1  0.45814000  0.31817000  0.23538000  1.0 -0.1340710427
C  C426  1  0.86003000  0.54186000  0.23538000  1.0 -0.1340710427
C  C427  1  0.54187000  0.86003000  0.26462000  1.0 -0.1423277774
C  C428  1  0.13997000  0.68184000  0.26462000  1.0 -0.1423277774
C  C429  1  0.31816000  0.45813000  0.26462000  1.0 -0.1340710427
C  C430  1  0.01517000  0.80663000  0.90204000  1.0 -0.1340710427
C  C431  1  0.79146000  0.98483000  0.90204000  1.0 -0.1340710427
C  C432  1  0.19337000  0.20854000  0.90204000  1.0 -0.1340710427
C  C433  1  0.11040000  0.43810000  0.09744000  1.0 -0.0286828893
C  C434  1  0.56190000  0.67230000  0.09744000  1.0 -0.0286828893
C  C435  1  0.32770000  0.88960000  0.09744000  1.0 -0.0286828893
C  C436  1  0.67230000  0.56190000  0.40256000  1.0 -0.0286828893
C  C437  1  0.88960000  0.32770000  0.40256000  1.0 -0.0286828893
C  C438  1  0.43810000  0.11040000  0.40256000  1.0 -0.0286828893
C  C439  1  0.77707000  0.77143000  0.43077000  1.0 -0.0286828893
C  C440  1  0.22857000  0.00564000  0.43077000  1.0 -0.0286828893
C  C441  1  0.99436000  0.22293000  0.43077000  1.0 -0.0286828893
C  C442  1  0.33897000  0.89523000  0.73589000  1.0 -0.0286828893
C  C443  1  0.55626000  0.66103000  0.73589000  1.0 -0.0286828893
C  C444  1  0.10477000  0.44374000  0.73589000  1.0 -0.0286828893
C  C445  1  0.44373000  0.10477000  0.76411000  1.0 -0.0286828893
C  C446  1  0.89523000  0.33896000  0.76411000  1.0 -0.0286828893
C  C447  1  0.66104000  0.55627000  0.76411000  1.0 -0.0286828893
C  C448  1  0.00563000  0.22857000  0.06923000  1.0 -0.0286828893
C  C449  1  0.22294000  0.99437000  0.06923000  1.0 -0.0286828893
C  C450  1  0.77143000  0.77706000  0.06923000  1.0 -0.0286828893
C  C451  1  0.88960000  0.56190000  0.90256000  1.0 -0.0286828893
C  C452  1  0.43810000  0.32770000  0.90256000  1.0 -0.0286828893
C  C453  1  0.67230000  0.11040000  0.90256000  1.0 -0.0286828893
C  C454  1  0.32770000  0.43810000  0.59744000  1.0 -0.0286828893
C  C455  1  0.11040000  0.67230000  0.59744000  1.0 -0.0286828893
C  C456  1  0.56190000  0.88960000  0.59744000  1.0 -0.0286828893
C  C457  1  0.22293000  0.22857000  0.56923000  1.0 -0.0286828893
C  C458  1  0.77143000  0.99436000  0.56923000  1.0 -0.0286828893
C  C459  1  0.00564000  0.77707000  0.56923000  1.0 -0.0286828893
C  C460  1  0.66103000  0.10477000  0.26411000  1.0 -0.0286828893
C  C461  1  0.44374000  0.33897000  0.26411000  1.0 -0.0286828893
C  C462  1  0.89523000  0.55626000  0.26411000  1.0 -0.0286828893
C  C463  1  0.55627000  0.89523000  0.23589000  1.0 -0.0286828893
C  C464  1  0.10477000  0.66104000  0.23589000  1.0 -0.0286828893
C  C465  1  0.33896000  0.44373000  0.23589000  1.0 -0.0286828893
C  C466  1  0.99437000  0.77143000  0.93077000  1.0 -0.0286828893
C  C467  1  0.77706000  0.00563000  0.93077000  1.0 -0.0286828893
C  C468  1  0.22857000  0.22294000  0.93077000  1.0 -0.0286828893
C  C469  1  0.08530000  0.43929000  0.13053000  1.0 -0.0792880101
C  C470  1  0.56071000  0.64601000  0.13053000  1.0 -0.0792880101
C  C471  1  0.35399000  0.91470000  0.13053000  1.0 -0.0792880101
C  C472  1  0.64601000  0.56071000  0.36947000  1.0 -0.0792880101
C  C473  1  0.91470000  0.35399000  0.36947000  1.0 -0.0792880101
C  C474  1  0.43929000  0.08530000  0.36947000  1.0 -0.0792880101
C  C475  1  0.75197000  0.77262000  0.46386000  1.0 -0.0792880101
C  C476  1  0.22738000  0.97935000  0.46386000  1.0 -0.0792880101
C  C477  1  0.02065000  0.24803000  0.46386000  1.0 -0.0792880101
C  C478  1  0.31268000  0.89404000  0.70280000  1.0 -0.0792880101
C  C479  1  0.58136000  0.68732000  0.70280000  1.0 -0.0792880101
C  C480  1  0.10596000  0.41864000  0.70280000  1.0 -0.0792880101
C  C481  1  0.41863000  0.10596000  0.79720000  1.0 -0.0792880101
C  C482  1  0.89404000  0.31267000  0.79720000  1.0 -0.0792880101
C  C483  1  0.68733000  0.58137000  0.79720000  1.0 -0.0792880101
C  C484  1  0.97934000  0.22738000  0.03614000  1.0 -0.0792880101
C  C485  1  0.24804000  0.02066000  0.03614000  1.0 -0.0792880101
C  C486  1  0.77262000  0.75196000  0.03614000  1.0 -0.0792880101
C  C487  1  0.91470000  0.56071000  0.86947000  1.0 -0.0792880101
C  C488  1  0.43929000  0.35399000  0.86947000  1.0 -0.0792880101
C  C489  1  0.64601000  0.08530000  0.86947000  1.0 -0.0792880101
C  C490  1  0.35399000  0.43929000  0.63053000  1.0 -0.0792880101
C  C491  1  0.08530000  0.64601000  0.63053000  1.0 -0.0792880101
C  C492  1  0.56071000  0.91470000  0.63053000  1.0 -0.0792880101
C  C493  1  0.24803000  0.22738000  0.53614000  1.0 -0.0792880101
C  C494  1  0.77262000  0.02065000  0.53614000  1.0 -0.0792880101
C  C495  1  0.97935000  0.75197000  0.53614000  1.0 -0.0792880101
C  C496  1  0.68732000  0.10596000  0.29720000  1.0 -0.0792880101
C  C497  1  0.41864000  0.31268000  0.29720000  1.0 -0.0792880101
C  C498  1  0.89404000  0.58136000  0.29720000  1.0 -0.0792880101
C  C499  1  0.58137000  0.89404000  0.20280000  1.0 -0.0792880101
C  C500  1  0.10596000  0.68733000  0.20280000  1.0 -0.0792880101
C  C501  1  0.31267000  0.41863000  0.20280000  1.0 -0.0792880101
C  C502  1  0.02066000  0.77262000  0.96386000  1.0 -0.0792880101
C  C503  1  0.75196000  0.97934000  0.96386000  1.0 -0.0792880101
C  C504  1  0.22738000  0.24804000  0.96386000  1.0 -0.0792880101
C  C505  1  0.07460000  0.47550000  0.13504000  1.0 -0.0286828893
C  C506  1  0.52450000  0.59910000  0.13504000  1.0 -0.0286828893
C  C507  1  0.40090000  0.92540000  0.13504000  1.0 -0.0286828893
C  C508  1  0.59910000  0.52450000  0.36496000  1.0 -0.0286828893
C  C509  1  0.92540000  0.40090000  0.36496000  1.0 -0.0286828893
C  C510  1  0.47550000  0.07460000  0.36496000  1.0 -0.0286828893
C  C511  1  0.74127000  0.80883000  0.46837000  1.0 -0.0286828893
C  C512  1  0.19117000  0.93244000  0.46837000  1.0 -0.0286828893
C  C513  1  0.06756000  0.25873000  0.46837000  1.0 -0.0286828893
C  C514  1  0.26577000  0.85783000  0.69829000  1.0 -0.0286828893
C  C515  1  0.59206000  0.73423000  0.69829000  1.0 -0.0286828893
C  C516  1  0.14217000  0.40794000  0.69829000  1.0 -0.0286828893
C  C517  1  0.40793000  0.14217000  0.80171000  1.0 -0.0286828893
C  C518  1  0.85783000  0.26576000  0.80171000  1.0 -0.0286828893
C  C519  1  0.73424000  0.59207000  0.80171000  1.0 -0.0286828893
C  C520  1  0.93243000  0.19117000  0.03163000  1.0 -0.0286828893
C  C521  1  0.25874000  0.06757000  0.03163000  1.0 -0.0286828893
C  C522  1  0.80883000  0.74126000  0.03163000  1.0 -0.0286828893
C  C523  1  0.92540000  0.52450000  0.86496000  1.0 -0.0286828893
C  C524  1  0.47550000  0.40090000  0.86496000  1.0 -0.0286828893
C  C525  1  0.59910000  0.07460000  0.86496000  1.0 -0.0286828893
C  C526  1  0.40090000  0.47550000  0.63504000  1.0 -0.0286828893
C  C527  1  0.07460000  0.59910000  0.63504000  1.0 -0.0286828893
C  C528  1  0.52450000  0.92540000  0.63504000  1.0 -0.0286828893
C  C529  1  0.25873000  0.19117000  0.53163000  1.0 -0.0286828893
C  C530  1  0.80883000  0.06756000  0.53163000  1.0 -0.0286828893
C  C531  1  0.93244000  0.74127000  0.53163000  1.0 -0.0286828893
C  C532  1  0.73423000  0.14217000  0.30171000  1.0 -0.0286828893
C  C533  1  0.40794000  0.26577000  0.30171000  1.0 -0.0286828893
C  C534  1  0.85783000  0.59206000  0.30171000  1.0 -0.0286828893
C  C535  1  0.59207000  0.85783000  0.19829000  1.0 -0.0286828893
C  C536  1  0.14217000  0.73424000  0.19829000  1.0 -0.0286828893
C  C537  1  0.26576000  0.40793000  0.19829000  1.0 -0.0286828893
C  C538  1  0.06757000  0.80883000  0.96837000  1.0 -0.0286828893
C  C539  1  0.74126000  0.93243000  0.96837000  1.0 -0.0286828893
C  C540  1  0.19117000  0.25874000  0.96837000  1.0 -0.0286828893
C  C541  1  0.09070000  0.51140000  0.10660000  1.0 -0.1179859093
C  C542  1  0.48860000  0.57930000  0.10660000  1.0 -0.1179859093
C  C543  1  0.42070000  0.90930000  0.10660000  1.0 -0.1179859093
C  C544  1  0.57930000  0.48860000  0.39340000  1.0 -0.1179859093
C  C545  1  0.90930000  0.42070000  0.39340000  1.0 -0.1179859093
C  C546  1  0.51140000  0.09070000  0.39340000  1.0 -0.1179859093
C  C547  1  0.75737000  0.84473000  0.43993000  1.0 -0.1179859093
C  C548  1  0.15527000  0.91264000  0.43993000  1.0 -0.1179859093
C  C549  1  0.08736000  0.24263000  0.43993000  1.0 -0.1179859093
C  C550  1  0.24597000  0.82193000  0.72673000  1.0 -0.1179859093
C  C551  1  0.57596000  0.75403000  0.72673000  1.0 -0.1179859093
C  C552  1  0.17807000  0.42404000  0.72673000  1.0 -0.1179859093
C  C553  1  0.42403000  0.17807000  0.77327000  1.0 -0.1179859093
C  C554  1  0.82193000  0.24596000  0.77327000  1.0 -0.1179859093
C  C555  1  0.75404000  0.57597000  0.77327000  1.0 -0.1179859093
C  C556  1  0.91263000  0.15527000  0.06007000  1.0 -0.1179859093
C  C557  1  0.24264000  0.08737000  0.06007000  1.0 -0.1179859093
C  C558  1  0.84473000  0.75736000  0.06007000  1.0 -0.1179859093
C  C559  1  0.90930000  0.48860000  0.89340000  1.0 -0.1179859093
C  C560  1  0.51140000  0.42070000  0.89340000  1.0 -0.1179859093
C  C561  1  0.57930000  0.09070000  0.89340000  1.0 -0.1179859093
C  C562  1  0.42070000  0.51140000  0.60660000  1.0 -0.1179859093
C  C563  1  0.09070000  0.57930000  0.60660000  1.0 -0.1179859093
C  C564  1  0.48860000  0.90930000  0.60660000  1.0 -0.1179859093
C  C565  1  0.24263000  0.15527000  0.56007000  1.0 -0.1179859093
C  C566  1  0.84473000  0.08736000  0.56007000  1.0 -0.1179859093
C  C567  1  0.91264000  0.75737000  0.56007000  1.0 -0.1179859093
C  C568  1  0.75403000  0.17807000  0.27327000  1.0 -0.1179859093
C  C569  1  0.42404000  0.24597000  0.27327000  1.0 -0.1179859093
C  C570  1  0.82193000  0.57596000  0.27327000  1.0 -0.1179859093
C  C571  1  0.57597000  0.82193000  0.22673000  1.0 -0.1179859093
C  C572  1  0.17807000  0.75404000  0.22673000  1.0 -0.1179859093
C  C573  1  0.24596000  0.42403000  0.22673000  1.0 -0.1179859093
C  C574  1  0.08737000  0.84473000  0.93993000  1.0 -0.1179859093
C  C575  1  0.75736000  0.91263000  0.93993000  1.0 -0.1179859093
C  C576  1  0.15527000  0.24264000  0.93993000  1.0 -0.1179859093
C  C577  1  0.12130000  0.39840000  0.09216000  1.0 0.5989199904
C  C578  1  0.60160000  0.72290000  0.09216000  1.0 0.5989199904
C  C579  1  0.27710000  0.87870000  0.09216000  1.0 0.5989199904
C  C580  1  0.72290000  0.60160000  0.40784000  1.0 0.5989199904
C  C581  1  0.87870000  0.27710000  0.40784000  1.0 0.5989199904
C  C582  1  0.39840000  0.12130000  0.40784000  1.0 0.5989199904
C  C583  1  0.78797000  0.73173000  0.42549000  1.0 0.5989199904
C  C584  1  0.26827000  0.05624000  0.42549000  1.0 0.5989199904
C  C585  1  0.94376000  0.21203000  0.42549000  1.0 0.5989199904
C  C586  1  0.38957000  0.93493000  0.74117000  1.0 0.5989199904
C  C587  1  0.54536000  0.61043000  0.74117000  1.0 0.5989199904
C  C588  1  0.06507000  0.45464000  0.74117000  1.0 0.5989199904
C  C589  1  0.45463000  0.06507000  0.75883000  1.0 0.5989199904
C  C590  1  0.93493000  0.38956000  0.75883000  1.0 0.5989199904
C  C591  1  0.61044000  0.54537000  0.75883000  1.0 0.5989199904
C  C592  1  0.05623000  0.26827000  0.07451000  1.0 0.5989199904
C  C593  1  0.21204000  0.94377000  0.07451000  1.0 0.5989199904
C  C594  1  0.73173000  0.78796000  0.07451000  1.0 0.5989199904
C  C595  1  0.87870000  0.60160000  0.90784000  1.0 0.5989199904
C  C596  1  0.39840000  0.27710000  0.90784000  1.0 0.5989199904
C  C597  1  0.72290000  0.12130000  0.90784000  1.0 0.5989199904
C  C598  1  0.27710000  0.39840000  0.59216000  1.0 0.5989199904
C  C599  1  0.12130000  0.72290000  0.59216000  1.0 0.5989199904
C  C600  1  0.60160000  0.87870000  0.59216000  1.0 0.5989199904
C  C601  1  0.21203000  0.26827000  0.57451000  1.0 0.5989199904
C  C602  1  0.73173000  0.94376000  0.57451000  1.0 0.5989199904
C  C603  1  0.05624000  0.78797000  0.57451000  1.0 0.5989199904
C  C604  1  0.61043000  0.06507000  0.25883000  1.0 0.5989199904
C  C605  1  0.45464000  0.38957000  0.25883000  1.0 0.5989199904
C  C606  1  0.93493000  0.54536000  0.25883000  1.0 0.5989199904
C  C607  1  0.54537000  0.93493000  0.24117000  1.0 0.5989199904
C  C608  1  0.06507000  0.61044000  0.24117000  1.0 0.5989199904
C  C609  1  0.38956000  0.45463000  0.24117000  1.0 0.5989199904
C  C610  1  0.94377000  0.73173000  0.92549000  1.0 0.5989199904
C  C611  1  0.78796000  0.05623000  0.92549000  1.0 0.5989199904
C  C612  1  0.26827000  0.21204000  0.92549000  1.0 0.5989199904
C  C613  1  0.04640000  0.47750000  0.17000000  1.0 0.6116645943
C  C614  1  0.52250000  0.56890000  0.17000000  1.0 0.6116645943
C  C615  1  0.43110000  0.95360000  0.17000000  1.0 0.6116645943
C  C616  1  0.56890000  0.52250000  0.33000000  1.0 0.6116645943
C  C617  1  0.95360000  0.43110000  0.33000000  1.0 0.6116645943
C  C618  1  0.47750000  0.04640000  0.33000000  1.0 0.6116645943
C  C619  1  0.71307000  0.81083000  0.50333000  1.0 0.6116645943
C  C620  1  0.18917000  0.90224000  0.50333000  1.0 0.6116645943
C  C621  1  0.09776000  0.28693000  0.50333000  1.0 0.6116645943
C  C622  1  0.23557000  0.85583000  0.66333000  1.0 0.6116645943
C  C623  1  0.62026000  0.76443000  0.66333000  1.0 0.6116645943
C  C624  1  0.14417000  0.37974000  0.66333000  1.0 0.6116645943
C  C625  1  0.37973000  0.14417000  0.83667000  1.0 0.6116645943
C  C626  1  0.85583000  0.23556000  0.83667000  1.0 0.6116645943
C  C627  1  0.76444000  0.62027000  0.83667000  1.0 0.6116645943
C  C628  1  0.90223000  0.18917000  0.99667000  1.0 0.6116645943
C  C629  1  0.28694000  0.09777000  0.99667000  1.0 0.6116645943
C  C630  1  0.81083000  0.71306000  0.99667000  1.0 0.6116645943
C  C631  1  0.95360000  0.52250000  0.83000000  1.0 0.6116645943
C  C632  1  0.47750000  0.43110000  0.83000000  1.0 0.6116645943
C  C633  1  0.56890000  0.04640000  0.83000000  1.0 0.6116645943
C  C634  1  0.43110000  0.47750000  0.67000000  1.0 0.6116645943
C  C635  1  0.04640000  0.56890000  0.67000000  1.0 0.6116645943
C  C636  1  0.52250000  0.95360000  0.67000000  1.0 0.6116645943
C  C637  1  0.28693000  0.18917000  0.49667000  1.0 0.6116645943
C  C638  1  0.81083000  0.09776000  0.49667000  1.0 0.6116645943
C  C639  1  0.90224000  0.71307000  0.49667000  1.0 0.6116645943
C  C640  1  0.76443000  0.14417000  0.33667000  1.0 0.6116645943
C  C641  1  0.37974000  0.23557000  0.33667000  1.0 0.6116645943
C  C642  1  0.85583000  0.62026000  0.33667000  1.0 0.6116645943
C  C643  1  0.62027000  0.85583000  0.16333000  1.0 0.6116645943
C  C644  1  0.14417000  0.76444000  0.16333000  1.0 0.6116645943
C  C645  1  0.23556000  0.37973000  0.16333000  1.0 0.6116645943
C  C646  1  0.09777000  0.81083000  0.00333000  1.0 0.6116645943
C  C647  1  0.71306000  0.90223000  0.00333000  1.0 0.6116645943
C  C648  1  0.18917000  0.28694000  0.00333000  1.0 0.6116645943
O  O1  1  0.13147000  0.73227000  0.05475000  1.0 -0.6315242773
O  O2  1  0.26773000  0.39920000  0.05475000  1.0 -0.6315242773
O  O3  1  0.60080000  0.86853000  0.05475000  1.0 -0.6315242773
O  O4  1  0.39920000  0.26773000  0.44525000  1.0 -0.6315242773
O  O5  1  0.86853000  0.60080000  0.44525000  1.0 -0.6315242773
O  O6  1  0.73227000  0.13147000  0.44525000  1.0 -0.6315242773
O  O7  1  0.79814000  0.06560000  0.38808000  1.0 -0.6315242773
O  O8  1  0.93440000  0.73254000  0.38808000  1.0 -0.6315242773
O  O9  1  0.26746000  0.20186000  0.38808000  1.0 -0.6315242773
O  O10  1  0.06587000  0.60106000  0.77858000  1.0 -0.6315242773
O  O11  1  0.53519000  0.93413000  0.77858000  1.0 -0.6315242773
O  O12  1  0.39894000  0.46481000  0.77858000  1.0 -0.6315242773
O  O13  1  0.46480000  0.39894000  0.72142000  1.0 -0.6315242773
O  O14  1  0.60106000  0.06586000  0.72142000  1.0 -0.6315242773
O  O15  1  0.93414000  0.53520000  0.72142000  1.0 -0.6315242773
O  O16  1  0.73253000  0.93440000  0.11192000  1.0 -0.6315242773
O  O17  1  0.20187000  0.26747000  0.11192000  1.0 -0.6315242773
O  O18  1  0.06560000  0.79813000  0.11192000  1.0 -0.6315242773
O  O19  1  0.86853000  0.26773000  0.94525000  1.0 -0.6315242773
O  O20  1  0.73227000  0.60080000  0.94525000  1.0 -0.6315242773
O  O21  1  0.39920000  0.13147000  0.94525000  1.0 -0.6315242773
O  O22  1  0.60080000  0.73227000  0.55475000  1.0 -0.6315242773
O  O23  1  0.13147000  0.39920000  0.55475000  1.0 -0.6315242773
O  O24  1  0.26773000  0.86853000  0.55475000  1.0 -0.6315242773
O  O25  1  0.20186000  0.93440000  0.61192000  1.0 -0.6315242773
O  O26  1  0.06560000  0.26746000  0.61192000  1.0 -0.6357733298
O  O27  1  0.73254000  0.79814000  0.61192000  1.0 -0.6315242773
O  O28  1  0.93413000  0.39894000  0.22142000  1.0 -0.6315242773
O  O29  1  0.46481000  0.06587000  0.22142000  1.0 -0.6315242773
O  O30  1  0.60106000  0.53519000  0.22142000  1.0 -0.6315242773
O  O31  1  0.53520000  0.60106000  0.27858000  1.0 -0.6315242773
O  O32  1  0.39894000  0.93414000  0.27858000  1.0 -0.6315242773
O  O33  1  0.06586000  0.46480000  0.27858000  1.0 -0.6315242773
O  O34  1  0.26747000  0.06560000  0.88808000  1.0 -0.6315242773
O  O35  1  0.79813000  0.73253000  0.88808000  1.0 -0.6315242773
O  O36  1  0.93440000  0.20187000  0.88808000  1.0 -0.6315242773
O  O37  1  0.18692000  0.78943000  0.01641000  1.0 -0.5107992319
O  O38  1  0.21057000  0.39749000  0.01641000  1.0 -0.5107992319
O  O39  1  0.60251000  0.81308000  0.01641000  1.0 -0.5107992319
O  O40  1  0.39749000  0.21057000  0.48359000  1.0 -0.5107992319
O  O41  1  0.81308000  0.60251000  0.48359000  1.0 -0.5107992319
O  O42  1  0.78943000  0.18692000  0.48359000  1.0 -0.5107992319
O  O43  1  0.85359000  0.12276000  0.34974000  1.0 -0.5107992319
O  O44  1  0.87724000  0.73083000  0.34974000  1.0 -0.5107992319
O  O45  1  0.26917000  0.14641000  0.34974000  1.0 -0.5107992319
O  O46  1  0.06416000  0.54390000  0.81692000  1.0 -0.5107992319
O  O47  1  0.47974000  0.93584000  0.81692000  1.0 -0.5107992319
O  O48  1  0.45610000  0.52026000  0.81692000  1.0 -0.5107992319
O  O49  1  0.52025000  0.45610000  0.68308000  1.0 -0.5107992319
O  O50  1  0.54390000  0.06415000  0.68308000  1.0 -0.5107992319
O  O51  1  0.93585000  0.47975000  0.68308000  1.0 -0.5107992319
O  O52  1  0.73082000  0.87724000  0.15026000  1.0 -0.5107992319
O  O53  1  0.14642000  0.26918000  0.15026000  1.0 -0.5107992319
O  O54  1  0.12276000  0.85358000  0.15026000  1.0 -0.5107992319
O  O55  1  0.81308000  0.21057000  0.98359000  1.0 -0.5107992319
O  O56  1  0.78943000  0.60251000  0.98359000  1.0 -0.5107992319
O  O57  1  0.39749000  0.18692000  0.98359000  1.0 -0.5107992319
O  O58  1  0.60251000  0.78943000  0.51641000  1.0 -0.5107992319
O  O59  1  0.18692000  0.39749000  0.51641000  1.0 -0.5107992319
O  O60  1  0.21057000  0.81308000  0.51641000  1.0 -0.5107992319
O  O61  1  0.14641000  0.87724000  0.65026000  1.0 -0.5107992319
O  O62  1  0.12276000  0.26917000  0.65026000  1.0 -0.5107992319
O  O63  1  0.73083000  0.85359000  0.65026000  1.0 -0.5107992319
O  O64  1  0.93584000  0.45610000  0.18308000  1.0 -0.5107992319
O  O65  1  0.52026000  0.06416000  0.18308000  1.0 -0.5107992319
O  O66  1  0.54390000  0.47974000  0.18308000  1.0 -0.5107992319
O  O67  1  0.47975000  0.54390000  0.31692000  1.0 -0.5107992319
O  O68  1  0.45610000  0.93585000  0.31692000  1.0 -0.5107992319
O  O69  1  0.06415000  0.52025000  0.31692000  1.0 -0.5107992319
O  O70  1  0.26918000  0.12276000  0.84974000  1.0 -0.5107992319
O  O71  1  0.85358000  0.73082000  0.84974000  1.0 -0.5107992319
O  O72  1  0.87724000  0.14642000  0.84974000  1.0 -0.5107992319
O  O73  1  0.30140000  0.69490000  0.95312000  1.0 -0.5174131969
O  O74  1  0.30510000  0.60650000  0.95312000  1.0 -0.5174131969
O  O75  1  0.39350000  0.69860000  0.95312000  1.0 -0.5174131969
O  O76  1  0.60650000  0.30510000  0.54688000  1.0 -0.5174131969
O  O77  1  0.69860000  0.39350000  0.54688000  1.0 -0.5174131969
O  O78  1  0.69490000  0.30140000  0.54688000  1.0 -0.5174131969
O  O79  1  0.96807000  0.02823000  0.28645000  1.0 -0.5174131969
O  O80  1  0.97177000  0.93984000  0.28645000  1.0 -0.5174131969
O  O81  1  0.06016000  0.03193000  0.28645000  1.0 -0.5174131969
O  O82  1  0.27317000  0.63843000  0.88021000  1.0 -0.5174131969
O  O83  1  0.36526000  0.72683000  0.88021000  1.0 -0.5174131969
O  O84  1  0.36157000  0.63474000  0.88021000  1.0 -0.5174131969
O  O85  1  0.63473000  0.36157000  0.61979000  1.0 -0.5174131969
O  O86  1  0.63843000  0.27316000  0.61979000  1.0 -0.5174131969
O  O87  1  0.72684000  0.36527000  0.61979000  1.0 -0.5174131969
O  O88  1  0.93983000  0.97177000  0.21355000  1.0 -0.5174131969
O  O89  1  0.03194000  0.06017000  0.21355000  1.0 -0.5174131969
O  O90  1  0.02823000  0.96806000  0.21355000  1.0 -0.5174131969
O  O91  1  0.69860000  0.30510000  0.04688000  1.0 -0.5174131969
O  O92  1  0.69490000  0.39350000  0.04688000  1.0 -0.5174131969
O  O93  1  0.60650000  0.30140000  0.04688000  1.0 -0.5174131969
O  O94  1  0.39350000  0.69490000  0.45312000  1.0 -0.5174131969
O  O95  1  0.30140000  0.60650000  0.45312000  1.0 -0.5174131969
O  O96  1  0.30510000  0.69860000  0.45312000  1.0 -0.5174131969
O  O97  1  0.03193000  0.97177000  0.71355000  1.0 -0.5174131969
O  O98  1  0.02823000  0.06016000  0.71355000  1.0 -0.5174131969
O  O99  1  0.93984000  0.96807000  0.71355000  1.0 -0.5174131969
O  O100  1  0.72683000  0.36157000  0.11979000  1.0 -0.5174131969
O  O101  1  0.63474000  0.27317000  0.11979000  1.0 -0.5174131969
O  O102  1  0.63843000  0.36526000  0.11979000  1.0 -0.5174131969
O  O103  1  0.36527000  0.63843000  0.38021000  1.0 -0.5174131969
O  O104  1  0.36157000  0.72684000  0.38021000  1.0 -0.5174131969
O  O105  1  0.27316000  0.63473000  0.38021000  1.0 -0.5174131969
O  O106  1  0.06017000  0.02823000  0.78645000  1.0 -0.5174131969
O  O107  1  0.96806000  0.93983000  0.78645000  1.0 -0.5174131969
O  O108  1  0.97177000  0.03194000  0.78645000  1.0 -0.5174131969
O  O109  1  0.29680000  0.75810000  0.93670000  1.0 -0.3993375323
O  O110  1  0.24190000  0.53870000  0.93670000  1.0 -0.3993375323
O  O111  1  0.46130000  0.70320000  0.93670000  1.0 -0.3993375323
O  O112  1  0.53870000  0.24190000  0.56330000  1.0 -0.3993375323
O  O113  1  0.70320000  0.46130000  0.56330000  1.0 -0.3993375323
O  O114  1  0.75810000  0.29680000  0.56330000  1.0 -0.3993375323
O  O115  1  0.96347000  0.09143000  0.27003000  1.0 -0.3993375323
O  O116  1  0.90857000  0.87204000  0.27003000  1.0 -0.3993375323
O  O117  1  0.12796000  0.03653000  0.27003000  1.0 -0.3993375323
O  O118  1  0.20537000  0.57523000  0.89663000  1.0 -0.3993375323
O  O119  1  0.36986000  0.79463000  0.89663000  1.0 -0.3993375323
O  O120  1  0.42477000  0.63014000  0.89663000  1.0 -0.3993375323
O  O121  1  0.63013000  0.42477000  0.60337000  1.0 -0.3993375323
O  O122  1  0.57523000  0.20536000  0.60337000  1.0 -0.3993375323
O  O123  1  0.79464000  0.36987000  0.60337000  1.0 -0.3993375323
O  O124  1  0.87203000  0.90857000  0.22997000  1.0 -0.3993375323
O  O125  1  0.03654000  0.12797000  0.22997000  1.0 -0.3993375323
O  O126  1  0.09143000  0.96346000  0.22997000  1.0 -0.3993375323
O  O127  1  0.70320000  0.24190000  0.06330000  1.0 -0.3993375323
O  O128  1  0.75810000  0.46130000  0.06330000  1.0 -0.3993375323
O  O129  1  0.53870000  0.29680000  0.06330000  1.0 -0.3993375323
O  O130  1  0.46130000  0.75810000  0.43670000  1.0 -0.3993375323
O  O131  1  0.29680000  0.53870000  0.43670000  1.0 -0.3993375323
O  O132  1  0.24190000  0.70320000  0.43670000  1.0 -0.3993375323
O  O133  1  0.03653000  0.90857000  0.72997000  1.0 -0.3993375323
O  O134  1  0.09143000  0.12796000  0.72997000  1.0 -0.3993375323
O  O135  1  0.87204000  0.96347000  0.72997000  1.0 -0.3993375323
O  O136  1  0.79463000  0.42477000  0.10337000  1.0 -0.3993375323
O  O137  1  0.63014000  0.20537000  0.10337000  1.0 -0.3993375323
O  O138  1  0.57523000  0.36986000  0.10337000  1.0 -0.3993375323
O  O139  1  0.36987000  0.57523000  0.39663000  1.0 -0.3993375323
O  O140  1  0.42477000  0.79464000  0.39663000  1.0 -0.3993375323
O  O141  1  0.20536000  0.63013000  0.39663000  1.0 -0.3993375323
O  O142  1  0.12797000  0.09143000  0.77003000  1.0 -0.3993375323
O  O143  1  0.96346000  0.87203000  0.77003000  1.0 -0.3993375323
O  O144  1  0.90857000  0.03654000  0.77003000  1.0 -0.3993375323
O  O145  1  0.13407000  0.39391000  0.05800000  1.0 -0.536531035
O  O146  1  0.60609000  0.74016000  0.05800000  1.0 -0.536531035
O  O147  1  0.25984000  0.86593000  0.05800000  1.0 -0.536531035
O  O148  1  0.74016000  0.60609000  0.44200000  1.0 -0.536531035
O  O149  1  0.86593000  0.25984000  0.44200000  1.0 -0.536531035
O  O150  1  0.39391000  0.13407000  0.44200000  1.0 -0.536531035
O  O151  1  0.80074000  0.72724000  0.39133000  1.0 -0.536531035
O  O152  1  0.27276000  0.07350000  0.39133000  1.0 -0.536531035
O  O153  1  0.92650000  0.19926000  0.39133000  1.0 -0.536531035
O  O154  1  0.40683000  0.93942000  0.77533000  1.0 -0.536531035
O  O155  1  0.53259000  0.59317000  0.77533000  1.0 -0.536531035
O  O156  1  0.06058000  0.46741000  0.77533000  1.0 -0.536531035
O  O157  1  0.46740000  0.06058000  0.72467000  1.0 -0.536531035
O  O158  1  0.93942000  0.40682000  0.72467000  1.0 -0.536531035
O  O159  1  0.59318000  0.53260000  0.72467000  1.0 -0.536531035
O  O160  1  0.07349000  0.27276000  0.10867000  1.0 -0.536531035
O  O161  1  0.19927000  0.92651000  0.10867000  1.0 -0.536531035
O  O162  1  0.72724000  0.80073000  0.10867000  1.0 -0.536531035
O  O163  1  0.86593000  0.60609000  0.94200000  1.0 -0.536531035
O  O164  1  0.39391000  0.25984000  0.94200000  1.0 -0.536531035
O  O165  1  0.74016000  0.13407000  0.94200000  1.0 -0.536531035
O  O166  1  0.25984000  0.39391000  0.55800000  1.0 -0.536531035
O  O167  1  0.13407000  0.74016000  0.55800000  1.0 -0.536531035
O  O168  1  0.60609000  0.86593000  0.55800000  1.0 -0.536531035
O  O169  1  0.19926000  0.27276000  0.60867000  1.0 -0.536531035
O  O170  1  0.72724000  0.92650000  0.60867000  1.0 -0.536531035
O  O171  1  0.07350000  0.80074000  0.60867000  1.0 -0.536531035
O  O172  1  0.59317000  0.06058000  0.22467000  1.0 -0.536531035
O  O173  1  0.46741000  0.40683000  0.22467000  1.0 -0.536531035
O  O174  1  0.93942000  0.53259000  0.22467000  1.0 -0.536531035
O  O175  1  0.53260000  0.93942000  0.27533000  1.0 -0.536531035
O  O176  1  0.06058000  0.59318000  0.27533000  1.0 -0.536531035
O  O177  1  0.40682000  0.46740000  0.27533000  1.0 -0.536531035
O  O178  1  0.92651000  0.72724000  0.89133000  1.0 -0.536531035
O  O179  1  0.80073000  0.07349000  0.89133000  1.0 -0.536531035
O  O180  1  0.27276000  0.19927000  0.89133000  1.0 -0.536531035
O  O181  1  0.11735000  0.37363000  0.12243000  1.0 -0.5284347705
O  O182  1  0.62637000  0.74372000  0.12243000  1.0 -0.5284347705
O  O183  1  0.25628000  0.88265000  0.12243000  1.0 -0.5284347705
O  O184  1  0.74372000  0.62637000  0.37757000  1.0 -0.5284347705
O  O185  1  0.88265000  0.25628000  0.37757000  1.0 -0.5284347705
O  O186  1  0.37363000  0.11735000  0.37757000  1.0 -0.5284347705
O  O187  1  0.78402000  0.70696000  0.45576000  1.0 -0.5284347705
O  O188  1  0.29304000  0.07706000  0.45576000  1.0 -0.5284347705
O  O189  1  0.92294000  0.21598000  0.45576000  1.0 -0.5284347705
O  O190  1  0.41039000  0.95970000  0.71090000  1.0 -0.5284347705
O  O191  1  0.54931000  0.58961000  0.71090000  1.0 -0.5284347705
O  O192  1  0.04030000  0.45069000  0.71090000  1.0 -0.5284347705
O  O193  1  0.45068000  0.04030000  0.78910000  1.0 -0.5284347705
O  O194  1  0.95970000  0.41038000  0.78910000  1.0 -0.5284347705
O  O195  1  0.58962000  0.54932000  0.78910000  1.0 -0.5284347705
O  O196  1  0.07705000  0.29304000  0.04424000  1.0 -0.5284347705
O  O197  1  0.21599000  0.92295000  0.04424000  1.0 -0.5284347705
O  O198  1  0.70696000  0.78401000  0.04424000  1.0 -0.5284347705
O  O199  1  0.88265000  0.62637000  0.87757000  1.0 -0.5284347705
O  O200  1  0.37363000  0.25628000  0.87757000  1.0 -0.5284347705
O  O201  1  0.74372000  0.11735000  0.87757000  1.0 -0.5284347705
O  O202  1  0.25628000  0.37363000  0.62243000  1.0 -0.5284347705
O  O203  1  0.11735000  0.74372000  0.62243000  1.0 -0.5284347705
O  O204  1  0.62637000  0.88265000  0.62243000  1.0 -0.5284347705
O  O205  1  0.21598000  0.29304000  0.54424000  1.0 -0.5284347705
O  O206  1  0.70696000  0.92294000  0.54424000  1.0 -0.5284347705
O  O207  1  0.07706000  0.78402000  0.54424000  1.0 -0.5284347705
O  O208  1  0.58961000  0.04030000  0.28910000  1.0 -0.5284347705
O  O209  1  0.45069000  0.41039000  0.28910000  1.0 -0.5284347705
O  O210  1  0.95970000  0.54931000  0.28910000  1.0 -0.5284347705
O  O211  1  0.54932000  0.95970000  0.21090000  1.0 -0.5284347705
O  O212  1  0.04030000  0.58962000  0.21090000  1.0 -0.5284347705
O  O213  1  0.41038000  0.45068000  0.21090000  1.0 -0.5284347705
O  O214  1  0.92295000  0.70696000  0.95576000  1.0 -0.5284347705
O  O215  1  0.78401000  0.07705000  0.95576000  1.0 -0.5284347705
O  O216  1  0.29304000  0.21599000  0.95576000  1.0 -0.5284347705
O  O217  1  0.03416000  0.44595000  0.19622000  1.0 -0.6315242773
O  O218  1  0.55405000  0.58821000  0.19622000  1.0 -0.6315242773
O  O219  1  0.41179000  0.96584000  0.19622000  1.0 -0.6315242773
O  O220  1  0.58821000  0.55405000  0.30378000  1.0 -0.6315242773
O  O221  1  0.96584000  0.41179000  0.30378000  1.0 -0.6315242773
O  O222  1  0.44595000  0.03416000  0.30378000  1.0 -0.6315242773
O  O223  1  0.70083000  0.77928000  0.52955000  1.0 -0.6315242773
O  O224  1  0.22072000  0.92155000  0.52955000  1.0 -0.6315242773
O  O225  1  0.07845000  0.29917000  0.52955000  1.0 -0.6315242773
O  O226  1  0.25488000  0.88738000  0.63711000  1.0 -0.6315242773
O  O227  1  0.63250000  0.74512000  0.63711000  1.0 -0.6315242773
O  O228  1  0.11262000  0.36750000  0.63711000  1.0 -0.6315242773
O  O229  1  0.36749000  0.11262000  0.86289000  1.0 -0.6315242773
O  O230  1  0.88738000  0.25487000  0.86289000  1.0 -0.6315242773
O  O231  1  0.74513000  0.63251000  0.86289000  1.0 -0.6315242773
O  O232  1  0.92154000  0.22072000  0.97045000  1.0 -0.6315242773
O  O233  1  0.29918000  0.07846000  0.97045000  1.0 -0.6357733298
O  O234  1  0.77928000  0.70082000  0.97045000  1.0 -0.6315242773
O  O235  1  0.96584000  0.55405000  0.80378000  1.0 -0.6315242773
O  O236  1  0.44595000  0.41179000  0.80378000  1.0 -0.6315242773
O  O237  1  0.58821000  0.03416000  0.80378000  1.0 -0.6315242773
O  O238  1  0.41179000  0.44595000  0.69622000  1.0 -0.6315242773
O  O239  1  0.03416000  0.58821000  0.69622000  1.0 -0.6315242773
O  O240  1  0.55405000  0.96584000  0.69622000  1.0 -0.6315242773
O  O241  1  0.29917000  0.22072000  0.47045000  1.0 -0.6315242773
O  O242  1  0.77928000  0.07845000  0.47045000  1.0 -0.6315242773
O  O243  1  0.92155000  0.70083000  0.47045000  1.0 -0.6315242773
O  O244  1  0.74512000  0.11262000  0.36289000  1.0 -0.6315242773
O  O245  1  0.36750000  0.25488000  0.36289000  1.0 -0.6315242773
O  O246  1  0.88738000  0.63250000  0.36289000  1.0 -0.6315242773
O  O247  1  0.63251000  0.88738000  0.13711000  1.0 -0.6315242773
O  O248  1  0.11262000  0.74513000  0.13711000  1.0 -0.6315242773
O  O249  1  0.25487000  0.36749000  0.13711000  1.0 -0.6315242773
O  O250  1  0.07846000  0.77928000  0.02955000  1.0 -0.6315242773
O  O251  1  0.70082000  0.92154000  0.02955000  1.0 -0.6315242773
O  O252  1  0.22072000  0.29918000  0.02955000  1.0 -0.6315242773
O  O253  1  0.03699000  0.51066000  0.16980000  1.0 -0.5174131969
O  O254  1  0.48934000  0.52633000  0.16980000  1.0 -0.5174131969
O  O255  1  0.47367000  0.96301000  0.16980000  1.0 -0.5174131969
O  O256  1  0.52633000  0.48934000  0.33020000  1.0 -0.5174131969
O  O257  1  0.96301000  0.47367000  0.33020000  1.0 -0.5107992319
O  O258  1  0.51066000  0.03699000  0.33020000  1.0 -0.5174131969
O  O259  1  0.70366000  0.84399000  0.50313000  1.0 -0.5107992319
O  O260  1  0.15601000  0.85967000  0.50313000  1.0 -0.5107992319
O  O261  1  0.14033000  0.29634000  0.50313000  1.0 -0.5174131969
O  O262  1  0.19300000  0.82267000  0.66353000  1.0 -0.5107992319
O  O263  1  0.62967000  0.80700000  0.66353000  1.0 -0.5174131969
O  O264  1  0.17733000  0.37033000  0.66353000  1.0 -0.5174131969
O  O265  1  0.37032000  0.17733000  0.83647000  1.0 -0.5107992319
O  O266  1  0.82267000  0.19299000  0.83647000  1.0 -0.5107992319
O  O267  1  0.80701000  0.62968000  0.83647000  1.0 -0.5174131969
O  O268  1  0.85966000  0.15601000  0.99687000  1.0 -0.5174131969
O  O269  1  0.29635000  0.14034000  0.99687000  1.0 -0.5107992319
O  O270  1  0.84399000  0.70365000  0.99687000  1.0 -0.5174131969
O  O271  1  0.96301000  0.48934000  0.83020000  1.0 -0.5107992319
O  O272  1  0.51066000  0.47367000  0.83020000  1.0 -0.5174131969
O  O273  1  0.52633000  0.03699000  0.83020000  1.0 -0.5174131969
O  O274  1  0.47367000  0.51066000  0.66980000  1.0 -0.5174131969
O  O275  1  0.03699000  0.52633000  0.66980000  1.0 -0.5107992319
O  O276  1  0.48934000  0.96301000  0.66980000  1.0 -0.5174131969
O  O277  1  0.29634000  0.15601000  0.49687000  1.0 -0.5174131969
O  O278  1  0.84399000  0.14033000  0.49687000  1.0 -0.5174131969
O  O279  1  0.85967000  0.70366000  0.49687000  1.0 -0.5174131969
O  O280  1  0.80700000  0.17733000  0.33647000  1.0 -0.5174131969
O  O281  1  0.37033000  0.19300000  0.33647000  1.0 -0.5174131969
O  O282  1  0.82267000  0.62967000  0.33647000  1.0 -0.5174131969
O  O283  1  0.62968000  0.82267000  0.16353000  1.0 -0.5174131969
O  O284  1  0.17733000  0.80701000  0.16353000  1.0 -0.5174131969
O  O285  1  0.19299000  0.37032000  0.16353000  1.0 -0.5174131969
O  O286  1  0.14034000  0.84399000  0.00313000  1.0 -0.5107992319
O  O287  1  0.70365000  0.85966000  0.00313000  1.0 -0.5174131969
O  O288  1  0.15601000  0.29635000  0.00313000  1.0 -0.5174131969
O  O289  1  0.03583000  0.70249000  0.08330000  1.0 -0.9297177574
O  O290  1  0.29751000  0.33333333  0.08330000  1.0 -0.9297177574
O  O291  1  0.66666667  0.96417000  0.08330000  1.0 -0.9297177574
O  O292  1  0.33333333  0.29751000  0.41670000  1.0 -0.9297177574
O  O293  1  0.96418000  0.66666667  0.41670000  1.0 -0.9297177574
O  O294  1  0.70249000  0.03582000  0.41670000  1.0 -0.9297177574
O  O295  1  0.00001000  0.63084000  0.75003000  1.0 -0.9478842456
O  O296  1  0.63083000  0.99999000  0.75003000  1.0 -0.9433576752
O  O297  1  0.36916000  0.36917000  0.75003000  1.0 -0.9297177574
O  O298  1  0.96417000  0.29751000  0.91670000  1.0 -0.9478842456
O  O299  1  0.70249000  0.66666667  0.91670000  1.0 -0.9297177574
O  O300  1  0.33333333  0.03583000  0.91670000  1.0 -0.9297177574
O  O301  1  0.66666667  0.70249000  0.58330000  1.0 -0.9297177574
O  O302  1  0.03582000  0.33333333  0.58330000  1.0 -0.9297177574
O  O303  1  0.29751000  0.96418000  0.58330000  1.0 -0.9297177574
O  O304  1  0.99999000  0.36916000  0.24997000  1.0 -0.9478842456
O  O305  1  0.36917000  0.00001000  0.24997000  1.0 -0.9297177574
O  O306  1  0.63084000  0.63083000  0.24997000  1.0 -0.9478842456
O  O307  1  0.16238000  0.82904000  0.08330000  1.0 -1.0071990578
O  O308  1  0.17096000  0.33333333  0.08330000  1.0 -1.0071990578
O  O309  1  0.66666667  0.83762000  0.08330000  1.0 -1.0071990578
O  O310  1  0.33333333  0.17096000  0.41670000  1.0 -1.0071990578
O  O311  1  0.83763000  0.66666667  0.41670000  1.0 -1.0071990578
O  O312  1  0.82904000  0.16237000  0.41670000  1.0 -1.0071990578
O  O313  1  0.00001000  0.50429000  0.75003000  1.0 -1.0071990578
O  O314  1  0.50428000  0.99999000  0.75003000  1.0 -1.0071990578
O  O315  1  0.49571000  0.49572000  0.75003000  1.0 -1.0071990578
O  O316  1  0.83762000  0.17096000  0.91670000  1.0 -1.0071990578
O  O317  1  0.82904000  0.66666667  0.91670000  1.0 -1.0071990578
O  O318  1  0.33333333  0.16238000  0.91670000  1.0 -1.0071990578
O  O319  1  0.66666667  0.82904000  0.58330000  1.0 -1.0071990578
O  O320  1  0.16237000  0.33333333  0.58330000  1.0 -1.0071990578
O  O321  1  0.17096000  0.83763000  0.58330000  1.0 -1.0071990578
O  O322  1  0.99999000  0.49571000  0.24997000  1.0 -1.0071990578
O  O323  1  0.49572000  0.00001000  0.24997000  1.0 -1.0071990578
O  O324  1  0.50429000  0.50428000  0.24997000  1.0 -1.0071990578
