# DDEC6 charges by PACMAN v1.1 (https://github.com/mtap-research/PACMAN-charge/)
data_TOVKOG_ASR_pacman
_symmetry_space_group_name_H-M   'P 1'
_cell_length_a   24.95270000
_cell_length_b   24.95270000
_cell_length_c   24.95270000
_cell_angle_alpha   87.98660000
_cell_angle_beta   87.98660000
_cell_angle_gamma   87.98660000
_symmetry_Int_Tables_number   1
_chemical_formula_structural   Fe3H28C50N2O13
_chemical_formula_sum   'Fe9 H84 C150 N6 O39'
_cell_volume   15508.36247590
_cell_formula_units_Z   3
loop_
 _symmetry_equiv_pos_site_id
 _symmetry_equiv_pos_as_xyz
  1  'x, y, z'
loop_
 _atom_site_type_symbol
 _atom_site_label
 _atom_site_symmetry_multiplicity
 _atom_site_fract_x
 _atom_site_fract_y
 _atom_site_fract_z
 _atom_site_occupancy
 _atom_site_charge
Fe  Fe1  1  0.15874000  0.25373000  0.67735000  1.0 1.0717469073
Fe  Fe2  1  0.25373000  0.67735000  0.15874000  1.0 1.0717469073
Fe  Fe3  1  0.67735000  0.15874000  0.25373000  1.0 1.0717469073
Fe  Fe4  1  0.13007000  0.12998000  0.64734000  1.0 1.1343843557
Fe  Fe5  1  0.12998000  0.64734000  0.13007000  1.0 1.1358876444
Fe  Fe6  1  0.64734000  0.13007000  0.12998000  1.0 1.1358876444
Fe  Fe7  1  0.25343000  0.15874000  0.67711000  1.0 1.0316296833
Fe  Fe8  1  0.15874000  0.67711000  0.25343000  1.0 1.0316296833
Fe  Fe9  1  0.67711000  0.25343000  0.15874000  1.0 1.0316296833
H  H1  1  0.27160000  0.03390000  0.77730000  1.0 0.1377440112
H  H2  1  0.03390000  0.77730000  0.27160000  1.0 0.1377440112
H  H3  1  0.77730000  0.27160000  0.03390000  1.0 0.1377440112
H  H4  1  0.28330000  0.96080000  0.83690000  1.0 0.1304125803
H  H5  1  0.96080000  0.83690000  0.28330000  1.0 0.1304125803
H  H6  1  0.83690000  0.28330000  0.96080000  1.0 0.1304125803
H  H7  1  0.12580000  0.93120000  0.83110000  1.0 0.1183120907
H  H8  1  0.93120000  0.83110000  0.12580000  1.0 0.1183120907
H  H9  1  0.83110000  0.12580000  0.93120000  1.0 0.1183120907
H  H10  1  0.11400000  0.00470000  0.77210000  1.0 0.1304125803
H  H11  1  0.00470000  0.77210000  0.11400000  1.0 0.1304125803
H  H12  1  0.77210000  0.11400000  0.00470000  1.0 0.1304125803
H  H13  1  0.12030000  0.75120000  0.99620000  1.0 0.1304125803
H  H14  1  0.75120000  0.99620000  0.12030000  1.0 0.1304125803
H  H15  1  0.99620000  0.12030000  0.75120000  1.0 0.1304125803
H  H16  1  0.11590000  0.82400000  0.93440000  1.0 0.1183120907
H  H17  1  0.82400000  0.93440000  0.11590000  1.0 0.1183120907
H  H18  1  0.93440000  0.11590000  0.82400000  1.0 0.1183120907
H  H19  1  0.26520000  0.86380000  0.97090000  1.0 0.1183120907
H  H20  1  0.86380000  0.97090000  0.26520000  1.0 0.1183120907
H  H21  1  0.97090000  0.26520000  0.86380000  1.0 0.1183120907
H  H22  1  0.26990000  0.79110000  0.03290000  1.0 0.1304125803
H  H23  1  0.79110000  0.03290000  0.26990000  1.0 0.1304125803
H  H24  1  0.03290000  0.26990000  0.79110000  1.0 0.1304125803
H  H25  1  0.09630000  0.32370000  0.54040000  1.0 0.1304125803
H  H26  1  0.32370000  0.54040000  0.09630000  1.0 0.1304125803
H  H27  1  0.54040000  0.09630000  0.32370000  1.0 0.1304125803
H  H28  1  0.06230000  0.35760000  0.45920000  1.0 0.1183120907
H  H29  1  0.35760000  0.45920000  0.06230000  1.0 0.1183120907
H  H30  1  0.45920000  0.06230000  0.35760000  1.0 0.1183120907
H  H31  1  0.03110000  0.20660000  0.41730000  1.0 0.1183120907
H  H32  1  0.20660000  0.41730000  0.03110000  1.0 0.1183120907
H  H33  1  0.41730000  0.03110000  0.20660000  1.0 0.1183120907
H  H34  1  0.06400000  0.17280000  0.49890000  1.0 0.1304125803
H  H35  1  0.17280000  0.49890000  0.06400000  1.0 0.1304125803
H  H36  1  0.49890000  0.06400000  0.17280000  1.0 0.1304125803
H  H37  1  0.07700000  0.37220000  0.37290000  1.0 0.1183120907
H  H38  1  0.37220000  0.37290000  0.07700000  1.0 0.1183120907
H  H39  1  0.37290000  0.07700000  0.37220000  1.0 0.1183120907
H  H40  1  0.97040000  0.37090000  0.25400000  1.0 0.1077645339
H  H41  1  0.37090000  0.25400000  0.97040000  1.0 0.1077645339
H  H42  1  0.25400000  0.97040000  0.37090000  1.0 0.1077645339
H  H43  1  0.96550000  0.25770000  0.37450000  1.0 0.1077645339
H  H44  1  0.25770000  0.37450000  0.96550000  1.0 0.1077645339
H  H45  1  0.37450000  0.96550000  0.25770000  1.0 0.1077645339
H  H46  1  0.90590000  0.22420000  0.34040000  1.0 0.1183120907
H  H47  1  0.22420000  0.34040000  0.90590000  1.0 0.1183120907
H  H48  1  0.34040000  0.90590000  0.22420000  1.0 0.1183120907
H  H49  1  0.82100000  0.19980000  0.31470000  1.0 0.1377440112
H  H50  1  0.19980000  0.31470000  0.82100000  1.0 0.1377440112
H  H51  1  0.31470000  0.82100000  0.19980000  1.0 0.1377440112
H  H52  1  0.82130000  0.31830000  0.19980000  1.0 0.1304125803
H  H53  1  0.31830000  0.19980000  0.82130000  1.0 0.1304125803
H  H54  1  0.19980000  0.82130000  0.31830000  1.0 0.1304125803
H  H55  1  0.90580000  0.34360000  0.22620000  1.0 0.1183120907
H  H56  1  0.34360000  0.22620000  0.90580000  1.0 0.1183120907
H  H57  1  0.22620000  0.90580000  0.34360000  1.0 0.1183120907
H  H58  1  0.05990000  0.45940000  0.35710000  1.0 0.1183120907
H  H59  1  0.45940000  0.35710000  0.05990000  1.0 0.1183120907
H  H60  1  0.35710000  0.05990000  0.45940000  1.0 0.1183120907
H  H61  1  0.09450000  0.54070000  0.32340000  1.0 0.1304125803
H  H62  1  0.54070000  0.32340000  0.09450000  1.0 0.1304125803
H  H63  1  0.32340000  0.09450000  0.54070000  1.0 0.1304125803
H  H64  1  0.05400000  0.50170000  0.17400000  1.0 0.1304125803
H  H65  1  0.50170000  0.17400000  0.05400000  1.0 0.1304125803
H  H66  1  0.17400000  0.05400000  0.50170000  1.0 0.1304125803
H  H67  1  0.02950000  0.41690000  0.20740000  1.0 0.1183120907
H  H68  1  0.41690000  0.20740000  0.02950000  1.0 0.1183120907
H  H69  1  0.20740000  0.02950000  0.41690000  1.0 0.1183120907
H  H70  1  0.34150000  0.23120000  0.55150000  1.0 0.1377440112
H  H71  1  0.23120000  0.55150000  0.34150000  1.0 0.1377440112
H  H72  1  0.55150000  0.34150000  0.23120000  1.0 0.1377440112
H  H73  1  0.38950000  0.27780000  0.48360000  1.0 0.1183120907
H  H74  1  0.27780000  0.48360000  0.38950000  1.0 0.1183120907
H  H75  1  0.48360000  0.38950000  0.27780000  1.0 0.1183120907
H  H76  1  0.30810000  0.41530000  0.52200000  1.0 0.1183120907
H  H77  1  0.41530000  0.52200000  0.30810000  1.0 0.1183120907
H  H78  1  0.52200000  0.30810000  0.41530000  1.0 0.1183120907
H  H79  1  0.26010000  0.36870000  0.58990000  1.0 0.1304125803
H  H80  1  0.36870000  0.58990000  0.26010000  1.0 0.1304125803
H  H81  1  0.58990000  0.26010000  0.36870000  1.0 0.1304125803
H  H82  1  0.43810000  0.32200000  0.43970000  1.0 0.1077645339
H  H83  1  0.32200000  0.43970000  0.43810000  1.0 0.1077645339
H  H84  1  0.43970000  0.43810000  0.32200000  1.0 0.1077645339
C  C1  1  0.19320000  0.06710000  0.72770000  1.0 0.581436904
C  C2  1  0.06710000  0.72770000  0.19320000  1.0 0.581436904
C  C3  1  0.72770000  0.19320000  0.06710000  1.0 0.581436904
C  C4  1  0.19177000  0.02581000  0.76889000  1.0 -0.0829031086
C  C5  1  0.02581000  0.76889000  0.19177000  1.0 -0.0829031086
C  C6  1  0.76889000  0.19177000  0.02581000  1.0 -0.0829031086
C  C7  1  0.24182000  0.01297000  0.78832000  1.0 -0.0829031086
C  C8  1  0.01297000  0.78832000  0.24182000  1.0 -0.0883451871
C  C9  1  0.78832000  0.24182000  0.01297000  1.0 -0.0883451871
C  C10  1  0.24872000  0.96982000  0.82379000  1.0 -0.1507677945
C  C11  1  0.96982000  0.82379000  0.24872000  1.0 -0.1507677945
C  C12  1  0.82379000  0.24872000  0.96982000  1.0 -0.1507677945
C  C13  1  0.20543000  0.93970000  0.84014000  1.0 0.1543715514
C  C14  1  0.93970000  0.84014000  0.20543000  1.0 0.1543715514
C  C15  1  0.84014000  0.20543000  0.93970000  1.0 0.1543715514
C  C16  1  0.15542000  0.95237000  0.82042000  1.0 -0.1507677945
C  C17  1  0.95237000  0.82042000  0.15542000  1.0 -0.1507677945
C  C18  1  0.82042000  0.15542000  0.95237000  1.0 -0.1507677945
C  C19  1  0.14854000  0.99564000  0.78514000  1.0 -0.0617509381
C  C20  1  0.99564000  0.78514000  0.14854000  1.0 -0.0617509381
C  C21  1  0.78514000  0.14854000  0.99564000  1.0 -0.0617509381
C  C22  1  0.19690000  0.72680000  0.06430000  1.0 0.581436904
C  C23  1  0.72680000  0.06430000  0.19690000  1.0 0.581436904
C  C24  1  0.06430000  0.19690000  0.72680000  1.0 0.581436904
C  C25  1  0.19551000  0.76470000  0.01996000  1.0 -0.0829031086
C  C26  1  0.76470000  0.01996000  0.19551000  1.0 -0.0829031086
C  C27  1  0.01996000  0.19551000  0.76470000  1.0 -0.0829031086
C  C28  1  0.14986000  0.77405000  0.99104000  1.0 -0.0617509381
C  C29  1  0.77405000  0.99104000  0.14986000  1.0 -0.0617509381
C  C30  1  0.99104000  0.14986000  0.77405000  1.0 -0.0617509381
C  C31  1  0.14717000  0.81709000  0.95450000  1.0 -0.1507677945
C  C32  1  0.81709000  0.95450000  0.14717000  1.0 -0.1507677945
C  C33  1  0.95450000  0.14717000  0.81709000  1.0 -0.1507677945
C  C34  1  0.19022000  0.84946000  0.94775000  1.0 0.175532303
C  C35  1  0.84946000  0.94775000  0.19022000  1.0 0.175532303
C  C36  1  0.94775000  0.19022000  0.84946000  1.0 0.175532303
C  C37  1  0.23581000  0.84071000  0.97619000  1.0 -0.1507677945
C  C38  1  0.84071000  0.97619000  0.23581000  1.0 -0.1507677945
C  C39  1  0.97619000  0.23581000  0.84071000  1.0 -0.1507677945
C  C40  1  0.23856000  0.79776000  0.01276000  1.0 -0.0617509381
C  C41  1  0.79776000  0.01276000  0.23856000  1.0 -0.0617509381
C  C42  1  0.01276000  0.23856000  0.79776000  1.0 -0.0617509381
C  C43  1  0.10377000  0.23007000  0.57967000  1.0 0.581436904
C  C44  1  0.23007000  0.57967000  0.10377000  1.0 0.581436904
C  C45  1  0.57967000  0.10377000  0.23007000  1.0 0.581436904
C  C46  1  0.08357000  0.24504000  0.52709000  1.0 -0.0524553068
C  C47  1  0.24504000  0.52709000  0.08357000  1.0 -0.0524553068
C  C48  1  0.52709000  0.08357000  0.24504000  1.0 -0.0524553068
C  C49  1  0.08298000  0.29996000  0.51539000  1.0 -0.0883451871
C  C50  1  0.29996000  0.51539000  0.08298000  1.0 -0.0883451871
C  C51  1  0.51539000  0.08298000  0.29996000  1.0 -0.0883451871
C  C52  1  0.06289000  0.32007000  0.46716000  1.0 -0.1575255973
C  C53  1  0.32007000  0.46716000  0.06289000  1.0 -0.1575255973
C  C54  1  0.46716000  0.06289000  0.32007000  1.0 -0.1575255973
C  C55  1  0.04372000  0.28531000  0.43055000  1.0 0.0829072075
C  C56  1  0.28531000  0.43055000  0.04372000  1.0 0.0829072075
C  C57  1  0.43055000  0.04372000  0.28531000  1.0 0.0829072075
C  C58  1  0.04428000  0.23042000  0.44225000  1.0 -0.1575255973
C  C59  1  0.23042000  0.44225000  0.04428000  1.0 -0.1575255973
C  C60  1  0.44225000  0.04428000  0.23042000  1.0 -0.1575255973
C  C61  1  0.06394000  0.21034000  0.49070000  1.0 -0.0829031086
C  C62  1  0.21034000  0.49070000  0.06394000  1.0 -0.0829031086
C  C63  1  0.49070000  0.06394000  0.21034000  1.0 -0.0829031086
C  C64  1  0.02411000  0.31173000  0.38150000  1.0 0.0829072075
C  C65  1  0.31173000  0.38150000  0.02411000  1.0 0.0829072075
C  C66  1  0.38150000  0.02411000  0.31173000  1.0 0.0829072075
C  C67  1  0.04728000  0.35666000  0.35720000  1.0 -0.2096055356
C  C68  1  0.35666000  0.35720000  0.04728000  1.0 -0.2096055356
C  C69  1  0.35720000  0.04728000  0.35666000  1.0 -0.2096055356
C  C70  1  0.02707000  0.37889000  0.30988000  1.0 0.0829072075
C  C71  1  0.37889000  0.30988000  0.02707000  1.0 0.0829072075
C  C72  1  0.30988000  0.02707000  0.37889000  1.0 0.0829072075
C  C73  1  0.98385000  0.35603000  0.28671000  1.0 -0.2096055356
C  C74  1  0.35603000  0.28671000  0.98385000  1.0 -0.2096055356
C  C75  1  0.28671000  0.98385000  0.35603000  1.0 -0.2096055356
C  C76  1  0.96031000  0.31143000  0.31132000  1.0 0.0829072075
C  C77  1  0.31143000  0.31132000  0.96031000  1.0 0.0829072075
C  C78  1  0.31132000  0.96031000  0.31143000  1.0 0.0829072075
C  C79  1  0.98096000  0.28884000  0.35829000  1.0 -0.2096055356
C  C80  1  0.28884000  0.35829000  0.98096000  1.0 -0.2096055356
C  C81  1  0.35829000  0.98096000  0.28884000  1.0 -0.2096055356
C  C82  1  0.91335000  0.28696000  0.28657000  1.0 0.0889948748
C  C83  1  0.28696000  0.28657000  0.91335000  1.0 0.0889948748
C  C84  1  0.28657000  0.91335000  0.28696000  1.0 0.0889948748
C  C85  1  0.88876000  0.24336000  0.31186000  1.0 -0.1575255973
C  C86  1  0.24336000  0.31186000  0.88876000  1.0 -0.1575255973
C  C87  1  0.31186000  0.88876000  0.24336000  1.0 -0.1575255973
C  C88  1  0.83928000  0.22758000  0.29528000  1.0 -0.0829031086
C  C89  1  0.22758000  0.29528000  0.83928000  1.0 -0.0829031086
C  C90  1  0.29528000  0.83928000  0.22758000  1.0 -0.0829031086
C  C91  1  0.81660000  0.25240000  0.25030000  1.0 -0.0617509381
C  C92  1  0.25240000  0.25030000  0.81660000  1.0 -0.0617509381
C  C93  1  0.25030000  0.81660000  0.25240000  1.0 -0.0617509381
C  C94  1  0.83943000  0.29809000  0.22711000  1.0 -0.0978543158
C  C95  1  0.29809000  0.22711000  0.83943000  1.0 -0.0978543158
C  C96  1  0.22711000  0.83943000  0.29809000  1.0 -0.0978543158
C  C97  1  0.88879000  0.31409000  0.24389000  1.0 -0.1575255973
C  C98  1  0.31409000  0.24389000  0.88879000  1.0 -0.1575255973
C  C99  1  0.24389000  0.88879000  0.31409000  1.0 -0.1575255973
C  C100  1  0.76270000  0.24680000  0.23150000  1.0 0.5461961247
C  C101  1  0.24680000  0.23150000  0.76270000  1.0 0.5461961247
C  C102  1  0.23150000  0.76270000  0.24680000  1.0 0.5461961247
C  C103  1  0.05168000  0.42699000  0.28412000  1.0 0.0889948748
C  C104  1  0.42699000  0.28412000  0.05168000  1.0 0.0889948748
C  C105  1  0.28412000  0.05168000  0.42699000  1.0 0.0889948748
C  C106  1  0.06351000  0.46640000  0.31949000  1.0 -0.1575255973
C  C107  1  0.46640000  0.31949000  0.06351000  1.0 -0.1575255973
C  C108  1  0.31949000  0.06351000  0.46640000  1.0 -0.1575255973
C  C109  1  0.08063000  0.51596000  0.29979000  1.0 -0.0883451871
C  C110  1  0.51596000  0.29979000  0.08063000  1.0 -0.0883451871
C  C111  1  0.29979000  0.08063000  0.51596000  1.0 -0.0883451871
C  C112  1  0.07727000  0.52919000  0.24531000  1.0 -0.0617509381
C  C113  1  0.52919000  0.24531000  0.07727000  1.0 -0.0617509381
C  C114  1  0.24531000  0.07727000  0.52919000  1.0 -0.0617509381
C  C115  1  0.05789000  0.49227000  0.21095000  1.0 -0.0745516427
C  C116  1  0.49227000  0.21095000  0.05789000  1.0 -0.0745516427
C  C117  1  0.21095000  0.05789000  0.49227000  1.0 -0.0745516427
C  C118  1  0.04411000  0.44165000  0.23059000  1.0 -0.1575255973
C  C119  1  0.44165000  0.23059000  0.04411000  1.0 -0.1575255973
C  C120  1  0.23059000  0.04411000  0.44165000  1.0 -0.1575255973
C  C121  1  0.10118000  0.57998000  0.22968000  1.0 0.581436904
C  C122  1  0.57998000  0.22968000  0.10118000  1.0 0.581436904
C  C123  1  0.22968000  0.10118000  0.57998000  1.0 0.581436904
C  C124  1  0.26931000  0.26690000  0.62429000  1.0 0.5893019653
C  C125  1  0.26690000  0.62429000  0.26931000  1.0 0.5893019653
C  C126  1  0.62429000  0.26931000  0.26690000  1.0 0.5893019653
C  C127  1  0.29633000  0.29552000  0.57705000  1.0 -0.0166101072
C  C128  1  0.29552000  0.57705000  0.29633000  1.0 -0.0166101072
C  C129  1  0.57705000  0.29633000  0.29552000  1.0 -0.0166101072
C  C130  1  0.33477000  0.26860000  0.54549000  1.0 -0.0978543158
C  C131  1  0.26860000  0.54549000  0.33477000  1.0 -0.0978543158
C  C132  1  0.54549000  0.33477000  0.26860000  1.0 -0.0978543158
C  C133  1  0.36330000  0.29631000  0.50518000  1.0 -0.1575255973
C  C134  1  0.29631000  0.50518000  0.36330000  1.0 -0.1575255973
C  C135  1  0.50518000  0.36330000  0.29631000  1.0 -0.1575255973
C  C136  1  0.35339000  0.35103000  0.49640000  1.0 0.0829072075
C  C137  1  0.35103000  0.49640000  0.35339000  1.0 0.0829072075
C  C138  1  0.49640000  0.35339000  0.35103000  1.0 0.0829072075
C  C139  1  0.31493000  0.37798000  0.52798000  1.0 -0.1575255973
C  C140  1  0.37798000  0.52798000  0.31493000  1.0 -0.1575255973
C  C141  1  0.52798000  0.31493000  0.37798000  1.0 -0.1575255973
C  C142  1  0.28643000  0.35022000  0.56828000  1.0 -0.0883451871
C  C143  1  0.35022000  0.56828000  0.28643000  1.0 -0.0883451871
C  C144  1  0.56828000  0.28643000  0.35022000  1.0 -0.0883451871
C  C145  1  0.37422000  0.37515000  0.44413000  1.0 0.0889948748
C  C146  1  0.37515000  0.44413000  0.37422000  1.0 0.0889948748
C  C147  1  0.44413000  0.37422000  0.37515000  1.0 0.0889948748
C  C148  1  0.42141000  0.35243000  0.42236000  1.0 -0.2096055356
C  C149  1  0.35243000  0.42236000  0.42141000  1.0 -0.2096055356
C  C150  1  0.42236000  0.42141000  0.35243000  1.0 -0.2096055356
N  N1  1  0.22068000  0.89720000  0.87567000  1.0 -0.1575255973
N  N2  1  0.89720000  0.87567000  0.22068000  1.0 -0.1575255973
N  N3  1  0.87567000  0.22068000  0.89720000  1.0 -0.1575255973
N  N4  1  0.18742000  0.89239000  0.91125000  1.0 -0.1507677945
N  N5  1  0.89239000  0.91125000  0.18742000  1.0 -0.1507677945
N  N6  1  0.91125000  0.18742000  0.89239000  1.0 -0.1507677945
O  O1  1  0.17925000  0.17924000  0.66458000  1.0 -0.9222087843
O  O2  1  0.17924000  0.66458000  0.17925000  1.0 -0.9222087843
O  O3  1  0.66458000  0.17925000  0.17924000  1.0 -0.9222087843
O  O4  1  0.23907000  0.08897000  0.71777000  1.0 -0.5562984529
O  O5  1  0.08897000  0.71777000  0.23907000  1.0 -0.5562984529
O  O6  1  0.71777000  0.23907000  0.08897000  1.0 -0.5562984529
O  O7  1  0.15401000  0.07631000  0.70611000  1.0 -0.4424423956
O  O8  1  0.07631000  0.70611000  0.15401000  1.0 -0.4424423956
O  O9  1  0.70611000  0.15401000  0.07631000  1.0 -0.4424423956
O  O10  1  0.15248000  0.70508000  0.07608000  1.0 -0.5469877703
O  O11  1  0.70508000  0.07608000  0.15248000  1.0 -0.5469877703
O  O12  1  0.07608000  0.15248000  0.70508000  1.0 -0.5469877703
O  O13  1  0.23642000  0.71972000  0.08952000  1.0 -0.4941029432
O  O14  1  0.71972000  0.08952000  0.23642000  1.0 -0.4941029432
O  O15  1  0.08952000  0.23642000  0.71972000  1.0 -0.4941029432
O  O16  1  0.11836000  0.25898000  0.61267000  1.0 -0.4424423956
O  O17  1  0.25898000  0.61267000  0.11836000  1.0 -0.4454309129
O  O18  1  0.61267000  0.11836000  0.25898000  1.0 -0.4424423956
O  O19  1  0.09836000  0.17604000  0.58652000  1.0 -0.592415649
O  O20  1  0.17604000  0.58652000  0.09836000  1.0 -0.592415649
O  O21  1  0.58652000  0.09836000  0.17604000  1.0 -0.592415649
O  O22  1  0.74861000  0.20601000  0.25701000  1.0 -0.4215064032
O  O23  1  0.20601000  0.25701000  0.74861000  1.0 -0.4215064032
O  O24  1  0.25701000  0.74861000  0.20601000  1.0 -0.4215064032
O  O25  1  0.74764000  0.26180000  0.19703000  1.0 -0.3498660806
O  O26  1  0.26180000  0.19703000  0.74764000  1.0 -0.3498660806
O  O27  1  0.19703000  0.74764000  0.26180000  1.0 -0.3498660806
O  O28  1  0.09571000  0.58654000  0.17672000  1.0 -0.5742556833
O  O29  1  0.58654000  0.17672000  0.09571000  1.0 -0.5742556833
O  O30  1  0.17672000  0.09571000  0.58654000  1.0 -0.5742556833
O  O31  1  0.11846000  0.61147000  0.26068000  1.0 -0.4808051668
O  O32  1  0.61147000  0.26068000  0.11846000  1.0 -0.4808051668
O  O33  1  0.26068000  0.11846000  0.61147000  1.0 -0.4808051668
O  O34  1  0.28549000  0.22424000  0.64060000  1.0 -0.4808051668
O  O35  1  0.22424000  0.64060000  0.28549000  1.0 -0.4808051668
O  O36  1  0.64060000  0.28549000  0.22424000  1.0 -0.4808051668
O  O37  1  0.22541000  0.28589000  0.63978000  1.0 -0.5254457973
O  O38  1  0.28589000  0.63978000  0.22541000  1.0 -0.5254457973
O  O39  1  0.63978000  0.22541000  0.28589000  1.0 -0.5254457973
