# DDEC6 charges by PACMAN v1.1 (https://github.com/mtap-research/PACMAN-charge/)
data_TOWNAW_ASR_pacman
_symmetry_space_group_name_H-M   'P 1'
_cell_length_a   18.69960000
_cell_length_b   18.69960000
_cell_length_c   28.85720000
_cell_angle_alpha   90.00000000
_cell_angle_beta   90.00000000
_cell_angle_gamma   120.00000000
_symmetry_Int_Tables_number   1
_chemical_formula_structural   Fe3H24C42N6O13
_chemical_formula_sum   'Fe18 H144 C252 N36 O78'
_cell_volume   8738.75280518
_cell_formula_units_Z   6
loop_
 _symmetry_equiv_pos_site_id
 _symmetry_equiv_pos_as_xyz
  1  'x, y, z'
loop_
 _atom_site_type_symbol
 _atom_site_label
 _atom_site_symmetry_multiplicity
 _atom_site_fract_x
 _atom_site_fract_y
 _atom_site_fract_z
 _atom_site_occupancy
 _atom_site_charge
Fe  Fe1  1  0.39210000  0.78420000  0.16240000  1.0 1.2739055914
Fe  Fe2  1  0.21580000  0.60790000  0.16240000  1.0 1.2739055914
Fe  Fe3  1  0.39210000  0.60790000  0.16240000  1.0 1.2739055914
Fe  Fe4  1  0.94080000  0.05920000  0.66190000  1.0 1.2936360401
Fe  Fe5  1  0.94080000  0.88160000  0.66190000  1.0 1.2974197131
Fe  Fe6  1  0.11840000  0.05920000  0.66190000  1.0 1.2974197131
Fe  Fe7  1  0.78420000  0.39210000  0.66240000  1.0 1.2739055914
Fe  Fe8  1  0.60790000  0.39210000  0.66240000  1.0 1.2739055914
Fe  Fe9  1  0.60790000  0.21580000  0.66240000  1.0 1.2739055914
Fe  Fe10  1  0.05920000  0.11840000  0.16190000  1.0 1.2974197131
Fe  Fe11  1  0.88160000  0.94080000  0.16190000  1.0 1.2974197131
Fe  Fe12  1  0.05920000  0.94080000  0.16190000  1.0 1.2936360401
Fe  Fe13  1  0.72570000  0.45140000  0.19370000  1.0 1.179018454
Fe  Fe14  1  0.27430000  0.72570000  0.69370000  1.0 1.1919348043
Fe  Fe15  1  0.54860000  0.27430000  0.19370000  1.0 1.1919348043
Fe  Fe16  1  0.27430000  0.54860000  0.69370000  1.0 1.1919348043
Fe  Fe17  1  0.72570000  0.27430000  0.19370000  1.0 1.1919348043
Fe  Fe18  1  0.45140000  0.72570000  0.69370000  1.0 1.1919348043
H  H1  1  0.53720000  0.65980000  0.04430000  1.0 0.1295010989
H  H2  1  0.34020000  0.87740000  0.04430000  1.0 0.1295010989
H  H3  1  0.12260000  0.46280000  0.04430000  1.0 0.1295010989
H  H4  1  0.12260000  0.65980000  0.04430000  1.0 0.1295010989
H  H5  1  0.53720000  0.87740000  0.04430000  1.0 0.1295010989
H  H6  1  0.34020000  0.46280000  0.04430000  1.0 0.1295010989
H  H7  1  0.59890000  0.69090000  0.97040000  1.0 0.114442377
H  H8  1  0.30910000  0.90800000  0.97040000  1.0 0.114442377
H  H9  1  0.09200000  0.40110000  0.97040000  1.0 0.114442377
H  H10  1  0.09200000  0.69090000  0.97040000  1.0 0.114442377
H  H11  1  0.59890000  0.90800000  0.97040000  1.0 0.114442377
H  H12  1  0.30910000  0.40110000  0.97040000  1.0 0.114442377
H  H13  1  0.80250000  0.79250000  0.78350000  1.0 0.1295010989
H  H14  1  0.20750000  0.01000000  0.78350000  1.0 0.1295010989
H  H15  1  0.99000000  0.19750000  0.78350000  1.0 0.1295010989
H  H16  1  0.99000000  0.79250000  0.78350000  1.0 0.1295010989
H  H17  1  0.80250000  0.01000000  0.78350000  1.0 0.1295010989
H  H18  1  0.20750000  0.19750000  0.78350000  1.0 0.1295010989
H  H19  1  0.75130000  0.76710000  0.85980000  1.0 0.1209682849
H  H20  1  0.23290000  0.98420000  0.85980000  1.0 0.1209682849
H  H21  1  0.01580000  0.24870000  0.85980000  1.0 0.1209682849
H  H22  1  0.01580000  0.76710000  0.85980000  1.0 0.1209682849
H  H23  1  0.75130000  0.98420000  0.85980000  1.0 0.1209682849
H  H24  1  0.23290000  0.24870000  0.85980000  1.0 0.1209682849
H  H25  1  0.58610000  0.90160000  0.36340000  1.0 0.1209682849
H  H26  1  0.09840000  0.68450000  0.36340000  1.0 0.1209682849
H  H27  1  0.31550000  0.41390000  0.36340000  1.0 0.1209682849
H  H28  1  0.31550000  0.90160000  0.36340000  1.0 0.1209682849
H  H29  1  0.58610000  0.68450000  0.36340000  1.0 0.1209682849
H  H30  1  0.09840000  0.41390000  0.36340000  1.0 0.1209682849
H  H31  1  0.79490000  0.00640000  0.54050000  1.0 0.1295010989
H  H32  1  0.99360000  0.78850000  0.54050000  1.0 0.1295010989
H  H33  1  0.21150000  0.20510000  0.54050000  1.0 0.1295010989
H  H34  1  0.21150000  0.00640000  0.54050000  1.0 0.1295010989
H  H35  1  0.79490000  0.78850000  0.54050000  1.0 0.1295010989
H  H36  1  0.99360000  0.20510000  0.54050000  1.0 0.1295010989
H  H37  1  0.73800000  0.97760000  0.46510000  1.0 0.1209682849
H  H38  1  0.02240000  0.76040000  0.46510000  1.0 0.1209682849
H  H39  1  0.23960000  0.26200000  0.46510000  1.0 0.1209682849
H  H40  1  0.23960000  0.97760000  0.46510000  1.0 0.1209682849
H  H41  1  0.73800000  0.76040000  0.46510000  1.0 0.1209682849
H  H42  1  0.02240000  0.26200000  0.46510000  1.0 0.1209682849
H  H43  1  0.53190000  0.87490000  0.28750000  1.0 0.1295010989
H  H44  1  0.12510000  0.65700000  0.28750000  1.0 0.1295010989
H  H45  1  0.34300000  0.46810000  0.28750000  1.0 0.1295010989
H  H46  1  0.34300000  0.87490000  0.28750000  1.0 0.1295010989
H  H47  1  0.53190000  0.65700000  0.28750000  1.0 0.1295010989
H  H48  1  0.12510000  0.46810000  0.28750000  1.0 0.1295010989
H  H49  1  0.65980000  0.12260000  0.54430000  1.0 0.1295010989
H  H50  1  0.87740000  0.53720000  0.54430000  1.0 0.1295010989
H  H51  1  0.46280000  0.34020000  0.54430000  1.0 0.1295010989
H  H52  1  0.46280000  0.12260000  0.54430000  1.0 0.1295010989
H  H53  1  0.65980000  0.53720000  0.54430000  1.0 0.1295010989
H  H54  1  0.87740000  0.34020000  0.54430000  1.0 0.1295010989
H  H55  1  0.69090000  0.09200000  0.47040000  1.0 0.114442377
H  H56  1  0.90800000  0.59890000  0.47040000  1.0 0.114442377
H  H57  1  0.40110000  0.30910000  0.47040000  1.0 0.114442377
H  H58  1  0.40110000  0.09200000  0.47040000  1.0 0.114442377
H  H59  1  0.69090000  0.59890000  0.47040000  1.0 0.114442377
H  H60  1  0.90800000  0.30910000  0.47040000  1.0 0.114442377
H  H61  1  0.79250000  0.99000000  0.28350000  1.0 0.1295010989
H  H62  1  0.01000000  0.80250000  0.28350000  1.0 0.1295010989
H  H63  1  0.19750000  0.20750000  0.28350000  1.0 0.1295010989
H  H64  1  0.19750000  0.99000000  0.28350000  1.0 0.1295010989
H  H65  1  0.79250000  0.80250000  0.28350000  1.0 0.1295010989
H  H66  1  0.01000000  0.20750000  0.28350000  1.0 0.1295010989
H  H67  1  0.76710000  0.01580000  0.35980000  1.0 0.1209682849
H  H68  1  0.98420000  0.75130000  0.35980000  1.0 0.1209682849
H  H69  1  0.24870000  0.23290000  0.35980000  1.0 0.1209682849
H  H70  1  0.24870000  0.01580000  0.35980000  1.0 0.1209682849
H  H71  1  0.76710000  0.75130000  0.35980000  1.0 0.1209682849
H  H72  1  0.98420000  0.23290000  0.35980000  1.0 0.1209682849
H  H73  1  0.90160000  0.31550000  0.86340000  1.0 0.1209682849
H  H74  1  0.68450000  0.58610000  0.86340000  1.0 0.1209682849
H  H75  1  0.41390000  0.09840000  0.86340000  1.0 0.1209682849
H  H76  1  0.41390000  0.31550000  0.86340000  1.0 0.1209682849
H  H77  1  0.90160000  0.58610000  0.86340000  1.0 0.1209682849
H  H78  1  0.68450000  0.09840000  0.86340000  1.0 0.1209682849
H  H79  1  0.00640000  0.21150000  0.04050000  1.0 0.1295010989
H  H80  1  0.78850000  0.79490000  0.04050000  1.0 0.1295010989
H  H81  1  0.20510000  0.99360000  0.04050000  1.0 0.1295010989
H  H82  1  0.20510000  0.21150000  0.04050000  1.0 0.1295010989
H  H83  1  0.00640000  0.79490000  0.04050000  1.0 0.1295010989
H  H84  1  0.78850000  0.99360000  0.04050000  1.0 0.1295010989
H  H85  1  0.97760000  0.23960000  0.96510000  1.0 0.1209682849
H  H86  1  0.76040000  0.73800000  0.96510000  1.0 0.1209682849
H  H87  1  0.26200000  0.02240000  0.96510000  1.0 0.1209682849
H  H88  1  0.26200000  0.23960000  0.96510000  1.0 0.1209682849
H  H89  1  0.97760000  0.73800000  0.96510000  1.0 0.1209682849
H  H90  1  0.76040000  0.02240000  0.96510000  1.0 0.1209682849
H  H91  1  0.87490000  0.34300000  0.78750000  1.0 0.1295010989
H  H92  1  0.65700000  0.53190000  0.78750000  1.0 0.1295010989
H  H93  1  0.46810000  0.12510000  0.78750000  1.0 0.1295010989
H  H94  1  0.46810000  0.34300000  0.78750000  1.0 0.1295010989
H  H95  1  0.87490000  0.53190000  0.78750000  1.0 0.1295010989
H  H96  1  0.65700000  0.12510000  0.78750000  1.0 0.1295010989
H  H97  1  0.87050000  0.54410000  0.31340000  1.0 0.1295010989
H  H98  1  0.32640000  0.87050000  0.81340000  1.0 0.1295010989
H  H99  1  0.45590000  0.32640000  0.31340000  1.0 0.1295010989
H  H100  1  0.12950000  0.45590000  0.81340000  1.0 0.1295010989
H  H101  1  0.67360000  0.12950000  0.31340000  1.0 0.1295010989
H  H102  1  0.54410000  0.67360000  0.81340000  1.0 0.1295010989
H  H103  1  0.67360000  0.54410000  0.31340000  1.0 0.1295010989
H  H104  1  0.87050000  0.32640000  0.31340000  1.0 0.1295010989
H  H105  1  0.45590000  0.12950000  0.31340000  1.0 0.1295010989
H  H106  1  0.54410000  0.87050000  0.81340000  1.0 0.1295010989
H  H107  1  0.32640000  0.45590000  0.81340000  1.0 0.1295010989
H  H108  1  0.12950000  0.67360000  0.81340000  1.0 0.1295010989
H  H109  1  0.95320000  0.58520000  0.38060000  1.0 0.1209682849
H  H110  1  0.36800000  0.95320000  0.88060000  1.0 0.1209682849
H  H111  1  0.41480000  0.36800000  0.38060000  1.0 0.1209682849
H  H112  1  0.04680000  0.41480000  0.88060000  1.0 0.1209682849
H  H113  1  0.63200000  0.04680000  0.38060000  1.0 0.1209682849
H  H114  1  0.58520000  0.63200000  0.88060000  1.0 0.1209682849
H  H115  1  0.63200000  0.58520000  0.38060000  1.0 0.1209682849
H  H116  1  0.95320000  0.36800000  0.38060000  1.0 0.1209682849
H  H117  1  0.41480000  0.04680000  0.38060000  1.0 0.1209682849
H  H118  1  0.58520000  0.95320000  0.88060000  1.0 0.1209682849
H  H119  1  0.36800000  0.41480000  0.88060000  1.0 0.1209682849
H  H120  1  0.04680000  0.63200000  0.88060000  1.0 0.1209682849
H  H121  1  0.12750000  0.67260000  0.57650000  1.0 0.1361099928
H  H122  1  0.45490000  0.12750000  0.07650000  1.0 0.1361099928
H  H123  1  0.32740000  0.45490000  0.57650000  1.0 0.1361099928
H  H124  1  0.87250000  0.32740000  0.07650000  1.0 0.1361099928
H  H125  1  0.54510000  0.87250000  0.57650000  1.0 0.1361099928
H  H126  1  0.67260000  0.54510000  0.07650000  1.0 0.1361099928
H  H127  1  0.54510000  0.67260000  0.57650000  1.0 0.1361099928
H  H128  1  0.12750000  0.45490000  0.57650000  1.0 0.1361099928
H  H129  1  0.32740000  0.87250000  0.57650000  1.0 0.1361099928
H  H130  1  0.67260000  0.12750000  0.07650000  1.0 0.1361099928
H  H131  1  0.45490000  0.32740000  0.07650000  1.0 0.1361099928
H  H132  1  0.87250000  0.54510000  0.07650000  1.0 0.1361099928
H  H133  1  0.04020000  0.62860000  0.51110000  1.0 0.1209682849
H  H134  1  0.41160000  0.04020000  0.01110000  1.0 0.1209682849
H  H135  1  0.37140000  0.41160000  0.51110000  1.0 0.1209682849
H  H136  1  0.95980000  0.37140000  0.01110000  1.0 0.1209682849
H  H137  1  0.58840000  0.95980000  0.51110000  1.0 0.1209682849
H  H138  1  0.62860000  0.58840000  0.01110000  1.0 0.1209682849
H  H139  1  0.58840000  0.62860000  0.51110000  1.0 0.1209682849
H  H140  1  0.04020000  0.41160000  0.51110000  1.0 0.1209682849
H  H141  1  0.37140000  0.95980000  0.51110000  1.0 0.1209682849
H  H142  1  0.62860000  0.04020000  0.01110000  1.0 0.1209682849
H  H143  1  0.41160000  0.37140000  0.01110000  1.0 0.1209682849
H  H144  1  0.95980000  0.58840000  0.01110000  1.0 0.1209682849
C  C1  1  0.49280000  0.74640000  0.09780000  1.0 0.6008326526
C  C2  1  0.25360000  0.74640000  0.09780000  1.0 0.6008326526
C  C3  1  0.25360000  0.50720000  0.09780000  1.0 0.6008326526
C  C4  1  0.53180000  0.76590000  0.05080000  1.0 -0.020708269
C  C5  1  0.23410000  0.76590000  0.05080000  1.0 -0.020708269
C  C6  1  0.23410000  0.46820000  0.05080000  1.0 -0.020708269
C  C7  1  0.54980000  0.71000000  0.02930000  1.0 -0.090386781
C  C8  1  0.29000000  0.83980000  0.02930000  1.0 -0.090386781
C  C9  1  0.16020000  0.45020000  0.02930000  1.0 -0.090386781
C  C10  1  0.16020000  0.71000000  0.02930000  1.0 -0.090386781
C  C11  1  0.54980000  0.83980000  0.02930000  1.0 -0.090386781
C  C12  1  0.29000000  0.45020000  0.02930000  1.0 -0.090386781
C  C13  1  0.58630000  0.72840000  0.98550000  1.0 -0.1668753072
C  C14  1  0.27160000  0.85790000  0.98550000  1.0 -0.1668753072
C  C15  1  0.14210000  0.41370000  0.98550000  1.0 -0.1668753072
C  C16  1  0.14210000  0.72840000  0.98550000  1.0 -0.1668753072
C  C17  1  0.58630000  0.85790000  0.98550000  1.0 -0.1668753072
C  C18  1  0.27160000  0.41370000  0.98550000  1.0 -0.1668753072
C  C19  1  0.60400000  0.80200000  0.96420000  1.0 0.1815969133
C  C20  1  0.19800000  0.80200000  0.96420000  1.0 0.1815969133
C  C21  1  0.19800000  0.39600000  0.96420000  1.0 0.1815969133
C  C22  1  0.83980000  0.91990000  0.72820000  1.0 0.608766664
C  C23  1  0.08010000  0.91990000  0.72820000  1.0 0.608766664
C  C24  1  0.08010000  0.16020000  0.72820000  1.0 0.608766664
C  C25  1  0.80700000  0.90350000  0.77680000  1.0 -0.0300869765
C  C26  1  0.09650000  0.90350000  0.77680000  1.0 -0.0300869765
C  C27  1  0.09650000  0.19300000  0.77680000  1.0 -0.0300869765
C  C28  1  0.79210000  0.83120000  0.79900000  1.0 -0.090386781
C  C29  1  0.16880000  0.96090000  0.79900000  1.0 -0.0823270484
C  C30  1  0.03910000  0.20790000  0.79900000  1.0 -0.0823270484
C  C31  1  0.03910000  0.83120000  0.79900000  1.0 -0.0823270484
C  C32  1  0.79210000  0.96090000  0.79900000  1.0 -0.090386781
C  C33  1  0.16880000  0.20790000  0.79900000  1.0 -0.0823270484
C  C34  1  0.76180000  0.81620000  0.84420000  1.0 -0.161092518
C  C35  1  0.18380000  0.94560000  0.84420000  1.0 -0.161092518
C  C36  1  0.05440000  0.23820000  0.84420000  1.0 -0.161092518
C  C37  1  0.05440000  0.81620000  0.84420000  1.0 -0.161092518
C  C38  1  0.76180000  0.94560000  0.84420000  1.0 -0.161092518
C  C39  1  0.18380000  0.23820000  0.84420000  1.0 -0.161092518
C  C40  1  0.74700000  0.87350000  0.86620000  1.0 0.1815969133
C  C41  1  0.12650000  0.87350000  0.86620000  1.0 0.1815969133
C  C42  1  0.12650000  0.25300000  0.86620000  1.0 0.1815969133
C  C43  1  0.83580000  0.91790000  0.59460000  1.0 0.6201840105
C  C44  1  0.08210000  0.91790000  0.59460000  1.0 0.6201840105
C  C45  1  0.08210000  0.16420000  0.59460000  1.0 0.6201840105
C  C46  1  0.79980000  0.89990000  0.54680000  1.0 -0.0300869765
C  C47  1  0.10010000  0.89990000  0.54680000  1.0 -0.0300869765
C  C48  1  0.10010000  0.20020000  0.54680000  1.0 -0.0300869765
C  C49  1  0.73340000  0.86670000  0.45910000  1.0 0.1731446126
C  C50  1  0.13330000  0.86670000  0.45910000  1.0 0.1731446126
C  C51  1  0.13330000  0.26660000  0.45910000  1.0 0.1731446126
C  C52  1  0.49280000  0.74640000  0.23280000  1.0 0.6201840105
C  C53  1  0.25360000  0.74640000  0.23280000  1.0 0.6201840105
C  C54  1  0.25360000  0.50720000  0.23280000  1.0 0.6201840105
C  C55  1  0.52720000  0.76360000  0.28100000  1.0 -0.0300869765
C  C56  1  0.23640000  0.76360000  0.28100000  1.0 -0.0300869765
C  C57  1  0.23640000  0.47280000  0.28100000  1.0 -0.0300869765
C  C58  1  0.59060000  0.79530000  0.36950000  1.0 0.1731446126
C  C59  1  0.20470000  0.79530000  0.36950000  1.0 0.1815969133
C  C60  1  0.20470000  0.40940000  0.36950000  1.0 0.1731446126
C  C61  1  0.57510000  0.85240000  0.34790000  1.0 -0.161092518
C  C62  1  0.14760000  0.72270000  0.34790000  1.0 -0.161092518
C  C63  1  0.27730000  0.42490000  0.34790000  1.0 -0.161092518
C  C64  1  0.27730000  0.85240000  0.34790000  1.0 -0.161092518
C  C65  1  0.57510000  0.72270000  0.34790000  1.0 -0.161092518
C  C66  1  0.14760000  0.42490000  0.34790000  1.0 -0.161092518
C  C67  1  0.78340000  0.95680000  0.52520000  1.0 -0.0977316089
C  C68  1  0.04320000  0.82660000  0.52520000  1.0 -0.0977316089
C  C69  1  0.17340000  0.21660000  0.52520000  1.0 -0.0977316089
C  C70  1  0.17340000  0.95680000  0.52520000  1.0 -0.0977316089
C  C71  1  0.78340000  0.82660000  0.52520000  1.0 -0.0977316089
C  C72  1  0.04320000  0.21660000  0.52520000  1.0 -0.0977316089
C  C73  1  0.74970000  0.93970000  0.48060000  1.0 -0.161092518
C  C74  1  0.06030000  0.81000000  0.48060000  1.0 -0.161092518
C  C75  1  0.19000000  0.25030000  0.48060000  1.0 -0.161092518
C  C76  1  0.19000000  0.93970000  0.48060000  1.0 -0.161092518
C  C77  1  0.74970000  0.81000000  0.48060000  1.0 -0.161092518
C  C78  1  0.06030000  0.25030000  0.48060000  1.0 -0.161092518
C  C79  1  0.54290000  0.83650000  0.30290000  1.0 -0.090386781
C  C80  1  0.16350000  0.70640000  0.30290000  1.0 -0.090386781
C  C81  1  0.29360000  0.45710000  0.30290000  1.0 -0.090386781
C  C82  1  0.29360000  0.83650000  0.30290000  1.0 -0.090386781
C  C83  1  0.54290000  0.70640000  0.30290000  1.0 -0.090386781
C  C84  1  0.16350000  0.45710000  0.30290000  1.0 -0.090386781
C  C85  1  0.74640000  0.25360000  0.59780000  1.0 0.6008326526
C  C86  1  0.74640000  0.49280000  0.59780000  1.0 0.6008326526
C  C87  1  0.50720000  0.25360000  0.59780000  1.0 0.6008326526
C  C88  1  0.76590000  0.23410000  0.55080000  1.0 -0.020708269
C  C89  1  0.76590000  0.53180000  0.55080000  1.0 -0.020708269
C  C90  1  0.46820000  0.23410000  0.55080000  1.0 -0.020708269
C  C91  1  0.71000000  0.16020000  0.52930000  1.0 -0.090386781
C  C92  1  0.83980000  0.54980000  0.52930000  1.0 -0.090386781
C  C93  1  0.45020000  0.29000000  0.52930000  1.0 -0.090386781
C  C94  1  0.45020000  0.16020000  0.52930000  1.0 -0.090386781
C  C95  1  0.71000000  0.54980000  0.52930000  1.0 -0.090386781
C  C96  1  0.83980000  0.29000000  0.52930000  1.0 -0.090386781
C  C97  1  0.72840000  0.14210000  0.48550000  1.0 -0.1668753072
C  C98  1  0.85790000  0.58630000  0.48550000  1.0 -0.1668753072
C  C99  1  0.41370000  0.27160000  0.48550000  1.0 -0.1668753072
C  C100  1  0.41370000  0.14210000  0.48550000  1.0 -0.1668753072
C  C101  1  0.72840000  0.58630000  0.48550000  1.0 -0.1668753072
C  C102  1  0.85790000  0.27160000  0.48550000  1.0 -0.1668753072
C  C103  1  0.80200000  0.19800000  0.46420000  1.0 0.1815969133
C  C104  1  0.80200000  0.60400000  0.46420000  1.0 0.1815969133
C  C105  1  0.39600000  0.19800000  0.46420000  1.0 0.1815969133
C  C106  1  0.91990000  0.08010000  0.22820000  1.0 0.608766664
C  C107  1  0.91990000  0.83980000  0.22820000  1.0 0.608766664
C  C108  1  0.16020000  0.08010000  0.22820000  1.0 0.608766664
C  C109  1  0.90350000  0.09650000  0.27680000  1.0 -0.0300869765
C  C110  1  0.90350000  0.80700000  0.27680000  1.0 -0.0300869765
C  C111  1  0.19300000  0.09650000  0.27680000  1.0 -0.0300869765
C  C112  1  0.83120000  0.03910000  0.29900000  1.0 -0.090386781
C  C113  1  0.96090000  0.79210000  0.29900000  1.0 -0.0823270484
C  C114  1  0.20790000  0.16880000  0.29900000  1.0 -0.090386781
C  C115  1  0.20790000  0.03910000  0.29900000  1.0 -0.0823270484
C  C116  1  0.83120000  0.79210000  0.29900000  1.0 -0.0823270484
C  C117  1  0.96090000  0.16880000  0.29900000  1.0 -0.090386781
C  C118  1  0.81620000  0.05440000  0.34420000  1.0 -0.161092518
C  C119  1  0.94560000  0.76180000  0.34420000  1.0 -0.161092518
C  C120  1  0.23820000  0.18380000  0.34420000  1.0 -0.161092518
C  C121  1  0.23820000  0.05440000  0.34420000  1.0 -0.161092518
C  C122  1  0.81620000  0.76180000  0.34420000  1.0 -0.161092518
C  C123  1  0.94560000  0.18380000  0.34420000  1.0 -0.161092518
C  C124  1  0.87350000  0.12650000  0.36620000  1.0 0.1815969133
C  C125  1  0.87350000  0.74700000  0.36620000  1.0 0.1815969133
C  C126  1  0.25300000  0.12650000  0.36620000  1.0 0.1815969133
C  C127  1  0.91790000  0.08210000  0.09460000  1.0 0.6201840105
C  C128  1  0.91790000  0.83580000  0.09460000  1.0 0.6201840105
C  C129  1  0.16420000  0.08210000  0.09460000  1.0 0.6201840105
C  C130  1  0.89990000  0.10010000  0.04680000  1.0 -0.0300869765
C  C131  1  0.89990000  0.79980000  0.04680000  1.0 -0.0300869765
C  C132  1  0.20020000  0.10010000  0.04680000  1.0 -0.0300869765
C  C133  1  0.86670000  0.13330000  0.95910000  1.0 0.1731446126
C  C134  1  0.86670000  0.73340000  0.95910000  1.0 0.1731446126
C  C135  1  0.26660000  0.13330000  0.95910000  1.0 0.1731446126
C  C136  1  0.74640000  0.25360000  0.73280000  1.0 0.6201840105
C  C137  1  0.74640000  0.49280000  0.73280000  1.0 0.6201840105
C  C138  1  0.50720000  0.25360000  0.73280000  1.0 0.6201840105
C  C139  1  0.76360000  0.23640000  0.78100000  1.0 -0.0300869765
C  C140  1  0.76360000  0.52720000  0.78100000  1.0 -0.0300869765
C  C141  1  0.47280000  0.23640000  0.78100000  1.0 -0.0300869765
C  C142  1  0.79530000  0.20470000  0.86950000  1.0 0.1731446126
C  C143  1  0.79530000  0.59060000  0.86950000  1.0 0.1731446126
C  C144  1  0.40940000  0.20470000  0.86950000  1.0 0.1731446126
C  C145  1  0.85240000  0.27730000  0.84790000  1.0 -0.161092518
C  C146  1  0.72270000  0.57510000  0.84790000  1.0 -0.161092518
C  C147  1  0.42490000  0.14760000  0.84790000  1.0 -0.161092518
C  C148  1  0.42490000  0.27730000  0.84790000  1.0 -0.161092518
C  C149  1  0.85240000  0.57510000  0.84790000  1.0 -0.161092518
C  C150  1  0.72270000  0.14760000  0.84790000  1.0 -0.161092518
C  C151  1  0.95680000  0.17340000  0.02520000  1.0 -0.0977316089
C  C152  1  0.82660000  0.78340000  0.02520000  1.0 -0.0977316089
C  C153  1  0.21660000  0.04320000  0.02520000  1.0 -0.0977316089
C  C154  1  0.21660000  0.17340000  0.02520000  1.0 -0.0977316089
C  C155  1  0.95680000  0.78340000  0.02520000  1.0 -0.0977316089
C  C156  1  0.82660000  0.04320000  0.02520000  1.0 -0.0977316089
C  C157  1  0.93970000  0.19000000  0.98060000  1.0 -0.161092518
C  C158  1  0.81000000  0.74970000  0.98060000  1.0 -0.161092518
C  C159  1  0.25030000  0.06030000  0.98060000  1.0 -0.161092518
C  C160  1  0.25030000  0.19000000  0.98060000  1.0 -0.161092518
C  C161  1  0.93970000  0.74970000  0.98060000  1.0 -0.161092518
C  C162  1  0.81000000  0.06030000  0.98060000  1.0 -0.161092518
C  C163  1  0.83650000  0.29360000  0.80290000  1.0 -0.090386781
C  C164  1  0.70640000  0.54290000  0.80290000  1.0 -0.090386781
C  C165  1  0.45710000  0.16350000  0.80290000  1.0 -0.090386781
C  C166  1  0.45710000  0.29360000  0.80290000  1.0 -0.090386781
C  C167  1  0.83650000  0.54290000  0.80290000  1.0 -0.090386781
C  C168  1  0.70640000  0.16350000  0.80290000  1.0 -0.090386781
C  C169  1  0.81080000  0.40540000  0.26490000  1.0 0.6008326526
C  C170  1  0.40540000  0.81080000  0.76490000  1.0 0.6008326526
C  C171  1  0.59460000  0.40540000  0.26490000  1.0 0.6008326526
C  C172  1  0.18920000  0.59460000  0.76490000  1.0 0.6008326526
C  C173  1  0.59460000  0.18920000  0.26490000  1.0 0.6008326526
C  C174  1  0.40540000  0.59460000  0.76490000  1.0 0.6008326526
C  C175  1  0.86340000  0.43170000  0.30760000  1.0 -0.020708269
C  C176  1  0.43170000  0.86340000  0.80760000  1.0 -0.020708269
C  C177  1  0.56830000  0.43170000  0.30760000  1.0 -0.020708269
C  C178  1  0.13660000  0.56830000  0.80760000  1.0 -0.020708269
C  C179  1  0.56830000  0.13660000  0.30760000  1.0 -0.020708269
C  C180  1  0.43170000  0.56830000  0.80760000  1.0 -0.020708269
C  C181  1  0.88730000  0.50860000  0.32700000  1.0 -0.0823270484
C  C182  1  0.37870000  0.88730000  0.82700000  1.0 -0.090386781
C  C183  1  0.49140000  0.37870000  0.32700000  1.0 -0.0823270484
C  C184  1  0.11270000  0.49140000  0.82700000  1.0 -0.090386781
C  C185  1  0.62130000  0.11270000  0.32700000  1.0 -0.0823270484
C  C186  1  0.50860000  0.62130000  0.82700000  1.0 -0.0823270484
C  C187  1  0.62130000  0.50860000  0.32700000  1.0 -0.0823270484
C  C188  1  0.88730000  0.37870000  0.32700000  1.0 -0.0823270484
C  C189  1  0.49140000  0.11270000  0.32700000  1.0 -0.0823270484
C  C190  1  0.50860000  0.88730000  0.82700000  1.0 -0.0823270484
C  C191  1  0.37870000  0.49140000  0.82700000  1.0 -0.0823270484
C  C192  1  0.11270000  0.62130000  0.82700000  1.0 -0.0823270484
C  C193  1  0.93630000  0.53300000  0.36690000  1.0 -0.1668753072
C  C194  1  0.40330000  0.93630000  0.86690000  1.0 -0.161092518
C  C195  1  0.46700000  0.40330000  0.36690000  1.0 -0.161092518
C  C196  1  0.06370000  0.46700000  0.86690000  1.0 -0.161092518
C  C197  1  0.59670000  0.06370000  0.36690000  1.0 -0.161092518
C  C198  1  0.53300000  0.59670000  0.86690000  1.0 -0.1668753072
C  C199  1  0.59670000  0.53300000  0.36690000  1.0 -0.161092518
C  C200  1  0.93630000  0.40330000  0.36690000  1.0 -0.161092518
C  C201  1  0.46700000  0.06370000  0.36690000  1.0 -0.161092518
C  C202  1  0.53300000  0.93630000  0.86690000  1.0 -0.161092518
C  C203  1  0.40330000  0.46700000  0.86690000  1.0 -0.1668753072
C  C204  1  0.06370000  0.59670000  0.86690000  1.0 -0.1668753072
C  C205  1  0.96000000  0.48000000  0.38610000  1.0 0.1815969133
C  C206  1  0.48000000  0.96000000  0.88610000  1.0 0.1815969133
C  C207  1  0.52000000  0.48000000  0.38610000  1.0 0.1815969133
C  C208  1  0.04000000  0.52000000  0.88610000  1.0 0.1815969133
C  C209  1  0.52000000  0.04000000  0.38610000  1.0 0.1815969133
C  C210  1  0.48000000  0.52000000  0.88610000  1.0 0.1815969133
C  C211  1  0.19050000  0.59525000  0.62370000  1.0 0.608766664
C  C212  1  0.59525000  0.19050000  0.12370000  1.0 0.608766664
C  C213  1  0.40475000  0.59525000  0.62370000  1.0 0.6008326526
C  C214  1  0.80950000  0.40475000  0.12370000  1.0 0.608766664
C  C215  1  0.40475000  0.80950000  0.62370000  1.0 0.608766664
C  C216  1  0.59525000  0.40475000  0.12370000  1.0 0.608766664
C  C217  1  0.13500000  0.56750000  0.58210000  1.0 -0.0300869765
C  C218  1  0.56750000  0.13500000  0.08210000  1.0 -0.0300869765
C  C219  1  0.43250000  0.56750000  0.58210000  1.0 -0.0300869765
C  C220  1  0.86500000  0.43250000  0.08210000  1.0 -0.0300869765
C  C221  1  0.43250000  0.86500000  0.58210000  1.0 -0.0300869765
C  C222  1  0.56750000  0.43250000  0.08210000  1.0 -0.0300869765
C  C223  1  0.10970000  0.61980000  0.56320000  1.0 -0.0823270484
C  C224  1  0.48990000  0.10970000  0.06320000  1.0 -0.0823270484
C  C225  1  0.38020000  0.48990000  0.56320000  1.0 -0.0823270484
C  C226  1  0.89030000  0.38020000  0.06320000  1.0 -0.0823270484
C  C227  1  0.51010000  0.89030000  0.56320000  1.0 -0.0823270484
C  C228  1  0.61980000  0.51010000  0.06320000  1.0 -0.0823270484
C  C229  1  0.51010000  0.61980000  0.56320000  1.0 -0.0823270484
C  C230  1  0.10970000  0.48990000  0.56320000  1.0 -0.0823270484
C  C231  1  0.38020000  0.89030000  0.56320000  1.0 -0.0823270484
C  C232  1  0.61980000  0.10970000  0.06320000  1.0 -0.0823270484
C  C233  1  0.48990000  0.38020000  0.06320000  1.0 -0.0823270484
C  C234  1  0.89030000  0.51010000  0.06320000  1.0 -0.0823270484
C  C235  1  0.05800000  0.59380000  0.52450000  1.0 -0.161092518
C  C236  1  0.46420000  0.05800000  0.02450000  1.0 -0.161092518
C  C237  1  0.40620000  0.46420000  0.52450000  1.0 -0.161092518
C  C238  1  0.94200000  0.40620000  0.02450000  1.0 -0.161092518
C  C239  1  0.53580000  0.94200000  0.52450000  1.0 -0.161092518
C  C240  1  0.59380000  0.53580000  0.02450000  1.0 -0.161092518
C  C241  1  0.53580000  0.59380000  0.52450000  1.0 -0.161092518
C  C242  1  0.05800000  0.46420000  0.52450000  1.0 -0.161092518
C  C243  1  0.40620000  0.94200000  0.52450000  1.0 -0.161092518
C  C244  1  0.59380000  0.05800000  0.02450000  1.0 -0.161092518
C  C245  1  0.46420000  0.40620000  0.02450000  1.0 -0.161092518
C  C246  1  0.94200000  0.53580000  0.02450000  1.0 -0.161092518
C  C247  1  0.03300000  0.51650000  0.50570000  1.0 0.1815969133
C  C248  1  0.51650000  0.03300000  0.00570000  1.0 0.1815969133
C  C249  1  0.48350000  0.51650000  0.50570000  1.0 0.1815969133
C  C250  1  0.96700000  0.48350000  0.00570000  1.0 0.1815969133
C  C251  1  0.48350000  0.96700000  0.50570000  1.0 0.1815969133
C  C252  1  0.51650000  0.48350000  0.00570000  1.0 0.1815969133
N  N1  1  0.64060000  0.82030000  0.92030000  1.0 -0.1222928921
N  N2  1  0.17970000  0.82030000  0.92030000  1.0 -0.1222928921
N  N3  1  0.17970000  0.35940000  0.92030000  1.0 -0.1222928921
N  N4  1  0.71660000  0.85830000  0.91160000  1.0 -0.1257441479
N  N5  1  0.14170000  0.85830000  0.91160000  1.0 -0.1222928921
N  N6  1  0.14170000  0.28340000  0.91160000  1.0 -0.1257441479
N  N7  1  0.70000000  0.85000000  0.41490000  1.0 -0.1379596393
N  N8  1  0.15000000  0.85000000  0.41490000  1.0 -0.1379596393
N  N9  1  0.15000000  0.30000000  0.41490000  1.0 -0.1379596393
N  N10  1  0.62240000  0.81120000  0.41410000  1.0 -0.1379596393
N  N11  1  0.18880000  0.81120000  0.41410000  1.0 -0.1379596393
N  N12  1  0.18880000  0.37760000  0.41410000  1.0 -0.1379596393
N  N13  1  0.82030000  0.17970000  0.42030000  1.0 -0.1222928921
N  N14  1  0.82030000  0.64060000  0.42030000  1.0 -0.1222928921
N  N15  1  0.35940000  0.17970000  0.42030000  1.0 -0.1222928921
N  N16  1  0.85830000  0.14170000  0.41160000  1.0 -0.1222928921
N  N17  1  0.85830000  0.71660000  0.41160000  1.0 -0.1222928921
N  N18  1  0.28340000  0.14170000  0.41160000  1.0 -0.1257441479
N  N19  1  0.85000000  0.15000000  0.91490000  1.0 -0.1379596393
N  N20  1  0.85000000  0.70000000  0.91490000  1.0 -0.1379596393
N  N21  1  0.30000000  0.15000000  0.91490000  1.0 -0.1379596393
N  N22  1  0.81120000  0.18880000  0.91410000  1.0 -0.1379596393
N  N23  1  0.81120000  0.62240000  0.91410000  1.0 -0.1379596393
N  N24  1  0.37760000  0.18880000  0.91410000  1.0 -0.1379596393
N  N25  1  0.00940000  0.50470000  0.42630000  1.0 -0.1222928921
N  N26  1  0.50470000  0.00940000  0.92630000  1.0 -0.1222928921
N  N27  1  0.49530000  0.50470000  0.42630000  1.0 -0.1222928921
N  N28  1  0.99060000  0.49530000  0.92630000  1.0 -0.1222928921
N  N29  1  0.49530000  0.99060000  0.42630000  1.0 -0.1222928921
N  N30  1  0.50470000  0.49530000  0.92630000  1.0 -0.1222928921
N  N31  1  0.98090000  0.49045000  0.46670000  1.0 -0.1222928921
N  N32  1  0.49045000  0.98090000  0.96670000  1.0 -0.1222928921
N  N33  1  0.50955000  0.49045000  0.46670000  1.0 -0.1222928921
N  N34  1  0.01910000  0.50955000  0.96670000  1.0 -0.1222928921
N  N35  1  0.50955000  0.01910000  0.46670000  1.0 -0.1222928921
N  N36  1  0.49045000  0.50955000  0.96670000  1.0 -0.1222928921
O  O1  1  0.47170000  0.79500000  0.11380000  1.0 -0.5416401265
O  O2  1  0.20500000  0.67670000  0.11380000  1.0 -0.5416401265
O  O3  1  0.32330000  0.52830000  0.11380000  1.0 -0.5416401265
O  O4  1  0.32330000  0.79500000  0.11380000  1.0 -0.5416401265
O  O5  1  0.47170000  0.67670000  0.11380000  1.0 -0.5416401265
O  O6  1  0.20500000  0.52830000  0.11380000  1.0 -0.5416401265
O  O7  1  0.86410000  0.99330000  0.71220000  1.0 -0.5636172928
O  O8  1  0.00670000  0.87080000  0.71220000  1.0 -0.5636172928
O  O9  1  0.12920000  0.13590000  0.71220000  1.0 -0.5636172928
O  O10  1  0.12920000  0.99330000  0.71220000  1.0 -0.5636172928
O  O11  1  0.86410000  0.87080000  0.71220000  1.0 -0.5636172928
O  O12  1  0.00670000  0.13590000  0.71220000  1.0 -0.5636172928
O  O13  1  0.86140000  0.99040000  0.61160000  1.0 -0.5684100527
O  O14  1  0.00960000  0.87100000  0.61160000  1.0 -0.5684100527
O  O15  1  0.12900000  0.13860000  0.61160000  1.0 -0.5684100527
O  O16  1  0.12900000  0.99040000  0.61160000  1.0 -0.5684100527
O  O17  1  0.86140000  0.87100000  0.61160000  1.0 -0.5684100527
O  O18  1  0.00960000  0.13860000  0.61160000  1.0 -0.5684100527
O  O19  1  0.46970000  0.79390000  0.21350000  1.0 -0.5684100527
O  O20  1  0.20610000  0.67580000  0.21350000  1.0 -0.5684100527
O  O21  1  0.32420000  0.53030000  0.21350000  1.0 -0.5684100527
O  O22  1  0.32420000  0.79390000  0.21350000  1.0 -0.5684100527
O  O23  1  0.46970000  0.67580000  0.21350000  1.0 -0.5684100527
O  O24  1  0.20610000  0.53030000  0.21350000  1.0 -0.5684100527
O  O25  1  0.33333333  0.66666667  0.16120000  1.0 -0.8820239145
O  O26  1  0.00000000  0.00000000  0.66180000  1.0 -0.9082877475
O  O27  1  0.79500000  0.32330000  0.61380000  1.0 -0.5416401265
O  O28  1  0.67670000  0.47170000  0.61380000  1.0 -0.5416401265
O  O29  1  0.52830000  0.20500000  0.61380000  1.0 -0.5416401265
O  O30  1  0.52830000  0.32330000  0.61380000  1.0 -0.5416401265
O  O31  1  0.79500000  0.47170000  0.61380000  1.0 -0.5416401265
O  O32  1  0.67670000  0.20500000  0.61380000  1.0 -0.5416401265
O  O33  1  0.99330000  0.12920000  0.21220000  1.0 -0.5636172928
O  O34  1  0.87080000  0.86410000  0.21220000  1.0 -0.5636172928
O  O35  1  0.13590000  0.00670000  0.21220000  1.0 -0.5636172928
O  O36  1  0.13590000  0.12920000  0.21220000  1.0 -0.5636172928
O  O37  1  0.99330000  0.86410000  0.21220000  1.0 -0.5636172928
O  O38  1  0.87080000  0.00670000  0.21220000  1.0 -0.5636172928
O  O39  1  0.99040000  0.12900000  0.11160000  1.0 -0.5684100527
O  O40  1  0.87100000  0.86140000  0.11160000  1.0 -0.5684100527
O  O41  1  0.13860000  0.00960000  0.11160000  1.0 -0.5684100527
O  O42  1  0.13860000  0.12900000  0.11160000  1.0 -0.5684100527
O  O43  1  0.99040000  0.86140000  0.11160000  1.0 -0.5684100527
O  O44  1  0.87100000  0.00960000  0.11160000  1.0 -0.5684100527
O  O45  1  0.79390000  0.32420000  0.71350000  1.0 -0.5684100527
O  O46  1  0.67580000  0.46970000  0.71350000  1.0 -0.5684100527
O  O47  1  0.53030000  0.20610000  0.71350000  1.0 -0.5684100527
O  O48  1  0.53030000  0.32420000  0.71350000  1.0 -0.5684100527
O  O49  1  0.79390000  0.46970000  0.71350000  1.0 -0.5684100527
O  O50  1  0.67580000  0.20610000  0.71350000  1.0 -0.5684100527
O  O51  1  0.66666667  0.33333333  0.66120000  1.0 -0.8820239145
O  O52  1  0.00000000  0.00000000  0.16180000  1.0 -0.9082877475
O  O53  1  0.80330000  0.46120000  0.24600000  1.0 -0.5416401265
O  O54  1  0.34210000  0.80330000  0.74600000  1.0 -0.5416401265
O  O55  1  0.53880000  0.34210000  0.24600000  1.0 -0.5416401265
O  O56  1  0.19670000  0.53880000  0.74600000  1.0 -0.5416401265
O  O57  1  0.65790000  0.19670000  0.24600000  1.0 -0.5416401265
O  O58  1  0.46120000  0.65790000  0.74600000  1.0 -0.5416401265
O  O59  1  0.65790000  0.46120000  0.24600000  1.0 -0.5416401265
O  O60  1  0.80330000  0.34210000  0.24600000  1.0 -0.5416401265
O  O61  1  0.53880000  0.19670000  0.24600000  1.0 -0.5416401265
O  O62  1  0.46120000  0.80330000  0.74600000  1.0 -0.5416401265
O  O63  1  0.34210000  0.53880000  0.74600000  1.0 -0.5416401265
O  O64  1  0.19670000  0.65790000  0.74600000  1.0 -0.5416401265
O  O65  1  0.19350000  0.65680000  0.64360000  1.0 -0.5416401265
O  O66  1  0.53670000  0.19350000  0.14360000  1.0 -0.5416401265
O  O67  1  0.34320000  0.53670000  0.64360000  1.0 -0.5416401265
O  O68  1  0.80650000  0.34320000  0.14360000  1.0 -0.5416401265
O  O69  1  0.46330000  0.80650000  0.64360000  1.0 -0.5416401265
O  O70  1  0.65680000  0.46330000  0.14360000  1.0 -0.5416401265
O  O71  1  0.46330000  0.65680000  0.64360000  1.0 -0.5416401265
O  O72  1  0.19350000  0.53670000  0.64360000  1.0 -0.5416401265
O  O73  1  0.34320000  0.80650000  0.64360000  1.0 -0.5416401265
O  O74  1  0.65680000  0.19350000  0.14360000  1.0 -0.5416401265
O  O75  1  0.53670000  0.34320000  0.14360000  1.0 -0.5416401265
O  O76  1  0.80650000  0.46330000  0.14360000  1.0 -0.5416401265
O  O77  1  0.66666667  0.33333333  0.19270000  1.0 -0.9390029448
O  O78  1  0.33333333  0.66666667  0.69270000  1.0 -0.9390029448
