# DDEC6 charges by PACMAN v1.1 (https://github.com/mtap-research/PACMAN-charge/)
data_TOWTEH_FSR_pacman
_symmetry_space_group_name_H-M   'P 1'
_cell_length_a   14.46980000
_cell_length_b   17.17480000
_cell_length_c   26.83700000
_cell_angle_alpha   90.00000000
_cell_angle_beta   90.00000000
_cell_angle_gamma   90.00000000
_symmetry_Int_Tables_number   1
_chemical_formula_structural   NaH44C34(N3O2)2
_chemical_formula_sum   'Na8 H352 C272 N48 O32'
_cell_volume   6669.42177295
_cell_formula_units_Z   8
loop_
 _symmetry_equiv_pos_site_id
 _symmetry_equiv_pos_as_xyz
  1  'x, y, z'
loop_
 _atom_site_type_symbol
 _atom_site_label
 _atom_site_symmetry_multiplicity
 _atom_site_fract_x
 _atom_site_fract_y
 _atom_site_fract_z
 _atom_site_occupancy
 _atom_site_charge
Na  Na1  1  0.31232000  0.02038000  0.13249000  1.0 0.7487140598
Na  Na2  1  0.68768000  0.52038000  0.36751000  1.0 0.7487140598
Na  Na3  1  0.81232000  0.52038000  0.86751000  1.0 0.7487140598
Na  Na4  1  0.18768000  0.02038000  0.63249000  1.0 0.7487140598
Na  Na5  1  0.18768000  0.47962000  0.13249000  1.0 0.7487140598
Na  Na6  1  0.81232000  0.97962000  0.36751000  1.0 0.7487140598
Na  Na7  1  0.68768000  0.97962000  0.86751000  1.0 0.7487140598
Na  Na8  1  0.31232000  0.47962000  0.63249000  1.0 0.7487140598
H  H1  1  0.46697000  0.96438000  0.22695000  1.0 0.0796034327
H  H2  1  0.49821000  0.88270000  0.20448000  1.0 0.061261984
H  H3  1  0.48135000  0.85103000  0.28339000  1.0 0.0703728949
H  H4  1  0.39728000  0.90994000  0.29114000  1.0 0.0796034327
H  H5  1  0.39148000  0.76130000  0.25436000  1.0 0.0703728949
H  H6  1  0.30816000  0.81163000  0.27630000  1.0 0.0905146716
H  H7  1  0.35983000  0.79558000  0.18088000  1.0 0.041062958
H  H8  1  0.26732000  0.83265000  0.20195000  1.0 0.0905146716
H  H9  1  0.48351000  0.94231000  0.04054000  1.0 0.0905146716
H  H10  1  0.40184000  0.99511000  0.01995000  1.0 0.0905146716
H  H11  1  0.45480000  0.87237000  0.97719000  1.0 0.0970037803
H  H12  1  0.35288000  0.90645000  0.97128000  1.0 0.0970037803
H  H13  1  0.40069000  0.77425000  0.01781000  1.0 0.0970037803
H  H14  1  0.29876000  0.80793000  0.01150000  1.0 0.0970037803
H  H15  1  0.30537000  0.82553000  0.09147000  1.0 0.0970037803
H  H16  1  0.41532000  0.82231000  0.09211000  1.0 0.0970037803
H  H17  1  0.55572000  0.99807000  0.09774000  1.0 0.0905146716
H  H18  1  0.54257000  0.95659000  0.15014000  1.0 0.0796034327
H  H19  1  0.67839000  0.04542000  0.12567000  1.0 0.0970037803
H  H20  1  0.65511000  0.01653000  0.18064000  1.0 0.0970037803
H  H21  1  0.63074000  0.16006000  0.14203000  1.0 0.0970037803
H  H22  1  0.62362000  0.13443000  0.19887000  1.0 0.0905146716
H  H23  1  0.47864000  0.13502000  0.19509000  1.0 0.0905146716
H  H24  1  0.48593000  0.16802000  0.13989000  1.0 0.0796034327
H  H25  1  0.31013000  0.05021000  0.52204000  1.0 0.0970037803
H  H26  1  0.27691000  0.09848000  0.44426000  1.0 0.1288431935
H  H27  1  0.09987000  0.24683000  0.51176000  1.0 0.1164709356
H  H28  1  0.14250000  0.19348000  0.58683000  1.0 0.0905146716
H  H29  1  0.29160000  0.09763000  0.32275000  1.0 0.1288431935
H  H30  1  0.34640000  0.04523000  0.25084000  1.0 0.0970037803
H  H31  1  0.17624000  0.16917000  0.16935000  1.0 0.0905146716
H  H32  1  0.11807000  0.22897000  0.23964000  1.0 0.1164709356
H  H33  1  0.99542000  0.37392000  0.29796000  1.0 0.1288431935
H  H34  1  0.87739000  0.46277000  0.29747000  1.0 0.1075930942
H  H35  1  0.83081000  0.43115000  0.43859000  1.0 0.0905146716
H  H36  1  0.95340000  0.34585000  0.44394000  1.0 0.1164709356
H  H37  1  0.48442000  0.90374000  0.21948000  1.0 0.061261984
H  H38  1  0.45827000  0.83951000  0.17947000  1.0 0.0796034327
H  H39  1  0.41212000  0.75991000  0.23515000  1.0 0.0525375065
H  H40  1  0.46707000  0.81417000  0.27330000  1.0 0.061261984
H  H41  1  0.29406000  0.79626000  0.27995000  1.0 0.0703728949
H  H42  1  0.34244000  0.87582000  0.29625000  1.0 0.0525375065
H  H43  1  0.25181000  0.84158000  0.20886000  1.0 0.0703728949
H  H44  1  0.25021000  0.92036000  0.23975000  1.0 0.061261984
H  H45  1  0.53303000  0.46438000  0.27305000  1.0 0.0796034327
H  H46  1  0.50179000  0.38270000  0.29552000  1.0 0.061261984
H  H47  1  0.51865000  0.35103000  0.21661000  1.0 0.0703728949
H  H48  1  0.60272000  0.40994000  0.20886000  1.0 0.0796034327
H  H49  1  0.60852000  0.26130000  0.24564000  1.0 0.0703728949
H  H50  1  0.69184000  0.31163000  0.22370000  1.0 0.0905146716
H  H51  1  0.64017000  0.29558000  0.31912000  1.0 0.041062958
H  H52  1  0.73268000  0.33265000  0.29805000  1.0 0.0905146716
H  H53  1  0.51649000  0.44231000  0.45946000  1.0 0.0905146716
H  H54  1  0.59816000  0.49511000  0.48005000  1.0 0.0905146716
H  H55  1  0.54520000  0.37237000  0.52281000  1.0 0.0970037803
H  H56  1  0.64712000  0.40645000  0.52872000  1.0 0.0970037803
H  H57  1  0.59931000  0.27425000  0.48219000  1.0 0.0970037803
H  H58  1  0.70124000  0.30793000  0.48850000  1.0 0.0970037803
H  H59  1  0.69463000  0.32553000  0.40853000  1.0 0.0970037803
H  H60  1  0.58468000  0.32231000  0.40789000  1.0 0.0970037803
H  H61  1  0.44428000  0.49807000  0.40226000  1.0 0.0905146716
H  H62  1  0.45743000  0.45659000  0.34986000  1.0 0.0796034327
H  H63  1  0.32161000  0.54542000  0.37433000  1.0 0.0970037803
H  H64  1  0.34489000  0.51653000  0.31936000  1.0 0.0970037803
H  H65  1  0.36926000  0.66006000  0.35797000  1.0 0.0970037803
H  H66  1  0.37638000  0.63443000  0.30113000  1.0 0.0905146716
H  H67  1  0.52136000  0.63502000  0.30491000  1.0 0.0905146716
H  H68  1  0.51407000  0.66802000  0.36011000  1.0 0.0796034327
H  H69  1  0.68987000  0.55021000  0.97796000  1.0 0.0970037803
H  H70  1  0.72309000  0.59848000  0.05574000  1.0 0.1288431935
H  H71  1  0.90013000  0.74683000  0.98824000  1.0 0.1164709356
H  H72  1  0.85750000  0.69348000  0.91317000  1.0 0.0905146716
H  H73  1  0.70840000  0.59763000  0.17725000  1.0 0.1288431935
H  H74  1  0.65360000  0.54523000  0.24916000  1.0 0.0970037803
H  H75  1  0.82376000  0.66917000  0.33065000  1.0 0.0905146716
H  H76  1  0.88193000  0.72897000  0.26036000  1.0 0.1164709356
H  H77  1  0.00458000  0.87392000  0.20204000  1.0 0.1288431935
H  H78  1  0.12261000  0.96277000  0.20253000  1.0 0.1075930942
H  H79  1  0.16919000  0.93115000  0.06141000  1.0 0.0905146716
H  H80  1  0.04660000  0.84585000  0.05606000  1.0 0.1164709356
H  H81  1  0.51558000  0.40374000  0.28052000  1.0 0.061261984
H  H82  1  0.54173000  0.33951000  0.32053000  1.0 0.0796034327
H  H83  1  0.58788000  0.25991000  0.26485000  1.0 0.0525375065
H  H84  1  0.53293000  0.31417000  0.22670000  1.0 0.061261984
H  H85  1  0.70594000  0.29626000  0.22005000  1.0 0.0703728949
H  H86  1  0.65756000  0.37582000  0.20375000  1.0 0.0525375065
H  H87  1  0.74819000  0.34158000  0.29114000  1.0 0.0703728949
H  H88  1  0.74979000  0.42036000  0.26025000  1.0 0.061261984
H  H89  1  0.96697000  0.46438000  0.77305000  1.0 0.0796034327
H  H90  1  0.99821000  0.38270000  0.79552000  1.0 0.061261984
H  H91  1  0.98135000  0.35103000  0.71661000  1.0 0.0703728949
H  H92  1  0.89728000  0.40994000  0.70886000  1.0 0.0796034327
H  H93  1  0.89148000  0.26130000  0.74564000  1.0 0.0703728949
H  H94  1  0.80816000  0.31163000  0.72370000  1.0 0.0905146716
H  H95  1  0.85983000  0.29558000  0.81912000  1.0 0.041062958
H  H96  1  0.76732000  0.33265000  0.79805000  1.0 0.0905146716
H  H97  1  0.98351000  0.44231000  0.95946000  1.0 0.0905146716
H  H98  1  0.90184000  0.49511000  0.98005000  1.0 0.0905146716
H  H99  1  0.95480000  0.37237000  0.02281000  1.0 0.0970037803
H  H100  1  0.85288000  0.40645000  0.02872000  1.0 0.0970037803
H  H101  1  0.90069000  0.27425000  0.98219000  1.0 0.0970037803
H  H102  1  0.79876000  0.30793000  0.98850000  1.0 0.0970037803
H  H103  1  0.80537000  0.32553000  0.90853000  1.0 0.0970037803
H  H104  1  0.91532000  0.32231000  0.90789000  1.0 0.0970037803
H  H105  1  0.05572000  0.49807000  0.90226000  1.0 0.0905146716
H  H106  1  0.04257000  0.45659000  0.84986000  1.0 0.0796034327
H  H107  1  0.17839000  0.54542000  0.87433000  1.0 0.0970037803
H  H108  1  0.15511000  0.51653000  0.81936000  1.0 0.0970037803
H  H109  1  0.13074000  0.66006000  0.85797000  1.0 0.0970037803
H  H110  1  0.12362000  0.63443000  0.80113000  1.0 0.0905146716
H  H111  1  0.97864000  0.63502000  0.80491000  1.0 0.0905146716
H  H112  1  0.98593000  0.66802000  0.86011000  1.0 0.0796034327
H  H113  1  0.81013000  0.55021000  0.47796000  1.0 0.0970037803
H  H114  1  0.77691000  0.59848000  0.55574000  1.0 0.1288431935
H  H115  1  0.59987000  0.74683000  0.48824000  1.0 0.1164709356
H  H116  1  0.64250000  0.69348000  0.41317000  1.0 0.0905146716
H  H117  1  0.79160000  0.59763000  0.67725000  1.0 0.1288431935
H  H118  1  0.84640000  0.54523000  0.74916000  1.0 0.0970037803
H  H119  1  0.67624000  0.66917000  0.83065000  1.0 0.0905146716
H  H120  1  0.61807000  0.72897000  0.76036000  1.0 0.1164709356
H  H121  1  0.49542000  0.87392000  0.70204000  1.0 0.1288431935
H  H122  1  0.37739000  0.96277000  0.70253000  1.0 0.1075930942
H  H123  1  0.33081000  0.93115000  0.56141000  1.0 0.0905146716
H  H124  1  0.45340000  0.84585000  0.55606000  1.0 0.1164709356
H  H125  1  0.98442000  0.40374000  0.78052000  1.0 0.061261984
H  H126  1  0.95827000  0.33951000  0.82053000  1.0 0.0796034327
H  H127  1  0.91212000  0.25991000  0.76485000  1.0 0.0525375065
H  H128  1  0.96707000  0.31417000  0.72670000  1.0 0.061261984
H  H129  1  0.79406000  0.29626000  0.72005000  1.0 0.0703728949
H  H130  1  0.84244000  0.37582000  0.70375000  1.0 0.0525375065
H  H131  1  0.75181000  0.34158000  0.79114000  1.0 0.0703728949
H  H132  1  0.75021000  0.42036000  0.76025000  1.0 0.061261984
H  H133  1  0.03303000  0.96438000  0.72695000  1.0 0.0796034327
H  H134  1  0.00179000  0.88270000  0.70448000  1.0 0.061261984
H  H135  1  0.01865000  0.85103000  0.78339000  1.0 0.0703728949
H  H136  1  0.10272000  0.90994000  0.79114000  1.0 0.0796034327
H  H137  1  0.10852000  0.76130000  0.75436000  1.0 0.0703728949
H  H138  1  0.19184000  0.81163000  0.77630000  1.0 0.0905146716
H  H139  1  0.14017000  0.79558000  0.68088000  1.0 0.041062958
H  H140  1  0.23268000  0.83265000  0.70195000  1.0 0.0905146716
H  H141  1  0.01649000  0.94231000  0.54054000  1.0 0.0905146716
H  H142  1  0.09816000  0.99511000  0.51995000  1.0 0.0905146716
H  H143  1  0.04520000  0.87237000  0.47719000  1.0 0.0970037803
H  H144  1  0.14712000  0.90645000  0.47128000  1.0 0.0970037803
H  H145  1  0.09931000  0.77425000  0.51781000  1.0 0.0970037803
H  H146  1  0.20124000  0.80793000  0.51150000  1.0 0.0970037803
H  H147  1  0.19463000  0.82553000  0.59147000  1.0 0.0970037803
H  H148  1  0.08468000  0.82231000  0.59211000  1.0 0.0970037803
H  H149  1  0.94428000  0.99807000  0.59774000  1.0 0.0905146716
H  H150  1  0.95743000  0.95659000  0.65014000  1.0 0.0796034327
H  H151  1  0.82161000  0.04542000  0.62567000  1.0 0.0970037803
H  H152  1  0.84489000  0.01653000  0.68064000  1.0 0.0970037803
H  H153  1  0.86926000  0.16006000  0.64203000  1.0 0.0970037803
H  H154  1  0.87638000  0.13443000  0.69887000  1.0 0.0905146716
H  H155  1  0.02136000  0.13502000  0.69509000  1.0 0.0905146716
H  H156  1  0.01407000  0.16802000  0.63989000  1.0 0.0796034327
H  H157  1  0.18987000  0.05021000  0.02204000  1.0 0.0970037803
H  H158  1  0.22309000  0.09848000  0.94426000  1.0 0.1288431935
H  H159  1  0.40013000  0.24683000  0.01176000  1.0 0.1164709356
H  H160  1  0.35750000  0.19348000  0.08683000  1.0 0.0905146716
H  H161  1  0.20840000  0.09763000  0.82275000  1.0 0.1288431935
H  H162  1  0.15360000  0.04523000  0.75084000  1.0 0.0970037803
H  H163  1  0.32376000  0.16917000  0.66935000  1.0 0.0905146716
H  H164  1  0.38193000  0.22897000  0.73964000  1.0 0.1164709356
H  H165  1  0.50458000  0.37392000  0.79796000  1.0 0.1288431935
H  H166  1  0.62261000  0.46277000  0.79747000  1.0 0.1075930942
H  H167  1  0.66919000  0.43115000  0.93859000  1.0 0.0905146716
H  H168  1  0.54660000  0.34585000  0.94394000  1.0 0.1164709356
H  H169  1  0.01558000  0.90374000  0.71948000  1.0 0.061261984
H  H170  1  0.04173000  0.83951000  0.67947000  1.0 0.0796034327
H  H171  1  0.08788000  0.75991000  0.73515000  1.0 0.0525375065
H  H172  1  0.03293000  0.81417000  0.77330000  1.0 0.061261984
H  H173  1  0.20594000  0.79626000  0.77995000  1.0 0.0703728949
H  H174  1  0.15756000  0.87582000  0.79625000  1.0 0.0525375065
H  H175  1  0.24819000  0.84158000  0.70886000  1.0 0.0703728949
H  H176  1  0.24979000  0.92036000  0.73975000  1.0 0.061261984
H  H177  1  0.03303000  0.53562000  0.22695000  1.0 0.0796034327
H  H178  1  0.00179000  0.61730000  0.20448000  1.0 0.061261984
H  H179  1  0.01865000  0.64897000  0.28339000  1.0 0.0703728949
H  H180  1  0.10272000  0.59006000  0.29114000  1.0 0.0796034327
H  H181  1  0.10852000  0.73870000  0.25436000  1.0 0.0703728949
H  H182  1  0.19184000  0.68837000  0.27630000  1.0 0.0905146716
H  H183  1  0.14017000  0.70442000  0.18088000  1.0 0.041062958
H  H184  1  0.23268000  0.66735000  0.20195000  1.0 0.0905146716
H  H185  1  0.01649000  0.55769000  0.04054000  1.0 0.0905146716
H  H186  1  0.09816000  0.50489000  0.01995000  1.0 0.0905146716
H  H187  1  0.04520000  0.62763000  0.97719000  1.0 0.0970037803
H  H188  1  0.14712000  0.59355000  0.97128000  1.0 0.0970037803
H  H189  1  0.09931000  0.72575000  0.01781000  1.0 0.0970037803
H  H190  1  0.20124000  0.69207000  0.01150000  1.0 0.0970037803
H  H191  1  0.19463000  0.67447000  0.09147000  1.0 0.0970037803
H  H192  1  0.08468000  0.67769000  0.09211000  1.0 0.0970037803
H  H193  1  0.94428000  0.50193000  0.09774000  1.0 0.0905146716
H  H194  1  0.95743000  0.54341000  0.15014000  1.0 0.0796034327
H  H195  1  0.82161000  0.45458000  0.12567000  1.0 0.0970037803
H  H196  1  0.84489000  0.48347000  0.18064000  1.0 0.0970037803
H  H197  1  0.86926000  0.33994000  0.14203000  1.0 0.0970037803
H  H198  1  0.87638000  0.36557000  0.19887000  1.0 0.0905146716
H  H199  1  0.02136000  0.36498000  0.19509000  1.0 0.0905146716
H  H200  1  0.01407000  0.33198000  0.13989000  1.0 0.0796034327
H  H201  1  0.18987000  0.44979000  0.52204000  1.0 0.0970037803
H  H202  1  0.22309000  0.40152000  0.44426000  1.0 0.1288431935
H  H203  1  0.40013000  0.25317000  0.51176000  1.0 0.1164709356
H  H204  1  0.35750000  0.30652000  0.58683000  1.0 0.0905146716
H  H205  1  0.20840000  0.40237000  0.32275000  1.0 0.1288431935
H  H206  1  0.15360000  0.45477000  0.25084000  1.0 0.0970037803
H  H207  1  0.32376000  0.33083000  0.16935000  1.0 0.0905146716
H  H208  1  0.38193000  0.27103000  0.23964000  1.0 0.1164709356
H  H209  1  0.50458000  0.12608000  0.29796000  1.0 0.1288431935
H  H210  1  0.62261000  0.03723000  0.29747000  1.0 0.1075930942
H  H211  1  0.66919000  0.06885000  0.43859000  1.0 0.0905146716
H  H212  1  0.54660000  0.15415000  0.44394000  1.0 0.1164709356
H  H213  1  0.01558000  0.59626000  0.21948000  1.0 0.061261984
H  H214  1  0.04173000  0.66049000  0.17947000  1.0 0.0796034327
H  H215  1  0.08788000  0.74009000  0.23515000  1.0 0.0525375065
H  H216  1  0.03293000  0.68583000  0.27330000  1.0 0.061261984
H  H217  1  0.20594000  0.70374000  0.27995000  1.0 0.0703728949
H  H218  1  0.15756000  0.62418000  0.29625000  1.0 0.0525375065
H  H219  1  0.24819000  0.65842000  0.20886000  1.0 0.0703728949
H  H220  1  0.24979000  0.57964000  0.23975000  1.0 0.061261984
H  H221  1  0.96697000  0.03562000  0.27305000  1.0 0.0796034327
H  H222  1  0.99821000  0.11730000  0.29552000  1.0 0.061261984
H  H223  1  0.98135000  0.14897000  0.21661000  1.0 0.0703728949
H  H224  1  0.89728000  0.09006000  0.20886000  1.0 0.0796034327
H  H225  1  0.89148000  0.23870000  0.24564000  1.0 0.0703728949
H  H226  1  0.80816000  0.18837000  0.22370000  1.0 0.0905146716
H  H227  1  0.85983000  0.20442000  0.31912000  1.0 0.041062958
H  H228  1  0.76732000  0.16735000  0.29805000  1.0 0.0905146716
H  H229  1  0.98351000  0.05769000  0.45946000  1.0 0.0905146716
H  H230  1  0.90184000  0.00489000  0.48005000  1.0 0.0905146716
H  H231  1  0.95480000  0.12763000  0.52281000  1.0 0.0970037803
H  H232  1  0.85288000  0.09355000  0.52872000  1.0 0.0970037803
H  H233  1  0.90069000  0.22575000  0.48219000  1.0 0.0970037803
H  H234  1  0.79876000  0.19207000  0.48850000  1.0 0.0970037803
H  H235  1  0.80537000  0.17447000  0.40853000  1.0 0.0970037803
H  H236  1  0.91532000  0.17769000  0.40789000  1.0 0.0970037803
H  H237  1  0.05572000  0.00193000  0.40226000  1.0 0.0905146716
H  H238  1  0.04257000  0.04341000  0.34986000  1.0 0.0796034327
H  H239  1  0.17839000  0.95458000  0.37433000  1.0 0.0970037803
H  H240  1  0.15511000  0.98347000  0.31936000  1.0 0.0970037803
H  H241  1  0.13074000  0.83994000  0.35797000  1.0 0.0970037803
H  H242  1  0.12362000  0.86557000  0.30113000  1.0 0.0905146716
H  H243  1  0.97864000  0.86498000  0.30491000  1.0 0.0905146716
H  H244  1  0.98593000  0.83198000  0.36011000  1.0 0.0796034327
H  H245  1  0.81013000  0.94979000  0.97796000  1.0 0.0970037803
H  H246  1  0.77691000  0.90152000  0.05574000  1.0 0.1288431935
H  H247  1  0.59987000  0.75317000  0.98824000  1.0 0.1164709356
H  H248  1  0.64250000  0.80652000  0.91317000  1.0 0.0905146716
H  H249  1  0.79160000  0.90237000  0.17725000  1.0 0.1288431935
H  H250  1  0.84640000  0.95477000  0.24916000  1.0 0.0970037803
H  H251  1  0.67624000  0.83083000  0.33065000  1.0 0.0905146716
H  H252  1  0.61807000  0.77103000  0.26036000  1.0 0.1164709356
H  H253  1  0.49542000  0.62608000  0.20204000  1.0 0.1288431935
H  H254  1  0.37739000  0.53723000  0.20253000  1.0 0.1075930942
H  H255  1  0.33081000  0.56885000  0.06141000  1.0 0.0905146716
H  H256  1  0.45340000  0.65415000  0.05606000  1.0 0.1164709356
H  H257  1  0.98442000  0.09626000  0.28052000  1.0 0.061261984
H  H258  1  0.95827000  0.16049000  0.32053000  1.0 0.0796034327
H  H259  1  0.91212000  0.24009000  0.26485000  1.0 0.0525375065
H  H260  1  0.96707000  0.18583000  0.22670000  1.0 0.061261984
H  H261  1  0.79406000  0.20374000  0.22005000  1.0 0.0703728949
H  H262  1  0.84244000  0.12418000  0.20375000  1.0 0.0525375065
H  H263  1  0.75181000  0.15842000  0.29114000  1.0 0.0703728949
H  H264  1  0.75021000  0.07964000  0.26025000  1.0 0.061261984
H  H265  1  0.53303000  0.03562000  0.77305000  1.0 0.0796034327
H  H266  1  0.50179000  0.11730000  0.79552000  1.0 0.061261984
H  H267  1  0.51865000  0.14897000  0.71661000  1.0 0.0703728949
H  H268  1  0.60272000  0.09006000  0.70886000  1.0 0.0796034327
H  H269  1  0.60852000  0.23870000  0.74564000  1.0 0.0703728949
H  H270  1  0.69184000  0.18837000  0.72370000  1.0 0.0905146716
H  H271  1  0.64017000  0.20442000  0.81912000  1.0 0.041062958
H  H272  1  0.73268000  0.16735000  0.79805000  1.0 0.0905146716
H  H273  1  0.51649000  0.05769000  0.95946000  1.0 0.0905146716
H  H274  1  0.59816000  0.00489000  0.98005000  1.0 0.0905146716
H  H275  1  0.54520000  0.12763000  0.02281000  1.0 0.0970037803
H  H276  1  0.64712000  0.09355000  0.02872000  1.0 0.0970037803
H  H277  1  0.59931000  0.22575000  0.98219000  1.0 0.0970037803
H  H278  1  0.70124000  0.19207000  0.98850000  1.0 0.0970037803
H  H279  1  0.69463000  0.17447000  0.90853000  1.0 0.0970037803
H  H280  1  0.58468000  0.17769000  0.90789000  1.0 0.0970037803
H  H281  1  0.44428000  0.00193000  0.90226000  1.0 0.0905146716
H  H282  1  0.45743000  0.04341000  0.84986000  1.0 0.0796034327
H  H283  1  0.32161000  0.95458000  0.87433000  1.0 0.0970037803
H  H284  1  0.34489000  0.98347000  0.81936000  1.0 0.0970037803
H  H285  1  0.36926000  0.83994000  0.85797000  1.0 0.0970037803
H  H286  1  0.37638000  0.86557000  0.80113000  1.0 0.0905146716
H  H287  1  0.52136000  0.86498000  0.80491000  1.0 0.0905146716
H  H288  1  0.51407000  0.83198000  0.86011000  1.0 0.0796034327
H  H289  1  0.68987000  0.94979000  0.47796000  1.0 0.0970037803
H  H290  1  0.72309000  0.90152000  0.55574000  1.0 0.1288431935
H  H291  1  0.90013000  0.75317000  0.48824000  1.0 0.1164709356
H  H292  1  0.85750000  0.80652000  0.41317000  1.0 0.0905146716
H  H293  1  0.70840000  0.90237000  0.67725000  1.0 0.1288431935
H  H294  1  0.65360000  0.95477000  0.74916000  1.0 0.0970037803
H  H295  1  0.82376000  0.83083000  0.83065000  1.0 0.0905146716
H  H296  1  0.88193000  0.77103000  0.76036000  1.0 0.1164709356
H  H297  1  0.00458000  0.62608000  0.70204000  1.0 0.1288431935
H  H298  1  0.12261000  0.53723000  0.70253000  1.0 0.1075930942
H  H299  1  0.16919000  0.56885000  0.56141000  1.0 0.0905146716
H  H300  1  0.04660000  0.65415000  0.55606000  1.0 0.1164709356
H  H301  1  0.51558000  0.09626000  0.78052000  1.0 0.061261984
H  H302  1  0.54173000  0.16049000  0.82053000  1.0 0.0796034327
H  H303  1  0.58788000  0.24009000  0.76485000  1.0 0.0525375065
H  H304  1  0.53293000  0.18583000  0.72670000  1.0 0.061261984
H  H305  1  0.70594000  0.20374000  0.72005000  1.0 0.0703728949
H  H306  1  0.65756000  0.12418000  0.70375000  1.0 0.0525375065
H  H307  1  0.74819000  0.15842000  0.79114000  1.0 0.0703728949
H  H308  1  0.74979000  0.07964000  0.76025000  1.0 0.061261984
H  H309  1  0.46697000  0.53562000  0.72695000  1.0 0.0796034327
H  H310  1  0.49821000  0.61730000  0.70448000  1.0 0.061261984
H  H311  1  0.48135000  0.64897000  0.78339000  1.0 0.0703728949
H  H312  1  0.39728000  0.59006000  0.79114000  1.0 0.0796034327
H  H313  1  0.39148000  0.73870000  0.75436000  1.0 0.0703728949
H  H314  1  0.30816000  0.68837000  0.77630000  1.0 0.0905146716
H  H315  1  0.35983000  0.70442000  0.68088000  1.0 0.041062958
H  H316  1  0.26732000  0.66735000  0.70195000  1.0 0.0905146716
H  H317  1  0.48351000  0.55769000  0.54054000  1.0 0.0905146716
H  H318  1  0.40184000  0.50489000  0.51995000  1.0 0.0905146716
H  H319  1  0.45480000  0.62763000  0.47719000  1.0 0.0970037803
H  H320  1  0.35288000  0.59355000  0.47128000  1.0 0.0970037803
H  H321  1  0.40069000  0.72575000  0.51781000  1.0 0.0970037803
H  H322  1  0.29876000  0.69207000  0.51150000  1.0 0.0970037803
H  H323  1  0.30537000  0.67447000  0.59147000  1.0 0.0970037803
H  H324  1  0.41532000  0.67769000  0.59211000  1.0 0.0970037803
H  H325  1  0.55572000  0.50193000  0.59774000  1.0 0.0905146716
H  H326  1  0.54257000  0.54341000  0.65014000  1.0 0.0796034327
H  H327  1  0.67839000  0.45458000  0.62567000  1.0 0.0970037803
H  H328  1  0.65511000  0.48347000  0.68064000  1.0 0.0970037803
H  H329  1  0.63074000  0.33994000  0.64203000  1.0 0.0970037803
H  H330  1  0.62362000  0.36557000  0.69887000  1.0 0.0905146716
H  H331  1  0.47864000  0.36498000  0.69509000  1.0 0.0905146716
H  H332  1  0.48593000  0.33198000  0.63989000  1.0 0.0796034327
H  H333  1  0.31013000  0.44979000  0.02204000  1.0 0.0970037803
H  H334  1  0.27691000  0.40152000  0.94426000  1.0 0.1288431935
H  H335  1  0.09987000  0.25317000  0.01176000  1.0 0.1164709356
H  H336  1  0.14250000  0.30652000  0.08683000  1.0 0.0905146716
H  H337  1  0.29160000  0.40237000  0.82275000  1.0 0.1288431935
H  H338  1  0.34640000  0.45477000  0.75084000  1.0 0.0970037803
H  H339  1  0.17624000  0.33083000  0.66935000  1.0 0.0905146716
H  H340  1  0.11807000  0.27103000  0.73964000  1.0 0.1164709356
H  H341  1  0.99542000  0.12608000  0.79796000  1.0 0.1288431935
H  H342  1  0.87739000  0.03723000  0.79747000  1.0 0.1075930942
H  H343  1  0.83081000  0.06885000  0.93859000  1.0 0.0905146716
H  H344  1  0.95340000  0.15415000  0.94394000  1.0 0.1164709356
H  H345  1  0.48442000  0.59626000  0.71948000  1.0 0.061261984
H  H346  1  0.45827000  0.66049000  0.67947000  1.0 0.0796034327
H  H347  1  0.41212000  0.74009000  0.73515000  1.0 0.0525375065
H  H348  1  0.46707000  0.68583000  0.77330000  1.0 0.061261984
H  H349  1  0.29406000  0.70374000  0.77995000  1.0 0.0703728949
H  H350  1  0.34244000  0.62418000  0.79625000  1.0 0.0525375065
H  H351  1  0.25181000  0.65842000  0.70886000  1.0 0.0703728949
H  H352  1  0.25021000  0.57964000  0.73975000  1.0 0.061261984
C  C1  1  0.44790000  0.91030000  0.22130000  1.0 0.0122829789
C  C2  1  0.42590000  0.87310000  0.26790000  1.0 -0.1285852564
C  C3  1  0.36160000  0.81250000  0.25390000  1.0 -0.1002111464
C  C4  1  0.33490000  0.83350000  0.20460000  1.0 0.041062958
C  C5  1  0.41750000  0.94310000  0.03230000  1.0 -0.0724564003
C  C6  1  0.39840000  0.88670000  0.99520000  1.0 -0.1919428052
C  C7  1  0.36160000  0.82020000  0.02260000  1.0 -0.1785802231
C  C8  1  0.36150000  0.84390000  0.07480000  1.0 -0.1002111464
C  C9  1  0.55020000  0.00710000  0.13370000  1.0 -0.0724564003
C  C10  1  0.63060000  0.04420000  0.15150000  1.0 -0.1919428052
C  C11  1  0.60310000  0.12220000  0.16500000  1.0 -0.2675975671
C  C12  1  0.50490000  0.12550000  0.16200000  1.0 -0.0724564003
C  C13  1  0.26530000  0.08970000  0.51980000  1.0 0.0703728949
C  C14  1  0.24620000  0.11830000  0.47240000  1.0 -0.1785802231
C  C15  1  0.17960000  0.17780000  0.46780000  1.0 0.041062958
C  C16  1  0.14250000  0.20550000  0.51230000  1.0 -0.1721061615
C  C17  1  0.15280000  0.20860000  0.41940000  1.0 0.3461057844
C  C18  1  0.16800000  0.17250000  0.55750000  1.0 0.041062958
C  C19  1  0.15980000  0.20510000  0.33460000  1.0 0.3351804914
C  C20  1  0.06150000  0.28810000  0.37350000  1.0 0.3673407139
C  C21  1  0.98680000  0.34810000  0.37100000  1.0 0.0525375065
C  C22  1  0.26710000  0.11370000  0.29200000  1.0 -0.1785802231
C  C23  1  0.19670000  0.17060000  0.29000000  1.0 0.041062958
C  C24  1  0.29890000  0.08240000  0.24850000  1.0 0.0225776608
C  C25  1  0.19990000  0.15510000  0.20070000  1.0 0.041062958
C  C26  1  0.16430000  0.19090000  0.24290000  1.0 -0.2273798657
C  C27  1  0.96320000  0.38470000  0.32760000  1.0 -0.2675975671
C  C28  1  0.89170000  0.43770000  0.32760000  1.0 -0.047587415
C  C29  1  0.86520000  0.42010000  0.40970000  1.0 0.061261984
C  C30  1  0.93770000  0.36780000  0.41300000  1.0 -0.1607687024
C  C31  1  0.43600000  0.86800000  0.20890000  1.0 0.0796034327
C  C32  1  0.41800000  0.81300000  0.24820000  1.0 -0.1002111464
C  C33  1  0.33200000  0.84000000  0.26840000  1.0 -0.1090496106
C  C34  1  0.29020000  0.87800000  0.22750000  1.0 -0.0211744867
C  C35  1  0.55210000  0.41030000  0.27870000  1.0 0.0122829789
C  C36  1  0.57410000  0.37310000  0.23210000  1.0 -0.1285852564
C  C37  1  0.63840000  0.31250000  0.24610000  1.0 -0.1002111464
C  C38  1  0.66510000  0.33350000  0.29540000  1.0 0.041062958
C  C39  1  0.58250000  0.44310000  0.46770000  1.0 -0.0724564003
C  C40  1  0.60160000  0.38670000  0.50480000  1.0 -0.1919428052
C  C41  1  0.63840000  0.32020000  0.47740000  1.0 -0.1785802231
C  C42  1  0.63850000  0.34390000  0.42520000  1.0 -0.1002111464
C  C43  1  0.44980000  0.50710000  0.36630000  1.0 -0.0724564003
C  C44  1  0.36940000  0.54420000  0.34850000  1.0 -0.1919428052
C  C45  1  0.39690000  0.62220000  0.33500000  1.0 -0.2675975671
C  C46  1  0.49510000  0.62550000  0.33800000  1.0 -0.0724564003
C  C47  1  0.73470000  0.58970000  0.98020000  1.0 0.0703728949
C  C48  1  0.75380000  0.61830000  0.02760000  1.0 -0.1785802231
C  C49  1  0.82040000  0.67780000  0.03220000  1.0 0.041062958
C  C50  1  0.85750000  0.70550000  0.98770000  1.0 -0.1721061615
C  C51  1  0.84720000  0.70860000  0.08060000  1.0 0.3461057844
C  C52  1  0.83200000  0.67250000  0.94250000  1.0 0.041062958
C  C53  1  0.84020000  0.70510000  0.16540000  1.0 0.3351804914
C  C54  1  0.93850000  0.78810000  0.12650000  1.0 0.3673407139
C  C55  1  0.01320000  0.84810000  0.12900000  1.0 0.0525375065
C  C56  1  0.73290000  0.61370000  0.20800000  1.0 -0.1785802231
C  C57  1  0.80330000  0.67060000  0.21000000  1.0 0.041062958
C  C58  1  0.70110000  0.58240000  0.25150000  1.0 0.0225776608
C  C59  1  0.80010000  0.65510000  0.29930000  1.0 0.041062958
C  C60  1  0.83570000  0.69090000  0.25710000  1.0 -0.2273798657
C  C61  1  0.03680000  0.88470000  0.17240000  1.0 -0.2675975671
C  C62  1  0.10830000  0.93770000  0.17240000  1.0 -0.047587415
C  C63  1  0.13480000  0.92010000  0.09030000  1.0 0.061261984
C  C64  1  0.06230000  0.86780000  0.08700000  1.0 -0.1607687024
C  C65  1  0.56400000  0.36800000  0.29110000  1.0 0.0796034327
C  C66  1  0.58200000  0.31300000  0.25180000  1.0 -0.1002111464
C  C67  1  0.66800000  0.34000000  0.23160000  1.0 -0.1090496106
C  C68  1  0.70980000  0.37800000  0.27250000  1.0 -0.0211744867
C  C69  1  0.94790000  0.41030000  0.77870000  1.0 0.0122829789
C  C70  1  0.92590000  0.37310000  0.73210000  1.0 -0.1285852564
C  C71  1  0.86160000  0.31250000  0.74610000  1.0 -0.1002111464
C  C72  1  0.83490000  0.33350000  0.79540000  1.0 0.041062958
C  C73  1  0.91750000  0.44310000  0.96770000  1.0 -0.0724564003
C  C74  1  0.89840000  0.38670000  0.00480000  1.0 -0.1919428052
C  C75  1  0.86160000  0.32020000  0.97740000  1.0 -0.1785802231
C  C76  1  0.86150000  0.34390000  0.92520000  1.0 -0.1002111464
C  C77  1  0.05020000  0.50710000  0.86630000  1.0 -0.0724564003
C  C78  1  0.13060000  0.54420000  0.84850000  1.0 -0.1919428052
C  C79  1  0.10310000  0.62220000  0.83500000  1.0 -0.2675975671
C  C80  1  0.00490000  0.62550000  0.83800000  1.0 -0.0724564003
C  C81  1  0.76530000  0.58970000  0.48020000  1.0 0.0703728949
C  C82  1  0.74620000  0.61830000  0.52760000  1.0 -0.1785802231
C  C83  1  0.67960000  0.67780000  0.53220000  1.0 0.041062958
C  C84  1  0.64250000  0.70550000  0.48770000  1.0 -0.1721061615
C  C85  1  0.65280000  0.70860000  0.58060000  1.0 0.3461057844
C  C86  1  0.66800000  0.67250000  0.44250000  1.0 0.041062958
C  C87  1  0.65980000  0.70510000  0.66540000  1.0 0.3351804914
C  C88  1  0.56150000  0.78810000  0.62650000  1.0 0.3673407139
C  C89  1  0.48680000  0.84810000  0.62900000  1.0 0.0525375065
C  C90  1  0.76710000  0.61370000  0.70800000  1.0 -0.1785802231
C  C91  1  0.69670000  0.67060000  0.71000000  1.0 0.041062958
C  C92  1  0.79890000  0.58240000  0.75150000  1.0 0.0225776608
C  C93  1  0.69990000  0.65510000  0.79930000  1.0 0.041062958
C  C94  1  0.66430000  0.69090000  0.75710000  1.0 -0.2273798657
C  C95  1  0.46320000  0.88470000  0.67240000  1.0 -0.2675975671
C  C96  1  0.39170000  0.93770000  0.67240000  1.0 -0.047587415
C  C97  1  0.36520000  0.92010000  0.59030000  1.0 0.061261984
C  C98  1  0.43770000  0.86780000  0.58700000  1.0 -0.1607687024
C  C99  1  0.93600000  0.36800000  0.79110000  1.0 0.0796034327
C  C100  1  0.91800000  0.31300000  0.75180000  1.0 -0.1002111464
C  C101  1  0.83200000  0.34000000  0.73160000  1.0 -0.1090496106
C  C102  1  0.79020000  0.37800000  0.77250000  1.0 -0.0211744867
C  C103  1  0.05210000  0.91030000  0.72130000  1.0 0.0122829789
C  C104  1  0.07410000  0.87310000  0.76790000  1.0 -0.1285852564
C  C105  1  0.13840000  0.81250000  0.75390000  1.0 -0.1002111464
C  C106  1  0.16510000  0.83350000  0.70460000  1.0 0.041062958
C  C107  1  0.08250000  0.94310000  0.53230000  1.0 -0.0724564003
C  C108  1  0.10160000  0.88670000  0.49520000  1.0 -0.1919428052
C  C109  1  0.13840000  0.82020000  0.52260000  1.0 -0.1785802231
C  C110  1  0.13850000  0.84390000  0.57480000  1.0 -0.1002111464
C  C111  1  0.94980000  0.00710000  0.63370000  1.0 -0.0724564003
C  C112  1  0.86940000  0.04420000  0.65150000  1.0 -0.1919428052
C  C113  1  0.89690000  0.12220000  0.66500000  1.0 -0.2675975671
C  C114  1  0.99510000  0.12550000  0.66200000  1.0 -0.0724564003
C  C115  1  0.23470000  0.08970000  0.01980000  1.0 0.0703728949
C  C116  1  0.25380000  0.11830000  0.97240000  1.0 -0.1785802231
C  C117  1  0.32040000  0.17780000  0.96780000  1.0 0.041062958
C  C118  1  0.35750000  0.20550000  0.01230000  1.0 -0.1721061615
C  C119  1  0.34720000  0.20860000  0.91940000  1.0 0.3461057844
C  C120  1  0.33200000  0.17250000  0.05750000  1.0 0.041062958
C  C121  1  0.34020000  0.20510000  0.83460000  1.0 0.3351804914
C  C122  1  0.43850000  0.28810000  0.87350000  1.0 0.3673407139
C  C123  1  0.51320000  0.34810000  0.87100000  1.0 0.0525375065
C  C124  1  0.23290000  0.11370000  0.79200000  1.0 -0.1785802231
C  C125  1  0.30330000  0.17060000  0.79000000  1.0 0.041062958
C  C126  1  0.20110000  0.08240000  0.74850000  1.0 0.0225776608
C  C127  1  0.30010000  0.15510000  0.70070000  1.0 0.041062958
C  C128  1  0.33570000  0.19090000  0.74290000  1.0 -0.2273798657
C  C129  1  0.53680000  0.38470000  0.82760000  1.0 -0.2675975671
C  C130  1  0.60830000  0.43770000  0.82760000  1.0 -0.047587415
C  C131  1  0.63480000  0.42010000  0.90970000  1.0 0.061261984
C  C132  1  0.56230000  0.36780000  0.91300000  1.0 -0.1607687024
C  C133  1  0.06400000  0.86800000  0.70890000  1.0 0.0796034327
C  C134  1  0.08200000  0.81300000  0.74820000  1.0 -0.1002111464
C  C135  1  0.16800000  0.84000000  0.76840000  1.0 -0.1090496106
C  C136  1  0.20980000  0.87800000  0.72750000  1.0 -0.0211744867
C  C137  1  0.05210000  0.58970000  0.22130000  1.0 0.0122829789
C  C138  1  0.07410000  0.62690000  0.26790000  1.0 -0.1285852564
C  C139  1  0.13840000  0.68750000  0.25390000  1.0 -0.1002111464
C  C140  1  0.16510000  0.66650000  0.20460000  1.0 0.041062958
C  C141  1  0.08250000  0.55690000  0.03230000  1.0 -0.0724564003
C  C142  1  0.10160000  0.61330000  0.99520000  1.0 -0.1919428052
C  C143  1  0.13840000  0.67980000  0.02260000  1.0 -0.1785802231
C  C144  1  0.13850000  0.65610000  0.07480000  1.0 -0.1002111464
C  C145  1  0.94980000  0.49290000  0.13370000  1.0 -0.0724564003
C  C146  1  0.86940000  0.45580000  0.15150000  1.0 -0.1919428052
C  C147  1  0.89690000  0.37780000  0.16500000  1.0 -0.2675975671
C  C148  1  0.99510000  0.37450000  0.16200000  1.0 -0.0724564003
C  C149  1  0.23470000  0.41030000  0.51980000  1.0 0.0703728949
C  C150  1  0.25380000  0.38170000  0.47240000  1.0 -0.1785802231
C  C151  1  0.32040000  0.32220000  0.46780000  1.0 0.041062958
C  C152  1  0.35750000  0.29450000  0.51230000  1.0 -0.1721061615
C  C153  1  0.34720000  0.29140000  0.41940000  1.0 0.3461057844
C  C154  1  0.33200000  0.32750000  0.55750000  1.0 0.041062958
C  C155  1  0.34020000  0.29490000  0.33460000  1.0 0.3351804914
C  C156  1  0.43850000  0.21190000  0.37350000  1.0 0.3673407139
C  C157  1  0.51320000  0.15190000  0.37100000  1.0 0.0525375065
C  C158  1  0.23290000  0.38630000  0.29200000  1.0 -0.1785802231
C  C159  1  0.30330000  0.32940000  0.29000000  1.0 0.041062958
C  C160  1  0.20110000  0.41760000  0.24850000  1.0 0.0225776608
C  C161  1  0.30010000  0.34490000  0.20070000  1.0 0.041062958
C  C162  1  0.33570000  0.30910000  0.24290000  1.0 -0.2273798657
C  C163  1  0.53680000  0.11530000  0.32760000  1.0 -0.2675975671
C  C164  1  0.60830000  0.06230000  0.32760000  1.0 -0.047587415
C  C165  1  0.63480000  0.07990000  0.40970000  1.0 0.061261984
C  C166  1  0.56230000  0.13220000  0.41300000  1.0 -0.1607687024
C  C167  1  0.06400000  0.63200000  0.20890000  1.0 0.0703728949
C  C168  1  0.08200000  0.68700000  0.24820000  1.0 -0.1002111464
C  C169  1  0.16800000  0.66000000  0.26840000  1.0 -0.1090496106
C  C170  1  0.20980000  0.62200000  0.22750000  1.0 -0.0211744867
C  C171  1  0.94790000  0.08970000  0.27870000  1.0 0.0122829789
C  C172  1  0.92590000  0.12690000  0.23210000  1.0 -0.1285852564
C  C173  1  0.86160000  0.18750000  0.24610000  1.0 -0.1002111464
C  C174  1  0.83490000  0.16650000  0.29540000  1.0 0.041062958
C  C175  1  0.91750000  0.05690000  0.46770000  1.0 -0.0724564003
C  C176  1  0.89840000  0.11330000  0.50480000  1.0 -0.1919428052
C  C177  1  0.86160000  0.17980000  0.47740000  1.0 -0.1785802231
C  C178  1  0.86150000  0.15610000  0.42520000  1.0 -0.1002111464
C  C179  1  0.05020000  0.99290000  0.36630000  1.0 -0.0724564003
C  C180  1  0.13060000  0.95580000  0.34850000  1.0 -0.1919428052
C  C181  1  0.10310000  0.87780000  0.33500000  1.0 -0.2675975671
C  C182  1  0.00490000  0.87450000  0.33800000  1.0 -0.0724564003
C  C183  1  0.76530000  0.91030000  0.98020000  1.0 0.0703728949
C  C184  1  0.74620000  0.88170000  0.02760000  1.0 -0.1785802231
C  C185  1  0.67960000  0.82220000  0.03220000  1.0 0.041062958
C  C186  1  0.64250000  0.79450000  0.98770000  1.0 -0.1721061615
C  C187  1  0.65280000  0.79140000  0.08060000  1.0 0.3461057844
C  C188  1  0.66800000  0.82750000  0.94250000  1.0 0.041062958
C  C189  1  0.65980000  0.79490000  0.16540000  1.0 0.3351804914
C  C190  1  0.56150000  0.71190000  0.12650000  1.0 0.3673407139
C  C191  1  0.48680000  0.65190000  0.12900000  1.0 0.0525375065
C  C192  1  0.76710000  0.88630000  0.20800000  1.0 -0.1785802231
C  C193  1  0.69670000  0.82940000  0.21000000  1.0 0.041062958
C  C194  1  0.79890000  0.91760000  0.25150000  1.0 0.0225776608
C  C195  1  0.69990000  0.84490000  0.29930000  1.0 0.041062958
C  C196  1  0.66430000  0.80910000  0.25710000  1.0 -0.2273798657
C  C197  1  0.46320000  0.61530000  0.17240000  1.0 -0.2675975671
C  C198  1  0.39170000  0.56230000  0.17240000  1.0 -0.047587415
C  C199  1  0.36520000  0.57990000  0.09030000  1.0 0.061261984
C  C200  1  0.43770000  0.63220000  0.08700000  1.0 -0.1607687024
C  C201  1  0.93600000  0.13200000  0.29110000  1.0 0.0796034327
C  C202  1  0.91800000  0.18700000  0.25180000  1.0 -0.1002111464
C  C203  1  0.83200000  0.16000000  0.23160000  1.0 -0.1090496106
C  C204  1  0.79020000  0.12200000  0.27250000  1.0 -0.0211744867
C  C205  1  0.55210000  0.08970000  0.77870000  1.0 0.0122829789
C  C206  1  0.57410000  0.12690000  0.73210000  1.0 -0.1285852564
C  C207  1  0.63840000  0.18750000  0.74610000  1.0 -0.1002111464
C  C208  1  0.66510000  0.16650000  0.79540000  1.0 0.041062958
C  C209  1  0.58250000  0.05690000  0.96770000  1.0 -0.0724564003
C  C210  1  0.60160000  0.11330000  0.00480000  1.0 -0.1919428052
C  C211  1  0.63840000  0.17980000  0.97740000  1.0 -0.1785802231
C  C212  1  0.63850000  0.15610000  0.92520000  1.0 -0.1002111464
C  C213  1  0.44980000  0.99290000  0.86630000  1.0 -0.0724564003
C  C214  1  0.36940000  0.95580000  0.84850000  1.0 -0.1919428052
C  C215  1  0.39690000  0.87780000  0.83500000  1.0 -0.2675975671
C  C216  1  0.49510000  0.87450000  0.83800000  1.0 -0.0724564003
C  C217  1  0.73470000  0.91030000  0.48020000  1.0 0.0703728949
C  C218  1  0.75380000  0.88170000  0.52760000  1.0 -0.1785802231
C  C219  1  0.82040000  0.82220000  0.53220000  1.0 0.041062958
C  C220  1  0.85750000  0.79450000  0.48770000  1.0 -0.1721061615
C  C221  1  0.84720000  0.79140000  0.58060000  1.0 0.3461057844
C  C222  1  0.83200000  0.82750000  0.44250000  1.0 0.041062958
C  C223  1  0.84020000  0.79490000  0.66540000  1.0 0.3351804914
C  C224  1  0.93850000  0.71190000  0.62650000  1.0 0.3673407139
C  C225  1  0.01320000  0.65190000  0.62900000  1.0 0.0525375065
C  C226  1  0.73290000  0.88630000  0.70800000  1.0 -0.1785802231
C  C227  1  0.80330000  0.82940000  0.71000000  1.0 0.041062958
C  C228  1  0.70110000  0.91760000  0.75150000  1.0 0.0225776608
C  C229  1  0.80010000  0.84490000  0.79930000  1.0 0.041062958
C  C230  1  0.83570000  0.80910000  0.75710000  1.0 -0.2273798657
C  C231  1  0.03680000  0.61530000  0.67240000  1.0 -0.2675975671
C  C232  1  0.10830000  0.56230000  0.67240000  1.0 -0.047587415
C  C233  1  0.13480000  0.57990000  0.59030000  1.0 0.061261984
C  C234  1  0.06230000  0.63220000  0.58700000  1.0 -0.1607687024
C  C235  1  0.56400000  0.13200000  0.79110000  1.0 0.0796034327
C  C236  1  0.58200000  0.18700000  0.75180000  1.0 -0.1002111464
C  C237  1  0.66800000  0.16000000  0.73160000  1.0 -0.1090496106
C  C238  1  0.70980000  0.12200000  0.77250000  1.0 -0.0211744867
C  C239  1  0.44790000  0.58970000  0.72130000  1.0 0.0122829789
C  C240  1  0.42590000  0.62690000  0.76790000  1.0 -0.1285852564
C  C241  1  0.36160000  0.68750000  0.75390000  1.0 -0.1002111464
C  C242  1  0.33490000  0.66650000  0.70460000  1.0 0.041062958
C  C243  1  0.41750000  0.55690000  0.53230000  1.0 -0.0724564003
C  C244  1  0.39840000  0.61330000  0.49520000  1.0 -0.1919428052
C  C245  1  0.36160000  0.67980000  0.52260000  1.0 -0.1785802231
C  C246  1  0.36150000  0.65610000  0.57480000  1.0 -0.1002111464
C  C247  1  0.55020000  0.49290000  0.63370000  1.0 -0.0724564003
C  C248  1  0.63060000  0.45580000  0.65150000  1.0 -0.1919428052
C  C249  1  0.60310000  0.37780000  0.66500000  1.0 -0.2675975671
C  C250  1  0.50490000  0.37450000  0.66200000  1.0 -0.0724564003
C  C251  1  0.26530000  0.41030000  0.01980000  1.0 0.0703728949
C  C252  1  0.24620000  0.38170000  0.97240000  1.0 -0.1785802231
C  C253  1  0.17960000  0.32220000  0.96780000  1.0 0.041062958
C  C254  1  0.14250000  0.29450000  0.01230000  1.0 -0.1721061615
C  C255  1  0.15280000  0.29140000  0.91940000  1.0 0.3461057844
C  C256  1  0.16800000  0.32750000  0.05750000  1.0 0.041062958
C  C257  1  0.15980000  0.29490000  0.83460000  1.0 0.3351804914
C  C258  1  0.06150000  0.21190000  0.87350000  1.0 0.3673407139
C  C259  1  0.98680000  0.15190000  0.87100000  1.0 0.0525375065
C  C260  1  0.26710000  0.38630000  0.79200000  1.0 -0.1785802231
C  C261  1  0.19670000  0.32940000  0.79000000  1.0 0.041062958
C  C262  1  0.29890000  0.41760000  0.74850000  1.0 0.0225776608
C  C263  1  0.19990000  0.34490000  0.70070000  1.0 0.041062958
C  C264  1  0.16430000  0.30910000  0.74290000  1.0 -0.2273798657
C  C265  1  0.96320000  0.11530000  0.82760000  1.0 -0.2675975671
C  C266  1  0.89170000  0.06230000  0.82760000  1.0 -0.047587415
C  C267  1  0.86520000  0.07990000  0.90970000  1.0 0.061261984
C  C268  1  0.93770000  0.13220000  0.91300000  1.0 -0.1607687024
C  C269  1  0.43600000  0.63200000  0.70890000  1.0 0.0796034327
C  C270  1  0.41800000  0.68700000  0.74820000  1.0 -0.1002111464
C  C271  1  0.33200000  0.66000000  0.76840000  1.0 -0.1090496106
C  C272  1  0.29020000  0.62200000  0.72750000  1.0 -0.0211744867
N  N1  1  0.22690000  0.11220000  0.56200000  1.0 -0.3268182574
N  N2  1  0.26830000  0.10020000  0.20300000  1.0 -0.3459546266
N  N3  1  0.84190000  0.45570000  0.36720000  1.0 -0.2885616196
N  N4  1  0.18940000  0.17730000  0.37880000  1.0 -0.3974962828
N  N5  1  0.09100000  0.26050000  0.33004000  1.0 -0.4905654823
N  N6  1  0.08650000  0.26510000  0.41989000  1.0 -0.4421822203
N  N7  1  0.77310000  0.61220000  0.93800000  1.0 -0.3268182574
N  N8  1  0.73170000  0.60020000  0.29700000  1.0 -0.3459546266
N  N9  1  0.15810000  0.95570000  0.13280000  1.0 -0.2885616196
N  N10  1  0.81060000  0.67730000  0.12120000  1.0 -0.3974962828
N  N11  1  0.90900000  0.76050000  0.16996000  1.0 -0.4905654823
N  N12  1  0.91350000  0.76510000  0.08011000  1.0 -0.4421822203
N  N13  1  0.72690000  0.61220000  0.43800000  1.0 -0.3268182574
N  N14  1  0.76830000  0.60020000  0.79700000  1.0 -0.3459546266
N  N15  1  0.34190000  0.95570000  0.63280000  1.0 -0.2885616196
N  N16  1  0.68940000  0.67730000  0.62120000  1.0 -0.3974962828
N  N17  1  0.59100000  0.76050000  0.66996000  1.0 -0.4905654823
N  N18  1  0.58650000  0.76510000  0.58011000  1.0 -0.4421822203
N  N19  1  0.27310000  0.11220000  0.06200000  1.0 -0.3268182574
N  N20  1  0.23170000  0.10020000  0.70300000  1.0 -0.3459546266
N  N21  1  0.65810000  0.45570000  0.86720000  1.0 -0.2885616196
N  N22  1  0.31060000  0.17730000  0.87880000  1.0 -0.3974962828
N  N23  1  0.40900000  0.26050000  0.83004000  1.0 -0.4905654823
N  N24  1  0.41350000  0.26510000  0.91989000  1.0 -0.4421822203
N  N25  1  0.27310000  0.38780000  0.56200000  1.0 -0.3268182574
N  N26  1  0.23170000  0.39980000  0.20300000  1.0 -0.3459546266
N  N27  1  0.65810000  0.04430000  0.36720000  1.0 -0.2885616196
N  N28  1  0.31060000  0.32270000  0.37880000  1.0 -0.3974962828
N  N29  1  0.40900000  0.23950000  0.33004000  1.0 -0.4905654823
N  N30  1  0.41350000  0.23490000  0.41989000  1.0 -0.4421822203
N  N31  1  0.72690000  0.88780000  0.93800000  1.0 -0.3268182574
N  N32  1  0.76830000  0.89980000  0.29700000  1.0 -0.3459546266
N  N33  1  0.34190000  0.54430000  0.13280000  1.0 -0.2885616196
N  N34  1  0.68940000  0.82270000  0.12120000  1.0 -0.3974962828
N  N35  1  0.59100000  0.73950000  0.16996000  1.0 -0.4905654823
N  N36  1  0.58650000  0.73490000  0.08011000  1.0 -0.4421822203
N  N37  1  0.77310000  0.88780000  0.43800000  1.0 -0.3268182574
N  N38  1  0.73170000  0.89980000  0.79700000  1.0 -0.3459546266
N  N39  1  0.15810000  0.54430000  0.63280000  1.0 -0.2885616196
N  N40  1  0.81060000  0.82270000  0.62120000  1.0 -0.3974962828
N  N41  1  0.90900000  0.73950000  0.66996000  1.0 -0.4905654823
N  N42  1  0.91350000  0.73490000  0.58011000  1.0 -0.4421822203
N  N43  1  0.22690000  0.38780000  0.06200000  1.0 -0.3268182574
N  N44  1  0.26830000  0.39980000  0.70300000  1.0 -0.3459546266
N  N45  1  0.84190000  0.04430000  0.86720000  1.0 -0.2885616196
N  N46  1  0.18940000  0.32270000  0.87880000  1.0 -0.3974962828
N  N47  1  0.09100000  0.23950000  0.83004000  1.0 -0.4905654823
N  N48  1  0.08650000  0.23490000  0.91989000  1.0 -0.4421822203
O  O1  1  0.36740000  0.90770000  0.19270000  1.0 -0.1919428052
O  O2  1  0.36490000  0.92600000  0.07500000  1.0 -0.3268182574
O  O3  1  0.47300000  0.05430000  0.14330000  1.0 -0.3268182574
O  O4  1  0.35800000  0.90900000  0.19630000  1.0 -0.2099235503
O  O5  1  0.63260000  0.40770000  0.30730000  1.0 -0.1919428052
O  O6  1  0.63510000  0.42600000  0.42500000  1.0 -0.3268182574
O  O7  1  0.52700000  0.55430000  0.35670000  1.0 -0.3268182574
O  O8  1  0.64200000  0.40900000  0.30370000  1.0 -0.2099235503
O  O9  1  0.86740000  0.40770000  0.80730000  1.0 -0.1919428052
O  O10  1  0.86490000  0.42600000  0.92500000  1.0 -0.3268182574
O  O11  1  0.97300000  0.55430000  0.85670000  1.0 -0.3268182574
O  O12  1  0.85800000  0.40900000  0.80370000  1.0 -0.2099235503
O  O13  1  0.13260000  0.90770000  0.69270000  1.0 -0.1919428052
O  O14  1  0.13510000  0.92600000  0.57500000  1.0 -0.3268182574
O  O15  1  0.02700000  0.05430000  0.64330000  1.0 -0.3268182574
O  O16  1  0.14200000  0.90900000  0.69630000  1.0 -0.2099235503
O  O17  1  0.13260000  0.59230000  0.19270000  1.0 -0.1919428052
O  O18  1  0.13510000  0.57400000  0.07500000  1.0 -0.3268182574
O  O19  1  0.02700000  0.44570000  0.14330000  1.0 -0.3268182574
O  O20  1  0.14200000  0.59100000  0.19630000  1.0 -0.2099235503
O  O21  1  0.86740000  0.09230000  0.30730000  1.0 -0.1919428052
O  O22  1  0.86490000  0.07400000  0.42500000  1.0 -0.3268182574
O  O23  1  0.97300000  0.94570000  0.35670000  1.0 -0.3268182574
O  O24  1  0.85800000  0.09100000  0.30370000  1.0 -0.2099235503
O  O25  1  0.63260000  0.09230000  0.80730000  1.0 -0.1919428052
O  O26  1  0.63510000  0.07400000  0.92500000  1.0 -0.3268182574
O  O27  1  0.52700000  0.94570000  0.85670000  1.0 -0.3268182574
O  O28  1  0.64200000  0.09100000  0.80370000  1.0 -0.2099235503
O  O29  1  0.36740000  0.59230000  0.69270000  1.0 -0.1919428052
O  O30  1  0.36490000  0.57400000  0.57500000  1.0 -0.3268182574
O  O31  1  0.47300000  0.44570000  0.64330000  1.0 -0.3268182574
O  O32  1  0.35800000  0.59100000  0.69630000  1.0 -0.2099235503
