# DDEC6 charges by PACMAN v1.1 (https://github.com/mtap-research/PACMAN-charge/)
data_TOWTEH_ASR_pacman
_symmetry_space_group_name_H-M   'P 1'
_cell_length_a   14.46980000
_cell_length_b   17.17480000
_cell_length_c   26.83700000
_cell_angle_alpha   90.00000000
_cell_angle_beta   90.00000000
_cell_angle_gamma   90.00000000
_symmetry_Int_Tables_number   1
_chemical_formula_structural   NaH28C26(N3O)2
_chemical_formula_sum   'Na8 H224 C208 N48 O16'
_cell_volume   6669.42177295
_cell_formula_units_Z   8
loop_
 _symmetry_equiv_pos_site_id
 _symmetry_equiv_pos_as_xyz
  1  'x, y, z'
loop_
 _atom_site_type_symbol
 _atom_site_label
 _atom_site_symmetry_multiplicity
 _atom_site_fract_x
 _atom_site_fract_y
 _atom_site_fract_z
 _atom_site_occupancy
 _atom_site_charge
Na  Na1  1  0.31232000  0.02038000  0.13249000  1.0 0.7195489009
Na  Na2  1  0.68768000  0.52038000  0.36751000  1.0 0.7195489009
Na  Na3  1  0.81232000  0.52038000  0.86751000  1.0 0.7195489009
Na  Na4  1  0.18768000  0.02038000  0.63249000  1.0 0.7195489009
Na  Na5  1  0.18768000  0.47962000  0.13249000  1.0 0.7195489009
Na  Na6  1  0.81232000  0.97962000  0.36751000  1.0 0.7195489009
Na  Na7  1  0.68768000  0.97962000  0.86751000  1.0 0.7195489009
Na  Na8  1  0.31232000  0.47962000  0.63249000  1.0 0.7195489009
H  H1  1  0.46697000  0.96438000  0.22695000  1.0 0.0696124858
H  H2  1  0.49821000  0.88270000  0.20448000  1.0 0.051001991
H  H3  1  0.48135000  0.85103000  0.28339000  1.0 0.0696124858
H  H4  1  0.39728000  0.90994000  0.29114000  1.0 0.0696124858
H  H5  1  0.39148000  0.76130000  0.25436000  1.0 0.0696124858
H  H6  1  0.30816000  0.81163000  0.27630000  1.0 0.0799656311
H  H7  1  0.35983000  0.79558000  0.18088000  1.0 0.051001991
H  H8  1  0.26732000  0.83265000  0.20195000  1.0 0.0799656311
H  H9  1  0.31013000  0.05021000  0.52204000  1.0 0.0799656311
H  H10  1  0.27691000  0.09848000  0.44426000  1.0 0.1263203745
H  H11  1  0.09987000  0.24683000  0.51176000  1.0 0.1170858864
H  H12  1  0.14250000  0.19348000  0.58683000  1.0 0.0890871311
H  H13  1  0.29160000  0.09763000  0.32275000  1.0 0.1263203745
H  H14  1  0.34640000  0.04523000  0.25084000  1.0 0.0890871311
H  H15  1  0.17624000  0.16917000  0.16935000  1.0 0.0890871311
H  H16  1  0.11807000  0.22897000  0.23964000  1.0 0.1128469755
H  H17  1  0.99542000  0.37392000  0.29796000  1.0 0.1397103717
H  H18  1  0.87739000  0.46277000  0.29747000  1.0 0.1046613299
H  H19  1  0.83081000  0.43115000  0.43859000  1.0 0.0696124858
H  H20  1  0.95340000  0.34585000  0.44394000  1.0 0.1170858864
H  H21  1  0.48442000  0.90374000  0.21948000  1.0 0.051001991
H  H22  1  0.45827000  0.83951000  0.17947000  1.0 0.0696124858
H  H23  1  0.41212000  0.75991000  0.23515000  1.0 0.051001991
H  H24  1  0.46707000  0.81417000  0.27330000  1.0 0.0587265078
H  H25  1  0.29406000  0.79626000  0.27995000  1.0 0.0696124858
H  H26  1  0.34244000  0.87582000  0.29625000  1.0 0.051001991
H  H27  1  0.25181000  0.84158000  0.20886000  1.0 0.0587265078
H  H28  1  0.25021000  0.92036000  0.23975000  1.0 0.0587265078
H  H29  1  0.53303000  0.46438000  0.27305000  1.0 0.0696124858
H  H30  1  0.50179000  0.38270000  0.29552000  1.0 0.051001991
H  H31  1  0.51865000  0.35103000  0.21661000  1.0 0.0696124858
H  H32  1  0.60272000  0.40994000  0.20886000  1.0 0.0696124858
H  H33  1  0.60852000  0.26130000  0.24564000  1.0 0.0696124858
H  H34  1  0.69184000  0.31163000  0.22370000  1.0 0.0799656311
H  H35  1  0.64017000  0.29558000  0.31912000  1.0 0.051001991
H  H36  1  0.73268000  0.33265000  0.29805000  1.0 0.0799656311
H  H37  1  0.68987000  0.55021000  0.97796000  1.0 0.0799656311
H  H38  1  0.72309000  0.59848000  0.05574000  1.0 0.1263203745
H  H39  1  0.90013000  0.74683000  0.98824000  1.0 0.1170858864
H  H40  1  0.85750000  0.69348000  0.91317000  1.0 0.0890871311
H  H41  1  0.70840000  0.59763000  0.17725000  1.0 0.1263203745
H  H42  1  0.65360000  0.54523000  0.24916000  1.0 0.0890871311
H  H43  1  0.82376000  0.66917000  0.33065000  1.0 0.0890871311
H  H44  1  0.88193000  0.72897000  0.26036000  1.0 0.1128469755
H  H45  1  0.00458000  0.87392000  0.20204000  1.0 0.1397103717
H  H46  1  0.12261000  0.96277000  0.20253000  1.0 0.1046613299
H  H47  1  0.16919000  0.93115000  0.06141000  1.0 0.0696124858
H  H48  1  0.04660000  0.84585000  0.05606000  1.0 0.1170858864
H  H49  1  0.51558000  0.40374000  0.28052000  1.0 0.051001991
H  H50  1  0.54173000  0.33951000  0.32053000  1.0 0.0696124858
H  H51  1  0.58788000  0.25991000  0.26485000  1.0 0.051001991
H  H52  1  0.53293000  0.31417000  0.22670000  1.0 0.0587265078
H  H53  1  0.70594000  0.29626000  0.22005000  1.0 0.0696124858
H  H54  1  0.65756000  0.37582000  0.20375000  1.0 0.051001991
H  H55  1  0.74819000  0.34158000  0.29114000  1.0 0.0587265078
H  H56  1  0.74979000  0.42036000  0.26025000  1.0 0.0587265078
H  H57  1  0.96697000  0.46438000  0.77305000  1.0 0.0696124858
H  H58  1  0.99821000  0.38270000  0.79552000  1.0 0.051001991
H  H59  1  0.98135000  0.35103000  0.71661000  1.0 0.0696124858
H  H60  1  0.89728000  0.40994000  0.70886000  1.0 0.0696124858
H  H61  1  0.89148000  0.26130000  0.74564000  1.0 0.0696124858
H  H62  1  0.80816000  0.31163000  0.72370000  1.0 0.0799656311
H  H63  1  0.85983000  0.29558000  0.81912000  1.0 0.051001991
H  H64  1  0.76732000  0.33265000  0.79805000  1.0 0.0799656311
H  H65  1  0.81013000  0.55021000  0.47796000  1.0 0.0799656311
H  H66  1  0.77691000  0.59848000  0.55574000  1.0 0.1263203745
H  H67  1  0.59987000  0.74683000  0.48824000  1.0 0.1170858864
H  H68  1  0.64250000  0.69348000  0.41317000  1.0 0.0890871311
H  H69  1  0.79160000  0.59763000  0.67725000  1.0 0.1263203745
H  H70  1  0.84640000  0.54523000  0.74916000  1.0 0.0890871311
H  H71  1  0.67624000  0.66917000  0.83065000  1.0 0.0890871311
H  H72  1  0.61807000  0.72897000  0.76036000  1.0 0.1128469755
H  H73  1  0.49542000  0.87392000  0.70204000  1.0 0.1397103717
H  H74  1  0.37739000  0.96277000  0.70253000  1.0 0.1046613299
H  H75  1  0.33081000  0.93115000  0.56141000  1.0 0.0696124858
H  H76  1  0.45340000  0.84585000  0.55606000  1.0 0.1170858864
H  H77  1  0.98442000  0.40374000  0.78052000  1.0 0.051001991
H  H78  1  0.95827000  0.33951000  0.82053000  1.0 0.0696124858
H  H79  1  0.91212000  0.25991000  0.76485000  1.0 0.051001991
H  H80  1  0.96707000  0.31417000  0.72670000  1.0 0.0587265078
H  H81  1  0.79406000  0.29626000  0.72005000  1.0 0.0696124858
H  H82  1  0.84244000  0.37582000  0.70375000  1.0 0.051001991
H  H83  1  0.75181000  0.34158000  0.79114000  1.0 0.0587265078
H  H84  1  0.75021000  0.42036000  0.76025000  1.0 0.0587265078
H  H85  1  0.03303000  0.96438000  0.72695000  1.0 0.0696124858
H  H86  1  0.00179000  0.88270000  0.70448000  1.0 0.051001991
H  H87  1  0.01865000  0.85103000  0.78339000  1.0 0.0696124858
H  H88  1  0.10272000  0.90994000  0.79114000  1.0 0.0696124858
H  H89  1  0.10852000  0.76130000  0.75436000  1.0 0.0696124858
H  H90  1  0.19184000  0.81163000  0.77630000  1.0 0.0799656311
H  H91  1  0.14017000  0.79558000  0.68088000  1.0 0.051001991
H  H92  1  0.23268000  0.83265000  0.70195000  1.0 0.0799656311
H  H93  1  0.18987000  0.05021000  0.02204000  1.0 0.0799656311
H  H94  1  0.22309000  0.09848000  0.94426000  1.0 0.1263203745
H  H95  1  0.40013000  0.24683000  0.01176000  1.0 0.1170858864
H  H96  1  0.35750000  0.19348000  0.08683000  1.0 0.0890871311
H  H97  1  0.20840000  0.09763000  0.82275000  1.0 0.1263203745
H  H98  1  0.15360000  0.04523000  0.75084000  1.0 0.0890871311
H  H99  1  0.32376000  0.16917000  0.66935000  1.0 0.0890871311
H  H100  1  0.38193000  0.22897000  0.73964000  1.0 0.1128469755
H  H101  1  0.50458000  0.37392000  0.79796000  1.0 0.1397103717
H  H102  1  0.62261000  0.46277000  0.79747000  1.0 0.1046613299
H  H103  1  0.66919000  0.43115000  0.93859000  1.0 0.0696124858
H  H104  1  0.54660000  0.34585000  0.94394000  1.0 0.1170858864
H  H105  1  0.01558000  0.90374000  0.71948000  1.0 0.051001991
H  H106  1  0.04173000  0.83951000  0.67947000  1.0 0.0696124858
H  H107  1  0.08788000  0.75991000  0.73515000  1.0 0.051001991
H  H108  1  0.03293000  0.81417000  0.77330000  1.0 0.0587265078
H  H109  1  0.20594000  0.79626000  0.77995000  1.0 0.0696124858
H  H110  1  0.15756000  0.87582000  0.79625000  1.0 0.051001991
H  H111  1  0.24819000  0.84158000  0.70886000  1.0 0.0587265078
H  H112  1  0.24979000  0.92036000  0.73975000  1.0 0.0587265078
H  H113  1  0.03303000  0.53562000  0.22695000  1.0 0.0696124858
H  H114  1  0.00179000  0.61730000  0.20448000  1.0 0.051001991
H  H115  1  0.01865000  0.64897000  0.28339000  1.0 0.0696124858
H  H116  1  0.10272000  0.59006000  0.29114000  1.0 0.0696124858
H  H117  1  0.10852000  0.73870000  0.25436000  1.0 0.0696124858
H  H118  1  0.19184000  0.68837000  0.27630000  1.0 0.0799656311
H  H119  1  0.14017000  0.70442000  0.18088000  1.0 0.051001991
H  H120  1  0.23268000  0.66735000  0.20195000  1.0 0.0799656311
H  H121  1  0.18987000  0.44979000  0.52204000  1.0 0.0799656311
H  H122  1  0.22309000  0.40152000  0.44426000  1.0 0.1263203745
H  H123  1  0.40013000  0.25317000  0.51176000  1.0 0.1170858864
H  H124  1  0.35750000  0.30652000  0.58683000  1.0 0.0890871311
H  H125  1  0.20840000  0.40237000  0.32275000  1.0 0.1263203745
H  H126  1  0.15360000  0.45477000  0.25084000  1.0 0.0890871311
H  H127  1  0.32376000  0.33083000  0.16935000  1.0 0.0890871311
H  H128  1  0.38193000  0.27103000  0.23964000  1.0 0.1128469755
H  H129  1  0.50458000  0.12608000  0.29796000  1.0 0.1397103717
H  H130  1  0.62261000  0.03723000  0.29747000  1.0 0.1046613299
H  H131  1  0.66919000  0.06885000  0.43859000  1.0 0.0696124858
H  H132  1  0.54660000  0.15415000  0.44394000  1.0 0.1170858864
H  H133  1  0.01558000  0.59626000  0.21948000  1.0 0.051001991
H  H134  1  0.04173000  0.66049000  0.17947000  1.0 0.0696124858
H  H135  1  0.08788000  0.74009000  0.23515000  1.0 0.051001991
H  H136  1  0.03293000  0.68583000  0.27330000  1.0 0.0587265078
H  H137  1  0.20594000  0.70374000  0.27995000  1.0 0.0696124858
H  H138  1  0.15756000  0.62418000  0.29625000  1.0 0.051001991
H  H139  1  0.24819000  0.65842000  0.20886000  1.0 0.0587265078
H  H140  1  0.24979000  0.57964000  0.23975000  1.0 0.0587265078
H  H141  1  0.96697000  0.03562000  0.27305000  1.0 0.0696124858
H  H142  1  0.99821000  0.11730000  0.29552000  1.0 0.051001991
H  H143  1  0.98135000  0.14897000  0.21661000  1.0 0.0696124858
H  H144  1  0.89728000  0.09006000  0.20886000  1.0 0.0696124858
H  H145  1  0.89148000  0.23870000  0.24564000  1.0 0.0696124858
H  H146  1  0.80816000  0.18837000  0.22370000  1.0 0.0799656311
H  H147  1  0.85983000  0.20442000  0.31912000  1.0 0.051001991
H  H148  1  0.76732000  0.16735000  0.29805000  1.0 0.0799656311
H  H149  1  0.81013000  0.94979000  0.97796000  1.0 0.0799656311
H  H150  1  0.77691000  0.90152000  0.05574000  1.0 0.1263203745
H  H151  1  0.59987000  0.75317000  0.98824000  1.0 0.1170858864
H  H152  1  0.64250000  0.80652000  0.91317000  1.0 0.0890871311
H  H153  1  0.79160000  0.90237000  0.17725000  1.0 0.1263203745
H  H154  1  0.84640000  0.95477000  0.24916000  1.0 0.0890871311
H  H155  1  0.67624000  0.83083000  0.33065000  1.0 0.0890871311
H  H156  1  0.61807000  0.77103000  0.26036000  1.0 0.1128469755
H  H157  1  0.49542000  0.62608000  0.20204000  1.0 0.1397103717
H  H158  1  0.37739000  0.53723000  0.20253000  1.0 0.1046613299
H  H159  1  0.33081000  0.56885000  0.06141000  1.0 0.0696124858
H  H160  1  0.45340000  0.65415000  0.05606000  1.0 0.1170858864
H  H161  1  0.98442000  0.09626000  0.28052000  1.0 0.051001991
H  H162  1  0.95827000  0.16049000  0.32053000  1.0 0.0696124858
H  H163  1  0.91212000  0.24009000  0.26485000  1.0 0.051001991
H  H164  1  0.96707000  0.18583000  0.22670000  1.0 0.0587265078
H  H165  1  0.79406000  0.20374000  0.22005000  1.0 0.0696124858
H  H166  1  0.84244000  0.12418000  0.20375000  1.0 0.051001991
H  H167  1  0.75181000  0.15842000  0.29114000  1.0 0.0587265078
H  H168  1  0.75021000  0.07964000  0.26025000  1.0 0.0587265078
H  H169  1  0.53303000  0.03562000  0.77305000  1.0 0.0696124858
H  H170  1  0.50179000  0.11730000  0.79552000  1.0 0.051001991
H  H171  1  0.51865000  0.14897000  0.71661000  1.0 0.0696124858
H  H172  1  0.60272000  0.09006000  0.70886000  1.0 0.0696124858
H  H173  1  0.60852000  0.23870000  0.74564000  1.0 0.0696124858
H  H174  1  0.69184000  0.18837000  0.72370000  1.0 0.0799656311
H  H175  1  0.64017000  0.20442000  0.81912000  1.0 0.051001991
H  H176  1  0.73268000  0.16735000  0.79805000  1.0 0.0799656311
H  H177  1  0.68987000  0.94979000  0.47796000  1.0 0.0799656311
H  H178  1  0.72309000  0.90152000  0.55574000  1.0 0.1263203745
H  H179  1  0.90013000  0.75317000  0.48824000  1.0 0.1170858864
H  H180  1  0.85750000  0.80652000  0.41317000  1.0 0.0890871311
H  H181  1  0.70840000  0.90237000  0.67725000  1.0 0.1263203745
H  H182  1  0.65360000  0.95477000  0.74916000  1.0 0.0890871311
H  H183  1  0.82376000  0.83083000  0.83065000  1.0 0.0890871311
H  H184  1  0.88193000  0.77103000  0.76036000  1.0 0.1128469755
H  H185  1  0.00458000  0.62608000  0.70204000  1.0 0.1397103717
H  H186  1  0.12261000  0.53723000  0.70253000  1.0 0.1046613299
H  H187  1  0.16919000  0.56885000  0.56141000  1.0 0.0696124858
H  H188  1  0.04660000  0.65415000  0.55606000  1.0 0.1170858864
H  H189  1  0.51558000  0.09626000  0.78052000  1.0 0.051001991
H  H190  1  0.54173000  0.16049000  0.82053000  1.0 0.0696124858
H  H191  1  0.58788000  0.24009000  0.76485000  1.0 0.051001991
H  H192  1  0.53293000  0.18583000  0.72670000  1.0 0.0587265078
H  H193  1  0.70594000  0.20374000  0.72005000  1.0 0.0696124858
H  H194  1  0.65756000  0.12418000  0.70375000  1.0 0.051001991
H  H195  1  0.74819000  0.15842000  0.79114000  1.0 0.0587265078
H  H196  1  0.74979000  0.07964000  0.76025000  1.0 0.0587265078
H  H197  1  0.46697000  0.53562000  0.72695000  1.0 0.0696124858
H  H198  1  0.49821000  0.61730000  0.70448000  1.0 0.051001991
H  H199  1  0.48135000  0.64897000  0.78339000  1.0 0.0696124858
H  H200  1  0.39728000  0.59006000  0.79114000  1.0 0.0696124858
H  H201  1  0.39148000  0.73870000  0.75436000  1.0 0.0696124858
H  H202  1  0.30816000  0.68837000  0.77630000  1.0 0.0799656311
H  H203  1  0.35983000  0.70442000  0.68088000  1.0 0.051001991
H  H204  1  0.26732000  0.66735000  0.70195000  1.0 0.0799656311
H  H205  1  0.31013000  0.44979000  0.02204000  1.0 0.0799656311
H  H206  1  0.27691000  0.40152000  0.94426000  1.0 0.1263203745
H  H207  1  0.09987000  0.25317000  0.01176000  1.0 0.1170858864
H  H208  1  0.14250000  0.30652000  0.08683000  1.0 0.0890871311
H  H209  1  0.29160000  0.40237000  0.82275000  1.0 0.1263203745
H  H210  1  0.34640000  0.45477000  0.75084000  1.0 0.0890871311
H  H211  1  0.17624000  0.33083000  0.66935000  1.0 0.0890871311
H  H212  1  0.11807000  0.27103000  0.73964000  1.0 0.1128469755
H  H213  1  0.99542000  0.12608000  0.79796000  1.0 0.1397103717
H  H214  1  0.87739000  0.03723000  0.79747000  1.0 0.1046613299
H  H215  1  0.83081000  0.06885000  0.93859000  1.0 0.0696124858
H  H216  1  0.95340000  0.15415000  0.94394000  1.0 0.1170858864
H  H217  1  0.48442000  0.59626000  0.71948000  1.0 0.051001991
H  H218  1  0.45827000  0.66049000  0.67947000  1.0 0.0696124858
H  H219  1  0.41212000  0.74009000  0.73515000  1.0 0.051001991
H  H220  1  0.46707000  0.68583000  0.77330000  1.0 0.0587265078
H  H221  1  0.29406000  0.70374000  0.77995000  1.0 0.0696124858
H  H222  1  0.34244000  0.62418000  0.79625000  1.0 0.051001991
H  H223  1  0.25181000  0.65842000  0.70886000  1.0 0.0587265078
H  H224  1  0.25021000  0.57964000  0.73975000  1.0 0.0587265078
C  C1  1  0.44790000  0.91030000  0.22130000  1.0 -0.0033973867
C  C2  1  0.42590000  0.87310000  0.26790000  1.0 -0.1323460896
C  C3  1  0.36160000  0.81250000  0.25390000  1.0 -0.1123705813
C  C4  1  0.33490000  0.83350000  0.20460000  1.0 0.0287750301
C  C5  1  0.26530000  0.08970000  0.51980000  1.0 0.051001991
C  C6  1  0.24620000  0.11830000  0.47240000  1.0 -0.1900473914
C  C7  1  0.17960000  0.17780000  0.46780000  1.0 0.0410996817
C  C8  1  0.14250000  0.20550000  0.51230000  1.0 -0.1720461098
C  C9  1  0.15280000  0.20860000  0.41940000  1.0 0.3365343597
C  C10  1  0.16800000  0.17250000  0.55750000  1.0 0.0287750301
C  C11  1  0.15980000  0.20510000  0.33460000  1.0 0.3308366288
C  C12  1  0.06150000  0.28810000  0.37350000  1.0 0.3658725147
C  C13  1  0.98680000  0.34810000  0.37100000  1.0 0.051001991
C  C14  1  0.26710000  0.11370000  0.29200000  1.0 -0.1900473914
C  C15  1  0.19670000  0.17060000  0.29000000  1.0 0.0410996817
C  C16  1  0.29890000  0.08240000  0.24850000  1.0 0.0287750301
C  C17  1  0.19990000  0.15510000  0.20070000  1.0 0.0287750301
C  C18  1  0.16430000  0.19090000  0.24290000  1.0 -0.2200166794
C  C19  1  0.96320000  0.38470000  0.32760000  1.0 -0.2777578968
C  C20  1  0.89170000  0.43770000  0.32760000  1.0 -0.0395857759
C  C21  1  0.86520000  0.42010000  0.40970000  1.0 0.051001991
C  C22  1  0.93770000  0.36780000  0.41300000  1.0 -0.1720461098
C  C23  1  0.43600000  0.86800000  0.20890000  1.0 0.0587265078
C  C24  1  0.41800000  0.81300000  0.24820000  1.0 -0.1123705813
C  C25  1  0.33200000  0.84000000  0.26840000  1.0 -0.1123705813
C  C26  1  0.29020000  0.87800000  0.22750000  1.0 -0.0302376419
C  C27  1  0.55210000  0.41030000  0.27870000  1.0 -0.0033973867
C  C28  1  0.57410000  0.37310000  0.23210000  1.0 -0.1323460896
C  C29  1  0.63840000  0.31250000  0.24610000  1.0 -0.1123705813
C  C30  1  0.66510000  0.33350000  0.29540000  1.0 0.0287750301
C  C31  1  0.73470000  0.58970000  0.98020000  1.0 0.051001991
C  C32  1  0.75380000  0.61830000  0.02760000  1.0 -0.1900473914
C  C33  1  0.82040000  0.67780000  0.03220000  1.0 0.0410996817
C  C34  1  0.85750000  0.70550000  0.98770000  1.0 -0.1720461098
C  C35  1  0.84720000  0.70860000  0.08060000  1.0 0.3365343597
C  C36  1  0.83200000  0.67250000  0.94250000  1.0 0.0287750301
C  C37  1  0.84020000  0.70510000  0.16540000  1.0 0.3308366288
C  C38  1  0.93850000  0.78810000  0.12650000  1.0 0.3658725147
C  C39  1  0.01320000  0.84810000  0.12900000  1.0 0.051001991
C  C40  1  0.73290000  0.61370000  0.20800000  1.0 -0.1900473914
C  C41  1  0.80330000  0.67060000  0.21000000  1.0 0.0410996817
C  C42  1  0.70110000  0.58240000  0.25150000  1.0 0.0287750301
C  C43  1  0.80010000  0.65510000  0.29930000  1.0 0.0287750301
C  C44  1  0.83570000  0.69090000  0.25710000  1.0 -0.2200166794
C  C45  1  0.03680000  0.88470000  0.17240000  1.0 -0.2777578968
C  C46  1  0.10830000  0.93770000  0.17240000  1.0 -0.0395857759
C  C47  1  0.13480000  0.92010000  0.09030000  1.0 0.051001991
C  C48  1  0.06230000  0.86780000  0.08700000  1.0 -0.1720461098
C  C49  1  0.56400000  0.36800000  0.29110000  1.0 0.0587265078
C  C50  1  0.58200000  0.31300000  0.25180000  1.0 -0.1123705813
C  C51  1  0.66800000  0.34000000  0.23160000  1.0 -0.1123705813
C  C52  1  0.70980000  0.37800000  0.27250000  1.0 -0.0302376419
C  C53  1  0.94790000  0.41030000  0.77870000  1.0 -0.0033973867
C  C54  1  0.92590000  0.37310000  0.73210000  1.0 -0.1323460896
C  C55  1  0.86160000  0.31250000  0.74610000  1.0 -0.1123705813
C  C56  1  0.83490000  0.33350000  0.79540000  1.0 0.0287750301
C  C57  1  0.76530000  0.58970000  0.48020000  1.0 0.051001991
C  C58  1  0.74620000  0.61830000  0.52760000  1.0 -0.1900473914
C  C59  1  0.67960000  0.67780000  0.53220000  1.0 0.0410996817
C  C60  1  0.64250000  0.70550000  0.48770000  1.0 -0.1720461098
C  C61  1  0.65280000  0.70860000  0.58060000  1.0 0.3365343597
C  C62  1  0.66800000  0.67250000  0.44250000  1.0 0.0287750301
C  C63  1  0.65980000  0.70510000  0.66540000  1.0 0.3308366288
C  C64  1  0.56150000  0.78810000  0.62650000  1.0 0.3658725147
C  C65  1  0.48680000  0.84810000  0.62900000  1.0 0.051001991
C  C66  1  0.76710000  0.61370000  0.70800000  1.0 -0.1900473914
C  C67  1  0.69670000  0.67060000  0.71000000  1.0 0.0410996817
C  C68  1  0.79890000  0.58240000  0.75150000  1.0 0.0287750301
C  C69  1  0.69990000  0.65510000  0.79930000  1.0 0.0287750301
C  C70  1  0.66430000  0.69090000  0.75710000  1.0 -0.2200166794
C  C71  1  0.46320000  0.88470000  0.67240000  1.0 -0.2777578968
C  C72  1  0.39170000  0.93770000  0.67240000  1.0 -0.0395857759
C  C73  1  0.36520000  0.92010000  0.59030000  1.0 0.051001991
C  C74  1  0.43770000  0.86780000  0.58700000  1.0 -0.1720461098
C  C75  1  0.93600000  0.36800000  0.79110000  1.0 0.0587265078
C  C76  1  0.91800000  0.31300000  0.75180000  1.0 -0.1123705813
C  C77  1  0.83200000  0.34000000  0.73160000  1.0 -0.1123705813
C  C78  1  0.79020000  0.37800000  0.77250000  1.0 -0.0302376419
C  C79  1  0.05210000  0.91030000  0.72130000  1.0 -0.0033973867
C  C80  1  0.07410000  0.87310000  0.76790000  1.0 -0.1323460896
C  C81  1  0.13840000  0.81250000  0.75390000  1.0 -0.1123705813
C  C82  1  0.16510000  0.83350000  0.70460000  1.0 0.0287750301
C  C83  1  0.23470000  0.08970000  0.01980000  1.0 0.051001991
C  C84  1  0.25380000  0.11830000  0.97240000  1.0 -0.1900473914
C  C85  1  0.32040000  0.17780000  0.96780000  1.0 0.0410996817
C  C86  1  0.35750000  0.20550000  0.01230000  1.0 -0.1720461098
C  C87  1  0.34720000  0.20860000  0.91940000  1.0 0.3365343597
C  C88  1  0.33200000  0.17250000  0.05750000  1.0 0.0287750301
C  C89  1  0.34020000  0.20510000  0.83460000  1.0 0.3308366288
C  C90  1  0.43850000  0.28810000  0.87350000  1.0 0.3658725147
C  C91  1  0.51320000  0.34810000  0.87100000  1.0 0.051001991
C  C92  1  0.23290000  0.11370000  0.79200000  1.0 -0.1900473914
C  C93  1  0.30330000  0.17060000  0.79000000  1.0 0.0410996817
C  C94  1  0.20110000  0.08240000  0.74850000  1.0 0.0287750301
C  C95  1  0.30010000  0.15510000  0.70070000  1.0 0.0287750301
C  C96  1  0.33570000  0.19090000  0.74290000  1.0 -0.2200166794
C  C97  1  0.53680000  0.38470000  0.82760000  1.0 -0.2777578968
C  C98  1  0.60830000  0.43770000  0.82760000  1.0 -0.0395857759
C  C99  1  0.63480000  0.42010000  0.90970000  1.0 0.051001991
C  C100  1  0.56230000  0.36780000  0.91300000  1.0 -0.1720461098
C  C101  1  0.06400000  0.86800000  0.70890000  1.0 0.0587265078
C  C102  1  0.08200000  0.81300000  0.74820000  1.0 -0.1154381956
C  C103  1  0.16800000  0.84000000  0.76840000  1.0 -0.1154381956
C  C104  1  0.20980000  0.87800000  0.72750000  1.0 -0.0302376419
C  C105  1  0.05210000  0.58970000  0.22130000  1.0 -0.0033973867
C  C106  1  0.07410000  0.62690000  0.26790000  1.0 -0.1323460896
C  C107  1  0.13840000  0.68750000  0.25390000  1.0 -0.1123705813
C  C108  1  0.16510000  0.66650000  0.20460000  1.0 0.0287750301
C  C109  1  0.23470000  0.41030000  0.51980000  1.0 0.051001991
C  C110  1  0.25380000  0.38170000  0.47240000  1.0 -0.1900473914
C  C111  1  0.32040000  0.32220000  0.46780000  1.0 0.0410996817
C  C112  1  0.35750000  0.29450000  0.51230000  1.0 -0.1720461098
C  C113  1  0.34720000  0.29140000  0.41940000  1.0 0.3365343597
C  C114  1  0.33200000  0.32750000  0.55750000  1.0 0.0287750301
C  C115  1  0.34020000  0.29490000  0.33460000  1.0 0.3308366288
C  C116  1  0.43850000  0.21190000  0.37350000  1.0 0.3658725147
C  C117  1  0.51320000  0.15190000  0.37100000  1.0 0.051001991
C  C118  1  0.23290000  0.38630000  0.29200000  1.0 -0.1900473914
C  C119  1  0.30330000  0.32940000  0.29000000  1.0 0.0410996817
C  C120  1  0.20110000  0.41760000  0.24850000  1.0 0.0287750301
C  C121  1  0.30010000  0.34490000  0.20070000  1.0 0.0287750301
C  C122  1  0.33570000  0.30910000  0.24290000  1.0 -0.2200166794
C  C123  1  0.53680000  0.11530000  0.32760000  1.0 -0.2777578968
C  C124  1  0.60830000  0.06230000  0.32760000  1.0 -0.0395857759
C  C125  1  0.63480000  0.07990000  0.40970000  1.0 0.051001991
C  C126  1  0.56230000  0.13220000  0.41300000  1.0 -0.1720461098
C  C127  1  0.06400000  0.63200000  0.20890000  1.0 0.0587265078
C  C128  1  0.08200000  0.68700000  0.24820000  1.0 -0.1123705813
C  C129  1  0.16800000  0.66000000  0.26840000  1.0 -0.1123705813
C  C130  1  0.20980000  0.62200000  0.22750000  1.0 -0.0302376419
C  C131  1  0.94790000  0.08970000  0.27870000  1.0 -0.0033973867
C  C132  1  0.92590000  0.12690000  0.23210000  1.0 -0.1323460896
C  C133  1  0.86160000  0.18750000  0.24610000  1.0 -0.1123705813
C  C134  1  0.83490000  0.16650000  0.29540000  1.0 0.0287750301
C  C135  1  0.76530000  0.91030000  0.98020000  1.0 0.051001991
C  C136  1  0.74620000  0.88170000  0.02760000  1.0 -0.1900473914
C  C137  1  0.67960000  0.82220000  0.03220000  1.0 0.0410996817
C  C138  1  0.64250000  0.79450000  0.98770000  1.0 -0.1720461098
C  C139  1  0.65280000  0.79140000  0.08060000  1.0 0.3365343597
C  C140  1  0.66800000  0.82750000  0.94250000  1.0 0.0287750301
C  C141  1  0.65980000  0.79490000  0.16540000  1.0 0.3308366288
C  C142  1  0.56150000  0.71190000  0.12650000  1.0 0.3658725147
C  C143  1  0.48680000  0.65190000  0.12900000  1.0 0.051001991
C  C144  1  0.76710000  0.88630000  0.20800000  1.0 -0.1900473914
C  C145  1  0.69670000  0.82940000  0.21000000  1.0 0.0410996817
C  C146  1  0.79890000  0.91760000  0.25150000  1.0 0.0287750301
C  C147  1  0.69990000  0.84490000  0.29930000  1.0 0.0287750301
C  C148  1  0.66430000  0.80910000  0.25710000  1.0 -0.2200166794
C  C149  1  0.46320000  0.61530000  0.17240000  1.0 -0.2777578968
C  C150  1  0.39170000  0.56230000  0.17240000  1.0 -0.0395857759
C  C151  1  0.36520000  0.57990000  0.09030000  1.0 0.051001991
C  C152  1  0.43770000  0.63220000  0.08700000  1.0 -0.1720461098
C  C153  1  0.93600000  0.13200000  0.29110000  1.0 0.0587265078
C  C154  1  0.91800000  0.18700000  0.25180000  1.0 -0.1123705813
C  C155  1  0.83200000  0.16000000  0.23160000  1.0 -0.1123705813
C  C156  1  0.79020000  0.12200000  0.27250000  1.0 -0.0302376419
C  C157  1  0.55210000  0.08970000  0.77870000  1.0 -0.0033973867
C  C158  1  0.57410000  0.12690000  0.73210000  1.0 -0.1323460896
C  C159  1  0.63840000  0.18750000  0.74610000  1.0 -0.1123705813
C  C160  1  0.66510000  0.16650000  0.79540000  1.0 0.0287750301
C  C161  1  0.73470000  0.91030000  0.48020000  1.0 0.051001991
C  C162  1  0.75380000  0.88170000  0.52760000  1.0 -0.1900473914
C  C163  1  0.82040000  0.82220000  0.53220000  1.0 0.0410996817
C  C164  1  0.85750000  0.79450000  0.48770000  1.0 -0.1720461098
C  C165  1  0.84720000  0.79140000  0.58060000  1.0 0.3365343597
C  C166  1  0.83200000  0.82750000  0.44250000  1.0 0.0287750301
C  C167  1  0.84020000  0.79490000  0.66540000  1.0 0.3308366288
C  C168  1  0.93850000  0.71190000  0.62650000  1.0 0.3658725147
C  C169  1  0.01320000  0.65190000  0.62900000  1.0 0.051001991
C  C170  1  0.73290000  0.88630000  0.70800000  1.0 -0.1900473914
C  C171  1  0.80330000  0.82940000  0.71000000  1.0 0.0410996817
C  C172  1  0.70110000  0.91760000  0.75150000  1.0 0.0287750301
C  C173  1  0.80010000  0.84490000  0.79930000  1.0 0.0287750301
C  C174  1  0.83570000  0.80910000  0.75710000  1.0 -0.2200166794
C  C175  1  0.03680000  0.61530000  0.67240000  1.0 -0.2777578968
C  C176  1  0.10830000  0.56230000  0.67240000  1.0 -0.0395857759
C  C177  1  0.13480000  0.57990000  0.59030000  1.0 0.051001991
C  C178  1  0.06230000  0.63220000  0.58700000  1.0 -0.1720461098
C  C179  1  0.56400000  0.13200000  0.79110000  1.0 0.0587265078
C  C180  1  0.58200000  0.18700000  0.75180000  1.0 -0.1123705813
C  C181  1  0.66800000  0.16000000  0.73160000  1.0 -0.1123705813
C  C182  1  0.70980000  0.12200000  0.77250000  1.0 -0.0302376419
C  C183  1  0.44790000  0.58970000  0.72130000  1.0 -0.0033973867
C  C184  1  0.42590000  0.62690000  0.76790000  1.0 -0.1323460896
C  C185  1  0.36160000  0.68750000  0.75390000  1.0 -0.1123705813
C  C186  1  0.33490000  0.66650000  0.70460000  1.0 0.0287750301
C  C187  1  0.26530000  0.41030000  0.01980000  1.0 0.051001991
C  C188  1  0.24620000  0.38170000  0.97240000  1.0 -0.1900473914
C  C189  1  0.17960000  0.32220000  0.96780000  1.0 0.0410996817
C  C190  1  0.14250000  0.29450000  0.01230000  1.0 -0.1720461098
C  C191  1  0.15280000  0.29140000  0.91940000  1.0 0.3365343597
C  C192  1  0.16800000  0.32750000  0.05750000  1.0 0.0287750301
C  C193  1  0.15980000  0.29490000  0.83460000  1.0 0.3308366288
C  C194  1  0.06150000  0.21190000  0.87350000  1.0 0.3658725147
C  C195  1  0.98680000  0.15190000  0.87100000  1.0 0.051001991
C  C196  1  0.26710000  0.38630000  0.79200000  1.0 -0.1900473914
C  C197  1  0.19670000  0.32940000  0.79000000  1.0 0.0410996817
C  C198  1  0.29890000  0.41760000  0.74850000  1.0 0.0287750301
C  C199  1  0.19990000  0.34490000  0.70070000  1.0 0.0287750301
C  C200  1  0.16430000  0.30910000  0.74290000  1.0 -0.2200166794
C  C201  1  0.96320000  0.11530000  0.82760000  1.0 -0.2777578968
C  C202  1  0.89170000  0.06230000  0.82760000  1.0 -0.0395857759
C  C203  1  0.86520000  0.07990000  0.90970000  1.0 0.051001991
C  C204  1  0.93770000  0.13220000  0.91300000  1.0 -0.1720461098
C  C205  1  0.43600000  0.63200000  0.70890000  1.0 0.0587265078
C  C206  1  0.41800000  0.68700000  0.74820000  1.0 -0.1123705813
C  C207  1  0.33200000  0.66000000  0.76840000  1.0 -0.1123705813
C  C208  1  0.29020000  0.62200000  0.72750000  1.0 -0.0302376419
N  N1  1  0.22690000  0.11220000  0.56200000  1.0 -0.3506746355
N  N2  1  0.26830000  0.10020000  0.20300000  1.0 -0.3289056222
N  N3  1  0.84190000  0.45570000  0.36720000  1.0 -0.2777578968
N  N4  1  0.18940000  0.17730000  0.37880000  1.0 -0.3872945707
N  N5  1  0.09100000  0.26050000  0.33004000  1.0 -0.4684689592
N  N6  1  0.08650000  0.26510000  0.41989000  1.0 -0.4310740556
N  N7  1  0.77310000  0.61220000  0.93800000  1.0 -0.3506746355
N  N8  1  0.73170000  0.60020000  0.29700000  1.0 -0.3289056222
N  N9  1  0.15810000  0.95570000  0.13280000  1.0 -0.2777578968
N  N10  1  0.81060000  0.67730000  0.12120000  1.0 -0.3872945707
N  N11  1  0.90900000  0.76050000  0.16996000  1.0 -0.4684689592
N  N12  1  0.91350000  0.76510000  0.08011000  1.0 -0.4310740556
N  N13  1  0.72690000  0.61220000  0.43800000  1.0 -0.3506746355
N  N14  1  0.76830000  0.60020000  0.79700000  1.0 -0.3289056222
N  N15  1  0.34190000  0.95570000  0.63280000  1.0 -0.2777578968
N  N16  1  0.68940000  0.67730000  0.62120000  1.0 -0.3872945707
N  N17  1  0.59100000  0.76050000  0.66996000  1.0 -0.4684689592
N  N18  1  0.58650000  0.76510000  0.58011000  1.0 -0.4310740556
N  N19  1  0.27310000  0.11220000  0.06200000  1.0 -0.3506746355
N  N20  1  0.23170000  0.10020000  0.70300000  1.0 -0.3289056222
N  N21  1  0.65810000  0.45570000  0.86720000  1.0 -0.2777578968
N  N22  1  0.31060000  0.17730000  0.87880000  1.0 -0.3872945707
N  N23  1  0.40900000  0.26050000  0.83004000  1.0 -0.4684689592
N  N24  1  0.41350000  0.26510000  0.91989000  1.0 -0.4310740556
N  N25  1  0.27310000  0.38780000  0.56200000  1.0 -0.3506746355
N  N26  1  0.23170000  0.39980000  0.20300000  1.0 -0.3289056222
N  N27  1  0.65810000  0.04430000  0.36720000  1.0 -0.2777578968
N  N28  1  0.31060000  0.32270000  0.37880000  1.0 -0.3872945707
N  N29  1  0.40900000  0.23950000  0.33004000  1.0 -0.4684689592
N  N30  1  0.41350000  0.23490000  0.41989000  1.0 -0.4310740556
N  N31  1  0.72690000  0.88780000  0.93800000  1.0 -0.3506746355
N  N32  1  0.76830000  0.89980000  0.29700000  1.0 -0.3289056222
N  N33  1  0.34190000  0.54430000  0.13280000  1.0 -0.2777578968
N  N34  1  0.68940000  0.82270000  0.12120000  1.0 -0.3872945707
N  N35  1  0.59100000  0.73950000  0.16996000  1.0 -0.4684689592
N  N36  1  0.58650000  0.73490000  0.08011000  1.0 -0.4310740556
N  N37  1  0.77310000  0.88780000  0.43800000  1.0 -0.3506746355
N  N38  1  0.73170000  0.89980000  0.79700000  1.0 -0.3289056222
N  N39  1  0.15810000  0.54430000  0.63280000  1.0 -0.2777578968
N  N40  1  0.81060000  0.82270000  0.62120000  1.0 -0.3872945707
N  N41  1  0.90900000  0.73950000  0.66996000  1.0 -0.4684689592
N  N42  1  0.91350000  0.73490000  0.58011000  1.0 -0.4310740556
N  N43  1  0.22690000  0.38780000  0.06200000  1.0 -0.3506746355
N  N44  1  0.26830000  0.39980000  0.70300000  1.0 -0.3289056222
N  N45  1  0.84190000  0.04430000  0.86720000  1.0 -0.2777578968
N  N46  1  0.18940000  0.32270000  0.87880000  1.0 -0.3872945707
N  N47  1  0.09100000  0.23950000  0.83004000  1.0 -0.4684689592
N  N48  1  0.08650000  0.23490000  0.91989000  1.0 -0.4310740556
O  O1  1  0.36740000  0.90770000  0.19270000  1.0 -0.2018911938
O  O2  1  0.35800000  0.90900000  0.19630000  1.0 -0.2200166794
O  O3  1  0.63260000  0.40770000  0.30730000  1.0 -0.2018911938
O  O4  1  0.64200000  0.40900000  0.30370000  1.0 -0.2200166794
O  O5  1  0.86740000  0.40770000  0.80730000  1.0 -0.2018911938
O  O6  1  0.85800000  0.40900000  0.80370000  1.0 -0.2200166794
O  O7  1  0.13260000  0.90770000  0.69270000  1.0 -0.2018911938
O  O8  1  0.14200000  0.90900000  0.69630000  1.0 -0.2200166794
O  O9  1  0.13260000  0.59230000  0.19270000  1.0 -0.2018911938
O  O10  1  0.14200000  0.59100000  0.19630000  1.0 -0.2200166794
O  O11  1  0.86740000  0.09230000  0.30730000  1.0 -0.2018911938
O  O12  1  0.85800000  0.09100000  0.30370000  1.0 -0.2200166794
O  O13  1  0.63260000  0.09230000  0.80730000  1.0 -0.2018911938
O  O14  1  0.64200000  0.09100000  0.80370000  1.0 -0.2200166794
O  O15  1  0.36740000  0.59230000  0.69270000  1.0 -0.2018911938
O  O16  1  0.35800000  0.59100000  0.69630000  1.0 -0.2200166794
