# DDEC6 charges by PACMAN v1.1 (https://github.com/mtap-research/PACMAN-charge/)
data_TOWTOR_FSR_pacman
_symmetry_space_group_name_H-M   'P 1'
_cell_length_a   13.22630000
_cell_length_b   13.22630000
_cell_length_c   21.15200000
_cell_angle_alpha   78.11420000
_cell_angle_beta   101.88600000
_cell_angle_gamma   113.85600000
_symmetry_Int_Tables_number   1
_chemical_formula_structural   NaH36C30(N2O)3
_chemical_formula_sum   'Na4 H144 C120 N24 O12'
_cell_volume   3280.28755135
_cell_formula_units_Z   4
loop_
 _symmetry_equiv_pos_site_id
 _symmetry_equiv_pos_as_xyz
  1  'x, y, z'
loop_
 _atom_site_type_symbol
 _atom_site_label
 _atom_site_symmetry_multiplicity
 _atom_site_fract_x
 _atom_site_fract_y
 _atom_site_fract_z
 _atom_site_occupancy
 _atom_site_charge
Na  Na1  1  0.20658000  0.44162000  0.36516000  1.0 0.7192541443
Na  Na2  1  0.55838000  0.79342000  0.86516000  1.0 0.7192541443
Na  Na3  1  0.44162000  0.20658000  0.13484000  1.0 0.7192541443
Na  Na4  1  0.79342000  0.55838000  0.63484000  1.0 0.7192541443
H  H1  1  0.11414000  0.26228000  0.25016000  1.0 0.0912823388
H  H2  1  0.00954000  0.24096000  0.14812000  1.0 0.1217324469
H  H3  1  0.02629000  0.55145000  0.13571000  1.0 0.1217324469
H  H4  1  0.12548000  0.56012000  0.23576000  1.0 0.0912823388
H  H5  1  0.23972000  0.76568000  0.36002000  1.0 0.098287107
H  H6  1  0.25900000  0.72616000  0.29990000  1.0 0.0912823388
H  H7  1  0.81070000  0.07398000  0.03455000  1.0 0.1305145909
H  H8  1  0.23665000  0.60819000  0.49823000  1.0 0.098287107
H  H9  1  0.12908000  0.49806000  0.49398000  1.0 0.0912823388
H  H10  1  0.72791000  0.91525000  0.98643000  1.0 0.098287107
H  H11  1  0.66330000  0.07104000  0.82209000  1.0 0.0912823388
H  H12  1  0.74216000  0.23958000  0.85979000  1.0 0.1217324469
H  H13  1  0.14136000  0.84292000  0.28458000  1.0 0.098287107
H  H14  1  0.11464000  0.75452000  0.23702000  1.0 0.098287107
H  H15  1  0.95433000  0.65835000  0.27859000  1.0 0.098287107
H  H16  1  0.99255000  0.73391000  0.33441000  1.0 0.098287107
H  H17  1  0.98264000  0.53006000  0.35034000  1.0 0.0912823388
H  H18  1  0.03988000  0.61256000  0.40272000  1.0 0.098287107
H  H19  1  0.16870000  0.43522000  0.59604000  1.0 0.0912823388
H  H20  1  0.26165000  0.55519000  0.60307000  1.0 0.098287107
H  H21  1  0.38378000  0.47622000  0.61650000  1.0 0.098287107
H  H22  1  0.29241000  0.36631000  0.59114000  1.0 0.0912823388
H  H23  1  0.39093000  0.43891000  0.50499000  1.0 0.0912823388
H  H24  1  0.41621000  0.56295000  0.51373000  1.0 0.0912823388
H  H25  1  0.41554000  0.70234000  0.39525000  1.0 0.098287107
H  H26  1  0.50606000  0.64960000  0.40523000  1.0 0.0912823388
H  H27  1  0.48805000  0.82713000  0.31126000  1.0 0.098287107
H  H28  1  0.59879000  0.81127000  0.34777000  1.0 0.1095931761
H  H29  1  0.58617000  0.68937000  0.27838000  1.0 0.098287107
H  H30  1  0.52508000  0.76024000  0.22840000  1.0 0.098287107
H  H31  1  0.42606000  0.55216000  0.26226000  1.0 0.0912823388
H  H32  1  0.36093000  0.63241000  0.23883000  1.0 0.098287107
H  H33  1  0.86820000  0.65242000  0.01779000  1.0 0.1305145909
H  H34  1  0.79774000  0.77612000  0.96921000  1.0 0.098287107
H  H35  1  0.63963000  0.61573000  0.82346000  1.0 0.0912823388
H  H36  1  0.70657000  0.48039000  0.86931000  1.0 0.1095931761
H  H37  1  0.73772000  0.88586000  0.75016000  1.0 0.0912823388
H  H38  1  0.75904000  0.99046000  0.64812000  1.0 0.1217324469
H  H39  1  0.44855000  0.97371000  0.63571000  1.0 0.1217324469
H  H40  1  0.43988000  0.87452000  0.73576000  1.0 0.0912823388
H  H41  1  0.23432000  0.76028000  0.86002000  1.0 0.098287107
H  H42  1  0.27384000  0.74100000  0.79990000  1.0 0.0912823388
H  H43  1  0.92602000  0.18930000  0.53455000  1.0 0.1305145909
H  H44  1  0.39181000  0.76335000  0.99823000  1.0 0.098287107
H  H45  1  0.50194000  0.87092000  0.99398000  1.0 0.0912823388
H  H46  1  0.08475000  0.27209000  0.48643000  1.0 0.098287107
H  H47  1  0.92896000  0.33670000  0.32209000  1.0 0.0912823388
H  H48  1  0.76042000  0.25784000  0.35979000  1.0 0.1217324469
H  H49  1  0.15708000  0.85864000  0.78458000  1.0 0.098287107
H  H50  1  0.24548000  0.88536000  0.73702000  1.0 0.098287107
H  H51  1  0.34165000  0.04567000  0.77859000  1.0 0.098287107
H  H52  1  0.26609000  0.00745000  0.83441000  1.0 0.098287107
H  H53  1  0.46994000  0.01736000  0.85034000  1.0 0.0912823388
H  H54  1  0.38744000  0.96012000  0.90272000  1.0 0.098287107
H  H55  1  0.56478000  0.83130000  0.09604000  1.0 0.0912823388
H  H56  1  0.44481000  0.73835000  0.10307000  1.0 0.098287107
H  H57  1  0.52378000  0.61622000  0.11650000  1.0 0.098287107
H  H58  1  0.63369000  0.70759000  0.09114000  1.0 0.0912823388
H  H59  1  0.56109000  0.60907000  0.00499000  1.0 0.0912823388
H  H60  1  0.43705000  0.58379000  0.01373000  1.0 0.0912823388
H  H61  1  0.29766000  0.58446000  0.89525000  1.0 0.098287107
H  H62  1  0.35040000  0.49395000  0.90523000  1.0 0.0912823388
H  H63  1  0.17287000  0.51195000  0.81126000  1.0 0.098287107
H  H64  1  0.18873000  0.40121000  0.84777000  1.0 0.1095931761
H  H65  1  0.31063000  0.41383000  0.77838000  1.0 0.098287107
H  H66  1  0.23976000  0.47492000  0.72840000  1.0 0.098287107
H  H67  1  0.44784000  0.57394000  0.76226000  1.0 0.0912823388
H  H68  1  0.36759000  0.63907000  0.73883000  1.0 0.098287107
H  H69  1  0.34758000  0.13180000  0.51779000  1.0 0.1305145909
H  H70  1  0.22388000  0.20226000  0.46921000  1.0 0.098287107
H  H71  1  0.38427000  0.36037000  0.32346000  1.0 0.0912823388
H  H72  1  0.51961000  0.29343000  0.36931000  1.0 0.1095931761
H  H73  1  0.26228000  0.11414000  0.24984000  1.0 0.0912823388
H  H74  1  0.24096000  0.00954000  0.35188000  1.0 0.1217324469
H  H75  1  0.55145000  0.02629000  0.36429000  1.0 0.1217324469
H  H76  1  0.56012000  0.12548000  0.26424000  1.0 0.0912823388
H  H77  1  0.76568000  0.23972000  0.13998000  1.0 0.098287107
H  H78  1  0.72616000  0.25900000  0.20010000  1.0 0.0912823388
H  H79  1  0.07398000  0.81070000  0.46545000  1.0 0.1305145909
H  H80  1  0.60819000  0.23665000  0.00177000  1.0 0.098287107
H  H81  1  0.49806000  0.12908000  0.00602000  1.0 0.0912823388
H  H82  1  0.91525000  0.72791000  0.51357000  1.0 0.098287107
H  H83  1  0.07104000  0.66330000  0.67791000  1.0 0.0912823388
H  H84  1  0.23958000  0.74216000  0.64021000  1.0 0.1217324469
H  H85  1  0.84292000  0.14136000  0.21542000  1.0 0.098287107
H  H86  1  0.75452000  0.11464000  0.26298000  1.0 0.098287107
H  H87  1  0.65835000  0.95433000  0.22141000  1.0 0.098287107
H  H88  1  0.73391000  0.99255000  0.16559000  1.0 0.098287107
H  H89  1  0.53006000  0.98264000  0.14966000  1.0 0.0912823388
H  H90  1  0.61256000  0.03988000  0.09728000  1.0 0.098287107
H  H91  1  0.43522000  0.16870000  0.90396000  1.0 0.0912823388
H  H92  1  0.55519000  0.26165000  0.89693000  1.0 0.098287107
H  H93  1  0.47622000  0.38378000  0.88350000  1.0 0.098287107
H  H94  1  0.36631000  0.29241000  0.90886000  1.0 0.0912823388
H  H95  1  0.43891000  0.39093000  0.99501000  1.0 0.0912823388
H  H96  1  0.56295000  0.41621000  0.98627000  1.0 0.0912823388
H  H97  1  0.70234000  0.41554000  0.10475000  1.0 0.098287107
H  H98  1  0.64960000  0.50606000  0.09477000  1.0 0.0912823388
H  H99  1  0.82713000  0.48805000  0.18874000  1.0 0.098287107
H  H100  1  0.81127000  0.59879000  0.15223000  1.0 0.1095931761
H  H101  1  0.68937000  0.58617000  0.22162000  1.0 0.098287107
H  H102  1  0.76024000  0.52508000  0.27160000  1.0 0.098287107
H  H103  1  0.55216000  0.42606000  0.23774000  1.0 0.0912823388
H  H104  1  0.63241000  0.36093000  0.26117000  1.0 0.098287107
H  H105  1  0.65242000  0.86820000  0.48221000  1.0 0.1305145909
H  H106  1  0.77612000  0.79774000  0.53079000  1.0 0.098287107
H  H107  1  0.61573000  0.63963000  0.67654000  1.0 0.0912823388
H  H108  1  0.48039000  0.70657000  0.63069000  1.0 0.1095931761
H  H109  1  0.88586000  0.73772000  0.74984000  1.0 0.0912823388
H  H110  1  0.99046000  0.75904000  0.85188000  1.0 0.1217324469
H  H111  1  0.97371000  0.44855000  0.86429000  1.0 0.1217324469
H  H112  1  0.87452000  0.43988000  0.76424000  1.0 0.0912823388
H  H113  1  0.76028000  0.23432000  0.63998000  1.0 0.098287107
H  H114  1  0.74100000  0.27384000  0.70010000  1.0 0.0912823388
H  H115  1  0.18930000  0.92602000  0.96545000  1.0 0.1305145909
H  H116  1  0.76335000  0.39181000  0.50177000  1.0 0.098287107
H  H117  1  0.87092000  0.50194000  0.50602000  1.0 0.0912823388
H  H118  1  0.27209000  0.08475000  0.01357000  1.0 0.098287107
H  H119  1  0.33670000  0.92896000  0.17791000  1.0 0.0912823388
H  H120  1  0.25784000  0.76042000  0.14021000  1.0 0.1217324469
H  H121  1  0.85864000  0.15708000  0.71542000  1.0 0.098287107
H  H122  1  0.88536000  0.24548000  0.76298000  1.0 0.098287107
H  H123  1  0.04567000  0.34165000  0.72141000  1.0 0.098287107
H  H124  1  0.00745000  0.26609000  0.66559000  1.0 0.098287107
H  H125  1  0.01736000  0.46994000  0.64966000  1.0 0.0912823388
H  H126  1  0.96012000  0.38744000  0.59728000  1.0 0.098287107
H  H127  1  0.83130000  0.56478000  0.40396000  1.0 0.0912823388
H  H128  1  0.73835000  0.44481000  0.39693000  1.0 0.098287107
H  H129  1  0.61622000  0.52378000  0.38350000  1.0 0.098287107
H  H130  1  0.70759000  0.63369000  0.40886000  1.0 0.0912823388
H  H131  1  0.60907000  0.56109000  0.49501000  1.0 0.0912823388
H  H132  1  0.58379000  0.43705000  0.48627000  1.0 0.0912823388
H  H133  1  0.58446000  0.29766000  0.60475000  1.0 0.098287107
H  H134  1  0.49395000  0.35040000  0.59477000  1.0 0.0912823388
H  H135  1  0.51195000  0.17287000  0.68874000  1.0 0.098287107
H  H136  1  0.40121000  0.18873000  0.65223000  1.0 0.1095931761
H  H137  1  0.41383000  0.31063000  0.72162000  1.0 0.098287107
H  H138  1  0.47492000  0.23976000  0.77160000  1.0 0.098287107
H  H139  1  0.57394000  0.44784000  0.73774000  1.0 0.0912823388
H  H140  1  0.63907000  0.36759000  0.76117000  1.0 0.098287107
H  H141  1  0.13180000  0.34758000  0.98221000  1.0 0.1305145909
H  H142  1  0.20226000  0.22388000  0.03079000  1.0 0.098287107
H  H143  1  0.36037000  0.38427000  0.17654000  1.0 0.0912823388
H  H144  1  0.29343000  0.51961000  0.13069000  1.0 0.1095931761
C  C1  1  0.09670000  0.32210000  0.22650000  1.0 0.0516811244
C  C2  1  0.03190000  0.30770000  0.16480000  1.0 -0.1708070554
C  C3  1  0.00260000  0.39280000  0.12990000  1.0 0.0409169801
C  C4  1  0.04190000  0.48990000  0.15790000  1.0 -0.1708070554
C  C5  1  0.10330000  0.49450000  0.21780000  1.0 0.0298409358
C  C6  1  0.93410000  0.38350000  0.06670000  1.0 0.3312837303
C  C7  1  0.79010000  0.18170000  0.95410000  1.0 0.0598896899
C  C8  1  0.83770000  0.45690000  0.97990000  1.0 0.3312837303
C  C9  1  0.83300000  0.28600000  0.98320000  1.0 0.3391484999
C  C10  1  0.20270000  0.72130000  0.32470000  1.0 -0.0705320082
C  C11  1  0.78210000  0.07850000  0.99050000  1.0 -0.1961052149
C  C12  1  0.20900000  0.52740000  0.50770000  1.0 -0.0479230799
C  C13  1  0.73070000  0.98190000  0.96030000  1.0 0.0700031452
C  C14  1  0.69390000  0.07210000  0.86580000  1.0 0.0409169801
C  C15  1  0.74180000  0.17540000  0.88800000  1.0 -0.2101492725
C  C16  1  0.79980000  0.54680000  0.94900000  1.0 0.0409169801
C  C17  1  0.12160000  0.76460000  0.28210000  1.0 -0.1912429679
C  C18  1  0.01470000  0.69030000  0.31230000  1.0 -0.1912429679
C  C19  1  0.03930000  0.60230000  0.35850000  1.0 -0.0767979949
C  C20  1  0.23440000  0.49220000  0.57890000  1.0 -0.2101492725
C  C21  1  0.32250000  0.44710000  0.58260000  1.0 -0.2101492725
C  C22  1  0.36030000  0.48770000  0.51570000  1.0 -0.0479230799
C  C23  1  0.45660000  0.67760000  0.37280000  1.0 -0.0330273837
C  C24  1  0.52360000  0.77360000  0.32700000  1.0 -0.1961052149
C  C25  1  0.52340000  0.71280000  0.27010000  1.0 -0.2101492725
C  C26  1  0.41700000  0.61620000  0.27200000  1.0 -0.0629583896
C  C27  1  0.82200000  0.64120000  0.97820000  1.0 -0.1708070554
C  C28  1  0.77630000  0.71350000  0.94860000  1.0 0.0409169801
C  C29  1  0.68420000  0.62220000  0.86380000  1.0 0.0075466715
C  C30  1  0.72730000  0.54170000  0.89100000  1.0 -0.1779525794
C  C31  1  0.67790000  0.90330000  0.72650000  1.0 0.0516811244
C  C32  1  0.69230000  0.96810000  0.66480000  1.0 -0.1708070554
C  C33  1  0.60720000  0.99740000  0.62990000  1.0 0.0409169801
C  C34  1  0.51010000  0.95810000  0.65790000  1.0 -0.1708070554
C  C35  1  0.50550000  0.89670000  0.71780000  1.0 0.0298409358
C  C36  1  0.61650000  0.06590000  0.56670000  1.0 0.3312837303
C  C37  1  0.81830000  0.20990000  0.45410000  1.0 0.0598896899
C  C38  1  0.54310000  0.16230000  0.47990000  1.0 0.3312837303
C  C39  1  0.71400000  0.16700000  0.48320000  1.0 0.3391484999
C  C40  1  0.27870000  0.79730000  0.82470000  1.0 -0.0705320082
C  C41  1  0.92150000  0.21790000  0.49050000  1.0 -0.1961052149
C  C42  1  0.47260000  0.79100000  0.00770000  1.0 -0.0479230799
C  C43  1  0.01810000  0.26930000  0.46030000  1.0 0.0700031452
C  C44  1  0.92790000  0.30610000  0.36580000  1.0 0.0409169801
C  C45  1  0.82460000  0.25820000  0.38800000  1.0 -0.2101492725
C  C46  1  0.45320000  0.20020000  0.44900000  1.0 0.0409169801
C  C47  1  0.23540000  0.87840000  0.78210000  1.0 -0.1912429679
C  C48  1  0.30970000  0.98530000  0.81230000  1.0 -0.1912429679
C  C49  1  0.39770000  0.96070000  0.85850000  1.0 -0.0767979949
C  C50  1  0.50780000  0.76560000  0.07890000  1.0 -0.2101492725
C  C51  1  0.55290000  0.67750000  0.08260000  1.0 -0.2101492725
C  C52  1  0.51230000  0.63970000  0.01570000  1.0 -0.0479230799
C  C53  1  0.32240000  0.54340000  0.87280000  1.0 -0.0330273837
C  C54  1  0.22640000  0.47640000  0.82700000  1.0 -0.1961052149
C  C55  1  0.28720000  0.47660000  0.77010000  1.0 -0.2101492725
C  C56  1  0.38380000  0.58300000  0.77200000  1.0 -0.0629583896
C  C57  1  0.35880000  0.17800000  0.47820000  1.0 -0.1708070554
C  C58  1  0.28650000  0.22370000  0.44860000  1.0 0.0409169801
C  C59  1  0.37780000  0.31580000  0.36380000  1.0 0.0075466715
C  C60  1  0.45830000  0.27270000  0.39100000  1.0 -0.1779525794
C  C61  1  0.32210000  0.09670000  0.27350000  1.0 0.0516811244
C  C62  1  0.30770000  0.03190000  0.33520000  1.0 -0.1708070554
C  C63  1  0.39280000  0.00260000  0.37010000  1.0 0.0409169801
C  C64  1  0.48990000  0.04190000  0.34210000  1.0 -0.1708070554
C  C65  1  0.49450000  0.10330000  0.28220000  1.0 0.0298409358
C  C66  1  0.38350000  0.93410000  0.43330000  1.0 0.3312837303
C  C67  1  0.18170000  0.79010000  0.54590000  1.0 0.0598896899
C  C68  1  0.45690000  0.83770000  0.52010000  1.0 0.3312837303
C  C69  1  0.28600000  0.83300000  0.51680000  1.0 0.3391484999
C  C70  1  0.72130000  0.20270000  0.17530000  1.0 -0.0705320082
C  C71  1  0.07850000  0.78210000  0.50950000  1.0 -0.1961052149
C  C72  1  0.52740000  0.20900000  0.99230000  1.0 -0.0479230799
C  C73  1  0.98190000  0.73070000  0.53970000  1.0 0.0700031452
C  C74  1  0.07210000  0.69390000  0.63420000  1.0 0.0409169801
C  C75  1  0.17540000  0.74180000  0.61200000  1.0 -0.2101492725
C  C76  1  0.54680000  0.79980000  0.55100000  1.0 0.0409169801
C  C77  1  0.76460000  0.12160000  0.21790000  1.0 -0.1912429679
C  C78  1  0.69030000  0.01470000  0.18770000  1.0 -0.1912429679
C  C79  1  0.60230000  0.03930000  0.14150000  1.0 -0.0767979949
C  C80  1  0.49220000  0.23440000  0.92110000  1.0 -0.2101492725
C  C81  1  0.44710000  0.32250000  0.91740000  1.0 -0.2101492725
C  C82  1  0.48770000  0.36030000  0.98430000  1.0 -0.0479230799
C  C83  1  0.67760000  0.45660000  0.12720000  1.0 -0.0330273837
C  C84  1  0.77360000  0.52360000  0.17300000  1.0 -0.1961052149
C  C85  1  0.71280000  0.52340000  0.22990000  1.0 -0.2101492725
C  C86  1  0.61620000  0.41700000  0.22800000  1.0 -0.0629583896
C  C87  1  0.64120000  0.82200000  0.52180000  1.0 -0.1708070554
C  C88  1  0.71350000  0.77630000  0.55140000  1.0 0.0409169801
C  C89  1  0.62220000  0.68420000  0.63620000  1.0 0.0075466715
C  C90  1  0.54170000  0.72730000  0.60900000  1.0 -0.1779525794
C  C91  1  0.90330000  0.67790000  0.77350000  1.0 0.0516811244
C  C92  1  0.96810000  0.69230000  0.83520000  1.0 -0.1708070554
C  C93  1  0.99740000  0.60720000  0.87010000  1.0 0.0409169801
C  C94  1  0.95810000  0.51010000  0.84210000  1.0 -0.1708070554
C  C95  1  0.89670000  0.50550000  0.78220000  1.0 0.0298409358
C  C96  1  0.06590000  0.61650000  0.93330000  1.0 0.3312837303
C  C97  1  0.20990000  0.81830000  0.04590000  1.0 0.0598896899
C  C98  1  0.16230000  0.54310000  0.02010000  1.0 0.3312837303
C  C99  1  0.16700000  0.71400000  0.01680000  1.0 0.3391484999
C  C100  1  0.79730000  0.27870000  0.67530000  1.0 -0.0705320082
C  C101  1  0.21790000  0.92150000  0.00950000  1.0 -0.1961052149
C  C102  1  0.79100000  0.47260000  0.49230000  1.0 -0.0479230799
C  C103  1  0.26930000  0.01810000  0.03970000  1.0 0.0700031452
C  C104  1  0.30610000  0.92790000  0.13420000  1.0 0.0409169801
C  C105  1  0.25820000  0.82460000  0.11200000  1.0 -0.2101492725
C  C106  1  0.20020000  0.45320000  0.05100000  1.0 0.0409169801
C  C107  1  0.87840000  0.23540000  0.71790000  1.0 -0.1912429679
C  C108  1  0.98530000  0.30970000  0.68770000  1.0 -0.1912429679
C  C109  1  0.96070000  0.39770000  0.64150000  1.0 -0.0767979949
C  C110  1  0.76560000  0.50780000  0.42110000  1.0 -0.2101492725
C  C111  1  0.67750000  0.55290000  0.41740000  1.0 -0.2101492725
C  C112  1  0.63970000  0.51230000  0.48430000  1.0 -0.0479230799
C  C113  1  0.54340000  0.32240000  0.62720000  1.0 -0.0330273837
C  C114  1  0.47640000  0.22640000  0.67300000  1.0 -0.1961052149
C  C115  1  0.47660000  0.28720000  0.72990000  1.0 -0.2101492725
C  C116  1  0.58300000  0.38380000  0.72800000  1.0 -0.0629583896
C  C117  1  0.17800000  0.35880000  0.02180000  1.0 -0.1708070554
C  C118  1  0.22370000  0.28650000  0.05140000  1.0 0.0409169801
C  C119  1  0.31580000  0.37780000  0.13620000  1.0 0.0075466715
C  C120  1  0.27270000  0.45830000  0.10900000  1.0 -0.1779525794
N  N1  1  0.13440000  0.41520000  0.25300000  1.0 -0.3158703886
N  N2  1  0.68760000  0.97540000  0.90090000  1.0 -0.3001348294
N  N3  1  0.70490000  0.71150000  0.89440000  1.0 -0.3394058562
N  N4  1  0.89840000  0.28600000  0.04120000  1.0 -0.4397775449
N  N5  1  0.90470000  0.46950000  0.03730000  1.0 -0.4088531352
N  N6  1  0.80250000  0.36630000  0.94940000  1.0 -0.4241562403
N  N7  1  0.58480000  0.86560000  0.75300000  1.0 -0.3158703886
N  N8  1  0.02460000  0.31240000  0.40090000  1.0 -0.3001348294
N  N9  1  0.28850000  0.29510000  0.39440000  1.0 -0.3394058562
N  N10  1  0.71400000  0.10160000  0.54120000  1.0 -0.4397775449
N  N11  1  0.53050000  0.09530000  0.53730000  1.0 -0.4088531352
N  N12  1  0.63370000  0.19750000  0.44940000  1.0 -0.4241562403
N  N13  1  0.41520000  0.13440000  0.24700000  1.0 -0.3158703886
N  N14  1  0.97540000  0.68760000  0.59910000  1.0 -0.3001348294
N  N15  1  0.71150000  0.70490000  0.60560000  1.0 -0.3394058562
N  N16  1  0.28600000  0.89840000  0.45880000  1.0 -0.4397775449
N  N17  1  0.46950000  0.90470000  0.46270000  1.0 -0.4088531352
N  N18  1  0.36630000  0.80250000  0.55060000  1.0 -0.4241562403
N  N19  1  0.86560000  0.58480000  0.74700000  1.0 -0.3158703886
N  N20  1  0.31240000  0.02460000  0.09910000  1.0 -0.3001348294
N  N21  1  0.29510000  0.28850000  0.10560000  1.0 -0.3394058562
N  N22  1  0.10160000  0.71400000  0.95880000  1.0 -0.4397775449
N  N23  1  0.09530000  0.53050000  0.96270000  1.0 -0.4088531352
N  N24  1  0.19750000  0.63370000  0.05060000  1.0 -0.4241562403
O  O1  1  0.14600000  0.60780000  0.35060000  1.0 -0.271283514
O  O2  1  0.26310000  0.48430000  0.47370000  1.0 -0.271283514
O  O3  1  0.37930000  0.58970000  0.33480000  1.0 -0.2926824234
O  O4  1  0.39220000  0.85400000  0.85060000  1.0 -0.271283514
O  O5  1  0.51570000  0.73690000  0.97370000  1.0 -0.271283514
O  O6  1  0.41030000  0.62070000  0.83480000  1.0 -0.2926824234
O  O7  1  0.60780000  0.14600000  0.14940000  1.0 -0.271283514
O  O8  1  0.48430000  0.26310000  0.02630000  1.0 -0.271283514
O  O9  1  0.58970000  0.37930000  0.16520000  1.0 -0.2926824234
O  O10  1  0.85400000  0.39220000  0.64940000  1.0 -0.271283514
O  O11  1  0.73690000  0.51570000  0.52630000  1.0 -0.271283514
O  O12  1  0.62070000  0.41030000  0.66520000  1.0 -0.2926824234
