# DDEC6 charges by PACMAN v1.1 (https://github.com/mtap-research/PACMAN-charge/)
data_TOXNAX_FSR_pacman
_symmetry_space_group_name_H-M   'P 1'
_cell_length_a   12.01710000
_cell_length_b   12.01710000
_cell_length_c   12.01710000
_cell_angle_alpha   103.95300000
_cell_angle_beta   103.95300000
_cell_angle_gamma   121.18200000
_symmetry_Int_Tables_number   1
_chemical_formula_structural   AlH12C12O5
_chemical_formula_sum   'Al4 H48 C48 O20'
_cell_volume   1293.35029102
_cell_formula_units_Z   4
loop_
 _symmetry_equiv_pos_site_id
 _symmetry_equiv_pos_as_xyz
  1  'x, y, z'
loop_
 _atom_site_type_symbol
 _atom_site_label
 _atom_site_symmetry_multiplicity
 _atom_site_fract_x
 _atom_site_fract_y
 _atom_site_fract_z
 _atom_site_occupancy
 _atom_site_charge
Al  Al1  1  0.19415000  0.80585000  0.00000000  1.0 1.6720007223
Al  Al2  1  0.05585000  0.55585000  0.11170000  1.0 1.6720007223
Al  Al3  1  0.44415000  0.94415000  0.88830000  1.0 1.6720007223
Al  Al4  1  0.80585000  0.19415000  0.00000000  1.0 1.6720007223
H  H1  1  0.43980000  0.87500000  0.06480000  1.0 0.4329164189
H  H2  1  0.81020000  0.37500000  0.93520000  1.0 0.4329164189
H  H3  1  0.12500000  0.56020000  0.93520000  1.0 0.4329164189
H  H4  1  0.62500000  0.18980000  0.06480000  1.0 0.4329164189
H  H5  1  0.11416000  0.11416000  0.00000000  1.0 0.1329646867
H  H6  1  0.13584000  0.63584000  0.50000000  1.0 0.1329646867
H  H7  1  0.88584000  0.88584000  0.00000000  1.0 0.1329646867
H  H8  1  0.36416000  0.86416000  0.50000000  1.0 0.1329646867
H  H9  1  0.49879000  0.30233000  0.94956000  1.0 0.118369452
H  H10  1  0.75121000  0.20077000  0.30354000  1.0 0.118369452
H  H11  1  0.69767000  0.50121000  0.05044000  1.0 0.118369452
H  H12  1  0.79923000  0.24879000  0.69646000  1.0 0.118369452
H  H13  1  0.55233000  0.10277000  0.30354000  1.0 0.118369452
H  H14  1  0.45077000  0.64723000  0.94956000  1.0 0.118369452
H  H15  1  0.89723000  0.44767000  0.69646000  1.0 0.118369452
H  H16  1  0.35277000  0.54923000  0.05044000  1.0 0.118369452
H  H17  1  0.37340000  0.62480000  0.49640000  1.0 0.118369452
H  H18  1  0.87660000  0.87300000  0.75140000  1.0 0.118369452
H  H19  1  0.37520000  0.62660000  0.50360000  1.0 0.118369452
H  H20  1  0.12700000  0.12340000  0.24860000  1.0 0.118369452
H  H21  1  0.87480000  0.87840000  0.75140000  1.0 0.118369452
H  H22  1  0.12300000  0.87160000  0.49640000  1.0 0.118369452
H  H23  1  0.12160000  0.12520000  0.24860000  1.0 0.118369452
H  H24  1  0.12840000  0.87700000  0.50360000  1.0 0.118369452
H  H25  1  0.29000000  0.45300000  0.51700000  1.0 0.0697138172
H  H26  1  0.96000000  0.97700000  0.66300000  1.0 0.0697138172
H  H27  1  0.54700000  0.71000000  0.48300000  1.0 0.0697138172
H  H28  1  0.02300000  0.04000000  0.33700000  1.0 0.0697138172
H  H29  1  0.70300000  0.68600000  0.66300000  1.0 0.0697138172
H  H30  1  0.22700000  0.06400000  0.51700000  1.0 0.0697138172
H  H31  1  0.31400000  0.29700000  0.33700000  1.0 0.0697138172
H  H32  1  0.93600000  0.77300000  0.48300000  1.0 0.0697138172
H  H33  1  0.35400000  0.36180000  0.36780000  1.0 0.0903372683
H  H34  1  0.89600000  0.76380000  0.50780000  1.0 0.0903372683
H  H35  1  0.63820000  0.64600000  0.63220000  1.0 0.0903372683
H  H36  1  0.23620000  0.10400000  0.49220000  1.0 0.0903372683
H  H37  1  0.61180000  0.74400000  0.50780000  1.0 0.0903372683
H  H38  1  0.01380000  0.00600000  0.36780000  1.0 0.0903372683
H  H39  1  0.25600000  0.38820000  0.49220000  1.0 0.0903372683
H  H40  1  0.99400000  0.98620000  0.63220000  1.0 0.0903372683
H  H41  1  0.43800000  0.53370000  0.34770000  1.0 0.1093902292
H  H42  1  0.81200000  0.65970000  0.59570000  1.0 0.1093902292
H  H43  1  0.46630000  0.56200000  0.65230000  1.0 0.1093902292
H  H44  1  0.34030000  0.18800000  0.40430000  1.0 0.1093902292
H  H45  1  0.78370000  0.93600000  0.59570000  1.0 0.1093902292
H  H46  1  0.90970000  0.81400000  0.34770000  1.0 0.1093902292
H  H47  1  0.06400000  0.21630000  0.40430000  1.0 0.1093902292
H  H48  1  0.18600000  0.09030000  0.65230000  1.0 0.1093902292
C  C1  1  0.29332000  0.06018000  0.95296000  1.0 0.6101575655
C  C2  1  0.95668000  0.40964000  0.26686000  1.0 0.6101575655
C  C3  1  0.93982000  0.70668000  0.04704000  1.0 0.6101575655
C  C4  1  0.59036000  0.04332000  0.73314000  1.0 0.6101575655
C  C5  1  0.31018000  0.85722000  0.26686000  1.0 0.6101575655
C  C6  1  0.65964000  0.89278000  0.95296000  1.0 0.6101575655
C  C7  1  0.14278000  0.68982000  0.73314000  1.0 0.6101575655
C  C8  1  0.10722000  0.34036000  0.04704000  1.0 0.6101575655
C  C9  1  0.30426000  0.19194000  0.97116000  1.0 -0.035959563
C  C10  1  0.94574000  0.41690000  0.38768000  1.0 -0.035959563
C  C11  1  0.80806000  0.69574000  0.02884000  1.0 -0.035959563
C  C12  1  0.58310000  0.05426000  0.61232000  1.0 -0.035959563
C  C13  1  0.44194000  0.97078000  0.38768000  1.0 -0.035959563
C  C14  1  0.66690000  0.77922000  0.97116000  1.0 -0.035959563
C  C15  1  0.02922000  0.55806000  0.61232000  1.0 -0.035959563
C  C16  1  0.22078000  0.33310000  0.02884000  1.0 -0.035959563
C  C17  1  0.20313000  0.20313000  0.00000000  1.0 -0.1123567361
C  C18  1  0.04687000  0.54687000  0.50000000  1.0 -0.1123567361
C  C19  1  0.79687000  0.79687000  0.00000000  1.0 -0.1123567361
C  C20  1  0.45313000  0.95313000  0.50000000  1.0 -0.1123567361
C  C21  1  0.42304000  0.31072000  0.97116000  1.0 -0.1389414135
C  C22  1  0.82696000  0.29812000  0.38768000  1.0 -0.1389414135
C  C23  1  0.68928000  0.57696000  0.02884000  1.0 -0.1389414135
C  C24  1  0.70188000  0.17304000  0.61232000  1.0 -0.1389414135
C  C25  1  0.56072000  0.08956000  0.38768000  1.0 -0.1389414135
C  C26  1  0.54812000  0.66044000  0.97116000  1.0 -0.1389414135
C  C27  1  0.91044000  0.43928000  0.61232000  1.0 -0.1389414135
C  C28  1  0.33956000  0.45188000  0.02884000  1.0 -0.1389414135
C  C29  1  0.44069000  0.44069000  0.00000000  1.0 0.0779382971
C  C30  1  0.80931000  0.30931000  0.50000000  1.0 0.0779382971
C  C31  1  0.55931000  0.55931000  0.00000000  1.0 0.0779382971
C  C32  1  0.69069000  0.19069000  0.50000000  1.0 0.0779382971
C  C33  1  0.34600000  0.51800000  0.47200000  1.0 -0.1389414135
C  C34  1  0.90400000  0.87600000  0.67200000  1.0 -0.1389414135
C  C35  1  0.48200000  0.65400000  0.52800000  1.0 -0.1389414135
C  C36  1  0.12400000  0.09600000  0.32800000  1.0 -0.1389414135
C  C37  1  0.76800000  0.79600000  0.67200000  1.0 -0.1389414135
C  C38  1  0.12600000  0.95400000  0.47200000  1.0 -0.1389414135
C  C39  1  0.20400000  0.23200000  0.32800000  1.0 -0.1389414135
C  C40  1  0.04600000  0.87400000  0.52800000  1.0 -0.1389414135
C  C41  1  0.38100000  0.46870000  0.39170000  1.0 -0.2512564275
C  C42  1  0.86900000  0.76070000  0.58770000  1.0 -0.2512564275
C  C43  1  0.53130000  0.61900000  0.60830000  1.0 -0.2512564275
C  C44  1  0.23930000  0.13100000  0.41230000  1.0 -0.2512564275
C  C45  1  0.71870000  0.82700000  0.58770000  1.0 -0.2512564275
C  C46  1  0.01070000  0.92300000  0.39170000  1.0 -0.2512564275
C  C47  1  0.17300000  0.28130000  0.41230000  1.0 -0.2512564275
C  C48  1  0.07700000  0.98930000  0.60830000  1.0 -0.2512564275
O  O1  1  0.37901000  0.87500000  0.00401000  1.0 -1.0372101206
O  O2  1  0.87099000  0.37500000  0.99599000  1.0 -1.0372101206
O  O3  1  0.12500000  0.62099000  0.99599000  1.0 -1.0372101206
O  O4  1  0.62500000  0.12901000  0.00401000  1.0 -1.0372101206
O  O5  1  0.22602000  0.98316000  0.00180000  1.0 -0.5645916301
O  O6  1  0.02398000  0.52578000  0.25714000  1.0 -0.5645916301
O  O7  1  0.01684000  0.77398000  0.99820000  1.0 -0.5645916301
O  O8  1  0.47422000  0.97602000  0.74286000  1.0 -0.5645916301
O  O9  1  0.23316000  0.73136000  0.25714000  1.0 -0.5645916301
O  O10  1  0.77578000  0.01864000  0.00180000  1.0 -0.5645916301
O  O11  1  0.26864000  0.76684000  0.74286000  1.0 -0.5645916301
O  O12  1  0.98136000  0.22422000  0.99820000  1.0 -0.5645916301
O  O13  1  0.35187000  0.03198000  0.88957000  1.0 -0.5697739709
O  O14  1  0.89813000  0.28770000  0.18011000  1.0 -0.5697739709
O  O15  1  0.96802000  0.64813000  0.11043000  1.0 -0.5697739709
O  O16  1  0.71230000  0.10187000  0.81989000  1.0 -0.5697739709
O  O17  1  0.28198000  0.89241000  0.18011000  1.0 -0.5697739709
O  O18  1  0.53770000  0.85759000  0.88957000  1.0 -0.5697739709
O  O19  1  0.10759000  0.71802000  0.81989000  1.0 -0.5697739709
O  O20  1  0.14241000  0.46230000  0.11043000  1.0 -0.5697739709
