# DDEC6 charges by PACMAN v1.1 (https://github.com/mtap-research/PACMAN-charge/)
data_TOYCOC_FSR_pacman
_symmetry_space_group_name_H-M   'P 1'
_cell_length_a   17.13950000
_cell_length_b   17.13950000
_cell_length_c   22.51200000
_cell_angle_alpha   79.01370000
_cell_angle_beta   100.98600000
_cell_angle_gamma   133.59100000
_symmetry_Int_Tables_number   1
_chemical_formula_structural   CeH46C60(N4O7)2
_chemical_formula_sum   'Ce4 H184 C240 N32 O56'
_cell_volume   4685.70315200
_cell_formula_units_Z   4
loop_
 _symmetry_equiv_pos_site_id
 _symmetry_equiv_pos_as_xyz
  1  'x, y, z'
loop_
 _atom_site_type_symbol
 _atom_site_label
 _atom_site_symmetry_multiplicity
 _atom_site_fract_x
 _atom_site_fract_y
 _atom_site_fract_z
 _atom_site_occupancy
 _atom_site_charge
Ce  Ce1  1  0.38829000  0.51547000  0.49707000  1.0 1.6018976233
Ce  Ce2  1  0.51547000  0.38829000  0.00293000  1.0 1.6018976233
Ce  Ce3  1  0.61171000  0.48453000  0.50293000  1.0 1.6018976233
Ce  Ce4  1  0.48453000  0.61171000  0.99707000  1.0 1.6018976233
H  H1  1  0.89637000  0.93891000  0.29584000  1.0 0.0897560402
H  H2  1  0.80719000  0.79263000  0.36726000  1.0 0.1209430545
H  H3  1  0.68102000  0.96570000  0.30240000  1.0 0.0696893357
H  H4  1  0.59438000  0.81906000  0.37587000  1.0 0.0798271746
H  H5  1  0.26074000  0.41720000  0.06346000  1.0 0.0897560402
H  H6  1  0.10798000  0.34960000  0.10469000  1.0 0.0696893357
H  H7  1  0.09083000  0.11107000  0.20010000  1.0 0.0994310017
H  H8  1  0.24628000  0.18552000  0.16146000  1.0 0.1209430545
H  H9  1  0.62327000  0.22697000  0.17652000  1.0 0.0897560402
H  H10  1  0.70632000  0.16254000  0.22079000  1.0 0.0798271746
H  H11  1  0.88296000  0.29532000  0.07616000  1.0 0.0798271746
H  H12  1  0.81658000  0.38188000  0.03967000  1.0 0.0798271746
H  H13  1  0.05532000  0.24612000  0.58618000  1.0 0.0994310017
H  H14  1  0.95901000  0.20943000  0.53542000  1.0 0.0994310017
H  H15  1  0.98493000  0.08339000  0.57986000  1.0 0.0696893357
H  H16  1  0.06964000  0.14526000  0.52968000  1.0 0.0994310017
H  H17  1  0.84918000  0.03702000  0.50303000  1.0 0.0798271746
H  H18  1  0.89779000  0.98607000  0.49787000  1.0 0.0897560402
H  H19  1  0.99541000  0.11043000  0.42006000  1.0 0.0994310017
H  H20  1  0.87037000  0.04695000  0.40414000  1.0 0.0696893357
H  H21  1  0.96529000  0.22005000  0.37125000  1.0 0.0798271746
H  H22  1  0.90110000  0.19218000  0.42593000  1.0 0.0798271746
H  H23  1  0.10438000  0.37016000  0.42002000  1.0 0.2896516583
H  H24  1  0.87597000  0.91851000  0.28413000  1.0 0.0897560402
H  H25  1  0.78690000  0.77366000  0.35635000  1.0 0.1209430545
H  H26  1  0.64147000  0.92389000  0.27565000  1.0 0.0619914527
H  H27  1  0.55758000  0.78230000  0.35172000  1.0 0.0696893357
H  H28  1  0.22795000  0.38455000  0.04239000  1.0 0.0897560402
H  H29  1  0.07369000  0.31499000  0.08275000  1.0 0.0696893357
H  H30  1  0.07387000  0.09575000  0.19165000  1.0 0.0994310017
H  H31  1  0.22506000  0.16546000  0.14968000  1.0 0.1209430545
H  H32  1  0.58407000  0.18311000  0.16023000  1.0 0.0897560402
H  H33  1  0.66299000  0.11259000  0.19972000  1.0 0.0798271746
H  H34  1  0.85110000  0.26692000  0.05926000  1.0 0.0798271746
H  H35  1  0.75899000  0.32605000  0.01647000  1.0 0.0798271746
H  H36  1  0.42111000  0.68873000  0.66294000  1.0 0.1209430545
H  H37  1  0.51776000  0.69214000  0.67954000  1.0 0.1090068183
H  H38  1  0.43605000  0.68795000  0.75921000  1.0 0.0897560402
H  H39  1  0.34726000  0.56042000  0.75361000  1.0 0.0798271746
H  H40  1  0.57040000  0.68528000  0.78373000  1.0 0.0897560402
H  H41  1  0.47892000  0.60492000  0.83013000  1.0 0.0994310017
H  H42  1  0.48995000  0.49321000  0.81663000  1.0 0.0897560402
H  H43  1  0.54954000  0.55944000  0.75569000  1.0 0.0798271746
H  H44  1  0.39122000  0.39082000  0.73626000  1.0 0.0619914527
H  H45  1  0.32655000  0.40565000  0.76671000  1.0 0.0478992871
H  H46  1  0.29080000  0.40428000  0.65868000  1.0 0.2671507559
H  H47  1  0.93891000  0.89637000  0.20416000  1.0 0.0897560402
H  H48  1  0.79263000  0.80719000  0.13274000  1.0 0.1209430545
H  H49  1  0.96570000  0.68102000  0.19760000  1.0 0.0696893357
H  H50  1  0.81906000  0.59438000  0.12413000  1.0 0.0798271746
H  H51  1  0.41720000  0.26074000  0.43654000  1.0 0.0897560402
H  H52  1  0.34960000  0.10798000  0.39531000  1.0 0.0696893357
H  H53  1  0.11107000  0.09083000  0.29990000  1.0 0.0994310017
H  H54  1  0.18552000  0.24628000  0.33854000  1.0 0.1209430545
H  H55  1  0.22697000  0.62327000  0.32349000  1.0 0.0897560402
H  H56  1  0.16254000  0.70632000  0.27921000  1.0 0.0798271746
H  H57  1  0.29532000  0.88296000  0.42384000  1.0 0.0798271746
H  H58  1  0.38188000  0.81658000  0.46033000  1.0 0.0798271746
H  H59  1  0.24612000  0.05532000  0.91382000  1.0 0.0994310017
H  H60  1  0.20943000  0.95901000  0.96458000  1.0 0.0994310017
H  H61  1  0.08339000  0.98493000  0.92014000  1.0 0.0696893357
H  H62  1  0.14526000  0.06964000  0.97032000  1.0 0.0994310017
H  H63  1  0.03702000  0.84918000  0.99697000  1.0 0.0798271746
H  H64  1  0.98607000  0.89779000  0.00213000  1.0 0.0897560402
H  H65  1  0.11043000  0.99541000  0.07994000  1.0 0.0994310017
H  H66  1  0.04695000  0.87037000  0.09586000  1.0 0.0696893357
H  H67  1  0.22005000  0.96529000  0.12875000  1.0 0.0798271746
H  H68  1  0.19218000  0.90110000  0.07407000  1.0 0.0798271746
H  H69  1  0.37016000  0.10438000  0.07998000  1.0 0.2896516583
H  H70  1  0.91851000  0.87597000  0.21587000  1.0 0.0897560402
H  H71  1  0.77366000  0.78690000  0.14365000  1.0 0.1209430545
H  H72  1  0.92389000  0.64147000  0.22435000  1.0 0.0619914527
H  H73  1  0.78230000  0.55758000  0.14828000  1.0 0.0696893357
H  H74  1  0.38455000  0.22795000  0.45761000  1.0 0.0897560402
H  H75  1  0.31499000  0.07369000  0.41725000  1.0 0.0696893357
H  H76  1  0.09575000  0.07387000  0.30835000  1.0 0.0994310017
H  H77  1  0.16546000  0.22506000  0.35032000  1.0 0.1209430545
H  H78  1  0.18311000  0.58407000  0.33977000  1.0 0.0897560402
H  H79  1  0.11259000  0.66299000  0.30028000  1.0 0.0798271746
H  H80  1  0.26692000  0.85110000  0.44074000  1.0 0.0798271746
H  H81  1  0.32605000  0.75899000  0.48353000  1.0 0.0798271746
H  H82  1  0.68873000  0.42111000  0.83706000  1.0 0.1209430545
H  H83  1  0.69214000  0.51776000  0.82046000  1.0 0.1090068183
H  H84  1  0.68795000  0.43605000  0.74079000  1.0 0.0897560402
H  H85  1  0.56042000  0.34726000  0.74639000  1.0 0.0798271746
H  H86  1  0.68528000  0.57040000  0.71627000  1.0 0.0897560402
H  H87  1  0.60492000  0.47892000  0.66987000  1.0 0.0994310017
H  H88  1  0.49321000  0.48995000  0.68337000  1.0 0.0897560402
H  H89  1  0.55944000  0.54954000  0.74431000  1.0 0.0798271746
H  H90  1  0.39082000  0.39122000  0.76374000  1.0 0.0619914527
H  H91  1  0.40565000  0.32655000  0.73329000  1.0 0.0478992871
H  H92  1  0.40428000  0.29080000  0.84132000  1.0 0.2671507559
H  H93  1  0.10363000  0.06109000  0.70416000  1.0 0.0897560402
H  H94  1  0.19281000  0.20737000  0.63274000  1.0 0.1209430545
H  H95  1  0.31898000  0.03430000  0.69760000  1.0 0.0696893357
H  H96  1  0.40562000  0.18094000  0.62413000  1.0 0.0798271746
H  H97  1  0.73926000  0.58280000  0.93654000  1.0 0.0897560402
H  H98  1  0.89202000  0.65040000  0.89531000  1.0 0.0696893357
H  H99  1  0.90917000  0.88893000  0.79990000  1.0 0.0994310017
H  H100  1  0.75372000  0.81448000  0.83854000  1.0 0.1209430545
H  H101  1  0.37673000  0.77303000  0.82349000  1.0 0.0897560402
H  H102  1  0.29368000  0.83746000  0.77921000  1.0 0.0798271746
H  H103  1  0.11704000  0.70468000  0.92384000  1.0 0.0798271746
H  H104  1  0.18342000  0.61812000  0.96033000  1.0 0.0798271746
H  H105  1  0.94468000  0.75388000  0.41382000  1.0 0.0994310017
H  H106  1  0.04099000  0.79057000  0.46458000  1.0 0.0994310017
H  H107  1  0.01507000  0.91661000  0.42014000  1.0 0.0696893357
H  H108  1  0.93036000  0.85474000  0.47032000  1.0 0.0994310017
H  H109  1  0.15082000  0.96298000  0.49697000  1.0 0.0798271746
H  H110  1  0.10221000  0.01393000  0.50213000  1.0 0.0897560402
H  H111  1  0.00459000  0.88957000  0.57994000  1.0 0.0994310017
H  H112  1  0.12963000  0.95305000  0.59586000  1.0 0.0696893357
H  H113  1  0.03471000  0.77995000  0.62875000  1.0 0.0798271746
H  H114  1  0.09890000  0.80782000  0.57407000  1.0 0.0798271746
H  H115  1  0.89562000  0.62984000  0.57998000  1.0 0.2896516583
H  H116  1  0.12403000  0.08149000  0.71587000  1.0 0.0897560402
H  H117  1  0.21310000  0.22634000  0.64365000  1.0 0.1209430545
H  H118  1  0.35853000  0.07611000  0.72435000  1.0 0.0619914527
H  H119  1  0.44242000  0.21770000  0.64828000  1.0 0.0798271746
H  H120  1  0.77205000  0.61545000  0.95761000  1.0 0.0897560402
H  H121  1  0.92631000  0.68501000  0.91725000  1.0 0.0619914527
H  H122  1  0.92613000  0.90425000  0.80835000  1.0 0.0994310017
H  H123  1  0.77494000  0.83454000  0.85032000  1.0 0.1209430545
H  H124  1  0.41593000  0.81689000  0.83977000  1.0 0.0897560402
H  H125  1  0.33701000  0.88741000  0.80028000  1.0 0.0798271746
H  H126  1  0.14890000  0.73308000  0.94074000  1.0 0.0798271746
H  H127  1  0.24101000  0.67395000  0.98353000  1.0 0.0798271746
H  H128  1  0.57889000  0.31127000  0.33706000  1.0 0.1209430545
H  H129  1  0.48224000  0.30786000  0.32046000  1.0 0.1090068183
H  H130  1  0.56395000  0.31205000  0.24079000  1.0 0.0897560402
H  H131  1  0.65274000  0.43958000  0.24639000  1.0 0.0798271746
H  H132  1  0.42960000  0.31472000  0.21627000  1.0 0.0897560402
H  H133  1  0.52108000  0.39508000  0.16987000  1.0 0.0994310017
H  H134  1  0.51005000  0.50679000  0.18337000  1.0 0.0897560402
H  H135  1  0.45046000  0.44056000  0.24431000  1.0 0.0798271746
H  H136  1  0.60878000  0.60918000  0.26374000  1.0 0.0619914527
H  H137  1  0.67345000  0.59435000  0.23329000  1.0 0.0478992871
H  H138  1  0.70920000  0.59572000  0.34132000  1.0 0.2671507559
H  H139  1  0.06109000  0.10363000  0.79584000  1.0 0.0897560402
H  H140  1  0.20737000  0.19281000  0.86726000  1.0 0.1209430545
H  H141  1  0.03430000  0.31898000  0.80240000  1.0 0.0798271746
H  H142  1  0.18094000  0.40562000  0.87587000  1.0 0.0798271746
H  H143  1  0.58280000  0.73926000  0.56346000  1.0 0.0897560402
H  H144  1  0.65040000  0.89202000  0.60469000  1.0 0.0696893357
H  H145  1  0.88893000  0.90917000  0.70010000  1.0 0.0994310017
H  H146  1  0.81448000  0.75372000  0.66146000  1.0 0.1209430545
H  H147  1  0.77303000  0.37673000  0.67652000  1.0 0.0897560402
H  H148  1  0.83746000  0.29368000  0.72079000  1.0 0.0798271746
H  H149  1  0.70468000  0.11704000  0.57616000  1.0 0.0798271746
H  H150  1  0.61812000  0.18342000  0.53967000  1.0 0.0798271746
H  H151  1  0.75388000  0.94468000  0.08618000  1.0 0.0994310017
H  H152  1  0.79057000  0.04099000  0.03542000  1.0 0.0994310017
H  H153  1  0.91661000  0.01507000  0.07986000  1.0 0.0696893357
H  H154  1  0.85474000  0.93036000  0.02968000  1.0 0.0994310017
H  H155  1  0.96298000  0.15082000  0.00303000  1.0 0.0798271746
H  H156  1  0.01393000  0.10221000  0.99787000  1.0 0.0897560402
H  H157  1  0.88957000  0.00459000  0.92006000  1.0 0.0994310017
H  H158  1  0.95305000  0.12963000  0.90414000  1.0 0.0696893357
H  H159  1  0.77995000  0.03471000  0.87125000  1.0 0.0798271746
H  H160  1  0.80782000  0.09890000  0.92593000  1.0 0.0798271746
H  H161  1  0.62984000  0.89562000  0.92002000  1.0 0.2896516583
H  H162  1  0.08149000  0.12403000  0.78413000  1.0 0.0897560402
H  H163  1  0.22634000  0.21310000  0.85635000  1.0 0.1209430545
H  H164  1  0.07611000  0.35853000  0.77565000  1.0 0.0619914527
H  H165  1  0.21770000  0.44242000  0.85172000  1.0 0.0696893357
H  H166  1  0.61545000  0.77205000  0.54239000  1.0 0.0897560402
H  H167  1  0.68501000  0.92631000  0.58275000  1.0 0.0696893357
H  H168  1  0.90425000  0.92613000  0.69165000  1.0 0.0994310017
H  H169  1  0.83454000  0.77494000  0.64968000  1.0 0.1209430545
H  H170  1  0.81689000  0.41593000  0.66023000  1.0 0.0897560402
H  H171  1  0.88741000  0.33701000  0.69972000  1.0 0.0798271746
H  H172  1  0.73308000  0.14890000  0.55926000  1.0 0.0798271746
H  H173  1  0.67395000  0.24101000  0.51647000  1.0 0.0798271746
H  H174  1  0.31127000  0.57889000  0.16294000  1.0 0.1209430545
H  H175  1  0.30786000  0.48224000  0.17954000  1.0 0.1090068183
H  H176  1  0.31205000  0.56395000  0.25921000  1.0 0.0897560402
H  H177  1  0.43958000  0.65274000  0.25361000  1.0 0.0798271746
H  H178  1  0.31472000  0.42960000  0.28373000  1.0 0.0897560402
H  H179  1  0.39508000  0.52108000  0.33013000  1.0 0.0994310017
H  H180  1  0.50679000  0.51005000  0.31663000  1.0 0.0897560402
H  H181  1  0.44056000  0.45046000  0.25569000  1.0 0.0798271746
H  H182  1  0.60918000  0.60878000  0.23626000  1.0 0.0619914527
H  H183  1  0.59435000  0.67345000  0.26671000  1.0 0.0478992871
H  H184  1  0.59572000  0.70920000  0.15868000  1.0 0.2671507559
C  C1  1  0.62380000  0.68560000  0.42000000  1.0 0.314603772
C  C2  1  0.83310000  0.91290000  0.31090000  1.0 -0.0984147042
C  C3  1  0.77980000  0.82620000  0.35270000  1.0 -0.0913905837
C  C4  1  0.68800000  0.78600000  0.37410000  1.0 0.0123366064
C  C5  1  0.79360000  0.96380000  0.29050000  1.0 0.0378561951
C  C6  1  0.70630000  0.92970000  0.31490000  1.0 -0.0403650551
C  C7  1  0.65350000  0.84150000  0.35770000  1.0 -0.0403650551
C  C8  1  0.35840000  0.34360000  0.07600000  1.0 0.5262055061
C  C9  1  0.26250000  0.30150000  0.10300000  1.0 -0.0403650551
C  C10  1  0.22340000  0.35260000  0.09000000  1.0 -0.0116973744
C  C11  1  0.13390000  0.31410000  0.11450000  1.0 -0.0403650551
C  C12  1  0.07940000  0.21860000  0.15440000  1.0 0.0206747204
C  C13  1  0.12380000  0.17220000  0.17200000  1.0 -0.1572451778
C  C14  1  0.21480000  0.21520000  0.14800000  1.0 -0.0695319384
C  C15  1  0.64050000  0.32950000  0.06700000  1.0 0.4256015084
C  C16  1  0.69900000  0.29500000  0.09900000  1.0 -0.1117747166
C  C17  1  0.67450000  0.23950000  0.15550000  1.0 -0.0210613476
C  C18  1  0.72440000  0.20160000  0.18200000  1.0 -0.0496858651
C  C19  1  0.79930000  0.22070000  0.15280000  1.0 0.0028224745
C  C20  1  0.83230000  0.28370000  0.09710000  1.0 -0.0695319384
C  C21  1  0.78720000  0.32880000  0.07320000  1.0 -0.001845842
C  C22  1  0.84700000  0.17500000  0.17910000  1.0 0.1209430545
C  C23  1  0.84600000  0.05400000  0.24250000  1.0 0.1517409371
C  C24  1  0.97890000  0.17310000  0.17980000  1.0 0.1517409371
C  C25  1  0.10640000  0.31880000  0.50250000  1.0 0.5435807965
C  C26  1  0.02750000  0.22550000  0.54390000  1.0 -0.3556002863
C  C27  1  0.00320000  0.12480000  0.53970000  1.0 -0.2024839576
C  C28  1  0.91380000  0.05420000  0.49380000  1.0 -0.2389437326
C  C29  1  0.93540000  0.10060000  0.43050000  1.0 -0.2207434811
C  C30  1  0.96320000  0.20480000  0.41590000  1.0 -0.0496858651
C  C31  1  0.59920000  0.66180000  0.40600000  1.0 0.3208327256
C  C32  1  0.81110000  0.89090000  0.29790000  1.0 -0.0984147042
C  C33  1  0.75730000  0.80470000  0.34030000  1.0 -0.0913905837
C  C34  1  0.66420000  0.76280000  0.36040000  1.0 0.0123366064
C  C35  1  0.76820000  0.93780000  0.27510000  1.0 0.0344934444
C  C36  1  0.67290000  0.89510000  0.29330000  1.0 -0.0496858651
C  C37  1  0.62210000  0.80990000  0.33730000  1.0 -0.0303772596
C  C38  1  0.34710000  0.33490000  0.07000000  1.0 0.5191825888
C  C39  1  0.24680000  0.28720000  0.09500000  1.0 -0.0116973744
C  C40  1  0.19710000  0.32690000  0.07360000  1.0 -0.0116973744
C  C41  1  0.10490000  0.28510000  0.09670000  1.0 -0.0403650551
C  C42  1  0.05710000  0.19690000  0.14110000  1.0 0.0206747204
C  C43  1  0.10520000  0.15480000  0.16100000  1.0 -0.1572451778
C  C44  1  0.19610000  0.19790000  0.13700000  1.0 -0.0695319384
C  C45  1  0.63940000  0.33460000  0.06900000  1.0 0.4429145865
C  C46  1  0.68360000  0.28240000  0.09300000  1.0 -0.1287214942
C  C47  1  0.64360000  0.20640000  0.14200000  1.0 -0.0116973744
C  C48  1  0.68910000  0.16290000  0.16500000  1.0 -0.0623683744
C  C49  1  0.77230000  0.19370000  0.13780000  1.0 -0.001845842
C  C50  1  0.80020000  0.25380000  0.08090000  1.0 -0.0695319384
C  C51  1  0.74900000  0.29300000  0.05680000  1.0 0.0123366064
C  C52  1  0.82200000  0.15000000  0.16420000  1.0 0.1276951544
C  C53  1  0.82400000  0.03200000  0.22940000  1.0 0.1397968605
C  C54  1  0.95620000  0.15180000  0.16640000  1.0 0.1517409371
C  C55  1  0.38260000  0.55540000  0.64530000  1.0 0.4843423329
C  C56  1  0.44000000  0.64600000  0.68250000  1.0 -0.2765843608
C  C57  1  0.42320000  0.62680000  0.74740000  1.0 -0.1225648374
C  C58  1  0.49430000  0.61570000  0.78800000  1.0 -0.2765843608
C  C59  1  0.48630000  0.52770000  0.77700000  1.0 -0.1486100021
C  C60  1  0.38600000  0.44400000  0.74100000  1.0 -0.0695319384
C  C61  1  0.68560000  0.62380000  0.08000000  1.0 0.314603772
C  C62  1  0.91290000  0.83310000  0.18910000  1.0 -0.0984147042
C  C63  1  0.82620000  0.77980000  0.14730000  1.0 -0.0913905837
C  C64  1  0.78600000  0.68800000  0.12590000  1.0 0.0123366064
C  C65  1  0.96380000  0.79360000  0.20950000  1.0 0.0378561951
C  C66  1  0.92970000  0.70630000  0.18510000  1.0 -0.0403650551
C  C67  1  0.84150000  0.65350000  0.14230000  1.0 -0.0403650551
C  C68  1  0.34360000  0.35840000  0.42400000  1.0 0.5262055061
C  C69  1  0.30150000  0.26250000  0.39700000  1.0 -0.0403650551
C  C70  1  0.35260000  0.22340000  0.41000000  1.0 -0.0116973744
C  C71  1  0.31410000  0.13390000  0.38550000  1.0 -0.0403650551
C  C72  1  0.21860000  0.07940000  0.34560000  1.0 0.0206747204
C  C73  1  0.17220000  0.12380000  0.32800000  1.0 -0.1572451778
C  C74  1  0.21520000  0.21480000  0.35200000  1.0 -0.0695319384
C  C75  1  0.32950000  0.64050000  0.43300000  1.0 0.4256015084
C  C76  1  0.29500000  0.69900000  0.40100000  1.0 -0.1117747166
C  C77  1  0.23950000  0.67450000  0.34450000  1.0 -0.0210613476
C  C78  1  0.20160000  0.72440000  0.31800000  1.0 -0.0496858651
C  C79  1  0.22070000  0.79930000  0.34720000  1.0 0.0028224745
C  C80  1  0.28370000  0.83230000  0.40290000  1.0 -0.0755455805
C  C81  1  0.32880000  0.78720000  0.42680000  1.0 -0.001845842
C  C82  1  0.17500000  0.84700000  0.32090000  1.0 0.1209430545
C  C83  1  0.05400000  0.84600000  0.25750000  1.0 0.1517409371
C  C84  1  0.17310000  0.97890000  0.32020000  1.0 0.1517409371
C  C85  1  0.31880000  0.10640000  0.99750000  1.0 0.5435807965
C  C86  1  0.22550000  0.02750000  0.95610000  1.0 -0.3556002863
C  C87  1  0.12480000  0.00320000  0.96030000  1.0 -0.2024839576
C  C88  1  0.05420000  0.91380000  0.00620000  1.0 -0.2389437326
C  C89  1  0.10060000  0.93540000  0.06950000  1.0 -0.2207434811
C  C90  1  0.20480000  0.96320000  0.08410000  1.0 -0.0496858651
C  C91  1  0.66180000  0.59920000  0.09400000  1.0 0.3208327256
C  C92  1  0.89090000  0.81110000  0.20210000  1.0 -0.0984147042
C  C93  1  0.80470000  0.75730000  0.15970000  1.0 -0.0913905837
C  C94  1  0.76280000  0.66420000  0.13960000  1.0 0.0123366064
C  C95  1  0.93780000  0.76820000  0.22490000  1.0 0.0344934444
C  C96  1  0.89510000  0.67290000  0.20670000  1.0 -0.0496858651
C  C97  1  0.80990000  0.62210000  0.16270000  1.0 -0.0303772596
C  C98  1  0.33490000  0.34710000  0.43000000  1.0 0.5191825888
C  C99  1  0.28720000  0.24680000  0.40500000  1.0 -0.0116973744
C  C100  1  0.32690000  0.19710000  0.42640000  1.0 -0.0116973744
C  C101  1  0.28510000  0.10490000  0.40330000  1.0 -0.0403650551
C  C102  1  0.19690000  0.05710000  0.35890000  1.0 0.0206747204
C  C103  1  0.15480000  0.10520000  0.33900000  1.0 -0.1572451778
C  C104  1  0.19790000  0.19610000  0.36300000  1.0 -0.0695319384
C  C105  1  0.33460000  0.63940000  0.43100000  1.0 0.4429145865
C  C106  1  0.28240000  0.68360000  0.40700000  1.0 -0.1287214942
C  C107  1  0.20640000  0.64360000  0.35800000  1.0 -0.0116973744
C  C108  1  0.16290000  0.68910000  0.33500000  1.0 -0.0623683744
C  C109  1  0.19370000  0.77230000  0.36220000  1.0 -0.001845842
C  C110  1  0.25380000  0.80020000  0.41910000  1.0 -0.0695319384
C  C111  1  0.29300000  0.74900000  0.44320000  1.0 0.0123366064
C  C112  1  0.15000000  0.82200000  0.33580000  1.0 0.1276951544
C  C113  1  0.03200000  0.82400000  0.27060000  1.0 0.1397968605
C  C114  1  0.15180000  0.95620000  0.33360000  1.0 0.1517409371
C  C115  1  0.55540000  0.38260000  0.85470000  1.0 0.4843423329
C  C116  1  0.64600000  0.44000000  0.81750000  1.0 -0.2765843608
C  C117  1  0.62680000  0.42320000  0.75260000  1.0 -0.1225648374
C  C118  1  0.61570000  0.49430000  0.71200000  1.0 -0.2765843608
C  C119  1  0.52770000  0.48630000  0.72300000  1.0 -0.1486100021
C  C120  1  0.44400000  0.38600000  0.75900000  1.0 -0.0695319384
C  C121  1  0.37620000  0.31440000  0.58000000  1.0 0.314603772
C  C122  1  0.16690000  0.08710000  0.68910000  1.0 -0.0984147042
C  C123  1  0.22020000  0.17380000  0.64730000  1.0 -0.0913905837
C  C124  1  0.31200000  0.21400000  0.62590000  1.0 0.0123366064
C  C125  1  0.20640000  0.03620000  0.70950000  1.0 0.0378561951
C  C126  1  0.29370000  0.07030000  0.68510000  1.0 -0.0403650551
C  C127  1  0.34650000  0.15850000  0.64230000  1.0 -0.0403650551
C  C128  1  0.64160000  0.65640000  0.92400000  1.0 0.5262055061
C  C129  1  0.73750000  0.69850000  0.89700000  1.0 -0.0403650551
C  C130  1  0.77660000  0.64740000  0.91000000  1.0 -0.0116973744
C  C131  1  0.86610000  0.68590000  0.88550000  1.0 -0.0403650551
C  C132  1  0.92060000  0.78140000  0.84560000  1.0 0.0206747204
C  C133  1  0.87620000  0.82780000  0.82800000  1.0 -0.1572451778
C  C134  1  0.78520000  0.78480000  0.85200000  1.0 -0.0695319384
C  C135  1  0.35950000  0.67050000  0.93300000  1.0 0.4256015084
C  C136  1  0.30100000  0.70500000  0.90100000  1.0 -0.1117747166
C  C137  1  0.32550000  0.76050000  0.84450000  1.0 -0.0210613476
C  C138  1  0.27560000  0.79840000  0.81800000  1.0 -0.0496858651
C  C139  1  0.20070000  0.77930000  0.84720000  1.0 0.0028224745
C  C140  1  0.16770000  0.71630000  0.90290000  1.0 -0.0755455805
C  C141  1  0.21280000  0.67120000  0.92680000  1.0 -0.001845842
C  C142  1  0.15300000  0.82500000  0.82090000  1.0 0.1209430545
C  C143  1  0.15400000  0.94600000  0.75750000  1.0 0.1517409371
C  C144  1  0.02110000  0.82690000  0.82020000  1.0 0.1517409371
C  C145  1  0.89360000  0.68120000  0.49750000  1.0 0.5435807965
C  C146  1  0.97250000  0.77450000  0.45610000  1.0 -0.3556002863
C  C147  1  0.99680000  0.87520000  0.46030000  1.0 -0.2024839576
C  C148  1  0.08620000  0.94580000  0.50620000  1.0 -0.2389437326
C  C149  1  0.06460000  0.89940000  0.56950000  1.0 -0.2207434811
C  C150  1  0.03680000  0.79520000  0.58410000  1.0 -0.0496858651
C  C151  1  0.40080000  0.33820000  0.59400000  1.0 0.3208327256
C  C152  1  0.18890000  0.10910000  0.70210000  1.0 -0.0984147042
C  C153  1  0.24270000  0.19530000  0.65970000  1.0 -0.0913905837
C  C154  1  0.33580000  0.23720000  0.63960000  1.0 0.0123366064
C  C155  1  0.23180000  0.06220000  0.72490000  1.0 0.0344934444
C  C156  1  0.32710000  0.10490000  0.70670000  1.0 -0.0496858651
C  C157  1  0.37790000  0.19010000  0.66270000  1.0 -0.0303772596
C  C158  1  0.65290000  0.66510000  0.93000000  1.0 0.5191825888
C  C159  1  0.75320000  0.71280000  0.90500000  1.0 -0.0116973744
C  C160  1  0.80290000  0.67310000  0.92640000  1.0 -0.0116973744
C  C161  1  0.89510000  0.71490000  0.90330000  1.0 -0.0403650551
C  C162  1  0.94290000  0.80310000  0.85890000  1.0 0.0206747204
C  C163  1  0.89480000  0.84520000  0.83900000  1.0 -0.1572451778
C  C164  1  0.80390000  0.80210000  0.86300000  1.0 -0.0695319384
C  C165  1  0.36060000  0.66540000  0.93100000  1.0 0.4429145865
C  C166  1  0.31640000  0.71760000  0.90700000  1.0 -0.1287214942
C  C167  1  0.35640000  0.79360000  0.85800000  1.0 -0.0116973744
C  C168  1  0.31090000  0.83710000  0.83500000  1.0 -0.0623683744
C  C169  1  0.22770000  0.80630000  0.86220000  1.0 -0.001845842
C  C170  1  0.19980000  0.74620000  0.91910000  1.0 -0.0695319384
C  C171  1  0.25100000  0.70700000  0.94320000  1.0 0.0123366064
C  C172  1  0.17800000  0.85000000  0.83580000  1.0 0.1276951544
C  C173  1  0.17600000  0.96800000  0.77060000  1.0 0.1397968605
C  C174  1  0.04380000  0.84820000  0.83360000  1.0 0.1517409371
C  C175  1  0.61740000  0.44460000  0.35470000  1.0 0.4843423329
C  C176  1  0.56000000  0.35400000  0.31750000  1.0 -0.2765843608
C  C177  1  0.57680000  0.37320000  0.25260000  1.0 -0.1225648374
C  C178  1  0.50570000  0.38430000  0.21200000  1.0 -0.2765843608
C  C179  1  0.51370000  0.47230000  0.22300000  1.0 -0.1486100021
C  C180  1  0.61400000  0.55600000  0.25900000  1.0 -0.0695319384
C  C181  1  0.31440000  0.37620000  0.92000000  1.0 0.314603772
C  C182  1  0.08710000  0.16690000  0.81090000  1.0 -0.0984147042
C  C183  1  0.17380000  0.22020000  0.85270000  1.0 -0.0913905837
C  C184  1  0.21400000  0.31200000  0.87410000  1.0 0.0123366064
C  C185  1  0.03620000  0.20640000  0.79050000  1.0 0.0378561951
C  C186  1  0.07030000  0.29370000  0.81490000  1.0 -0.0403650551
C  C187  1  0.15850000  0.34650000  0.85770000  1.0 -0.0403650551
C  C188  1  0.65640000  0.64160000  0.57600000  1.0 0.5262055061
C  C189  1  0.69850000  0.73750000  0.60300000  1.0 -0.0403650551
C  C190  1  0.64740000  0.77660000  0.59000000  1.0 -0.0116973744
C  C191  1  0.68590000  0.86610000  0.61450000  1.0 -0.0403650551
C  C192  1  0.78140000  0.92060000  0.65440000  1.0 0.0206747204
C  C193  1  0.82780000  0.87620000  0.67200000  1.0 -0.1572451778
C  C194  1  0.78480000  0.78520000  0.64800000  1.0 -0.0695319384
C  C195  1  0.67050000  0.35950000  0.56700000  1.0 0.4256015084
C  C196  1  0.70500000  0.30100000  0.59900000  1.0 -0.1117747166
C  C197  1  0.76050000  0.32550000  0.65550000  1.0 -0.0210613476
C  C198  1  0.79840000  0.27560000  0.68200000  1.0 -0.0496858651
C  C199  1  0.77930000  0.20070000  0.65280000  1.0 0.0028224745
C  C200  1  0.71630000  0.16770000  0.59710000  1.0 -0.0755455805
C  C201  1  0.67120000  0.21280000  0.57320000  1.0 -0.001845842
C  C202  1  0.82500000  0.15300000  0.67910000  1.0 0.1209430545
C  C203  1  0.94600000  0.15400000  0.74250000  1.0 0.1517409371
C  C204  1  0.82690000  0.02110000  0.67980000  1.0 0.1517409371
C  C205  1  0.68120000  0.89360000  0.00250000  1.0 0.5435807965
C  C206  1  0.77450000  0.97250000  0.04390000  1.0 -0.3556002863
C  C207  1  0.87520000  0.99680000  0.03970000  1.0 -0.2024839576
C  C208  1  0.94580000  0.08620000  0.99380000  1.0 -0.2389437326
C  C209  1  0.89940000  0.06460000  0.93050000  1.0 -0.2207434811
C  C210  1  0.79520000  0.03680000  0.91590000  1.0 -0.0496858651
C  C211  1  0.33820000  0.40080000  0.90600000  1.0 0.3208327256
C  C212  1  0.10910000  0.18890000  0.79790000  1.0 -0.0984147042
C  C213  1  0.19530000  0.24270000  0.84030000  1.0 -0.0913905837
C  C214  1  0.23720000  0.33580000  0.86040000  1.0 0.0123366064
C  C215  1  0.06220000  0.23180000  0.77510000  1.0 0.0344934444
C  C216  1  0.10490000  0.32710000  0.79330000  1.0 -0.0496858651
C  C217  1  0.19010000  0.37790000  0.83730000  1.0 -0.0303772596
C  C218  1  0.66510000  0.65290000  0.57000000  1.0 0.5191825888
C  C219  1  0.71280000  0.75320000  0.59500000  1.0 -0.0116973744
C  C220  1  0.67310000  0.80290000  0.57360000  1.0 -0.0116973744
C  C221  1  0.71490000  0.89510000  0.59670000  1.0 -0.0403650551
C  C222  1  0.80310000  0.94290000  0.64110000  1.0 0.0206747204
C  C223  1  0.84520000  0.89480000  0.66100000  1.0 -0.1572451778
C  C224  1  0.80210000  0.80390000  0.63700000  1.0 -0.0695319384
C  C225  1  0.66540000  0.36060000  0.56900000  1.0 0.4429145865
C  C226  1  0.71760000  0.31640000  0.59300000  1.0 -0.1287214942
C  C227  1  0.79360000  0.35640000  0.64200000  1.0 -0.0116973744
C  C228  1  0.83710000  0.31090000  0.66500000  1.0 -0.0623683744
C  C229  1  0.80630000  0.22770000  0.63780000  1.0 -0.001845842
C  C230  1  0.74620000  0.19980000  0.58090000  1.0 -0.0695319384
C  C231  1  0.70700000  0.25100000  0.55680000  1.0 0.0123366064
C  C232  1  0.85000000  0.17800000  0.66420000  1.0 0.1276951544
C  C233  1  0.96800000  0.17600000  0.72940000  1.0 0.1397968605
C  C234  1  0.84820000  0.04380000  0.66640000  1.0 0.1517409371
C  C235  1  0.44460000  0.61740000  0.14530000  1.0 0.4843423329
C  C236  1  0.35400000  0.56000000  0.18250000  1.0 -0.2765843608
C  C237  1  0.37320000  0.57680000  0.24740000  1.0 -0.1225648374
C  C238  1  0.38430000  0.50570000  0.28800000  1.0 -0.2765843608
C  C239  1  0.47230000  0.51370000  0.27700000  1.0 -0.1486100021
C  C240  1  0.55600000  0.61400000  0.24100000  1.0 -0.0695319384
N  N1  1  0.80200000  0.09800000  0.22430000  1.0 -0.1429264062
N  N2  1  0.93660000  0.09140000  0.22350000  1.0 -0.2129747459
N  N3  1  0.93960000  0.21840000  0.15590000  1.0 -0.1429264062
N  N4  1  0.06750000  0.31050000  0.44450000  1.0 -0.3036666352
N  N5  1  0.77430000  0.06970000  0.20760000  1.0 -0.1486100021
N  N6  1  0.91320000  0.06880000  0.20880000  1.0 -0.2024839576
N  N7  1  0.91060000  0.18940000  0.13860000  1.0 -0.1486100021
N  N8  1  0.34640000  0.46360000  0.67680000  1.0 -0.4697767907
N  N9  1  0.09800000  0.80200000  0.27570000  1.0 -0.1429264062
N  N10  1  0.09140000  0.93660000  0.27650000  1.0 -0.2129747459
N  N11  1  0.21840000  0.93960000  0.34410000  1.0 -0.1429264062
N  N12  1  0.31050000  0.06750000  0.05550000  1.0 -0.309613023
N  N13  1  0.06970000  0.77430000  0.29240000  1.0 -0.1486100021
N  N14  1  0.06880000  0.91320000  0.29120000  1.0 -0.2024839576
N  N15  1  0.18940000  0.91060000  0.36140000  1.0 -0.1486100021
N  N16  1  0.46360000  0.34640000  0.82320000  1.0 -0.4697767907
N  N17  1  0.19800000  0.90200000  0.77570000  1.0 -0.1429264062
N  N18  1  0.06340000  0.90860000  0.77650000  1.0 -0.2129747459
N  N19  1  0.06040000  0.78160000  0.84410000  1.0 -0.1429264062
N  N20  1  0.93250000  0.68950000  0.55550000  1.0 -0.3036666352
N  N21  1  0.22570000  0.93030000  0.79240000  1.0 -0.1486100021
N  N22  1  0.08680000  0.93120000  0.79120000  1.0 -0.2024839576
N  N23  1  0.08940000  0.81060000  0.86140000  1.0 -0.1486100021
N  N24  1  0.65360000  0.53640000  0.32320000  1.0 -0.4697767907
N  N25  1  0.90200000  0.19800000  0.72430000  1.0 -0.1429264062
N  N26  1  0.90860000  0.06340000  0.72350000  1.0 -0.2129747459
N  N27  1  0.78160000  0.06040000  0.65590000  1.0 -0.1429264062
N  N28  1  0.68950000  0.93250000  0.94450000  1.0 -0.3036666352
N  N29  1  0.93030000  0.22570000  0.70760000  1.0 -0.1486100021
N  N30  1  0.93120000  0.08680000  0.70880000  1.0 -0.2024839576
N  N31  1  0.81060000  0.08940000  0.63860000  1.0 -0.1486100021
N  N32  1  0.53640000  0.65360000  0.17680000  1.0 -0.4697767907
O  O1  1  0.53670000  0.65330000  0.43330000  1.0 -0.24500205
O  O2  1  0.66880000  0.65120000  0.44140000  1.0 -0.2207434811
O  O3  1  0.38040000  0.28560000  0.08200000  1.0 -0.5265600719
O  O4  1  0.42270000  0.43930000  0.05190000  1.0 -0.5112078526
O  O5  1  0.68990000  0.41010000  0.02550000  1.0 -0.3302615025
O  O6  1  0.55170000  0.28830000  0.08490000  1.0 -0.2851116993
O  O7  1  0.19470000  0.39730000  0.51720000  1.0 -0.4818071761
O  O8  1  0.39800000  0.56600000  0.59510000  1.0 -0.4697767907
O  O9  1  0.51050000  0.62670000  0.41810000  1.0 -0.2389437326
O  O10  1  0.64350000  0.62650000  0.42650000  1.0 -0.2207434811
O  O11  1  0.36740000  0.27660000  0.07200000  1.0 -0.5265600719
O  O12  1  0.40040000  0.42560000  0.04000000  1.0 -0.4818071761
O  O13  1  0.65980000  0.38420000  0.01510000  1.0 -0.309613023
O  O14  1  0.56760000  0.31240000  0.09710000  1.0 -0.3206442973
O  O15  1  0.65330000  0.53670000  0.06670000  1.0 -0.24500205
O  O16  1  0.65120000  0.66880000  0.05860000  1.0 -0.2207434811
O  O17  1  0.28560000  0.38040000  0.41800000  1.0 -0.5265600719
O  O18  1  0.43930000  0.42270000  0.44810000  1.0 -0.5112078526
O  O19  1  0.41010000  0.68990000  0.47450000  1.0 -0.3302615025
O  O20  1  0.28830000  0.55170000  0.41510000  1.0 -0.2851116993
O  O21  1  0.39730000  0.19470000  0.98280000  1.0 -0.4818071761
O  O22  1  0.56600000  0.39800000  0.90490000  1.0 -0.4697767907
O  O23  1  0.62670000  0.51050000  0.08190000  1.0 -0.2389437326
O  O24  1  0.62650000  0.64350000  0.07350000  1.0 -0.2207434811
O  O25  1  0.27660000  0.36740000  0.42800000  1.0 -0.5265600719
O  O26  1  0.42560000  0.40040000  0.46000000  1.0 -0.4818071761
O  O27  1  0.38420000  0.65980000  0.48490000  1.0 -0.3206442973
O  O28  1  0.31240000  0.56760000  0.40290000  1.0 -0.3206442973
O  O29  1  0.46330000  0.34670000  0.56670000  1.0 -0.2389437326
O  O30  1  0.33120000  0.34880000  0.55860000  1.0 -0.2207434811
O  O31  1  0.61960000  0.71440000  0.91800000  1.0 -0.5265600719
O  O32  1  0.57730000  0.56070000  0.94810000  1.0 -0.5112078526
O  O33  1  0.31010000  0.58990000  0.97450000  1.0 -0.3302615025
O  O34  1  0.44830000  0.71170000  0.91510000  1.0 -0.2851116993
O  O35  1  0.80530000  0.60270000  0.48280000  1.0 -0.4818071761
O  O36  1  0.60200000  0.43400000  0.40490000  1.0 -0.4697767907
O  O37  1  0.48950000  0.37330000  0.58190000  1.0 -0.2389437326
O  O38  1  0.35650000  0.37350000  0.57350000  1.0 -0.2207434811
O  O39  1  0.63260000  0.72340000  0.92800000  1.0 -0.5265600719
O  O40  1  0.59960000  0.57440000  0.96000000  1.0 -0.4818071761
O  O41  1  0.34020000  0.61580000  0.98490000  1.0 -0.3206442973
O  O42  1  0.43240000  0.68760000  0.90290000  1.0 -0.3206442973
O  O43  1  0.34670000  0.46330000  0.93330000  1.0 -0.2389437326
O  O44  1  0.34880000  0.33120000  0.94140000  1.0 -0.2207434811
O  O45  1  0.71440000  0.61960000  0.58200000  1.0 -0.5265600719
O  O46  1  0.56070000  0.57730000  0.55190000  1.0 -0.5112078526
O  O47  1  0.58990000  0.31010000  0.52550000  1.0 -0.3302615025
O  O48  1  0.71170000  0.44830000  0.58490000  1.0 -0.2851116993
O  O49  1  0.60270000  0.80530000  0.01720000  1.0 -0.4818071761
O  O50  1  0.43400000  0.60200000  0.09510000  1.0 -0.4697767907
O  O51  1  0.37330000  0.48950000  0.91810000  1.0 -0.2389437326
O  O52  1  0.37350000  0.35650000  0.92650000  1.0 -0.2207434811
O  O53  1  0.72340000  0.63260000  0.57200000  1.0 -0.5265600719
O  O54  1  0.57440000  0.59960000  0.54000000  1.0 -0.4818071761
O  O55  1  0.61580000  0.34020000  0.51510000  1.0 -0.3206442973
O  O56  1  0.68760000  0.43240000  0.59710000  1.0 -0.3206442973
