# DDEC6 charges by PACMAN v1.1 (https://github.com/mtap-research/PACMAN-charge/)
data_TOYCAO_FSR_pacman
_symmetry_space_group_name_H-M   'P 1'
_cell_length_a   17.62630000
_cell_length_b   17.62630000
_cell_length_c   28.65400000
_cell_angle_alpha   71.26780000
_cell_angle_beta   108.73200000
_cell_angle_gamma   148.67900000
_symmetry_Int_Tables_number   1
_chemical_formula_structural   Gd2H100C90N8O21
_chemical_formula_sum   'Gd4 H200 C180 N16 O42'
_cell_volume   4362.78041924
_cell_formula_units_Z   2
loop_
 _symmetry_equiv_pos_site_id
 _symmetry_equiv_pos_as_xyz
  1  'x, y, z'
loop_
 _atom_site_type_symbol
 _atom_site_label
 _atom_site_symmetry_multiplicity
 _atom_site_fract_x
 _atom_site_fract_y
 _atom_site_fract_z
 _atom_site_occupancy
 _atom_site_charge
Gd  Gd1  1  0.17160000  0.06974000  0.50823000  1.0 2.0244956782
Gd  Gd2  1  0.06974000  0.17160000  0.99177000  1.0 2.0244956782
Gd  Gd3  1  0.82840000  0.93026000  0.49177000  1.0 2.025026398
Gd  Gd4  1  0.93026000  0.82840000  0.00823000  1.0 2.0244956782
H  H1  1  0.57257000  0.57253000  0.39082000  1.0 0.110905567
H  H2  1  0.50655000  0.42431000  0.35033000  1.0 0.120079963
H  H3  1  0.94472000  0.75916000  0.45159000  1.0 0.120079963
H  H4  1  0.87740000  0.61068000  0.41057000  1.0 0.110905567
H  H5  1  0.16216000  0.94290000  0.16223000  1.0 0.1281956783
H  H6  1  0.30020000  0.01640000  0.23852000  1.0 0.120079963
H  H7  1  0.48601000  0.39085000  0.20955000  1.0 0.1386141291
H  H8  1  0.34919000  0.31775000  0.13352000  1.0 0.1281956783
H  H9  1  0.92408000  0.30200000  0.43953000  1.0 0.110905567
H  H10  1  0.86971000  0.39237000  0.40004000  1.0 0.110905567
H  H11  1  0.47480000  0.00180000  0.34688000  1.0 0.110905567
H  H12  1  0.53469000  0.91659000  0.38397000  1.0 0.120079963
H  H13  1  0.73825000  0.39083000  0.39997000  1.0 0.120079963
H  H14  1  0.52680000  0.39120000  0.28983000  1.0 0.120079963
H  H15  1  0.50952000  0.15026000  0.28505000  1.0 0.120079963
H  H16  1  0.73327000  0.40309000  0.57512000  1.0 0.0982315896
H  H17  1  0.82459000  0.52017000  0.52814000  1.0 0.0982315896
H  H18  1  0.79070000  0.55800000  0.59800000  1.0 0.0982315896
H  H19  1  0.84761000  0.65345000  0.54521000  1.0 0.110905567
H  H20  1  0.63817000  0.55217000  0.52765000  1.0 0.1475880837
H  H21  1  0.56791000  0.43357000  0.57560000  1.0 0.1386141291
H  H22  1  0.62468000  0.28002000  0.49431000  1.0 0.120079963
H  H23  1  0.53929000  0.28185000  0.45352000  1.0 0.1281956783
H  H24  1  0.46128000  0.16434000  0.50106000  1.0 0.120079963
H  H25  1  0.23152000  0.96238000  0.32856000  1.0 0.0982315896
H  H26  1  0.07484000  0.80264000  0.34894000  1.0 0.0982315896
H  H27  1  0.98242000  0.84362000  0.30288000  1.0 0.0793544531
H  H28  1  0.14120000  0.00706000  0.28560000  1.0 0.0793544531
H  H29  1  0.15659000  0.09713000  0.33413000  1.0 0.110905567
H  H30  1  0.99673000  0.93259000  0.35152000  1.0 0.120079963
H  H31  1  0.27798000  0.98532000  0.46020000  1.0 0.110905567
H  H32  1  0.32752000  0.97242000  0.42933000  1.0 0.110905567
H  H33  1  0.16346000  0.82924000  0.44471000  1.0 0.0793544531
H  H34  1  0.03711000  0.04835000  0.29953000  1.0 0.0702390201
H  H35  1  0.98989000  0.93301000  0.34441000  1.0 0.120079963
H  H36  1  0.07473000  0.93067000  0.30126000  1.0 0.0702390201
H  H37  1  0.06225000  0.99399000  0.25052000  1.0 0.0507546594
H  H38  1  0.86110000  0.76352000  0.22818000  1.0 0.0982315896
H  H39  1  0.84823000  0.69571000  0.28448000  1.0 0.0793544531
H  H40  1  0.82168000  0.92650000  0.32056000  1.0 0.120079963
H  H41  1  0.67806000  0.75116000  0.32658000  1.0 0.120079963
H  H42  1  0.70521000  0.83675000  0.27376000  1.0 0.0982315896
H  H43  1  0.29617000  0.92311000  0.44673000  1.0 0.110905567
H  H44  1  0.14525000  0.84585000  0.32487000  1.0 0.0507546594
H  H45  1  0.03845000  0.68111000  0.33001000  1.0 0.1386141291
H  H46  1  0.20461000  0.81531000  0.31863000  1.0 0.1281956783
H  H47  1  0.21651000  0.72139000  0.44888000  1.0 0.1386141291
H  H48  1  0.25080000  0.73466000  0.39900000  1.0 0.1281956783
H  H49  1  0.08464000  0.60048000  0.41038000  1.0 0.120079963
H  H50  1  0.24864000  0.95420000  0.40223000  1.0 0.1386141291
H  H51  1  0.57253000  0.57257000  0.10918000  1.0 0.110905567
H  H52  1  0.42431000  0.50655000  0.14967000  1.0 0.120079963
H  H53  1  0.75916000  0.94472000  0.04841000  1.0 0.120079963
H  H54  1  0.61068000  0.87740000  0.08943000  1.0 0.110905567
H  H55  1  0.94290000  0.16216000  0.33777000  1.0 0.1281956783
H  H56  1  0.01640000  0.30020000  0.26148000  1.0 0.120079963
H  H57  1  0.39085000  0.48601000  0.29045000  1.0 0.1386141291
H  H58  1  0.31775000  0.34919000  0.36648000  1.0 0.1281956783
H  H59  1  0.30200000  0.92408000  0.06047000  1.0 0.110905567
H  H60  1  0.39237000  0.86971000  0.09996000  1.0 0.120079963
H  H61  1  0.00180000  0.47480000  0.15312000  1.0 0.110905567
H  H62  1  0.91659000  0.53469000  0.11603000  1.0 0.120079963
H  H63  1  0.39083000  0.73825000  0.10003000  1.0 0.120079963
H  H64  1  0.39120000  0.52680000  0.21017000  1.0 0.120079963
H  H65  1  0.15026000  0.50952000  0.21495000  1.0 0.120079963
H  H66  1  0.40309000  0.73327000  0.92488000  1.0 0.0982315896
H  H67  1  0.52017000  0.82459000  0.97186000  1.0 0.0982315896
H  H68  1  0.55800000  0.79070000  0.90200000  1.0 0.0982315896
H  H69  1  0.65345000  0.84761000  0.95479000  1.0 0.110905567
H  H70  1  0.55217000  0.63817000  0.97235000  1.0 0.1475880837
H  H71  1  0.43357000  0.56791000  0.92440000  1.0 0.1386141291
H  H72  1  0.28002000  0.62468000  0.00569000  1.0 0.120079963
H  H73  1  0.28185000  0.53929000  0.04648000  1.0 0.1281956783
H  H74  1  0.16434000  0.46128000  0.99894000  1.0 0.120079963
H  H75  1  0.96238000  0.23152000  0.17144000  1.0 0.0982315896
H  H76  1  0.80264000  0.07484000  0.15106000  1.0 0.0982315896
H  H77  1  0.84362000  0.98242000  0.19712000  1.0 0.0793544531
H  H78  1  0.00706000  0.14120000  0.21440000  1.0 0.0793544531
H  H79  1  0.09713000  0.15659000  0.16587000  1.0 0.110905567
H  H80  1  0.93259000  0.99673000  0.14848000  1.0 0.120079963
H  H81  1  0.98532000  0.27798000  0.03980000  1.0 0.110905567
H  H82  1  0.97242000  0.32752000  0.07067000  1.0 0.110905567
H  H83  1  0.82924000  0.16346000  0.05529000  1.0 0.0793544531
H  H84  1  0.04835000  0.03711000  0.20047000  1.0 0.0702390201
H  H85  1  0.93301000  0.98989000  0.15559000  1.0 0.120079963
H  H86  1  0.93067000  0.07473000  0.19874000  1.0 0.0702390201
H  H87  1  0.99399000  0.06225000  0.24948000  1.0 0.0507546594
H  H88  1  0.76352000  0.86110000  0.27182000  1.0 0.0982315896
H  H89  1  0.69571000  0.84823000  0.21552000  1.0 0.0793544531
H  H90  1  0.92650000  0.82168000  0.17944000  1.0 0.120079963
H  H91  1  0.75116000  0.67806000  0.17342000  1.0 0.120079963
H  H92  1  0.83675000  0.70521000  0.22624000  1.0 0.0982315896
H  H93  1  0.92311000  0.29617000  0.05327000  1.0 0.110905567
H  H94  1  0.84585000  0.14525000  0.17513000  1.0 0.0507546594
H  H95  1  0.68111000  0.03845000  0.16999000  1.0 0.1386141291
H  H96  1  0.81531000  0.20461000  0.18137000  1.0 0.1281956783
H  H97  1  0.72139000  0.21651000  0.05112000  1.0 0.1386141291
H  H98  1  0.73466000  0.25080000  0.10100000  1.0 0.1281956783
H  H99  1  0.60048000  0.08464000  0.08962000  1.0 0.120079963
H  H100  1  0.95420000  0.24864000  0.09777000  1.0 0.1386141291
H  H101  1  0.42743000  0.42747000  0.60918000  1.0 0.110905567
H  H102  1  0.49345000  0.57569000  0.64967000  1.0 0.120079963
H  H103  1  0.05528000  0.24084000  0.54841000  1.0 0.120079963
H  H104  1  0.12260000  0.38932000  0.58943000  1.0 0.110905567
H  H105  1  0.83784000  0.05710000  0.83777000  1.0 0.1281956783
H  H106  1  0.69980000  0.98360000  0.76148000  1.0 0.120079963
H  H107  1  0.51399000  0.60915000  0.79045000  1.0 0.1386141291
H  H108  1  0.65081000  0.68225000  0.86648000  1.0 0.1281956783
H  H109  1  0.07592000  0.69800000  0.56047000  1.0 0.110905567
H  H110  1  0.13029000  0.60763000  0.59996000  1.0 0.120079963
H  H111  1  0.52520000  0.99820000  0.65312000  1.0 0.110905567
H  H112  1  0.46531000  0.08341000  0.61603000  1.0 0.120079963
H  H113  1  0.26175000  0.60917000  0.60003000  1.0 0.120079963
H  H114  1  0.47320000  0.60880000  0.71017000  1.0 0.120079963
H  H115  1  0.49048000  0.84974000  0.71495000  1.0 0.120079963
H  H116  1  0.26673000  0.59691000  0.42488000  1.0 0.0982315896
H  H117  1  0.17541000  0.47983000  0.47186000  1.0 0.0982315896
H  H118  1  0.20930000  0.44200000  0.40200000  1.0 0.0982315896
H  H119  1  0.15239000  0.34655000  0.45479000  1.0 0.110905567
H  H120  1  0.36183000  0.44783000  0.47235000  1.0 0.1475880837
H  H121  1  0.43209000  0.56643000  0.42440000  1.0 0.1386141291
H  H122  1  0.37532000  0.71998000  0.50569000  1.0 0.120079963
H  H123  1  0.46071000  0.71815000  0.54648000  1.0 0.1281956783
H  H124  1  0.53872000  0.83566000  0.49894000  1.0 0.120079963
H  H125  1  0.76848000  0.03762000  0.67144000  1.0 0.0982315896
H  H126  1  0.92516000  0.19736000  0.65106000  1.0 0.0982315896
H  H127  1  0.01758000  0.15638000  0.69712000  1.0 0.0793544531
H  H128  1  0.85880000  0.99294000  0.71440000  1.0 0.0793544531
H  H129  1  0.84341000  0.90287000  0.66587000  1.0 0.110905567
H  H130  1  0.00327000  0.06741000  0.64848000  1.0 0.110905567
H  H131  1  0.72202000  0.01468000  0.53980000  1.0 0.110905567
H  H132  1  0.67248000  0.02758000  0.57067000  1.0 0.110905567
H  H133  1  0.83654000  0.17076000  0.55529000  1.0 0.0793544531
H  H134  1  0.96289000  0.95165000  0.70047000  1.0 0.0702390201
H  H135  1  0.01011000  0.06699000  0.65559000  1.0 0.120079963
H  H136  1  0.92527000  0.06933000  0.69874000  1.0 0.0702390201
H  H137  1  0.93775000  0.00601000  0.74948000  1.0 0.0507546594
H  H138  1  0.13890000  0.23648000  0.77182000  1.0 0.0982315896
H  H139  1  0.15177000  0.30429000  0.71552000  1.0 0.0793544531
H  H140  1  0.17832000  0.07350000  0.67944000  1.0 0.120079963
H  H141  1  0.32194000  0.24884000  0.67342000  1.0 0.120079963
H  H142  1  0.29479000  0.16325000  0.72624000  1.0 0.0982315896
H  H143  1  0.70383000  0.07689000  0.55327000  1.0 0.110905567
H  H144  1  0.85475000  0.15415000  0.67513000  1.0 0.0507546594
H  H145  1  0.96155000  0.31889000  0.66999000  1.0 0.1386141291
H  H146  1  0.79539000  0.18469000  0.68137000  1.0 0.1281956783
H  H147  1  0.78349000  0.27861000  0.55112000  1.0 0.1386141291
H  H148  1  0.74920000  0.26534000  0.60100000  1.0 0.1281956783
H  H149  1  0.91536000  0.39952000  0.58962000  1.0 0.120079963
H  H150  1  0.75136000  0.04580000  0.59777000  1.0 0.1386141291
H  H151  1  0.42747000  0.42743000  0.89082000  1.0 0.110905567
H  H152  1  0.57569000  0.49345000  0.85033000  1.0 0.120079963
H  H153  1  0.24084000  0.05528000  0.95159000  1.0 0.120079963
H  H154  1  0.38932000  0.12260000  0.91057000  1.0 0.110905567
H  H155  1  0.05710000  0.83784000  0.66223000  1.0 0.1281956783
H  H156  1  0.98360000  0.69980000  0.73852000  1.0 0.120079963
H  H157  1  0.60915000  0.51399000  0.70955000  1.0 0.1386141291
H  H158  1  0.68225000  0.65081000  0.63352000  1.0 0.1281956783
H  H159  1  0.69800000  0.07592000  0.93953000  1.0 0.110905567
H  H160  1  0.60763000  0.13029000  0.90004000  1.0 0.110905567
H  H161  1  0.99820000  0.52520000  0.84688000  1.0 0.110905567
H  H162  1  0.08341000  0.46531000  0.88397000  1.0 0.120079963
H  H163  1  0.60917000  0.26175000  0.89997000  1.0 0.120079963
H  H164  1  0.60880000  0.47320000  0.78983000  1.0 0.120079963
H  H165  1  0.84974000  0.49048000  0.78505000  1.0 0.120079963
H  H166  1  0.59691000  0.26673000  0.07512000  1.0 0.0982315896
H  H167  1  0.47983000  0.17541000  0.02814000  1.0 0.0982315896
H  H168  1  0.44200000  0.20930000  0.09800000  1.0 0.0982315896
H  H169  1  0.34655000  0.15239000  0.04521000  1.0 0.110905567
H  H170  1  0.44783000  0.36183000  0.02765000  1.0 0.1475880837
H  H171  1  0.56643000  0.43209000  0.07560000  1.0 0.1386141291
H  H172  1  0.71998000  0.37532000  0.99431000  1.0 0.120079963
H  H173  1  0.71815000  0.46071000  0.95352000  1.0 0.1281956783
H  H174  1  0.83566000  0.53872000  0.00106000  1.0 0.120079963
H  H175  1  0.03762000  0.76848000  0.82856000  1.0 0.0982315896
H  H176  1  0.19736000  0.92516000  0.84894000  1.0 0.0982315896
H  H177  1  0.15638000  0.01758000  0.80288000  1.0 0.0793544531
H  H178  1  0.99294000  0.85880000  0.78560000  1.0 0.0793544531
H  H179  1  0.90287000  0.84341000  0.83413000  1.0 0.110905567
H  H180  1  0.06741000  0.00327000  0.85152000  1.0 0.110905567
H  H181  1  0.01468000  0.72202000  0.96020000  1.0 0.110905567
H  H182  1  0.02758000  0.67248000  0.92933000  1.0 0.110905567
H  H183  1  0.17076000  0.83654000  0.94471000  1.0 0.0793544531
H  H184  1  0.95165000  0.96289000  0.79953000  1.0 0.0702390201
H  H185  1  0.06699000  0.01011000  0.84441000  1.0 0.120079963
H  H186  1  0.06933000  0.92527000  0.80126000  1.0 0.0702390201
H  H187  1  0.00601000  0.93775000  0.75052000  1.0 0.0507546594
H  H188  1  0.23648000  0.13890000  0.72818000  1.0 0.0982315896
H  H189  1  0.30429000  0.15177000  0.78448000  1.0 0.0793544531
H  H190  1  0.07350000  0.17832000  0.82056000  1.0 0.120079963
H  H191  1  0.24884000  0.32194000  0.82658000  1.0 0.120079963
H  H192  1  0.16325000  0.29479000  0.77376000  1.0 0.0982315896
H  H193  1  0.07689000  0.70383000  0.94673000  1.0 0.110905567
H  H194  1  0.15415000  0.85475000  0.82487000  1.0 0.0507546594
H  H195  1  0.31889000  0.96155000  0.83001000  1.0 0.1386141291
H  H196  1  0.18469000  0.79539000  0.81863000  1.0 0.1281956783
H  H197  1  0.27861000  0.78349000  0.94888000  1.0 0.1386141291
H  H198  1  0.26534000  0.74920000  0.89900000  1.0 0.1281956783
H  H199  1  0.39952000  0.91536000  0.91038000  1.0 0.120079963
H  H200  1  0.04580000  0.75136000  0.90223000  1.0 0.1386141291
C  C1  1  0.80510000  0.77610000  0.45000000  1.0 0.5974542817
C  C2  1  0.76610000  0.68190000  0.42490000  1.0 -0.0277936013
C  C3  1  0.63540000  0.58120000  0.39490000  1.0 -0.0550691241
C  C4  1  0.59660000  0.49320000  0.37070000  1.0 -0.1415560535
C  C5  1  0.68517000  0.50323000  0.37560000  1.0 0.059391198
C  C6  1  0.85551000  0.69149000  0.43070000  1.0 -0.1494150559
C  C7  1  0.81535000  0.60305000  0.40630000  1.0 -0.2491547147
C  C8  1  0.15447000  0.07753000  0.09030000  1.0 0.6165835431
C  C9  1  0.24224000  0.12336000  0.14030000  1.0 -0.0277936013
C  C10  1  0.22860000  0.03460000  0.17180000  1.0 -0.0999258062
C  C11  1  0.31145000  0.07895000  0.21710000  1.0 -0.1599076701
C  C12  1  0.41100000  0.21340000  0.23190000  1.0 0.0702390201
C  C13  1  0.42117000  0.29983000  0.20000000  1.0 -0.1415560535
C  C14  1  0.33910000  0.25610000  0.15490000  1.0 -0.0933102963
C  C15  1  0.76876000  0.04264000  0.44160000  1.0 0.5462408831
C  C16  1  0.73623000  0.10237000  0.41550000  1.0 -0.0205105207
C  C17  1  0.83290000  0.24070000  0.42020000  1.0 -0.0999258062
C  C18  1  0.79990000  0.29450000  0.39670000  1.0 -0.1415560535
C  C19  1  0.66885000  0.20835000  0.36910000  1.0 0.0793544531
C  C20  1  0.56770000  0.06470000  0.36500000  1.0 -0.1599076701
C  C21  1  0.60300000  0.01360000  0.38770000  1.0 -0.0833104232
C  C22  1  0.63126000  0.26314000  0.34620000  1.0 0.0923887586
C  C23  1  0.67826000  0.35794000  0.36950000  1.0 -0.231794765
C  C24  1  0.63982000  0.40658000  0.34920000  1.0 0.0793544531
C  C25  1  0.55297000  0.35823000  0.30420000  1.0 -0.2358214388
C  C26  1  0.50348000  0.26272000  0.27980000  1.0 0.0793544531
C  C27  1  0.54300000  0.21580000  0.30120000  1.0 -0.2087333629
C  C28  1  0.53730000  0.36610000  0.51360000  1.0 0.4967606758
C  C29  1  0.74220000  0.45880000  0.54600000  1.0 -0.0999258062
C  C30  1  0.76590000  0.55270000  0.56170000  1.0 -0.1599076701
C  C31  1  0.62040000  0.48040000  0.54650000  1.0 -0.3010982105
C  C32  1  0.55480000  0.26500000  0.48900000  1.0 -0.3392914662
C  C33  1  0.16800000  0.00200000  0.39630000  1.0 0.120079963
C  C34  1  0.15120000  0.90880000  0.34500000  1.0 -0.0277936013
C  C35  1  0.08580000  0.93620000  0.31480000  1.0 -0.1494150559
C  C36  1  0.09470000  0.99730000  0.34750000  1.0 -0.231794765
C  C37  1  0.24580000  0.93420000  0.43440000  1.0 -0.0691078341
C  C38  1  0.97460000  0.94740000  0.30820000  1.0 -0.0999258062
C  C39  1  0.01080000  0.92120000  0.27970000  1.0 -0.1599076701
C  C40  1  0.86590000  0.76610000  0.26310000  1.0 -0.1494150559
C  C41  1  0.75270000  0.83930000  0.30430000  1.0 -0.2491547147
C  C42  1  0.24760000  0.89640000  0.41420000  1.0 0.0793544531
C  C43  1  0.13950000  0.78250000  0.33640000  1.0 -0.3836448023
C  C44  1  0.18360000  0.70440000  0.41370000  1.0 -0.3898851404
C  C45  1  0.75750000  0.73470000  0.27020000  1.0 0.1691240093
C  C46  1  0.77610000  0.80510000  0.05000000  1.0 0.5974542817
C  C47  1  0.68190000  0.76610000  0.07510000  1.0 -0.0277936013
C  C48  1  0.58120000  0.63540000  0.10510000  1.0 -0.0550691241
C  C49  1  0.49320000  0.59660000  0.12930000  1.0 -0.1415560535
C  C50  1  0.50323000  0.68517000  0.12440000  1.0 0.059391198
C  C51  1  0.69149000  0.85551000  0.06930000  1.0 -0.1494150559
C  C52  1  0.60305000  0.81535000  0.09370000  1.0 -0.2491547147
C  C53  1  0.07753000  0.15447000  0.40970000  1.0 0.6165835431
C  C54  1  0.12336000  0.24224000  0.35970000  1.0 -0.0277936013
C  C55  1  0.03460000  0.22860000  0.32820000  1.0 -0.0999258062
C  C56  1  0.07895000  0.31145000  0.28290000  1.0 -0.1599076701
C  C57  1  0.21340000  0.41100000  0.26810000  1.0 0.0702390201
C  C58  1  0.29983000  0.42117000  0.30000000  1.0 -0.1415560535
C  C59  1  0.25610000  0.33910000  0.34510000  1.0 -0.0933102963
C  C60  1  0.04264000  0.76876000  0.05840000  1.0 0.5462408831
C  C61  1  0.10237000  0.73623000  0.08450000  1.0 -0.0205105207
C  C62  1  0.24070000  0.83290000  0.07980000  1.0 -0.0999258062
C  C63  1  0.29450000  0.79990000  0.10330000  1.0 -0.1415560535
C  C64  1  0.20835000  0.66885000  0.13090000  1.0 0.0793544531
C  C65  1  0.06470000  0.56770000  0.13500000  1.0 -0.1599076701
C  C66  1  0.01360000  0.60300000  0.11230000  1.0 -0.0833104232
C  C67  1  0.26314000  0.63126000  0.15380000  1.0 0.0923887586
C  C68  1  0.35794000  0.67826000  0.13050000  1.0 -0.231794765
C  C69  1  0.40658000  0.63982000  0.15080000  1.0 0.0793544531
C  C70  1  0.35823000  0.55297000  0.19580000  1.0 -0.2358214388
C  C71  1  0.26272000  0.50348000  0.22020000  1.0 0.0793544531
C  C72  1  0.21580000  0.54300000  0.19880000  1.0 -0.2087333629
C  C73  1  0.36610000  0.53730000  0.98640000  1.0 0.4967606758
C  C74  1  0.45880000  0.74220000  0.95400000  1.0 -0.0999258062
C  C75  1  0.55270000  0.76590000  0.93830000  1.0 -0.1599076701
C  C76  1  0.48040000  0.62040000  0.95350000  1.0 -0.3010982105
C  C77  1  0.26500000  0.55480000  0.01100000  1.0 -0.3392914662
C  C78  1  0.00200000  0.16800000  0.10370000  1.0 0.120079963
C  C79  1  0.90880000  0.15120000  0.15500000  1.0 -0.0277936013
C  C80  1  0.93620000  0.08580000  0.18520000  1.0 -0.1494150559
C  C81  1  0.99730000  0.09470000  0.15250000  1.0 -0.231794765
C  C82  1  0.93420000  0.24580000  0.06560000  1.0 -0.0691078341
C  C83  1  0.94740000  0.97460000  0.19180000  1.0 -0.0999258062
C  C84  1  0.92120000  0.01080000  0.22030000  1.0 -0.1599076701
C  C85  1  0.76610000  0.86590000  0.23690000  1.0 -0.1494150559
C  C86  1  0.83930000  0.75270000  0.19570000  1.0 -0.2491547147
C  C87  1  0.89640000  0.24760000  0.08580000  1.0 0.0793544531
C  C88  1  0.78250000  0.13950000  0.16360000  1.0 -0.3836448023
C  C89  1  0.70440000  0.18360000  0.08630000  1.0 -0.3898851404
C  C90  1  0.73470000  0.75750000  0.22980000  1.0 0.1691240093
C  C91  1  0.19490000  0.22390000  0.55000000  1.0 0.5974542817
C  C92  1  0.23390000  0.31810000  0.57510000  1.0 -0.0277936013
C  C93  1  0.36460000  0.41880000  0.60510000  1.0 -0.0550691241
C  C94  1  0.40340000  0.50680000  0.62930000  1.0 -0.1415560535
C  C95  1  0.31483000  0.49677000  0.62440000  1.0 0.059391198
C  C96  1  0.14449000  0.30851000  0.56930000  1.0 -0.1599076701
C  C97  1  0.18465000  0.39695000  0.59370000  1.0 -0.2491547147
C  C98  1  0.84553000  0.92247000  0.90970000  1.0 0.6165835431
C  C99  1  0.75776000  0.87664000  0.85970000  1.0 -0.0277936013
C  C100  1  0.77140000  0.96540000  0.82820000  1.0 -0.0999258062
C  C101  1  0.68855000  0.92105000  0.78290000  1.0 -0.1599076701
C  C102  1  0.58900000  0.78660000  0.76810000  1.0 0.0702390201
C  C103  1  0.57883000  0.70017000  0.80000000  1.0 -0.1415560535
C  C104  1  0.66090000  0.74390000  0.84510000  1.0 -0.0933102963
C  C105  1  0.23124000  0.95736000  0.55840000  1.0 0.5462408831
C  C106  1  0.26377000  0.89763000  0.58450000  1.0 -0.0205105207
C  C107  1  0.16710000  0.75930000  0.57980000  1.0 -0.0999258062
C  C108  1  0.20010000  0.70550000  0.60330000  1.0 -0.1415560535
C  C109  1  0.33115000  0.79165000  0.63090000  1.0 0.0793544531
C  C110  1  0.43230000  0.93530000  0.63500000  1.0 -0.1599076701
C  C111  1  0.39700000  0.98640000  0.61230000  1.0 -0.0833104232
C  C112  1  0.36874000  0.73686000  0.65380000  1.0 0.0923887586
C  C113  1  0.32174000  0.64206000  0.63050000  1.0 -0.231794765
C  C114  1  0.36018000  0.59342000  0.65080000  1.0 0.0793544531
C  C115  1  0.44703000  0.64177000  0.69580000  1.0 -0.231794765
C  C116  1  0.49652000  0.73728000  0.72020000  1.0 0.0793544531
C  C117  1  0.45700000  0.78420000  0.69880000  1.0 -0.2087333629
C  C118  1  0.46270000  0.63390000  0.48640000  1.0 0.4967606758
C  C119  1  0.25780000  0.54120000  0.45400000  1.0 -0.0999258062
C  C120  1  0.23410000  0.44730000  0.43830000  1.0 -0.1599076701
C  C121  1  0.37960000  0.51960000  0.45350000  1.0 -0.3010982105
C  C122  1  0.44520000  0.73500000  0.51100000  1.0 -0.3392914662
C  C123  1  0.83200000  0.99800000  0.60370000  1.0 0.120079963
C  C124  1  0.84880000  0.09120000  0.65500000  1.0 -0.0277936013
C  C125  1  0.91420000  0.06380000  0.68520000  1.0 -0.1494150559
C  C126  1  0.90530000  0.00270000  0.65250000  1.0 -0.231794765
C  C127  1  0.75420000  0.06580000  0.56560000  1.0 -0.0691078341
C  C128  1  0.02540000  0.05260000  0.69180000  1.0 -0.0999258062
C  C129  1  0.98920000  0.07880000  0.72030000  1.0 -0.1599076701
C  C130  1  0.13410000  0.23390000  0.73690000  1.0 -0.1494150559
C  C131  1  0.24730000  0.16070000  0.69570000  1.0 -0.2491547147
C  C132  1  0.75240000  0.10360000  0.58580000  1.0 0.0793544531
C  C133  1  0.86050000  0.21750000  0.66360000  1.0 -0.3836448023
C  C134  1  0.81640000  0.29560000  0.58630000  1.0 -0.3898851404
C  C135  1  0.24250000  0.26530000  0.72980000  1.0 0.1691240093
C  C136  1  0.22390000  0.19490000  0.95000000  1.0 0.5974542817
C  C137  1  0.31810000  0.23390000  0.92490000  1.0 -0.0277936013
C  C138  1  0.41880000  0.36460000  0.89490000  1.0 -0.0550691241
C  C139  1  0.50680000  0.40340000  0.87070000  1.0 -0.1415560535
C  C140  1  0.49677000  0.31483000  0.87560000  1.0 0.059391198
C  C141  1  0.30851000  0.14449000  0.93070000  1.0 -0.1599076701
C  C142  1  0.39695000  0.18465000  0.90630000  1.0 -0.2491547147
C  C143  1  0.92247000  0.84553000  0.59030000  1.0 0.6165835431
C  C144  1  0.87664000  0.75776000  0.64030000  1.0 -0.0277936013
C  C145  1  0.96540000  0.77140000  0.67180000  1.0 -0.0999258062
C  C146  1  0.92105000  0.68855000  0.71710000  1.0 -0.1599076701
C  C147  1  0.78660000  0.58900000  0.73190000  1.0 0.0702390201
C  C148  1  0.70017000  0.57883000  0.70000000  1.0 -0.1415560535
C  C149  1  0.74390000  0.66090000  0.65490000  1.0 -0.0933102963
C  C150  1  0.95736000  0.23124000  0.94160000  1.0 0.5462408831
C  C151  1  0.89763000  0.26377000  0.91550000  1.0 -0.0205105207
C  C152  1  0.75930000  0.16710000  0.92020000  1.0 -0.0999258062
C  C153  1  0.70550000  0.20010000  0.89670000  1.0 -0.1415560535
C  C154  1  0.79165000  0.33115000  0.86910000  1.0 0.0793544531
C  C155  1  0.93530000  0.43230000  0.86500000  1.0 -0.1599076701
C  C156  1  0.98640000  0.39700000  0.88770000  1.0 -0.0833104232
C  C157  1  0.73686000  0.36874000  0.84620000  1.0 0.0923887586
C  C158  1  0.64206000  0.32174000  0.86950000  1.0 -0.231794765
C  C159  1  0.59342000  0.36018000  0.84920000  1.0 0.0793544531
C  C160  1  0.64177000  0.44703000  0.80420000  1.0 -0.231794765
C  C161  1  0.73728000  0.49652000  0.77980000  1.0 0.0793544531
C  C162  1  0.78420000  0.45700000  0.80120000  1.0 -0.2087333629
C  C163  1  0.63390000  0.46270000  0.01360000  1.0 0.4967606758
C  C164  1  0.54120000  0.25780000  0.04600000  1.0 -0.0999258062
C  C165  1  0.44730000  0.23410000  0.06170000  1.0 -0.1599076701
C  C166  1  0.51960000  0.37960000  0.04650000  1.0 -0.3010982105
C  C167  1  0.73500000  0.44520000  0.98900000  1.0 -0.3392914662
C  C168  1  0.99800000  0.83200000  0.89630000  1.0 0.120079963
C  C169  1  0.09120000  0.84880000  0.84500000  1.0 -0.0277936013
C  C170  1  0.06380000  0.91420000  0.81480000  1.0 -0.1494150559
C  C171  1  0.00270000  0.90530000  0.84750000  1.0 -0.231794765
C  C172  1  0.06580000  0.75420000  0.93440000  1.0 -0.0691078341
C  C173  1  0.05260000  0.02540000  0.80820000  1.0 -0.0999258062
C  C174  1  0.07880000  0.98920000  0.77970000  1.0 -0.1599076701
C  C175  1  0.23390000  0.13410000  0.76310000  1.0 -0.1494150559
C  C176  1  0.16070000  0.24730000  0.80430000  1.0 -0.2491547147
C  C177  1  0.10360000  0.75240000  0.91420000  1.0 0.0793544531
C  C178  1  0.21750000  0.86050000  0.83640000  1.0 -0.3836448023
C  C179  1  0.29560000  0.81640000  0.91370000  1.0 -0.3898851404
C  C180  1  0.26530000  0.24250000  0.77020000  1.0 0.1691240093
N  N1  1  0.61030000  0.36310000  0.51460000  1.0 -0.0205105207
N  N2  1  0.20310000  0.95890000  0.39040000  1.0 0.0206238396
N  N3  1  0.18410000  0.78990000  0.38870000  1.0 0.0507546594
N  N4  1  0.82780000  0.84400000  0.29320000  1.0 -0.0999258062
N  N5  1  0.36310000  0.61030000  0.98540000  1.0 -0.0205105207
N  N6  1  0.95890000  0.20310000  0.10960000  1.0 0.0206238396
N  N7  1  0.78990000  0.18410000  0.11130000  1.0 0.0507546594
N  N8  1  0.84400000  0.82780000  0.20680000  1.0 -0.0999258062
N  N9  1  0.38970000  0.63690000  0.48540000  1.0 -0.0205105207
N  N10  1  0.79690000  0.04110000  0.60960000  1.0 0.0206238396
N  N11  1  0.81590000  0.21010000  0.61130000  1.0 0.0507546594
N  N12  1  0.17220000  0.15600000  0.70680000  1.0 -0.0999258062
N  N13  1  0.63690000  0.38970000  0.01460000  1.0 -0.0205105207
N  N14  1  0.04110000  0.79690000  0.89040000  1.0 0.0206238396
N  N15  1  0.21010000  0.81590000  0.88870000  1.0 0.0507546594
N  N16  1  0.15600000  0.17220000  0.79320000  1.0 -0.0999258062
O  O1  1  0.92708000  0.87332000  0.47552000  1.0 -0.7091275284
O  O2  1  0.71537000  0.75443000  0.44558000  1.0 -0.5882989073
O  O3  1  0.17778000  0.16822000  0.06381000  1.0 -0.6413962374
O  O4  1  0.07107000  0.95873000  0.07881000  1.0 -0.6256995032
O  O5  1  0.68634000  0.92166000  0.43113000  1.0 -0.6116493771
O  O6  1  0.87415000  0.11185000  0.47380000  1.0 -0.5882989073
O  O7  1  0.41614000  0.28606000  0.48810000  1.0 -0.6413962374
O  O8  1  0.19670000  0.04450000  0.43550000  1.0 -0.5542488525
O  O9  1  0.30340000  0.89660000  0.45760000  1.0 -0.2491547147
O  O10  1  0.22400000  0.94800000  0.38310000  1.0 -0.0448004285
O  O11  1  0.87332000  0.92708000  0.02448000  1.0 -0.7091275284
O  O12  1  0.75443000  0.71537000  0.05442000  1.0 -0.5882989073
O  O13  1  0.16822000  0.17778000  0.43619000  1.0 -0.6413962374
O  O14  1  0.95873000  0.07107000  0.42119000  1.0 -0.6256995032
O  O15  1  0.92166000  0.68634000  0.06887000  1.0 -0.6116493771
O  O16  1  0.11185000  0.87415000  0.02620000  1.0 -0.5882989073
O  O17  1  0.28606000  0.41614000  0.01190000  1.0 -0.6413962374
O  O18  1  0.04450000  0.19670000  0.06450000  1.0 -0.5542488525
O  O19  1  0.89660000  0.30340000  0.04240000  1.0 -0.2491547147
O  O20  1  0.94800000  0.22400000  0.11690000  1.0 -0.0448004285
O  O21  1  0.07292000  0.12668000  0.52448000  1.0 -0.7091275284
O  O22  1  0.28463000  0.24557000  0.55442000  1.0 -0.5882989073
O  O23  1  0.82222000  0.83178000  0.93619000  1.0 -0.6413962374
O  O24  1  0.92893000  0.04127000  0.92119000  1.0 -0.6256995032
O  O25  1  0.31366000  0.07834000  0.56887000  1.0 -0.6116493771
O  O26  1  0.12585000  0.88815000  0.52620000  1.0 -0.5882989073
O  O27  1  0.58386000  0.71394000  0.51190000  1.0 -0.6413962374
O  O28  1  0.80330000  0.95550000  0.56450000  1.0 -0.5542488525
O  O29  1  0.69660000  0.10340000  0.54240000  1.0 -0.2491547147
O  O30  1  0.77600000  0.05200000  0.61690000  1.0 -0.0448004285
O  O31  1  0.12668000  0.07292000  0.97552000  1.0 -0.7091275284
O  O32  1  0.24557000  0.28463000  0.94558000  1.0 -0.5882989073
O  O33  1  0.83178000  0.82222000  0.56381000  1.0 -0.6413962374
O  O34  1  0.04127000  0.92893000  0.57881000  1.0 -0.6256995032
O  O35  1  0.07834000  0.31366000  0.93113000  1.0 -0.6116493771
O  O36  1  0.88815000  0.12585000  0.97380000  1.0 -0.5882989073
O  O37  1  0.71394000  0.58386000  0.98810000  1.0 -0.6413962374
O  O38  1  0.95550000  0.80330000  0.93550000  1.0 -0.5542488525
O  O39  1  0.10340000  0.69660000  0.95760000  1.0 -0.2491547147
O  O40  1  0.05200000  0.77600000  0.88310000  1.0 -0.0448004285
O  O41  1  0.62460000  0.62460000  0.25000000  1.0 -0.3709519336
O  O42  1  0.37540000  0.37540000  0.75000000  1.0 -0.3709519336
