# DDEC6 charges by PACMAN v1.1 (https://github.com/mtap-research/PACMAN-charge/)
data_TUBDOM_FSR_pacman
_symmetry_space_group_name_H-M   'P 1'
_cell_length_a   25.86460000
_cell_length_b   25.86460000
_cell_length_c   25.86460000
_cell_angle_alpha   60.00000000
_cell_angle_beta   60.00000000
_cell_angle_gamma   60.00000000
_symmetry_Int_Tables_number   1
_chemical_formula_structural   Er3Co2H24C48N8O33
_chemical_formula_sum   'Er12 Co8 H96 C192 N32 O132'
_cell_volume   12234.95288444
_cell_formula_units_Z   4
loop_
 _symmetry_equiv_pos_site_id
 _symmetry_equiv_pos_as_xyz
  1  'x, y, z'
loop_
 _atom_site_type_symbol
 _atom_site_label
 _atom_site_symmetry_multiplicity
 _atom_site_fract_x
 _atom_site_fract_y
 _atom_site_fract_z
 _atom_site_occupancy
 _atom_site_charge
Er  Er1  1  0.53005000  0.46995000  0.88043000  1.0 1.97262812
Er  Er2  1  0.46995000  0.53005000  0.11957000  1.0 1.97262812
Er  Er3  1  0.88043000  0.11957000  0.53005000  1.0 1.97262812
Er  Er4  1  0.11957000  0.88043000  0.46995000  1.0 1.97262812
Er  Er5  1  0.11957000  0.46995000  0.53005000  1.0 1.97262812
Er  Er6  1  0.88043000  0.53005000  0.46995000  1.0 1.97262812
Er  Er7  1  0.46995000  0.11957000  0.88043000  1.0 1.97262812
Er  Er8  1  0.53005000  0.88043000  0.11957000  1.0 1.97262812
Er  Er9  1  0.88043000  0.46995000  0.11957000  1.0 1.97262812
Er  Er10  1  0.11957000  0.53005000  0.88043000  1.0 1.97262812
Er  Er11  1  0.53005000  0.11957000  0.46995000  1.0 1.97262812
Er  Er12  1  0.46995000  0.88043000  0.53005000  1.0 1.97262812
Co  Co1  1  0.63589000  0.63589000  0.63589000  1.0 0.8319750511
Co  Co2  1  0.63589000  0.63589000  0.09233000  1.0 0.8319750511
Co  Co3  1  0.63589000  0.09233000  0.63589000  1.0 0.8319750511
Co  Co4  1  0.09233000  0.63589000  0.63589000  1.0 0.8319750511
Co  Co5  1  0.36411000  0.36411000  0.36411000  1.0 0.8319750511
Co  Co6  1  0.36411000  0.36411000  0.90767000  1.0 0.8319750511
Co  Co7  1  0.36411000  0.90767000  0.36411000  1.0 0.8319750511
Co  Co8  1  0.90767000  0.36411000  0.36411000  1.0 0.8319750511
H  H1  1  0.65346000  0.63546000  0.78454000  1.0 0.1404822229
H  H2  1  0.62641000  0.71073000  0.82563000  1.0 0.1251979256
H  H3  1  0.50409000  0.74607000  0.71767000  1.0 0.1493294595
H  H4  1  0.47908000  0.82556000  0.75578000  1.0 0.1493294595
H  H5  1  0.63546000  0.65346000  0.92654000  1.0 0.1404822229
H  H6  1  0.71073000  0.62641000  0.83723000  1.0 0.1251979256
H  H7  1  0.74607000  0.50409000  0.03217000  1.0 0.1493294595
H  H8  1  0.82556000  0.47908000  0.93958000  1.0 0.1493294595
H  H9  1  0.78454000  0.92654000  0.65346000  1.0 0.1404822229
H  H10  1  0.82563000  0.83723000  0.62641000  1.0 0.1251979256
H  H11  1  0.71767000  0.03217000  0.50409000  1.0 0.1493294595
H  H12  1  0.75578000  0.93958000  0.47908000  1.0 0.1493294595
H  H13  1  0.92654000  0.78454000  0.63546000  1.0 0.1404822229
H  H14  1  0.83723000  0.82563000  0.71073000  1.0 0.1251979256
H  H15  1  0.03217000  0.71767000  0.74607000  1.0 0.1493294595
H  H16  1  0.93958000  0.75578000  0.82556000  1.0 0.1493294595
H  H17  1  0.92654000  0.63546000  0.65346000  1.0 0.1404822229
H  H18  1  0.83723000  0.71073000  0.62641000  1.0 0.1251979256
H  H19  1  0.03217000  0.74607000  0.50409000  1.0 0.1493294595
H  H20  1  0.93958000  0.82556000  0.47908000  1.0 0.1493294595
H  H21  1  0.78454000  0.65346000  0.63546000  1.0 0.1404822229
H  H22  1  0.82563000  0.62641000  0.71073000  1.0 0.1251979256
H  H23  1  0.71767000  0.50409000  0.74607000  1.0 0.1493294595
H  H24  1  0.75578000  0.47908000  0.82556000  1.0 0.1493294595
H  H25  1  0.63546000  0.92654000  0.78454000  1.0 0.1404822229
H  H26  1  0.71073000  0.83723000  0.82563000  1.0 0.1251979256
H  H27  1  0.74607000  0.03217000  0.71767000  1.0 0.1493294595
H  H28  1  0.82556000  0.93958000  0.75578000  1.0 0.1493294595
H  H29  1  0.65346000  0.78454000  0.92654000  1.0 0.1404822229
H  H30  1  0.62641000  0.82563000  0.83723000  1.0 0.1251979256
H  H31  1  0.50409000  0.71767000  0.03217000  1.0 0.1493294595
H  H32  1  0.47908000  0.75578000  0.93958000  1.0 0.1493294595
H  H33  1  0.78454000  0.63546000  0.92654000  1.0 0.1404822229
H  H34  1  0.82563000  0.71073000  0.83723000  1.0 0.1251979256
H  H35  1  0.71767000  0.74607000  0.03217000  1.0 0.1493294595
H  H36  1  0.75578000  0.82556000  0.93958000  1.0 0.1493294595
H  H37  1  0.92654000  0.65346000  0.78454000  1.0 0.1404822229
H  H38  1  0.83723000  0.62641000  0.82563000  1.0 0.1251979256
H  H39  1  0.03217000  0.50409000  0.71767000  1.0 0.1493294595
H  H40  1  0.93958000  0.47908000  0.75578000  1.0 0.1493294595
H  H41  1  0.65346000  0.92654000  0.63546000  1.0 0.1404822229
H  H42  1  0.62641000  0.83723000  0.71073000  1.0 0.1251979256
H  H43  1  0.50409000  0.03217000  0.74607000  1.0 0.1493294595
H  H44  1  0.47908000  0.93958000  0.82556000  1.0 0.1493294595
H  H45  1  0.63546000  0.78454000  0.65346000  1.0 0.1404822229
H  H46  1  0.71073000  0.82563000  0.62641000  1.0 0.1251979256
H  H47  1  0.74607000  0.71767000  0.50409000  1.0 0.1493294595
H  H48  1  0.82556000  0.75578000  0.47908000  1.0 0.1493294595
H  H49  1  0.34654000  0.36454000  0.21546000  1.0 0.1404822229
H  H50  1  0.37359000  0.28927000  0.17437000  1.0 0.1251979256
H  H51  1  0.49591000  0.25393000  0.28233000  1.0 0.1493294595
H  H52  1  0.52092000  0.17444000  0.24422000  1.0 0.1493294595
H  H53  1  0.36454000  0.34654000  0.07346000  1.0 0.1404822229
H  H54  1  0.28927000  0.37359000  0.16277000  1.0 0.1251979256
H  H55  1  0.25393000  0.49591000  0.96783000  1.0 0.1493294595
H  H56  1  0.17444000  0.52092000  0.06042000  1.0 0.1493294595
H  H57  1  0.21546000  0.07346000  0.34654000  1.0 0.1404822229
H  H58  1  0.17437000  0.16277000  0.37359000  1.0 0.1251979256
H  H59  1  0.28233000  0.96783000  0.49591000  1.0 0.1493294595
H  H60  1  0.24422000  0.06042000  0.52092000  1.0 0.1493294595
H  H61  1  0.07346000  0.21546000  0.36454000  1.0 0.1404822229
H  H62  1  0.16277000  0.17437000  0.28927000  1.0 0.1251979256
H  H63  1  0.96783000  0.28233000  0.25393000  1.0 0.1493294595
H  H64  1  0.06042000  0.24422000  0.17444000  1.0 0.1493294595
H  H65  1  0.07346000  0.36454000  0.34654000  1.0 0.1404822229
H  H66  1  0.16277000  0.28927000  0.37359000  1.0 0.1251979256
H  H67  1  0.96783000  0.25393000  0.49591000  1.0 0.1493294595
H  H68  1  0.06042000  0.17444000  0.52092000  1.0 0.1493294595
H  H69  1  0.21546000  0.34654000  0.36454000  1.0 0.1404822229
H  H70  1  0.17437000  0.37359000  0.28927000  1.0 0.1251979256
H  H71  1  0.28233000  0.49591000  0.25393000  1.0 0.1493294595
H  H72  1  0.24422000  0.52092000  0.17444000  1.0 0.1493294595
H  H73  1  0.36454000  0.07346000  0.21546000  1.0 0.1404822229
H  H74  1  0.28927000  0.16277000  0.17437000  1.0 0.1251979256
H  H75  1  0.25393000  0.96783000  0.28233000  1.0 0.1493294595
H  H76  1  0.17444000  0.06042000  0.24422000  1.0 0.1493294595
H  H77  1  0.34654000  0.21546000  0.07346000  1.0 0.1404822229
H  H78  1  0.37359000  0.17437000  0.16277000  1.0 0.1251979256
H  H79  1  0.49591000  0.28233000  0.96783000  1.0 0.1493294595
H  H80  1  0.52092000  0.24422000  0.06042000  1.0 0.1493294595
H  H81  1  0.21546000  0.36454000  0.07346000  1.0 0.1404822229
H  H82  1  0.17437000  0.28927000  0.16277000  1.0 0.1251979256
H  H83  1  0.28233000  0.25393000  0.96783000  1.0 0.1493294595
H  H84  1  0.24422000  0.17444000  0.06042000  1.0 0.1493294595
H  H85  1  0.07346000  0.34654000  0.21546000  1.0 0.1404822229
H  H86  1  0.16277000  0.37359000  0.17437000  1.0 0.1251979256
H  H87  1  0.96783000  0.49591000  0.28233000  1.0 0.1493294595
H  H88  1  0.06042000  0.52092000  0.24422000  1.0 0.1493294595
H  H89  1  0.34654000  0.07346000  0.36454000  1.0 0.1404822229
H  H90  1  0.37359000  0.16277000  0.28927000  1.0 0.1251979256
H  H91  1  0.49591000  0.96783000  0.25393000  1.0 0.1493294595
H  H92  1  0.52092000  0.06042000  0.17444000  1.0 0.1493294595
H  H93  1  0.36454000  0.21546000  0.34654000  1.0 0.1404822229
H  H94  1  0.28927000  0.17437000  0.37359000  1.0 0.1251979256
H  H95  1  0.25393000  0.28233000  0.49591000  1.0 0.1493294595
H  H96  1  0.17444000  0.24422000  0.52092000  1.0 0.1493294595
C  C1  1  0.60060000  0.53580000  0.73320000  1.0 0.4920571505
C  C2  1  0.58210000  0.58290000  0.76410000  1.0 0.387262051
C  C3  1  0.57940000  0.68140000  0.75160000  1.0 0.2391804888
C  C4  1  0.61720000  0.67240000  0.78080000  1.0 -0.130626048
C  C5  1  0.60150000  0.71730000  0.80430000  1.0 -0.1780662857
C  C6  1  0.54900000  0.77320000  0.79740000  1.0 0.1893268535
C  C7  1  0.52780000  0.73940000  0.74040000  1.0 -0.1238956629
C  C8  1  0.51250000  0.78650000  0.76310000  1.0 -0.1780662857
C  C9  1  0.53580000  0.60060000  0.13040000  1.0 0.4920571505
C  C10  1  0.58290000  0.58210000  0.07090000  1.0 0.387262051
C  C11  1  0.68140000  0.57940000  0.98760000  1.0 0.2391804888
C  C12  1  0.67240000  0.61720000  0.92960000  1.0 -0.130626048
C  C13  1  0.71730000  0.60150000  0.87690000  1.0 -0.1780662857
C  C14  1  0.77320000  0.54900000  0.88040000  1.0 0.1893268535
C  C15  1  0.73940000  0.52780000  0.99240000  1.0 -0.1238956629
C  C16  1  0.78650000  0.51250000  0.93790000  1.0 -0.1780662857
C  C17  1  0.73320000  0.13040000  0.60060000  1.0 0.4920571505
C  C18  1  0.76410000  0.07090000  0.58210000  1.0 0.387262051
C  C19  1  0.75160000  0.98760000  0.57940000  1.0 0.2391804888
C  C20  1  0.78080000  0.92960000  0.61720000  1.0 -0.130626048
C  C21  1  0.80430000  0.87690000  0.60150000  1.0 -0.1780662857
C  C22  1  0.79740000  0.88040000  0.54900000  1.0 0.1893268535
C  C23  1  0.74040000  0.99240000  0.52780000  1.0 -0.1238956629
C  C24  1  0.76310000  0.93790000  0.51250000  1.0 -0.1780662857
C  C25  1  0.13040000  0.73320000  0.53580000  1.0 0.4920571505
C  C26  1  0.07090000  0.76410000  0.58290000  1.0 0.387262051
C  C27  1  0.98760000  0.75160000  0.68140000  1.0 0.2391804888
C  C28  1  0.92960000  0.78080000  0.67240000  1.0 -0.130626048
C  C29  1  0.87690000  0.80430000  0.71730000  1.0 -0.1780662857
C  C30  1  0.88040000  0.79740000  0.77320000  1.0 0.1893268535
C  C31  1  0.99240000  0.74040000  0.73940000  1.0 -0.1238956629
C  C32  1  0.93790000  0.76310000  0.78650000  1.0 -0.1780662857
C  C33  1  0.13040000  0.53580000  0.60060000  1.0 0.4920571505
C  C34  1  0.07090000  0.58290000  0.58210000  1.0 0.387262051
C  C35  1  0.98760000  0.68140000  0.57940000  1.0 0.2391804888
C  C36  1  0.92960000  0.67240000  0.61720000  1.0 -0.130626048
C  C37  1  0.87690000  0.71730000  0.60150000  1.0 -0.1780662857
C  C38  1  0.88040000  0.77320000  0.54900000  1.0 0.1893268535
C  C39  1  0.99240000  0.73940000  0.52780000  1.0 -0.1238956629
C  C40  1  0.93790000  0.78650000  0.51250000  1.0 -0.1780662857
C  C41  1  0.73320000  0.60060000  0.53580000  1.0 0.4920571505
C  C42  1  0.76410000  0.58210000  0.58290000  1.0 0.387262051
C  C43  1  0.75160000  0.57940000  0.68140000  1.0 0.2391804888
C  C44  1  0.78080000  0.61720000  0.67240000  1.0 -0.130626048
C  C45  1  0.80430000  0.60150000  0.71730000  1.0 -0.1780662857
C  C46  1  0.79740000  0.54900000  0.77320000  1.0 0.1893268535
C  C47  1  0.74040000  0.52780000  0.73940000  1.0 -0.1238956629
C  C48  1  0.76310000  0.51250000  0.78650000  1.0 -0.1780662857
C  C49  1  0.53580000  0.13040000  0.73320000  1.0 0.4920571505
C  C50  1  0.58290000  0.07090000  0.76410000  1.0 0.387262051
C  C51  1  0.68140000  0.98760000  0.75160000  1.0 0.2391804888
C  C52  1  0.67240000  0.92960000  0.78080000  1.0 -0.130626048
C  C53  1  0.71730000  0.87690000  0.80430000  1.0 -0.1780662857
C  C54  1  0.77320000  0.88040000  0.79740000  1.0 0.1893268535
C  C55  1  0.73940000  0.99240000  0.74040000  1.0 -0.1238956629
C  C56  1  0.78650000  0.93790000  0.76310000  1.0 -0.1780662857
C  C57  1  0.60060000  0.73320000  0.13040000  1.0 0.4920571505
C  C58  1  0.58210000  0.76410000  0.07090000  1.0 0.387262051
C  C59  1  0.57940000  0.75160000  0.98760000  1.0 0.2391804888
C  C60  1  0.61720000  0.78080000  0.92960000  1.0 -0.130626048
C  C61  1  0.60150000  0.80430000  0.87690000  1.0 -0.1780662857
C  C62  1  0.54900000  0.79740000  0.88040000  1.0 0.1893268535
C  C63  1  0.52780000  0.74040000  0.99240000  1.0 -0.1238956629
C  C64  1  0.51250000  0.76310000  0.93790000  1.0 -0.1780662857
C  C65  1  0.73320000  0.53580000  0.13040000  1.0 0.4920571505
C  C66  1  0.76410000  0.58290000  0.07090000  1.0 0.387262051
C  C67  1  0.75160000  0.68140000  0.98760000  1.0 0.2391804888
C  C68  1  0.78080000  0.67240000  0.92960000  1.0 -0.130626048
C  C69  1  0.80430000  0.71730000  0.87690000  1.0 -0.1780662857
C  C70  1  0.79740000  0.77320000  0.88040000  1.0 0.1893268535
C  C71  1  0.74040000  0.73940000  0.99240000  1.0 -0.1238956629
C  C72  1  0.76310000  0.78650000  0.93790000  1.0 -0.1780662857
C  C73  1  0.13040000  0.60060000  0.73320000  1.0 0.4920571505
C  C74  1  0.07090000  0.58210000  0.76410000  1.0 0.387262051
C  C75  1  0.98760000  0.57940000  0.75160000  1.0 0.2391804888
C  C76  1  0.92960000  0.61720000  0.78080000  1.0 -0.130626048
C  C77  1  0.87690000  0.60150000  0.80430000  1.0 -0.1780662857
C  C78  1  0.88040000  0.54900000  0.79740000  1.0 0.1893268535
C  C79  1  0.99240000  0.52780000  0.74040000  1.0 -0.1238956629
C  C80  1  0.93790000  0.51250000  0.76310000  1.0 -0.1780662857
C  C81  1  0.60060000  0.13040000  0.53580000  1.0 0.4920571505
C  C82  1  0.58210000  0.07090000  0.58290000  1.0 0.387262051
C  C83  1  0.57940000  0.98760000  0.68140000  1.0 0.2391804888
C  C84  1  0.61720000  0.92960000  0.67240000  1.0 -0.130626048
C  C85  1  0.60150000  0.87690000  0.71730000  1.0 -0.1780662857
C  C86  1  0.54900000  0.88040000  0.77320000  1.0 0.1893268535
C  C87  1  0.52780000  0.99240000  0.73940000  1.0 -0.1238956629
C  C88  1  0.51250000  0.93790000  0.78650000  1.0 -0.1780662857
C  C89  1  0.53580000  0.73320000  0.60060000  1.0 0.4920571505
C  C90  1  0.58290000  0.76410000  0.58210000  1.0 0.387262051
C  C91  1  0.68140000  0.75160000  0.57940000  1.0 0.2391804888
C  C92  1  0.67240000  0.78080000  0.61720000  1.0 -0.130626048
C  C93  1  0.71730000  0.80430000  0.60150000  1.0 -0.1780662857
C  C94  1  0.77320000  0.79740000  0.54900000  1.0 0.1893268535
C  C95  1  0.73940000  0.74040000  0.52780000  1.0 -0.1238956629
C  C96  1  0.78650000  0.76310000  0.51250000  1.0 -0.1780662857
C  C97  1  0.39940000  0.46420000  0.26680000  1.0 0.4920571505
C  C98  1  0.41790000  0.41710000  0.23590000  1.0 0.387262051
C  C99  1  0.42060000  0.31860000  0.24840000  1.0 0.2391804888
C  C100  1  0.38280000  0.32760000  0.21920000  1.0 -0.130626048
C  C101  1  0.39850000  0.28270000  0.19570000  1.0 -0.1780662857
C  C102  1  0.45100000  0.22680000  0.20260000  1.0 0.1893268535
C  C103  1  0.47220000  0.26060000  0.25960000  1.0 -0.1238956629
C  C104  1  0.48750000  0.21350000  0.23690000  1.0 -0.1780662857
C  C105  1  0.46420000  0.39940000  0.86960000  1.0 0.4920571505
C  C106  1  0.41710000  0.41790000  0.92910000  1.0 0.387262051
C  C107  1  0.31860000  0.42060000  0.01240000  1.0 0.2391804888
C  C108  1  0.32760000  0.38280000  0.07040000  1.0 -0.130626048
C  C109  1  0.28270000  0.39850000  0.12310000  1.0 -0.1780662857
C  C110  1  0.22680000  0.45100000  0.11960000  1.0 0.1893268535
C  C111  1  0.26060000  0.47220000  0.00760000  1.0 -0.1238956629
C  C112  1  0.21350000  0.48750000  0.06210000  1.0 -0.1780662857
C  C113  1  0.26680000  0.86960000  0.39940000  1.0 0.4920571505
C  C114  1  0.23590000  0.92910000  0.41790000  1.0 0.387262051
C  C115  1  0.24840000  0.01240000  0.42060000  1.0 0.2391804888
C  C116  1  0.21920000  0.07040000  0.38280000  1.0 -0.130626048
C  C117  1  0.19570000  0.12310000  0.39850000  1.0 -0.1780662857
C  C118  1  0.20260000  0.11960000  0.45100000  1.0 0.1893268535
C  C119  1  0.25960000  0.00760000  0.47220000  1.0 -0.1238956629
C  C120  1  0.23690000  0.06210000  0.48750000  1.0 -0.1780662857
C  C121  1  0.86960000  0.26680000  0.46420000  1.0 0.4920571505
C  C122  1  0.92910000  0.23590000  0.41710000  1.0 0.387262051
C  C123  1  0.01240000  0.24840000  0.31860000  1.0 0.2391804888
C  C124  1  0.07040000  0.21920000  0.32760000  1.0 -0.130626048
C  C125  1  0.12310000  0.19570000  0.28270000  1.0 -0.1780662857
C  C126  1  0.11960000  0.20260000  0.22680000  1.0 0.1893268535
C  C127  1  0.00760000  0.25960000  0.26060000  1.0 -0.1238956629
C  C128  1  0.06210000  0.23690000  0.21350000  1.0 -0.1780662857
C  C129  1  0.86960000  0.46420000  0.39940000  1.0 0.4920571505
C  C130  1  0.92910000  0.41710000  0.41790000  1.0 0.387262051
C  C131  1  0.01240000  0.31860000  0.42060000  1.0 0.2391804888
C  C132  1  0.07040000  0.32760000  0.38280000  1.0 -0.130626048
C  C133  1  0.12310000  0.28270000  0.39850000  1.0 -0.1780662857
C  C134  1  0.11960000  0.22680000  0.45100000  1.0 0.1893268535
C  C135  1  0.00760000  0.26060000  0.47220000  1.0 -0.1238956629
C  C136  1  0.06210000  0.21350000  0.48750000  1.0 -0.1780662857
C  C137  1  0.26680000  0.39940000  0.46420000  1.0 0.4920571505
C  C138  1  0.23590000  0.41790000  0.41710000  1.0 0.387262051
C  C139  1  0.24840000  0.42060000  0.31860000  1.0 0.2391804888
C  C140  1  0.21920000  0.38280000  0.32760000  1.0 -0.130626048
C  C141  1  0.19570000  0.39850000  0.28270000  1.0 -0.1780662857
C  C142  1  0.20260000  0.45100000  0.22680000  1.0 0.1893268535
C  C143  1  0.25960000  0.47220000  0.26060000  1.0 -0.1238956629
C  C144  1  0.23690000  0.48750000  0.21350000  1.0 -0.1780662857
C  C145  1  0.46420000  0.86960000  0.26680000  1.0 0.4920571505
C  C146  1  0.41710000  0.92910000  0.23590000  1.0 0.387262051
C  C147  1  0.31860000  0.01240000  0.24840000  1.0 0.2391804888
C  C148  1  0.32760000  0.07040000  0.21920000  1.0 -0.130626048
C  C149  1  0.28270000  0.12310000  0.19570000  1.0 -0.1780662857
C  C150  1  0.22680000  0.11960000  0.20260000  1.0 0.1893268535
C  C151  1  0.26060000  0.00760000  0.25960000  1.0 -0.1238956629
C  C152  1  0.21350000  0.06210000  0.23690000  1.0 -0.1780662857
C  C153  1  0.39940000  0.26680000  0.86960000  1.0 0.4920571505
C  C154  1  0.41790000  0.23590000  0.92910000  1.0 0.387262051
C  C155  1  0.42060000  0.24840000  0.01240000  1.0 0.2391804888
C  C156  1  0.38280000  0.21920000  0.07040000  1.0 -0.130626048
C  C157  1  0.39850000  0.19570000  0.12310000  1.0 -0.1780662857
C  C158  1  0.45100000  0.20260000  0.11960000  1.0 0.1893268535
C  C159  1  0.47220000  0.25960000  0.00760000  1.0 -0.1238956629
C  C160  1  0.48750000  0.23690000  0.06210000  1.0 -0.1780662857
C  C161  1  0.26680000  0.46420000  0.86960000  1.0 0.4920571505
C  C162  1  0.23590000  0.41710000  0.92910000  1.0 0.387262051
C  C163  1  0.24840000  0.31860000  0.01240000  1.0 0.2391804888
C  C164  1  0.21920000  0.32760000  0.07040000  1.0 -0.130626048
C  C165  1  0.19570000  0.28270000  0.12310000  1.0 -0.1780662857
C  C166  1  0.20260000  0.22680000  0.11960000  1.0 0.1893268535
C  C167  1  0.25960000  0.26060000  0.00760000  1.0 -0.1238956629
C  C168  1  0.23690000  0.21350000  0.06210000  1.0 -0.1780662857
C  C169  1  0.86960000  0.39940000  0.26680000  1.0 0.4920571505
C  C170  1  0.92910000  0.41790000  0.23590000  1.0 0.387262051
C  C171  1  0.01240000  0.42060000  0.24840000  1.0 0.2391804888
C  C172  1  0.07040000  0.38280000  0.21920000  1.0 -0.130626048
C  C173  1  0.12310000  0.39850000  0.19570000  1.0 -0.1780662857
C  C174  1  0.11960000  0.45100000  0.20260000  1.0 0.1893268535
C  C175  1  0.00760000  0.47220000  0.25960000  1.0 -0.1238956629
C  C176  1  0.06210000  0.48750000  0.23690000  1.0 -0.1780662857
C  C177  1  0.39940000  0.86960000  0.46420000  1.0 0.4920571505
C  C178  1  0.41790000  0.92910000  0.41710000  1.0 0.387262051
C  C179  1  0.42060000  0.01240000  0.31860000  1.0 0.2391804888
C  C180  1  0.38280000  0.07040000  0.32760000  1.0 -0.130626048
C  C181  1  0.39850000  0.12310000  0.28270000  1.0 -0.1780662857
C  C182  1  0.45100000  0.11960000  0.22680000  1.0 0.1893268535
C  C183  1  0.47220000  0.00760000  0.26060000  1.0 -0.1238956629
C  C184  1  0.48750000  0.06210000  0.21350000  1.0 -0.1780662857
C  C185  1  0.46420000  0.26680000  0.39940000  1.0 0.4920571505
C  C186  1  0.41710000  0.23590000  0.41790000  1.0 0.387262051
C  C187  1  0.31860000  0.24840000  0.42060000  1.0 0.2391804888
C  C188  1  0.32760000  0.21920000  0.38280000  1.0 -0.130626048
C  C189  1  0.28270000  0.19570000  0.39850000  1.0 -0.1780662857
C  C190  1  0.22680000  0.20260000  0.45100000  1.0 0.1893268535
C  C191  1  0.26060000  0.25960000  0.47220000  1.0 -0.1238956629
C  C192  1  0.21350000  0.23690000  0.48750000  1.0 -0.1780662857
N  N1  1  0.59620000  0.63460000  0.72360000  1.0 -0.4106890338
N  N2  1  0.63460000  0.59620000  0.04560000  1.0 -0.4106890338
N  N3  1  0.72360000  0.04560000  0.59620000  1.0 -0.4106890338
N  N4  1  0.04560000  0.72360000  0.63460000  1.0 -0.4106890338
N  N5  1  0.04560000  0.63460000  0.59620000  1.0 -0.4106890338
N  N6  1  0.72360000  0.59620000  0.63460000  1.0 -0.4106890338
N  N7  1  0.63460000  0.04560000  0.72360000  1.0 -0.4106890338
N  N8  1  0.59620000  0.72360000  0.04560000  1.0 -0.4106890338
N  N9  1  0.72360000  0.63460000  0.04560000  1.0 -0.4106890338
N  N10  1  0.04560000  0.59620000  0.72360000  1.0 -0.4106890338
N  N11  1  0.59620000  0.04560000  0.63460000  1.0 -0.4106890338
N  N12  1  0.63460000  0.72360000  0.59620000  1.0 -0.4106890338
N  N13  1  0.40380000  0.36540000  0.27640000  1.0 -0.4106890338
N  N14  1  0.36540000  0.40380000  0.95440000  1.0 -0.4106890338
N  N15  1  0.27640000  0.95440000  0.40380000  1.0 -0.4106890338
N  N16  1  0.95440000  0.27640000  0.36540000  1.0 -0.4106890338
N  N17  1  0.95440000  0.36540000  0.40380000  1.0 -0.4106890338
N  N18  1  0.27640000  0.40380000  0.36540000  1.0 -0.4106890338
N  N19  1  0.36540000  0.95440000  0.27640000  1.0 -0.4106890338
N  N20  1  0.40380000  0.27640000  0.95440000  1.0 -0.4106890338
N  N21  1  0.27640000  0.36540000  0.95440000  1.0 -0.4106890338
N  N22  1  0.95440000  0.40380000  0.27640000  1.0 -0.4106890338
N  N23  1  0.40380000  0.95440000  0.36540000  1.0 -0.4106890338
N  N24  1  0.36540000  0.27640000  0.40380000  1.0 -0.4106890338
N  N25  1  0.53190000  0.82270000  0.82270000  1.0 -0.2063401854
N  N26  1  0.82270000  0.53190000  0.82270000  1.0 -0.2063401854
N  N27  1  0.82270000  0.82270000  0.53190000  1.0 -0.2063401854
N  N28  1  0.82270000  0.82270000  0.82270000  1.0 -0.2063401854
N  N29  1  0.46810000  0.17730000  0.17730000  1.0 -0.2063401854
N  N30  1  0.17730000  0.46810000  0.17730000  1.0 -0.2063401854
N  N31  1  0.17730000  0.17730000  0.46810000  1.0 -0.2063401854
N  N32  1  0.17730000  0.17730000  0.17730000  1.0 -0.2063401854
O  O1  1  0.58840000  0.48460000  0.76940000  1.0 -0.5000880724
O  O2  1  0.55460000  0.56480000  0.82660000  1.0 -0.5101047075
O  O3  1  0.62800000  0.55100000  0.67360000  1.0 -0.4408596261
O  O4  1  0.55970000  0.36270000  0.94670000  1.0 -0.6603028006
O  O5  1  0.48460000  0.58840000  0.15760000  1.0 -0.5000880724
O  O6  1  0.56480000  0.55460000  0.05400000  1.0 -0.5101047075
O  O7  1  0.55100000  0.62800000  0.14740000  1.0 -0.4408596261
O  O8  1  0.36270000  0.55970000  0.13090000  1.0 -0.6699678027
O  O9  1  0.76940000  0.15760000  0.58840000  1.0 -0.5000880724
O  O10  1  0.82660000  0.05400000  0.55460000  1.0 -0.5101047075
O  O11  1  0.67360000  0.14740000  0.62800000  1.0 -0.4408596261
O  O12  1  0.94670000  0.13090000  0.55970000  1.0 -0.6603028006
O  O13  1  0.15760000  0.76940000  0.48460000  1.0 -0.5000880724
O  O14  1  0.05400000  0.82660000  0.56480000  1.0 -0.5101047075
O  O15  1  0.14740000  0.67360000  0.55100000  1.0 -0.4408596261
O  O16  1  0.13090000  0.94670000  0.36270000  1.0 -0.6699678027
O  O17  1  0.15760000  0.48460000  0.58840000  1.0 -0.5000880724
O  O18  1  0.05400000  0.56480000  0.55460000  1.0 -0.5101047075
O  O19  1  0.14740000  0.55100000  0.62800000  1.0 -0.4408596261
O  O20  1  0.13090000  0.36270000  0.55970000  1.0 -0.6603028006
O  O21  1  0.76940000  0.58840000  0.48460000  1.0 -0.5000880724
O  O22  1  0.82660000  0.55460000  0.56480000  1.0 -0.5101047075
O  O23  1  0.67360000  0.62800000  0.55100000  1.0 -0.4408596261
O  O24  1  0.94670000  0.55970000  0.36270000  1.0 -0.6699678027
O  O25  1  0.48460000  0.15760000  0.76940000  1.0 -0.5000880724
O  O26  1  0.56480000  0.05400000  0.82660000  1.0 -0.5101047075
O  O27  1  0.55100000  0.14740000  0.67360000  1.0 -0.4408596261
O  O28  1  0.36270000  0.13090000  0.94670000  1.0 -0.6699678027
O  O29  1  0.58840000  0.76940000  0.15760000  1.0 -0.5000880724
O  O30  1  0.55460000  0.82660000  0.05400000  1.0 -0.5101047075
O  O31  1  0.62800000  0.67360000  0.14740000  1.0 -0.4408596261
O  O32  1  0.55970000  0.94670000  0.13090000  1.0 -0.6699678027
O  O33  1  0.76940000  0.48460000  0.15760000  1.0 -0.5000880724
O  O34  1  0.82660000  0.56480000  0.05400000  1.0 -0.5101047075
O  O35  1  0.67360000  0.55100000  0.14740000  1.0 -0.4408596261
O  O36  1  0.94670000  0.36270000  0.13090000  1.0 -0.6699678027
O  O37  1  0.15760000  0.58840000  0.76940000  1.0 -0.5000880724
O  O38  1  0.05400000  0.55460000  0.82660000  1.0 -0.5101047075
O  O39  1  0.14740000  0.62800000  0.67360000  1.0 -0.4408596261
O  O40  1  0.13090000  0.55970000  0.94670000  1.0 -0.6699678027
O  O41  1  0.58840000  0.15760000  0.48460000  1.0 -0.5000880724
O  O42  1  0.55460000  0.05400000  0.56480000  1.0 -0.5101047075
O  O43  1  0.62800000  0.14740000  0.55100000  1.0 -0.4408596261
O  O44  1  0.55970000  0.13090000  0.36270000  1.0 -0.6603028006
O  O45  1  0.48460000  0.76940000  0.58840000  1.0 -0.5000880724
O  O46  1  0.56480000  0.82660000  0.55460000  1.0 -0.5101047075
O  O47  1  0.55100000  0.67360000  0.62800000  1.0 -0.4408596261
O  O48  1  0.36270000  0.94670000  0.55970000  1.0 -0.6603028006
O  O49  1  0.41160000  0.51540000  0.23060000  1.0 -0.5000880724
O  O50  1  0.44540000  0.43520000  0.17340000  1.0 -0.5101047075
O  O51  1  0.37200000  0.44900000  0.32640000  1.0 -0.4408596261
O  O52  1  0.44030000  0.63730000  0.05330000  1.0 -0.6603028006
O  O53  1  0.51540000  0.41160000  0.84240000  1.0 -0.5000880724
O  O54  1  0.43520000  0.44540000  0.94600000  1.0 -0.5101047075
O  O55  1  0.44900000  0.37200000  0.85260000  1.0 -0.4408596261
O  O56  1  0.63730000  0.44030000  0.86910000  1.0 -0.6699678027
O  O57  1  0.23060000  0.84240000  0.41160000  1.0 -0.5000880724
O  O58  1  0.17340000  0.94600000  0.44540000  1.0 -0.5101047075
O  O59  1  0.32640000  0.85260000  0.37200000  1.0 -0.4408596261
O  O60  1  0.05330000  0.86910000  0.44030000  1.0 -0.6699678027
O  O61  1  0.84240000  0.23060000  0.51540000  1.0 -0.5000880724
O  O62  1  0.94600000  0.17340000  0.43520000  1.0 -0.5101047075
O  O63  1  0.85260000  0.32640000  0.44900000  1.0 -0.4408596261
O  O64  1  0.86910000  0.05330000  0.63730000  1.0 -0.6699678027
O  O65  1  0.84240000  0.51540000  0.41160000  1.0 -0.5000880724
O  O66  1  0.94600000  0.43520000  0.44540000  1.0 -0.5101047075
O  O67  1  0.85260000  0.44900000  0.37200000  1.0 -0.4408596261
O  O68  1  0.86910000  0.63730000  0.44030000  1.0 -0.6699678027
O  O69  1  0.23060000  0.41160000  0.51540000  1.0 -0.5000880724
O  O70  1  0.17340000  0.44540000  0.43520000  1.0 -0.5101047075
O  O71  1  0.32640000  0.37200000  0.44900000  1.0 -0.4408596261
O  O72  1  0.05330000  0.44030000  0.63730000  1.0 -0.6699678027
O  O73  1  0.51540000  0.84240000  0.23060000  1.0 -0.5000880724
O  O74  1  0.43520000  0.94600000  0.17340000  1.0 -0.5101047075
O  O75  1  0.44900000  0.85260000  0.32640000  1.0 -0.4408596261
O  O76  1  0.63730000  0.86910000  0.05330000  1.0 -0.6603028006
O  O77  1  0.41160000  0.23060000  0.84240000  1.0 -0.5000880724
O  O78  1  0.44540000  0.17340000  0.94600000  1.0 -0.5101047075
O  O79  1  0.37200000  0.32640000  0.85260000  1.0 -0.4408596261
O  O80  1  0.44030000  0.05330000  0.86910000  1.0 -0.6699678027
O  O81  1  0.23060000  0.51540000  0.84240000  1.0 -0.5000880724
O  O82  1  0.17340000  0.43520000  0.94600000  1.0 -0.5101047075
O  O83  1  0.32640000  0.44900000  0.85260000  1.0 -0.4408596261
O  O84  1  0.05330000  0.63730000  0.86910000  1.0 -0.6603028006
O  O85  1  0.84240000  0.41160000  0.23060000  1.0 -0.5000880724
O  O86  1  0.94600000  0.44540000  0.17340000  1.0 -0.5101047075
O  O87  1  0.85260000  0.37200000  0.32640000  1.0 -0.4408596261
O  O88  1  0.86910000  0.44030000  0.05330000  1.0 -0.6603028006
O  O89  1  0.41160000  0.84240000  0.51540000  1.0 -0.5000880724
O  O90  1  0.44540000  0.94600000  0.43520000  1.0 -0.5101047075
O  O91  1  0.37200000  0.85260000  0.44900000  1.0 -0.4408596261
O  O92  1  0.44030000  0.86910000  0.63730000  1.0 -0.6699678027
O  O93  1  0.51540000  0.23060000  0.41160000  1.0 -0.5000880724
O  O94  1  0.43520000  0.17340000  0.44540000  1.0 -0.5101047075
O  O95  1  0.44900000  0.32640000  0.37200000  1.0 -0.4408596261
O  O96  1  0.63730000  0.05330000  0.44030000  1.0 -0.6603028006
O  O97  1  0.45280000  0.54720000  0.82980000  1.0 -0.4106890338
O  O98  1  0.47820000  0.52180000  0.95020000  1.0 -0.5719435976
O  O99  1  0.56000000  0.44000000  0.98000000  1.0 1.129636454
O  O100  1  0.54720000  0.45280000  0.17020000  1.0 -0.4193488463
O  O101  1  0.52180000  0.47820000  0.04980000  1.0 -0.5778871609
O  O102  1  0.44000000  0.56000000  0.02000000  1.0 1.129636454
O  O103  1  0.82980000  0.17020000  0.45280000  1.0 -0.4193488463
O  O104  1  0.95020000  0.04980000  0.47820000  1.0 -0.5778871609
O  O105  1  0.98000000  0.02000000  0.56000000  1.0 1.1395421976
O  O106  1  0.17020000  0.82980000  0.54720000  1.0 -0.4193488463
O  O107  1  0.04980000  0.95020000  0.52180000  1.0 -0.5778871609
O  O108  1  0.02000000  0.98000000  0.44000000  1.0 1.1484450334
O  O109  1  0.17020000  0.54720000  0.45280000  1.0 -0.4193488463
O  O110  1  0.04980000  0.52180000  0.47820000  1.0 -0.5719435976
O  O111  1  0.02000000  0.44000000  0.56000000  1.0 1.129636454
O  O112  1  0.82980000  0.45280000  0.54720000  1.0 -0.4193488463
O  O113  1  0.95020000  0.47820000  0.52180000  1.0 -0.5778871609
O  O114  1  0.98000000  0.56000000  0.44000000  1.0 1.1395421976
O  O115  1  0.54720000  0.17020000  0.82980000  1.0 -0.4193488463
O  O116  1  0.52180000  0.04980000  0.95020000  1.0 -0.5778871609
O  O117  1  0.44000000  0.02000000  0.98000000  1.0 1.1395421976
O  O118  1  0.45280000  0.82980000  0.17020000  1.0 -0.4193488463
O  O119  1  0.47820000  0.95020000  0.04980000  1.0 -0.5778871609
O  O120  1  0.56000000  0.98000000  0.02000000  1.0 1.1484450334
O  O121  1  0.82980000  0.54720000  0.17020000  1.0 -0.4106890338
O  O122  1  0.95020000  0.52180000  0.04980000  1.0 -0.5778871609
O  O123  1  0.98000000  0.44000000  0.02000000  1.0 1.1395421976
O  O124  1  0.17020000  0.45280000  0.82980000  1.0 -0.427626676
O  O125  1  0.04980000  0.47820000  0.95020000  1.0 -0.5719435976
O  O126  1  0.02000000  0.56000000  0.98000000  1.0 1.1395421976
O  O127  1  0.45280000  0.17020000  0.54720000  1.0 -0.4193488463
O  O128  1  0.47820000  0.04980000  0.52180000  1.0 -0.5778871609
O  O129  1  0.56000000  0.02000000  0.44000000  1.0 1.129636454
O  O130  1  0.54720000  0.82980000  0.45280000  1.0 -0.4106890338
O  O131  1  0.52180000  0.95020000  0.47820000  1.0 -0.5778871609
O  O132  1  0.44000000  0.98000000  0.56000000  1.0 1.129636454
