# DDEC6 charges by PACMAN v1.1 (https://github.com/mtap-research/PACMAN-charge/)
data_TUBDIG_ASR_pacman
_symmetry_space_group_name_H-M   'P 1'
_cell_length_a   25.75710000
_cell_length_b   25.75710000
_cell_length_c   25.75710000
_cell_angle_alpha   60.00000000
_cell_angle_beta   60.00000000
_cell_angle_gamma   60.00000000
_symmetry_Int_Tables_number   1
_chemical_formula_structural   Ho3Co2H24C48(N2O9)4
_chemical_formula_sum   'Ho12 Co8 H96 C192 N32 O144'
_cell_volume   12083.03113153
_cell_formula_units_Z   4
loop_
 _symmetry_equiv_pos_site_id
 _symmetry_equiv_pos_as_xyz
  1  'x, y, z'
loop_
 _atom_site_type_symbol
 _atom_site_label
 _atom_site_symmetry_multiplicity
 _atom_site_fract_x
 _atom_site_fract_y
 _atom_site_fract_z
 _atom_site_occupancy
 _atom_site_charge
Ho  Ho1  1  0.52509000  0.47491000  0.87971000  1.0 1.7006212724
Ho  Ho2  1  0.47491000  0.52509000  0.12029000  1.0 1.7006212724
Ho  Ho3  1  0.87971000  0.12029000  0.52509000  1.0 1.7006212724
Ho  Ho4  1  0.12029000  0.87971000  0.47491000  1.0 1.7006212724
Ho  Ho5  1  0.12029000  0.47491000  0.52509000  1.0 1.7006212724
Ho  Ho6  1  0.87971000  0.52509000  0.47491000  1.0 1.7006212724
Ho  Ho7  1  0.47491000  0.12029000  0.87971000  1.0 1.7006212724
Ho  Ho8  1  0.52509000  0.87971000  0.12029000  1.0 1.7006212724
Ho  Ho9  1  0.87971000  0.47491000  0.12029000  1.0 1.7006212724
Ho  Ho10  1  0.12029000  0.52509000  0.87971000  1.0 1.7006212724
Ho  Ho11  1  0.52509000  0.12029000  0.47491000  1.0 1.7006212724
Ho  Ho12  1  0.47491000  0.87971000  0.52509000  1.0 1.7006212724
Co  Co1  1  0.63678000  0.63678000  0.63678000  1.0 0.7277537339
Co  Co2  1  0.63678000  0.63678000  0.08966000  1.0 0.7277537339
Co  Co3  1  0.63678000  0.08966000  0.63678000  1.0 0.7277537339
Co  Co4  1  0.08966000  0.63678000  0.63678000  1.0 0.7277537339
Co  Co5  1  0.36322000  0.36322000  0.36322000  1.0 0.7277537339
Co  Co6  1  0.36322000  0.36322000  0.91034000  1.0 0.7277537339
Co  Co7  1  0.36322000  0.91034000  0.36322000  1.0 0.7277537339
Co  Co8  1  0.91034000  0.36322000  0.36322000  1.0 0.7277537339
H  H1  1  0.65033000  0.63471000  0.78727000  1.0 0.1196464949
H  H2  1  0.62665000  0.70999000  0.82609000  1.0 0.1118882501
H  H3  1  0.48405000  0.82595000  0.75401000  1.0 0.1270041094
H  H4  1  0.50580000  0.74936000  0.71592000  1.0 0.1270041094
H  H5  1  0.63471000  0.65033000  0.92769000  1.0 0.1196464949
H  H6  1  0.70999000  0.62665000  0.83727000  1.0 0.1118882501
H  H7  1  0.82595000  0.48405000  0.93599000  1.0 0.1270041094
H  H8  1  0.74936000  0.50580000  0.02892000  1.0 0.1270041094
H  H9  1  0.78727000  0.92769000  0.65033000  1.0 0.1196464949
H  H10  1  0.82609000  0.83727000  0.62665000  1.0 0.1118882501
H  H11  1  0.75401000  0.93599000  0.48405000  1.0 0.1270041094
H  H12  1  0.71592000  0.02892000  0.50580000  1.0 0.1270041094
H  H13  1  0.92769000  0.78727000  0.63471000  1.0 0.1196464949
H  H14  1  0.83727000  0.82609000  0.70999000  1.0 0.1118882501
H  H15  1  0.93599000  0.75401000  0.82595000  1.0 0.1270041094
H  H16  1  0.02892000  0.71592000  0.74936000  1.0 0.1270041094
H  H17  1  0.92769000  0.63471000  0.65033000  1.0 0.1196464949
H  H18  1  0.83727000  0.70999000  0.62665000  1.0 0.1118882501
H  H19  1  0.93599000  0.82595000  0.48405000  1.0 0.1270041094
H  H20  1  0.02892000  0.74936000  0.50580000  1.0 0.1270041094
H  H21  1  0.78727000  0.65033000  0.63471000  1.0 0.1196464949
H  H22  1  0.82609000  0.62665000  0.70999000  1.0 0.1118882501
H  H23  1  0.75401000  0.48405000  0.82595000  1.0 0.1270041094
H  H24  1  0.71592000  0.50580000  0.74936000  1.0 0.1270041094
H  H25  1  0.63471000  0.92769000  0.78727000  1.0 0.1196464949
H  H26  1  0.70999000  0.83727000  0.82609000  1.0 0.1118882501
H  H27  1  0.82595000  0.93599000  0.75401000  1.0 0.1270041094
H  H28  1  0.74936000  0.02892000  0.71592000  1.0 0.1270041094
H  H29  1  0.65033000  0.78727000  0.92769000  1.0 0.1196464949
H  H30  1  0.62665000  0.82609000  0.83727000  1.0 0.1118882501
H  H31  1  0.48405000  0.75401000  0.93599000  1.0 0.1270041094
H  H32  1  0.50580000  0.71592000  0.02892000  1.0 0.1270041094
H  H33  1  0.78727000  0.63471000  0.92769000  1.0 0.1196464949
H  H34  1  0.82609000  0.70999000  0.83727000  1.0 0.1118882501
H  H35  1  0.75401000  0.82595000  0.93599000  1.0 0.1270041094
H  H36  1  0.71592000  0.74936000  0.02892000  1.0 0.1270041094
H  H37  1  0.92769000  0.65033000  0.78727000  1.0 0.1196464949
H  H38  1  0.83727000  0.62665000  0.82609000  1.0 0.1118882501
H  H39  1  0.93599000  0.48405000  0.75401000  1.0 0.1270041094
H  H40  1  0.02892000  0.50580000  0.71592000  1.0 0.1270041094
H  H41  1  0.65033000  0.92769000  0.63471000  1.0 0.1196464949
H  H42  1  0.62665000  0.83727000  0.70999000  1.0 0.1118882501
H  H43  1  0.48405000  0.93599000  0.82595000  1.0 0.1270041094
H  H44  1  0.50580000  0.02892000  0.74936000  1.0 0.1270041094
H  H45  1  0.63471000  0.78727000  0.65033000  1.0 0.1196464949
H  H46  1  0.70999000  0.82609000  0.62665000  1.0 0.1118882501
H  H47  1  0.82595000  0.75401000  0.48405000  1.0 0.1270041094
H  H48  1  0.74936000  0.71592000  0.50580000  1.0 0.1270041094
H  H49  1  0.34967000  0.36529000  0.21273000  1.0 0.1196464949
H  H50  1  0.37335000  0.29001000  0.17391000  1.0 0.1118882501
H  H51  1  0.51595000  0.17405000  0.24599000  1.0 0.1270041094
H  H52  1  0.49420000  0.25064000  0.28408000  1.0 0.1270041094
H  H53  1  0.36529000  0.34967000  0.07231000  1.0 0.1196464949
H  H54  1  0.29001000  0.37335000  0.16273000  1.0 0.1118882501
H  H55  1  0.17405000  0.51595000  0.06401000  1.0 0.1270041094
H  H56  1  0.25064000  0.49420000  0.97108000  1.0 0.1270041094
H  H57  1  0.21273000  0.07231000  0.34967000  1.0 0.1196464949
H  H58  1  0.17391000  0.16273000  0.37335000  1.0 0.1118882501
H  H59  1  0.24599000  0.06401000  0.51595000  1.0 0.1270041094
H  H60  1  0.28408000  0.97108000  0.49420000  1.0 0.1270041094
H  H61  1  0.07231000  0.21273000  0.36529000  1.0 0.1196464949
H  H62  1  0.16273000  0.17391000  0.29001000  1.0 0.1118882501
H  H63  1  0.06401000  0.24599000  0.17405000  1.0 0.1270041094
H  H64  1  0.97108000  0.28408000  0.25064000  1.0 0.1270041094
H  H65  1  0.07231000  0.36529000  0.34967000  1.0 0.1196464949
H  H66  1  0.16273000  0.29001000  0.37335000  1.0 0.1118882501
H  H67  1  0.06401000  0.17405000  0.51595000  1.0 0.1270041094
H  H68  1  0.97108000  0.25064000  0.49420000  1.0 0.1270041094
H  H69  1  0.21273000  0.34967000  0.36529000  1.0 0.1196464949
H  H70  1  0.17391000  0.37335000  0.29001000  1.0 0.1118882501
H  H71  1  0.24599000  0.51595000  0.17405000  1.0 0.1270041094
H  H72  1  0.28408000  0.49420000  0.25064000  1.0 0.1270041094
H  H73  1  0.36529000  0.07231000  0.21273000  1.0 0.1196464949
H  H74  1  0.29001000  0.16273000  0.17391000  1.0 0.1118882501
H  H75  1  0.17405000  0.06401000  0.24599000  1.0 0.1270041094
H  H76  1  0.25064000  0.97108000  0.28408000  1.0 0.1270041094
H  H77  1  0.34967000  0.21273000  0.07231000  1.0 0.1196464949
H  H78  1  0.37335000  0.17391000  0.16273000  1.0 0.1118882501
H  H79  1  0.51595000  0.24599000  0.06401000  1.0 0.1270041094
H  H80  1  0.49420000  0.28408000  0.97108000  1.0 0.1270041094
H  H81  1  0.21273000  0.36529000  0.07231000  1.0 0.1196464949
H  H82  1  0.17391000  0.29001000  0.16273000  1.0 0.1118882501
H  H83  1  0.24599000  0.17405000  0.06401000  1.0 0.1270041094
H  H84  1  0.28408000  0.25064000  0.97108000  1.0 0.1270041094
H  H85  1  0.07231000  0.34967000  0.21273000  1.0 0.1196464949
H  H86  1  0.16273000  0.37335000  0.17391000  1.0 0.1118882501
H  H87  1  0.06401000  0.51595000  0.24599000  1.0 0.1270041094
H  H88  1  0.97108000  0.49420000  0.28408000  1.0 0.1270041094
H  H89  1  0.34967000  0.07231000  0.36529000  1.0 0.1196464949
H  H90  1  0.37335000  0.16273000  0.29001000  1.0 0.1118882501
H  H91  1  0.51595000  0.06401000  0.17405000  1.0 0.1270041094
H  H92  1  0.49420000  0.97108000  0.25064000  1.0 0.1270041094
H  H93  1  0.36529000  0.21273000  0.34967000  1.0 0.1196464949
H  H94  1  0.29001000  0.17391000  0.37335000  1.0 0.1118882501
H  H95  1  0.17405000  0.24599000  0.51595000  1.0 0.1270041094
H  H96  1  0.25064000  0.28408000  0.49420000  1.0 0.1270041094
C  C1  1  0.59690000  0.54010000  0.73230000  1.0 0.4984121897
C  C2  1  0.57940000  0.58640000  0.76360000  1.0 0.3863410257
C  C3  1  0.57980000  0.68440000  0.74760000  1.0 0.2264201694
C  C4  1  0.61590000  0.67330000  0.78090000  1.0 -0.1423753783
C  C5  1  0.60130000  0.71770000  0.80430000  1.0 -0.1884589683
C  C6  1  0.55150000  0.77310000  0.79730000  1.0 0.1582037357
C  C7  1  0.51690000  0.78630000  0.76190000  1.0 -0.1691048092
C  C8  1  0.53050000  0.74110000  0.73850000  1.0 -0.1648042273
C  C9  1  0.54010000  0.59690000  0.13070000  1.0 0.4984121897
C  C10  1  0.58640000  0.57940000  0.07060000  1.0 0.3863410257
C  C11  1  0.68440000  0.57980000  0.98820000  1.0 0.2264201694
C  C12  1  0.67330000  0.61590000  0.92990000  1.0 -0.1423753783
C  C13  1  0.71770000  0.60130000  0.87670000  1.0 -0.1884589683
C  C14  1  0.77310000  0.55150000  0.87810000  1.0 0.1582037357
C  C15  1  0.78630000  0.51690000  0.93490000  1.0 -0.1691048092
C  C16  1  0.74110000  0.53050000  0.98990000  1.0 -0.1648042273
C  C17  1  0.73230000  0.13070000  0.59690000  1.0 0.4984121897
C  C18  1  0.76360000  0.07060000  0.57940000  1.0 0.3863410257
C  C19  1  0.74760000  0.98820000  0.57980000  1.0 0.2264201694
C  C20  1  0.78090000  0.92990000  0.61590000  1.0 -0.1423753783
C  C21  1  0.80430000  0.87670000  0.60130000  1.0 -0.1884589683
C  C22  1  0.79730000  0.87810000  0.55150000  1.0 0.1582037357
C  C23  1  0.76190000  0.93490000  0.51690000  1.0 -0.1691048092
C  C24  1  0.73850000  0.98990000  0.53050000  1.0 -0.1648042273
C  C25  1  0.13070000  0.73230000  0.54010000  1.0 0.4984121897
C  C26  1  0.07060000  0.76360000  0.58640000  1.0 0.3863410257
C  C27  1  0.98820000  0.74760000  0.68440000  1.0 0.2264201694
C  C28  1  0.92990000  0.78090000  0.67330000  1.0 -0.1423753783
C  C29  1  0.87670000  0.80430000  0.71770000  1.0 -0.1884589683
C  C30  1  0.87810000  0.79730000  0.77310000  1.0 0.1582037357
C  C31  1  0.93490000  0.76190000  0.78630000  1.0 -0.1691048092
C  C32  1  0.98990000  0.73850000  0.74110000  1.0 -0.1648042273
C  C33  1  0.13070000  0.54010000  0.59690000  1.0 0.4984121897
C  C34  1  0.07060000  0.58640000  0.57940000  1.0 0.3863410257
C  C35  1  0.98820000  0.68440000  0.57980000  1.0 0.2264201694
C  C36  1  0.92990000  0.67330000  0.61590000  1.0 -0.1423753783
C  C37  1  0.87670000  0.71770000  0.60130000  1.0 -0.1884589683
C  C38  1  0.87810000  0.77310000  0.55150000  1.0 0.1582037357
C  C39  1  0.93490000  0.78630000  0.51690000  1.0 -0.1691048092
C  C40  1  0.98990000  0.74110000  0.53050000  1.0 -0.1648042273
C  C41  1  0.73230000  0.59690000  0.54010000  1.0 0.4984121897
C  C42  1  0.76360000  0.57940000  0.58640000  1.0 0.3863410257
C  C43  1  0.74760000  0.57980000  0.68440000  1.0 0.2264201694
C  C44  1  0.78090000  0.61590000  0.67330000  1.0 -0.1423753783
C  C45  1  0.80430000  0.60130000  0.71770000  1.0 -0.1884589683
C  C46  1  0.79730000  0.55150000  0.77310000  1.0 0.1582037357
C  C47  1  0.76190000  0.51690000  0.78630000  1.0 -0.1691048092
C  C48  1  0.73850000  0.53050000  0.74110000  1.0 -0.1648042273
C  C49  1  0.54010000  0.13070000  0.73230000  1.0 0.4984121897
C  C50  1  0.58640000  0.07060000  0.76360000  1.0 0.3863410257
C  C51  1  0.68440000  0.98820000  0.74760000  1.0 0.2264201694
C  C52  1  0.67330000  0.92990000  0.78090000  1.0 -0.1423753783
C  C53  1  0.71770000  0.87670000  0.80430000  1.0 -0.1884589683
C  C54  1  0.77310000  0.87810000  0.79730000  1.0 0.1582037357
C  C55  1  0.78630000  0.93490000  0.76190000  1.0 -0.1691048092
C  C56  1  0.74110000  0.98990000  0.73850000  1.0 -0.1648042273
C  C57  1  0.59690000  0.73230000  0.13070000  1.0 0.4984121897
C  C58  1  0.57940000  0.76360000  0.07060000  1.0 0.3863410257
C  C59  1  0.57980000  0.74760000  0.98820000  1.0 0.2264201694
C  C60  1  0.61590000  0.78090000  0.92990000  1.0 -0.1423753783
C  C61  1  0.60130000  0.80430000  0.87670000  1.0 -0.1884589683
C  C62  1  0.55150000  0.79730000  0.87810000  1.0 0.1582037357
C  C63  1  0.51690000  0.76190000  0.93490000  1.0 -0.1691048092
C  C64  1  0.53050000  0.73850000  0.98990000  1.0 -0.1648042273
C  C65  1  0.73230000  0.54010000  0.13070000  1.0 0.4984121897
C  C66  1  0.76360000  0.58640000  0.07060000  1.0 0.3863410257
C  C67  1  0.74760000  0.68440000  0.98820000  1.0 0.2264201694
C  C68  1  0.78090000  0.67330000  0.92990000  1.0 -0.1423753783
C  C69  1  0.80430000  0.71770000  0.87670000  1.0 -0.1884589683
C  C70  1  0.79730000  0.77310000  0.87810000  1.0 0.1582037357
C  C71  1  0.76190000  0.78630000  0.93490000  1.0 -0.1691048092
C  C72  1  0.73850000  0.74110000  0.98990000  1.0 -0.1648042273
C  C73  1  0.13070000  0.59690000  0.73230000  1.0 0.4984121897
C  C74  1  0.07060000  0.57940000  0.76360000  1.0 0.3863410257
C  C75  1  0.98820000  0.57980000  0.74760000  1.0 0.2264201694
C  C76  1  0.92990000  0.61590000  0.78090000  1.0 -0.1423753783
C  C77  1  0.87670000  0.60130000  0.80430000  1.0 -0.1884589683
C  C78  1  0.87810000  0.55150000  0.79730000  1.0 0.1582037357
C  C79  1  0.93490000  0.51690000  0.76190000  1.0 -0.1691048092
C  C80  1  0.98990000  0.53050000  0.73850000  1.0 -0.1648042273
C  C81  1  0.59690000  0.13070000  0.54010000  1.0 0.4984121897
C  C82  1  0.57940000  0.07060000  0.58640000  1.0 0.3863410257
C  C83  1  0.57980000  0.98820000  0.68440000  1.0 0.2264201694
C  C84  1  0.61590000  0.92990000  0.67330000  1.0 -0.1423753783
C  C85  1  0.60130000  0.87670000  0.71770000  1.0 -0.1884589683
C  C86  1  0.55150000  0.87810000  0.77310000  1.0 0.1582037357
C  C87  1  0.51690000  0.93490000  0.78630000  1.0 -0.1691048092
C  C88  1  0.53050000  0.98990000  0.74110000  1.0 -0.1648042273
C  C89  1  0.54010000  0.73230000  0.59690000  1.0 0.4984121897
C  C90  1  0.58640000  0.76360000  0.57940000  1.0 0.3863410257
C  C91  1  0.68440000  0.74760000  0.57980000  1.0 0.2264201694
C  C92  1  0.67330000  0.78090000  0.61590000  1.0 -0.1423753783
C  C93  1  0.71770000  0.80430000  0.60130000  1.0 -0.1884589683
C  C94  1  0.77310000  0.79730000  0.55150000  1.0 0.1582037357
C  C95  1  0.78630000  0.76190000  0.51690000  1.0 -0.1691048092
C  C96  1  0.74110000  0.73850000  0.53050000  1.0 -0.1648042273
C  C97  1  0.40310000  0.45990000  0.26770000  1.0 0.4984121897
C  C98  1  0.42060000  0.41360000  0.23640000  1.0 0.3863410257
C  C99  1  0.42020000  0.31560000  0.25240000  1.0 0.2264201694
C  C100  1  0.38410000  0.32670000  0.21910000  1.0 -0.1423753783
C  C101  1  0.39870000  0.28230000  0.19570000  1.0 -0.1884589683
C  C102  1  0.44850000  0.22690000  0.20270000  1.0 0.1582037357
C  C103  1  0.48310000  0.21370000  0.23810000  1.0 -0.1691048092
C  C104  1  0.46950000  0.25890000  0.26150000  1.0 -0.1648042273
C  C105  1  0.45990000  0.40310000  0.86930000  1.0 0.4984121897
C  C106  1  0.41360000  0.42060000  0.92940000  1.0 0.3863410257
C  C107  1  0.31560000  0.42020000  0.01180000  1.0 0.2264201694
C  C108  1  0.32670000  0.38410000  0.07010000  1.0 -0.1423753783
C  C109  1  0.28230000  0.39870000  0.12330000  1.0 -0.1884589683
C  C110  1  0.22690000  0.44850000  0.12190000  1.0 0.1582037357
C  C111  1  0.21370000  0.48310000  0.06510000  1.0 -0.1691048092
C  C112  1  0.25890000  0.46950000  0.01010000  1.0 -0.1648042273
C  C113  1  0.26770000  0.86930000  0.40310000  1.0 0.4984121897
C  C114  1  0.23640000  0.92940000  0.42060000  1.0 0.3863410257
C  C115  1  0.25240000  0.01180000  0.42020000  1.0 0.2264201694
C  C116  1  0.21910000  0.07010000  0.38410000  1.0 -0.1423753783
C  C117  1  0.19570000  0.12330000  0.39870000  1.0 -0.1884589683
C  C118  1  0.20270000  0.12190000  0.44850000  1.0 0.1582037357
C  C119  1  0.23810000  0.06510000  0.48310000  1.0 -0.1691048092
C  C120  1  0.26150000  0.01010000  0.46950000  1.0 -0.1648042273
C  C121  1  0.86930000  0.26770000  0.45990000  1.0 0.4984121897
C  C122  1  0.92940000  0.23640000  0.41360000  1.0 0.3863410257
C  C123  1  0.01180000  0.25240000  0.31560000  1.0 0.2264201694
C  C124  1  0.07010000  0.21910000  0.32670000  1.0 -0.1423753783
C  C125  1  0.12330000  0.19570000  0.28230000  1.0 -0.1884589683
C  C126  1  0.12190000  0.20270000  0.22690000  1.0 0.1582037357
C  C127  1  0.06510000  0.23810000  0.21370000  1.0 -0.1691048092
C  C128  1  0.01010000  0.26150000  0.25890000  1.0 -0.1648042273
C  C129  1  0.86930000  0.45990000  0.40310000  1.0 0.4984121897
C  C130  1  0.92940000  0.41360000  0.42060000  1.0 0.3863410257
C  C131  1  0.01180000  0.31560000  0.42020000  1.0 0.2264201694
C  C132  1  0.07010000  0.32670000  0.38410000  1.0 -0.1423753783
C  C133  1  0.12330000  0.28230000  0.39870000  1.0 -0.1884589683
C  C134  1  0.12190000  0.22690000  0.44850000  1.0 0.1582037357
C  C135  1  0.06510000  0.21370000  0.48310000  1.0 -0.1691048092
C  C136  1  0.01010000  0.25890000  0.46950000  1.0 -0.1648042273
C  C137  1  0.26770000  0.40310000  0.45990000  1.0 0.4984121897
C  C138  1  0.23640000  0.42060000  0.41360000  1.0 0.3863410257
C  C139  1  0.25240000  0.42020000  0.31560000  1.0 0.2264201694
C  C140  1  0.21910000  0.38410000  0.32670000  1.0 -0.1423753783
C  C141  1  0.19570000  0.39870000  0.28230000  1.0 -0.1884589683
C  C142  1  0.20270000  0.44850000  0.22690000  1.0 0.1582037357
C  C143  1  0.23810000  0.48310000  0.21370000  1.0 -0.1691048092
C  C144  1  0.26150000  0.46950000  0.25890000  1.0 -0.1648042273
C  C145  1  0.45990000  0.86930000  0.26770000  1.0 0.4984121897
C  C146  1  0.41360000  0.92940000  0.23640000  1.0 0.3863410257
C  C147  1  0.31560000  0.01180000  0.25240000  1.0 0.2264201694
C  C148  1  0.32670000  0.07010000  0.21910000  1.0 -0.1423753783
C  C149  1  0.28230000  0.12330000  0.19570000  1.0 -0.1884589683
C  C150  1  0.22690000  0.12190000  0.20270000  1.0 0.1582037357
C  C151  1  0.21370000  0.06510000  0.23810000  1.0 -0.1691048092
C  C152  1  0.25890000  0.01010000  0.26150000  1.0 -0.1648042273
C  C153  1  0.40310000  0.26770000  0.86930000  1.0 0.4984121897
C  C154  1  0.42060000  0.23640000  0.92940000  1.0 0.3863410257
C  C155  1  0.42020000  0.25240000  0.01180000  1.0 0.2264201694
C  C156  1  0.38410000  0.21910000  0.07010000  1.0 -0.1423753783
C  C157  1  0.39870000  0.19570000  0.12330000  1.0 -0.1884589683
C  C158  1  0.44850000  0.20270000  0.12190000  1.0 0.1582037357
C  C159  1  0.48310000  0.23810000  0.06510000  1.0 -0.1691048092
C  C160  1  0.46950000  0.26150000  0.01010000  1.0 -0.1648042273
C  C161  1  0.26770000  0.45990000  0.86930000  1.0 0.4984121897
C  C162  1  0.23640000  0.41360000  0.92940000  1.0 0.3863410257
C  C163  1  0.25240000  0.31560000  0.01180000  1.0 0.2264201694
C  C164  1  0.21910000  0.32670000  0.07010000  1.0 -0.1423753783
C  C165  1  0.19570000  0.28230000  0.12330000  1.0 -0.1884589683
C  C166  1  0.20270000  0.22690000  0.12190000  1.0 0.1582037357
C  C167  1  0.23810000  0.21370000  0.06510000  1.0 -0.1691048092
C  C168  1  0.26150000  0.25890000  0.01010000  1.0 -0.1648042273
C  C169  1  0.86930000  0.40310000  0.26770000  1.0 0.4984121897
C  C170  1  0.92940000  0.42060000  0.23640000  1.0 0.3863410257
C  C171  1  0.01180000  0.42020000  0.25240000  1.0 0.2264201694
C  C172  1  0.07010000  0.38410000  0.21910000  1.0 -0.1423753783
C  C173  1  0.12330000  0.39870000  0.19570000  1.0 -0.1884589683
C  C174  1  0.12190000  0.44850000  0.20270000  1.0 0.1582037357
C  C175  1  0.06510000  0.48310000  0.23810000  1.0 -0.1691048092
C  C176  1  0.01010000  0.46950000  0.26150000  1.0 -0.1648042273
C  C177  1  0.40310000  0.86930000  0.45990000  1.0 0.4984121897
C  C178  1  0.42060000  0.92940000  0.41360000  1.0 0.3863410257
C  C179  1  0.42020000  0.01180000  0.31560000  1.0 0.2264201694
C  C180  1  0.38410000  0.07010000  0.32670000  1.0 -0.1423753783
C  C181  1  0.39870000  0.12330000  0.28230000  1.0 -0.1884589683
C  C182  1  0.44850000  0.12190000  0.22690000  1.0 0.1582037357
C  C183  1  0.48310000  0.06510000  0.21370000  1.0 -0.1691048092
C  C184  1  0.46950000  0.01010000  0.25890000  1.0 -0.1648042273
C  C185  1  0.45990000  0.26770000  0.40310000  1.0 0.4984121897
C  C186  1  0.41360000  0.23640000  0.42060000  1.0 0.3863410257
C  C187  1  0.31560000  0.25240000  0.42020000  1.0 0.2264201694
C  C188  1  0.32670000  0.21910000  0.38410000  1.0 -0.1423753783
C  C189  1  0.28230000  0.19570000  0.39870000  1.0 -0.1884589683
C  C190  1  0.22690000  0.20270000  0.44850000  1.0 0.1582037357
C  C191  1  0.21370000  0.23810000  0.48310000  1.0 -0.1691048092
C  C192  1  0.25890000  0.26150000  0.46950000  1.0 -0.1648042273
N  N1  1  0.59520000  0.63700000  0.72380000  1.0 -0.4306951789
N  N2  1  0.63700000  0.59520000  0.04400000  1.0 -0.4306951789
N  N3  1  0.72380000  0.04400000  0.59520000  1.0 -0.4306951789
N  N4  1  0.04400000  0.72380000  0.63700000  1.0 -0.4306951789
N  N5  1  0.04400000  0.63700000  0.59520000  1.0 -0.4306951789
N  N6  1  0.72380000  0.59520000  0.63700000  1.0 -0.4306951789
N  N7  1  0.63700000  0.04400000  0.72380000  1.0 -0.4306951789
N  N8  1  0.59520000  0.72380000  0.04400000  1.0 -0.4306951789
N  N9  1  0.72380000  0.63700000  0.04400000  1.0 -0.4306951789
N  N10  1  0.04400000  0.59520000  0.72380000  1.0 -0.4306951789
N  N11  1  0.59520000  0.04400000  0.63700000  1.0 -0.4306951789
N  N12  1  0.63700000  0.72380000  0.59520000  1.0 -0.4306951789
N  N13  1  0.40480000  0.36300000  0.27620000  1.0 -0.4306951789
N  N14  1  0.36300000  0.40480000  0.95600000  1.0 -0.4306951789
N  N15  1  0.27620000  0.95600000  0.40480000  1.0 -0.4306951789
N  N16  1  0.95600000  0.27620000  0.36300000  1.0 -0.4306951789
N  N17  1  0.95600000  0.36300000  0.40480000  1.0 -0.4306951789
N  N18  1  0.27620000  0.40480000  0.36300000  1.0 -0.4306951789
N  N19  1  0.36300000  0.95600000  0.27620000  1.0 -0.4306951789
N  N20  1  0.40480000  0.27620000  0.95600000  1.0 -0.4306951789
N  N21  1  0.27620000  0.36300000  0.95600000  1.0 -0.4306951789
N  N22  1  0.95600000  0.40480000  0.27620000  1.0 -0.4306951789
N  N23  1  0.40480000  0.95600000  0.36300000  1.0 -0.4306951789
N  N24  1  0.36300000  0.27620000  0.40480000  1.0 -0.4306951789
N  N25  1  0.53760000  0.82080000  0.82080000  1.0 -0.2110571547
N  N26  1  0.82080000  0.53760000  0.82080000  1.0 -0.2110571547
N  N27  1  0.82080000  0.82080000  0.53760000  1.0 -0.2110571547
N  N28  1  0.82080000  0.82080000  0.82080000  1.0 -0.2110571547
N  N29  1  0.46240000  0.17920000  0.17920000  1.0 -0.2110571547
N  N30  1  0.17920000  0.46240000  0.17920000  1.0 -0.2110571547
N  N31  1  0.17920000  0.17920000  0.46240000  1.0 -0.2110571547
N  N32  1  0.17920000  0.17920000  0.17920000  1.0 -0.2110571547
O  O1  1  0.58240000  0.49200000  0.76620000  1.0 -0.5066160134
O  O2  1  0.55000000  0.57260000  0.82340000  1.0 -0.5359521083
O  O3  1  0.62700000  0.55480000  0.67400000  1.0 -0.4306951789
O  O4  1  0.54430000  0.37390000  0.95990000  1.0 -0.0630251954
O  O5  1  0.57500000  0.36260000  0.91540000  1.0 -0.0111787615
O  O6  1  0.49200000  0.58240000  0.15940000  1.0 -0.5066160134
O  O7  1  0.57260000  0.55000000  0.05400000  1.0 -0.5359521083
O  O8  1  0.55480000  0.62700000  0.14420000  1.0 -0.4306951789
O  O9  1  0.37390000  0.54430000  0.12190000  1.0 -0.0630251954
O  O10  1  0.36260000  0.57500000  0.14700000  1.0 -0.0111787615
O  O11  1  0.76620000  0.15940000  0.58240000  1.0 -0.5066160134
O  O12  1  0.82340000  0.05400000  0.55000000  1.0 -0.5359521083
O  O13  1  0.67400000  0.14420000  0.62700000  1.0 -0.4306951789
O  O14  1  0.95990000  0.12190000  0.54430000  1.0 -0.0630251954
O  O15  1  0.91540000  0.14700000  0.57500000  1.0 -0.0111787615
O  O16  1  0.15940000  0.76620000  0.49200000  1.0 -0.5066160134
O  O17  1  0.05400000  0.82340000  0.57260000  1.0 -0.5359521083
O  O18  1  0.14420000  0.67400000  0.55480000  1.0 -0.4306951789
O  O19  1  0.12190000  0.95990000  0.37390000  1.0 -0.0630251954
O  O20  1  0.14700000  0.91540000  0.36260000  1.0 -0.0111787615
O  O21  1  0.15940000  0.49200000  0.58240000  1.0 -0.5066160134
O  O22  1  0.05400000  0.57260000  0.55000000  1.0 -0.5359521083
O  O23  1  0.14420000  0.55480000  0.62700000  1.0 -0.4306951789
O  O24  1  0.12190000  0.37390000  0.54430000  1.0 -0.0630251954
O  O25  1  0.14700000  0.36260000  0.57500000  1.0 -0.0111787615
O  O26  1  0.76620000  0.58240000  0.49200000  1.0 -0.5066160134
O  O27  1  0.82340000  0.55000000  0.57260000  1.0 -0.5359521083
O  O28  1  0.67400000  0.62700000  0.55480000  1.0 -0.4306951789
O  O29  1  0.95990000  0.54430000  0.37390000  1.0 -0.0630251954
O  O30  1  0.91540000  0.57500000  0.36260000  1.0 -0.0111787615
O  O31  1  0.49200000  0.15940000  0.76620000  1.0 -0.5066160134
O  O32  1  0.57260000  0.05400000  0.82340000  1.0 -0.5359521083
O  O33  1  0.55480000  0.14420000  0.67400000  1.0 -0.4306951789
O  O34  1  0.37390000  0.12190000  0.95990000  1.0 -0.0630251954
O  O35  1  0.36260000  0.14700000  0.91540000  1.0 -0.0111787615
O  O36  1  0.58240000  0.76620000  0.15940000  1.0 -0.5066160134
O  O37  1  0.55000000  0.82340000  0.05400000  1.0 -0.5359521083
O  O38  1  0.62700000  0.67400000  0.14420000  1.0 -0.4306951789
O  O39  1  0.54430000  0.95990000  0.12190000  1.0 -0.0630251954
O  O40  1  0.57500000  0.91540000  0.14700000  1.0 -0.0111787615
O  O41  1  0.76620000  0.49200000  0.15940000  1.0 -0.5066160134
O  O42  1  0.82340000  0.57260000  0.05400000  1.0 -0.5359521083
O  O43  1  0.67400000  0.55480000  0.14420000  1.0 -0.4306951789
O  O44  1  0.95990000  0.37390000  0.12190000  1.0 -0.0630251954
O  O45  1  0.91540000  0.36260000  0.14700000  1.0 -0.0111787615
O  O46  1  0.15940000  0.58240000  0.76620000  1.0 -0.5066160134
O  O47  1  0.05400000  0.55000000  0.82340000  1.0 -0.5359521083
O  O48  1  0.14420000  0.62700000  0.67400000  1.0 -0.4306951789
O  O49  1  0.12190000  0.54430000  0.95990000  1.0 -0.0630251954
O  O50  1  0.14700000  0.57500000  0.91540000  1.0 -0.0111787615
O  O51  1  0.58240000  0.15940000  0.49200000  1.0 -0.5066160134
O  O52  1  0.55000000  0.05400000  0.57260000  1.0 -0.5359521083
O  O53  1  0.62700000  0.14420000  0.55480000  1.0 -0.4306951789
O  O54  1  0.54430000  0.12190000  0.37390000  1.0 -0.0630251954
O  O55  1  0.57500000  0.14700000  0.36260000  1.0 -0.0111787615
O  O56  1  0.49200000  0.76620000  0.58240000  1.0 -0.5066160134
O  O57  1  0.57260000  0.82340000  0.55000000  1.0 -0.5359521083
O  O58  1  0.55480000  0.67400000  0.62700000  1.0 -0.4306951789
O  O59  1  0.37390000  0.95990000  0.54430000  1.0 -0.0630251954
O  O60  1  0.36260000  0.91540000  0.57500000  1.0 -0.0111787615
O  O61  1  0.41760000  0.50800000  0.23380000  1.0 -0.5066160134
O  O62  1  0.45000000  0.42740000  0.17660000  1.0 -0.5359521083
O  O63  1  0.37300000  0.44520000  0.32600000  1.0 -0.4306951789
O  O64  1  0.45570000  0.62610000  0.04010000  1.0 -0.0630251954
O  O65  1  0.42500000  0.63740000  0.08460000  1.0 -0.0111787615
O  O66  1  0.50800000  0.41760000  0.84060000  1.0 -0.5066160134
O  O67  1  0.42740000  0.45000000  0.94600000  1.0 -0.5359521083
O  O68  1  0.44520000  0.37300000  0.85580000  1.0 -0.4306951789
O  O69  1  0.62610000  0.45570000  0.87810000  1.0 -0.0630251954
O  O70  1  0.63740000  0.42500000  0.85300000  1.0 -0.0111787615
O  O71  1  0.23380000  0.84060000  0.41760000  1.0 -0.5066160134
O  O72  1  0.17660000  0.94600000  0.45000000  1.0 -0.5359521083
O  O73  1  0.32600000  0.85580000  0.37300000  1.0 -0.4306951789
O  O74  1  0.04010000  0.87810000  0.45570000  1.0 -0.0630251954
O  O75  1  0.08460000  0.85300000  0.42500000  1.0 -0.0111787615
O  O76  1  0.84060000  0.23380000  0.50800000  1.0 -0.5066160134
O  O77  1  0.94600000  0.17660000  0.42740000  1.0 -0.5359521083
O  O78  1  0.85580000  0.32600000  0.44520000  1.0 -0.4306951789
O  O79  1  0.87810000  0.04010000  0.62610000  1.0 -0.0630251954
O  O80  1  0.85300000  0.08460000  0.63740000  1.0 -0.0111787615
O  O81  1  0.84060000  0.50800000  0.41760000  1.0 -0.5066160134
O  O82  1  0.94600000  0.42740000  0.45000000  1.0 -0.5359521083
O  O83  1  0.85580000  0.44520000  0.37300000  1.0 -0.4306951789
O  O84  1  0.87810000  0.62610000  0.45570000  1.0 -0.0630251954
O  O85  1  0.85300000  0.63740000  0.42500000  1.0 -0.0111787615
O  O86  1  0.23380000  0.41760000  0.50800000  1.0 -0.5066160134
O  O87  1  0.17660000  0.45000000  0.42740000  1.0 -0.5359521083
O  O88  1  0.32600000  0.37300000  0.44520000  1.0 -0.4306951789
O  O89  1  0.04010000  0.45570000  0.62610000  1.0 -0.0630251954
O  O90  1  0.08460000  0.42500000  0.63740000  1.0 -0.0111787615
O  O91  1  0.50800000  0.84060000  0.23380000  1.0 -0.5066160134
O  O92  1  0.42740000  0.94600000  0.17660000  1.0 -0.5359521083
O  O93  1  0.44520000  0.85580000  0.32600000  1.0 -0.4306951789
O  O94  1  0.62610000  0.87810000  0.04010000  1.0 -0.0630251954
O  O95  1  0.63740000  0.85300000  0.08460000  1.0 -0.0111787615
O  O96  1  0.41760000  0.23380000  0.84060000  1.0 -0.5066160134
O  O97  1  0.45000000  0.17660000  0.94600000  1.0 -0.5359521083
O  O98  1  0.37300000  0.32600000  0.85580000  1.0 -0.4306951789
O  O99  1  0.45570000  0.04010000  0.87810000  1.0 -0.0630251954
O  O100  1  0.42500000  0.08460000  0.85300000  1.0 -0.0111787615
O  O101  1  0.23380000  0.50800000  0.84060000  1.0 -0.5066160134
O  O102  1  0.17660000  0.42740000  0.94600000  1.0 -0.5359521083
O  O103  1  0.32600000  0.44520000  0.85580000  1.0 -0.4306951789
O  O104  1  0.04010000  0.62610000  0.87810000  1.0 -0.0630251954
O  O105  1  0.08460000  0.63740000  0.85300000  1.0 -0.0111787615
O  O106  1  0.84060000  0.41760000  0.23380000  1.0 -0.5066160134
O  O107  1  0.94600000  0.45000000  0.17660000  1.0 -0.5359521083
O  O108  1  0.85580000  0.37300000  0.32600000  1.0 -0.4306951789
O  O109  1  0.87810000  0.45570000  0.04010000  1.0 -0.0630251954
O  O110  1  0.85300000  0.42500000  0.08460000  1.0 -0.0111787615
O  O111  1  0.41760000  0.84060000  0.50800000  1.0 -0.5066160134
O  O112  1  0.45000000  0.94600000  0.42740000  1.0 -0.5359521083
O  O113  1  0.37300000  0.85580000  0.44520000  1.0 -0.4306951789
O  O114  1  0.45570000  0.87810000  0.62610000  1.0 -0.0630251954
O  O115  1  0.42500000  0.85300000  0.63740000  1.0 -0.0111787615
O  O116  1  0.50800000  0.23380000  0.41760000  1.0 -0.5066160134
O  O117  1  0.42740000  0.17660000  0.45000000  1.0 -0.5359521083
O  O118  1  0.44520000  0.32600000  0.37300000  1.0 -0.4306951789
O  O119  1  0.62610000  0.04010000  0.45570000  1.0 -0.0630251954
O  O120  1  0.63740000  0.08460000  0.42500000  1.0 -0.0111787615
O  O121  1  0.47060000  0.52940000  0.94960000  1.0 -0.4376256488
O  O122  1  0.54400000  0.45600000  0.98200000  1.0 0.1685114606
O  O123  1  0.52940000  0.47060000  0.05040000  1.0 -0.4376256488
O  O124  1  0.45600000  0.54400000  0.01800000  1.0 0.1685114606
O  O125  1  0.94960000  0.05040000  0.47060000  1.0 -0.4376256488
O  O126  1  0.98200000  0.01800000  0.54400000  1.0 0.1685114606
O  O127  1  0.05040000  0.94960000  0.52940000  1.0 -0.4376256488
O  O128  1  0.01800000  0.98200000  0.45600000  1.0 0.1685114606
O  O129  1  0.05040000  0.52940000  0.47060000  1.0 -0.4376256488
O  O130  1  0.01800000  0.45600000  0.54400000  1.0 0.1685114606
O  O131  1  0.94960000  0.47060000  0.52940000  1.0 -0.4376256488
O  O132  1  0.98200000  0.54400000  0.45600000  1.0 0.1685114606
O  O133  1  0.52940000  0.05040000  0.94960000  1.0 -0.4376256488
O  O134  1  0.45600000  0.01800000  0.98200000  1.0 0.1685114606
O  O135  1  0.47060000  0.94960000  0.05040000  1.0 -0.4376256488
O  O136  1  0.54400000  0.98200000  0.01800000  1.0 0.1685114606
O  O137  1  0.94960000  0.52940000  0.05040000  1.0 -0.4376256488
O  O138  1  0.98200000  0.45600000  0.01800000  1.0 0.1685114606
O  O139  1  0.05040000  0.47060000  0.94960000  1.0 -0.4376256488
O  O140  1  0.01800000  0.54400000  0.98200000  1.0 0.1685114606
O  O141  1  0.47060000  0.05040000  0.52940000  1.0 -0.4376256488
O  O142  1  0.54400000  0.01800000  0.45600000  1.0 0.1685114606
O  O143  1  0.52940000  0.94960000  0.47060000  1.0 -0.4376256488
O  O144  1  0.45600000  0.98200000  0.54400000  1.0 0.1685114606
