# DDEC6 charges by PACMAN v1.1 (https://github.com/mtap-research/PACMAN-charge/)
data_TUBDAY_ASR_pacman
_symmetry_space_group_name_H-M   'P 1'
_cell_length_a   26.22090000
_cell_length_b   26.22090000
_cell_length_c   26.22090000
_cell_angle_alpha   60.00000000
_cell_angle_beta   60.00000000
_cell_angle_gamma   60.00000000
_symmetry_Int_Tables_number   1
_chemical_formula_structural   Ca3Co2H24C48(N4O9)2
_chemical_formula_sum   'Ca12 Co8 H96 C192 N32 O72'
_cell_volume   12747.58113629
_cell_formula_units_Z   4
loop_
 _symmetry_equiv_pos_site_id
 _symmetry_equiv_pos_as_xyz
  1  'x, y, z'
loop_
 _atom_site_type_symbol
 _atom_site_label
 _atom_site_symmetry_multiplicity
 _atom_site_fract_x
 _atom_site_fract_y
 _atom_site_fract_z
 _atom_site_occupancy
 _atom_site_charge
Ca  Ca1  1  0.12289000  0.51063000  0.87711000  1.0 1.3088643289
Ca  Ca2  1  0.51063000  0.12289000  0.48937000  1.0 1.3088643289
Ca  Ca3  1  0.87711000  0.48937000  0.12289000  1.0 1.3088643289
Ca  Ca4  1  0.48937000  0.87711000  0.51063000  1.0 1.3088643289
Ca  Ca5  1  0.48937000  0.51063000  0.12289000  1.0 1.3088643289
Ca  Ca6  1  0.87711000  0.12289000  0.51063000  1.0 1.3088643289
Ca  Ca7  1  0.51063000  0.48937000  0.87711000  1.0 1.3088643289
Ca  Ca8  1  0.12289000  0.87711000  0.48937000  1.0 1.3088643289
Ca  Ca9  1  0.87711000  0.51063000  0.48937000  1.0 1.3088643289
Ca  Ca10  1  0.48937000  0.12289000  0.87711000  1.0 1.3088643289
Ca  Ca11  1  0.12289000  0.48937000  0.51063000  1.0 1.3088643289
Ca  Ca12  1  0.51063000  0.87711000  0.12289000  1.0 1.3088643289
Co  Co1  1  0.08582000  0.63806000  0.63806000  1.0 0.746979126
Co  Co2  1  0.63806000  0.08582000  0.63806000  1.0 0.746979126
Co  Co3  1  0.63806000  0.63806000  0.08582000  1.0 0.746979126
Co  Co4  1  0.63806000  0.63806000  0.63806000  1.0 0.746979126
Co  Co5  1  0.91418000  0.36194000  0.36194000  1.0 0.746979126
Co  Co6  1  0.36194000  0.91418000  0.36194000  1.0 0.746979126
Co  Co7  1  0.36194000  0.36194000  0.91418000  1.0 0.746979126
Co  Co8  1  0.36194000  0.36194000  0.36194000  1.0 0.746979126
H  H1  1  0.02427000  0.51077000  0.71057000  1.0 0.1384407709
H  H2  1  0.93381000  0.48657000  0.75325000  1.0 0.1296673652
H  H3  1  0.83846000  0.62536000  0.82632000  1.0 0.1112509903
H  H4  1  0.92802000  0.64878000  0.78574000  1.0 0.1197332379
H  H5  1  0.51077000  0.02427000  0.75439000  1.0 0.1384407709
H  H6  1  0.48657000  0.93381000  0.82637000  1.0 0.1296673652
H  H7  1  0.62536000  0.83846000  0.70986000  1.0 0.1112509903
H  H8  1  0.64878000  0.92802000  0.63746000  1.0 0.1197332379
H  H9  1  0.71057000  0.75439000  0.02427000  1.0 0.1384407709
H  H10  1  0.75325000  0.82637000  0.93381000  1.0 0.1296673652
H  H11  1  0.82632000  0.70986000  0.83846000  1.0 0.1112509903
H  H12  1  0.78574000  0.63746000  0.92802000  1.0 0.1197332379
H  H13  1  0.75439000  0.71057000  0.51077000  1.0 0.1384407709
H  H14  1  0.82637000  0.75325000  0.48657000  1.0 0.1296673652
H  H15  1  0.70986000  0.82632000  0.62536000  1.0 0.1112509903
H  H16  1  0.63746000  0.78574000  0.64878000  1.0 0.1197332379
H  H17  1  0.75439000  0.51077000  0.02427000  1.0 0.1384407709
H  H18  1  0.82637000  0.48657000  0.93381000  1.0 0.1296673652
H  H19  1  0.70986000  0.62536000  0.83846000  1.0 0.1112509903
H  H20  1  0.63746000  0.64878000  0.92802000  1.0 0.1197332379
H  H21  1  0.71057000  0.02427000  0.51077000  1.0 0.1384407709
H  H22  1  0.75325000  0.93381000  0.48657000  1.0 0.1296673652
H  H23  1  0.82632000  0.83846000  0.62536000  1.0 0.1112509903
H  H24  1  0.78574000  0.92802000  0.64878000  1.0 0.1197332379
H  H25  1  0.51077000  0.75439000  0.71057000  1.0 0.1384407709
H  H26  1  0.48657000  0.82637000  0.75325000  1.0 0.1296673652
H  H27  1  0.62536000  0.70986000  0.82632000  1.0 0.1112509903
H  H28  1  0.64878000  0.63746000  0.78574000  1.0 0.1197332379
H  H29  1  0.02427000  0.71057000  0.75439000  1.0 0.1384407709
H  H30  1  0.93381000  0.75325000  0.82637000  1.0 0.1296673652
H  H31  1  0.83846000  0.82632000  0.70986000  1.0 0.1112509903
H  H32  1  0.92802000  0.78574000  0.63746000  1.0 0.1197332379
H  H33  1  0.71057000  0.51077000  0.75439000  1.0 0.1384407709
H  H34  1  0.75325000  0.48657000  0.82637000  1.0 0.1296673652
H  H35  1  0.82632000  0.62536000  0.70986000  1.0 0.1112509903
H  H36  1  0.78574000  0.64878000  0.63746000  1.0 0.1197332379
H  H37  1  0.75439000  0.02427000  0.71057000  1.0 0.1384407709
H  H38  1  0.82637000  0.93381000  0.75325000  1.0 0.1296673652
H  H39  1  0.70986000  0.83846000  0.82632000  1.0 0.1112509903
H  H40  1  0.63746000  0.92802000  0.78574000  1.0 0.1197332379
H  H41  1  0.02427000  0.75439000  0.51077000  1.0 0.1384407709
H  H42  1  0.93381000  0.82637000  0.48657000  1.0 0.1296673652
H  H43  1  0.83846000  0.70986000  0.62536000  1.0 0.1112509903
H  H44  1  0.92802000  0.63746000  0.64878000  1.0 0.1197332379
H  H45  1  0.51077000  0.71057000  0.02427000  1.0 0.1384407709
H  H46  1  0.48657000  0.75325000  0.93381000  1.0 0.1296673652
H  H47  1  0.62536000  0.82632000  0.83846000  1.0 0.1112509903
H  H48  1  0.64878000  0.78574000  0.92802000  1.0 0.1197332379
H  H49  1  0.97573000  0.48923000  0.28943000  1.0 0.1384407709
H  H50  1  0.06619000  0.51343000  0.24675000  1.0 0.1296673652
H  H51  1  0.16154000  0.37464000  0.17368000  1.0 0.1112509903
H  H52  1  0.07198000  0.35122000  0.21426000  1.0 0.1197332379
H  H53  1  0.48923000  0.97573000  0.24561000  1.0 0.1384407709
H  H54  1  0.51343000  0.06619000  0.17363000  1.0 0.1296673652
H  H55  1  0.37464000  0.16154000  0.29014000  1.0 0.1112509903
H  H56  1  0.35122000  0.07198000  0.36254000  1.0 0.1197332379
H  H57  1  0.28943000  0.24561000  0.97573000  1.0 0.1384407709
H  H58  1  0.24675000  0.17363000  0.06619000  1.0 0.1296673652
H  H59  1  0.17368000  0.29014000  0.16154000  1.0 0.1112509903
H  H60  1  0.21426000  0.36254000  0.07198000  1.0 0.1197332379
H  H61  1  0.24561000  0.28943000  0.48923000  1.0 0.1384407709
H  H62  1  0.17363000  0.24675000  0.51343000  1.0 0.1296673652
H  H63  1  0.29014000  0.17368000  0.37464000  1.0 0.1112509903
H  H64  1  0.36254000  0.21426000  0.35122000  1.0 0.1197332379
H  H65  1  0.24561000  0.48923000  0.97573000  1.0 0.1384407709
H  H66  1  0.17363000  0.51343000  0.06619000  1.0 0.1296673652
H  H67  1  0.29014000  0.37464000  0.16154000  1.0 0.1112509903
H  H68  1  0.36254000  0.35122000  0.07198000  1.0 0.1197332379
H  H69  1  0.28943000  0.97573000  0.48923000  1.0 0.1384407709
H  H70  1  0.24675000  0.06619000  0.51343000  1.0 0.1296673652
H  H71  1  0.17368000  0.16154000  0.37464000  1.0 0.1112509903
H  H72  1  0.21426000  0.07198000  0.35122000  1.0 0.1197332379
H  H73  1  0.48923000  0.24561000  0.28943000  1.0 0.1384407709
H  H74  1  0.51343000  0.17363000  0.24675000  1.0 0.1296673652
H  H75  1  0.37464000  0.29014000  0.17368000  1.0 0.1112509903
H  H76  1  0.35122000  0.36254000  0.21426000  1.0 0.1197332379
H  H77  1  0.97573000  0.28943000  0.24561000  1.0 0.1384407709
H  H78  1  0.06619000  0.24675000  0.17363000  1.0 0.1296673652
H  H79  1  0.16154000  0.17368000  0.29014000  1.0 0.1112509903
H  H80  1  0.07198000  0.21426000  0.36254000  1.0 0.1197332379
H  H81  1  0.28943000  0.48923000  0.24561000  1.0 0.1384407709
H  H82  1  0.24675000  0.51343000  0.17363000  1.0 0.1296673652
H  H83  1  0.17368000  0.37464000  0.29014000  1.0 0.1112509903
H  H84  1  0.21426000  0.35122000  0.36254000  1.0 0.1197332379
H  H85  1  0.24561000  0.97573000  0.28943000  1.0 0.1384407709
H  H86  1  0.17363000  0.06619000  0.24675000  1.0 0.1296673652
H  H87  1  0.29014000  0.16154000  0.17368000  1.0 0.1112509903
H  H88  1  0.36254000  0.07198000  0.21426000  1.0 0.1197332379
H  H89  1  0.97573000  0.24561000  0.48923000  1.0 0.1384407709
H  H90  1  0.06619000  0.17363000  0.51343000  1.0 0.1296673652
H  H91  1  0.16154000  0.29014000  0.37464000  1.0 0.1112509903
H  H92  1  0.07198000  0.36254000  0.35122000  1.0 0.1197332379
H  H93  1  0.48923000  0.28943000  0.97573000  1.0 0.1384407709
H  H94  1  0.51343000  0.24675000  0.06619000  1.0 0.1296673652
H  H95  1  0.37464000  0.17368000  0.16154000  1.0 0.1112509903
H  H96  1  0.35122000  0.21426000  0.07198000  1.0 0.1197332379
C  C1  1  0.12642000  0.59212000  0.73404000  1.0 0.4865000545
C  C2  1  0.06983000  0.57227000  0.76255000  1.0 0.3802749948
C  C3  1  0.98568000  0.58154000  0.74458000  1.0 0.2270449958
C  C4  1  0.98657000  0.53381000  0.73471000  1.0 -0.1605388318
C  C5  1  0.93267000  0.51963000  0.75991000  1.0 -0.1664271194
C  C6  1  0.87681000  0.55333000  0.79495000  1.0 0.15902006
C  C7  1  0.87643000  0.60145000  0.80325000  1.0 -0.1957930352
C  C8  1  0.92949000  0.61559000  0.77903000  1.0 -0.1464174155
C  C9  1  0.59212000  0.12642000  0.54742000  1.0 0.4865000545
C  C10  1  0.57227000  0.06983000  0.59535000  1.0 0.3802749948
C  C11  1  0.58154000  0.98568000  0.68820000  1.0 0.2270449958
C  C12  1  0.53381000  0.98657000  0.74491000  1.0 -0.1605388318
C  C13  1  0.51963000  0.93267000  0.78779000  1.0 -0.1664271194
C  C14  1  0.55333000  0.87681000  0.77491000  1.0 0.15902006
C  C15  1  0.60145000  0.87643000  0.71887000  1.0 -0.1957930352
C  C16  1  0.61559000  0.92949000  0.67589000  1.0 -0.1464174155
C  C17  1  0.73404000  0.54742000  0.12642000  1.0 0.4865000545
C  C18  1  0.76255000  0.59535000  0.06983000  1.0 0.3802749948
C  C19  1  0.74458000  0.68820000  0.98568000  1.0 0.2270449958
C  C20  1  0.73471000  0.74491000  0.98657000  1.0 -0.1605388318
C  C21  1  0.75991000  0.78779000  0.93267000  1.0 -0.1664271194
C  C22  1  0.79495000  0.77491000  0.87681000  1.0 0.15902006
C  C23  1  0.80325000  0.71887000  0.87643000  1.0 -0.1957930352
C  C24  1  0.77903000  0.67589000  0.92949000  1.0 -0.1464174155
C  C25  1  0.54742000  0.73404000  0.59212000  1.0 0.4865000545
C  C26  1  0.59535000  0.76255000  0.57227000  1.0 0.3802749948
C  C27  1  0.68820000  0.74458000  0.58154000  1.0 0.2270449958
C  C28  1  0.74491000  0.73471000  0.53381000  1.0 -0.1605388318
C  C29  1  0.78779000  0.75991000  0.51963000  1.0 -0.1664271194
C  C30  1  0.77491000  0.79495000  0.55333000  1.0 0.15902006
C  C31  1  0.71887000  0.80325000  0.60145000  1.0 -0.1957930352
C  C32  1  0.67589000  0.77903000  0.61559000  1.0 -0.1464174155
C  C33  1  0.54742000  0.59212000  0.12642000  1.0 0.4865000545
C  C34  1  0.59535000  0.57227000  0.06983000  1.0 0.3802749948
C  C35  1  0.68820000  0.58154000  0.98568000  1.0 0.2270449958
C  C36  1  0.74491000  0.53381000  0.98657000  1.0 -0.1605388318
C  C37  1  0.78779000  0.51963000  0.93267000  1.0 -0.1664271194
C  C38  1  0.77491000  0.55333000  0.87681000  1.0 0.15902006
C  C39  1  0.71887000  0.60145000  0.87643000  1.0 -0.1957930352
C  C40  1  0.67589000  0.61559000  0.92949000  1.0 -0.1464174155
C  C41  1  0.73404000  0.12642000  0.59212000  1.0 0.4865000545
C  C42  1  0.76255000  0.06983000  0.57227000  1.0 0.3802749948
C  C43  1  0.74458000  0.98568000  0.58154000  1.0 0.2270449958
C  C44  1  0.73471000  0.98657000  0.53381000  1.0 -0.1605388318
C  C45  1  0.75991000  0.93267000  0.51963000  1.0 -0.1664271194
C  C46  1  0.79495000  0.87681000  0.55333000  1.0 0.15902006
C  C47  1  0.80325000  0.87643000  0.60145000  1.0 -0.1957930352
C  C48  1  0.77903000  0.92949000  0.61559000  1.0 -0.1464174155
C  C49  1  0.59212000  0.54742000  0.73404000  1.0 0.4865000545
C  C50  1  0.57227000  0.59535000  0.76255000  1.0 0.3802749948
C  C51  1  0.58154000  0.68820000  0.74458000  1.0 0.2270449958
C  C52  1  0.53381000  0.74491000  0.73471000  1.0 -0.1605388318
C  C53  1  0.51963000  0.78779000  0.75991000  1.0 -0.1664271194
C  C54  1  0.55333000  0.77491000  0.79495000  1.0 0.15902006
C  C55  1  0.60145000  0.71887000  0.80325000  1.0 -0.1957930352
C  C56  1  0.61559000  0.67589000  0.77903000  1.0 -0.1464174155
C  C57  1  0.12642000  0.73404000  0.54742000  1.0 0.4865000545
C  C58  1  0.06983000  0.76255000  0.59535000  1.0 0.3802749948
C  C59  1  0.98568000  0.74458000  0.68820000  1.0 0.2270449958
C  C60  1  0.98657000  0.73471000  0.74491000  1.0 -0.1605388318
C  C61  1  0.93267000  0.75991000  0.78779000  1.0 -0.1664271194
C  C62  1  0.87681000  0.79495000  0.77491000  1.0 0.15902006
C  C63  1  0.87643000  0.80325000  0.71887000  1.0 -0.1957930352
C  C64  1  0.92949000  0.77903000  0.67589000  1.0 -0.1464174155
C  C65  1  0.73404000  0.59212000  0.54742000  1.0 0.4865000545
C  C66  1  0.76255000  0.57227000  0.59535000  1.0 0.3802749948
C  C67  1  0.74458000  0.58154000  0.68820000  1.0 0.2270449958
C  C68  1  0.73471000  0.53381000  0.74491000  1.0 -0.1605388318
C  C69  1  0.75991000  0.51963000  0.78779000  1.0 -0.1664271194
C  C70  1  0.79495000  0.55333000  0.77491000  1.0 0.15902006
C  C71  1  0.80325000  0.60145000  0.71887000  1.0 -0.1957930352
C  C72  1  0.77903000  0.61559000  0.67589000  1.0 -0.1464174155
C  C73  1  0.54742000  0.12642000  0.73404000  1.0 0.4865000545
C  C74  1  0.59535000  0.06983000  0.76255000  1.0 0.3802749948
C  C75  1  0.68820000  0.98568000  0.74458000  1.0 0.2270449958
C  C76  1  0.74491000  0.98657000  0.73471000  1.0 -0.1605388318
C  C77  1  0.78779000  0.93267000  0.75991000  1.0 -0.1664271194
C  C78  1  0.77491000  0.87681000  0.79495000  1.0 0.15902006
C  C79  1  0.71887000  0.87643000  0.80325000  1.0 -0.1957930352
C  C80  1  0.67589000  0.92949000  0.77903000  1.0 -0.1464174155
C  C81  1  0.12642000  0.54742000  0.59212000  1.0 0.4865000545
C  C82  1  0.06983000  0.59535000  0.57227000  1.0 0.3802749948
C  C83  1  0.98568000  0.68820000  0.58154000  1.0 0.2270449958
C  C84  1  0.98657000  0.74491000  0.53381000  1.0 -0.1605388318
C  C85  1  0.93267000  0.78779000  0.51963000  1.0 -0.1664271194
C  C86  1  0.87681000  0.77491000  0.55333000  1.0 0.15902006
C  C87  1  0.87643000  0.71887000  0.60145000  1.0 -0.1957930352
C  C88  1  0.92949000  0.67589000  0.61559000  1.0 -0.1464174155
C  C89  1  0.59212000  0.73404000  0.12642000  1.0 0.4865000545
C  C90  1  0.57227000  0.76255000  0.06983000  1.0 0.3802749948
C  C91  1  0.58154000  0.74458000  0.98568000  1.0 0.2270449958
C  C92  1  0.53381000  0.73471000  0.98657000  1.0 -0.1605388318
C  C93  1  0.51963000  0.75991000  0.93267000  1.0 -0.1664271194
C  C94  1  0.55333000  0.79495000  0.87681000  1.0 0.15902006
C  C95  1  0.60145000  0.80325000  0.87643000  1.0 -0.1957930352
C  C96  1  0.61559000  0.77903000  0.92949000  1.0 -0.1464174155
C  C97  1  0.87358000  0.40788000  0.26596000  1.0 0.4865000545
C  C98  1  0.93017000  0.42773000  0.23745000  1.0 0.3802749948
C  C99  1  0.01432000  0.41846000  0.25542000  1.0 0.2270449958
C  C100  1  0.01343000  0.46619000  0.26529000  1.0 -0.1605388318
C  C101  1  0.06733000  0.48037000  0.24009000  1.0 -0.1664271194
C  C102  1  0.12319000  0.44667000  0.20505000  1.0 0.15902006
C  C103  1  0.12357000  0.39855000  0.19675000  1.0 -0.1957930352
C  C104  1  0.07051000  0.38441000  0.22097000  1.0 -0.1464174155
C  C105  1  0.40788000  0.87358000  0.45258000  1.0 0.4865000545
C  C106  1  0.42773000  0.93017000  0.40465000  1.0 0.3802749948
C  C107  1  0.41846000  0.01432000  0.31180000  1.0 0.2270449958
C  C108  1  0.46619000  0.01343000  0.25509000  1.0 -0.1605388318
C  C109  1  0.48037000  0.06733000  0.21221000  1.0 -0.1664271194
C  C110  1  0.44667000  0.12319000  0.22509000  1.0 0.15902006
C  C111  1  0.39855000  0.12357000  0.28113000  1.0 -0.1957930352
C  C112  1  0.38441000  0.07051000  0.32411000  1.0 -0.1464174155
C  C113  1  0.26596000  0.45258000  0.87358000  1.0 0.4865000545
C  C114  1  0.23745000  0.40465000  0.93017000  1.0 0.3802749948
C  C115  1  0.25542000  0.31180000  0.01432000  1.0 0.2270449958
C  C116  1  0.26529000  0.25509000  0.01343000  1.0 -0.1605388318
C  C117  1  0.24009000  0.21221000  0.06733000  1.0 -0.1664271194
C  C118  1  0.20505000  0.22509000  0.12319000  1.0 0.15902006
C  C119  1  0.19675000  0.28113000  0.12357000  1.0 -0.1957930352
C  C120  1  0.22097000  0.32411000  0.07051000  1.0 -0.1464174155
C  C121  1  0.45258000  0.26596000  0.40788000  1.0 0.4865000545
C  C122  1  0.40465000  0.23745000  0.42773000  1.0 0.3802749948
C  C123  1  0.31180000  0.25542000  0.41846000  1.0 0.2270449958
C  C124  1  0.25509000  0.26529000  0.46619000  1.0 -0.1605388318
C  C125  1  0.21221000  0.24009000  0.48037000  1.0 -0.1664271194
C  C126  1  0.22509000  0.20505000  0.44667000  1.0 0.15902006
C  C127  1  0.28113000  0.19675000  0.39855000  1.0 -0.1957930352
C  C128  1  0.32411000  0.22097000  0.38441000  1.0 -0.1464174155
C  C129  1  0.45258000  0.40788000  0.87358000  1.0 0.4865000545
C  C130  1  0.40465000  0.42773000  0.93017000  1.0 0.3802749948
C  C131  1  0.31180000  0.41846000  0.01432000  1.0 0.2270449958
C  C132  1  0.25509000  0.46619000  0.01343000  1.0 -0.1605388318
C  C133  1  0.21221000  0.48037000  0.06733000  1.0 -0.1664271194
C  C134  1  0.22509000  0.44667000  0.12319000  1.0 0.15902006
C  C135  1  0.28113000  0.39855000  0.12357000  1.0 -0.1957930352
C  C136  1  0.32411000  0.38441000  0.07051000  1.0 -0.1464174155
C  C137  1  0.26596000  0.87358000  0.40788000  1.0 0.4865000545
C  C138  1  0.23745000  0.93017000  0.42773000  1.0 0.3802749948
C  C139  1  0.25542000  0.01432000  0.41846000  1.0 0.2270449958
C  C140  1  0.26529000  0.01343000  0.46619000  1.0 -0.1605388318
C  C141  1  0.24009000  0.06733000  0.48037000  1.0 -0.1664271194
C  C142  1  0.20505000  0.12319000  0.44667000  1.0 0.15902006
C  C143  1  0.19675000  0.12357000  0.39855000  1.0 -0.1957930352
C  C144  1  0.22097000  0.07051000  0.38441000  1.0 -0.1464174155
C  C145  1  0.40788000  0.45258000  0.26596000  1.0 0.4865000545
C  C146  1  0.42773000  0.40465000  0.23745000  1.0 0.3802749948
C  C147  1  0.41846000  0.31180000  0.25542000  1.0 0.2270449958
C  C148  1  0.46619000  0.25509000  0.26529000  1.0 -0.1605388318
C  C149  1  0.48037000  0.21221000  0.24009000  1.0 -0.1664271194
C  C150  1  0.44667000  0.22509000  0.20505000  1.0 0.15902006
C  C151  1  0.39855000  0.28113000  0.19675000  1.0 -0.1957930352
C  C152  1  0.38441000  0.32411000  0.22097000  1.0 -0.1464174155
C  C153  1  0.87358000  0.26596000  0.45258000  1.0 0.4865000545
C  C154  1  0.93017000  0.23745000  0.40465000  1.0 0.3802749948
C  C155  1  0.01432000  0.25542000  0.31180000  1.0 0.2270449958
C  C156  1  0.01343000  0.26529000  0.25509000  1.0 -0.1605388318
C  C157  1  0.06733000  0.24009000  0.21221000  1.0 -0.1664271194
C  C158  1  0.12319000  0.20505000  0.22509000  1.0 0.15902006
C  C159  1  0.12357000  0.19675000  0.28113000  1.0 -0.1957930352
C  C160  1  0.07051000  0.22097000  0.32411000  1.0 -0.1464174155
C  C161  1  0.26596000  0.40788000  0.45258000  1.0 0.4865000545
C  C162  1  0.23745000  0.42773000  0.40465000  1.0 0.3802749948
C  C163  1  0.25542000  0.41846000  0.31180000  1.0 0.2270449958
C  C164  1  0.26529000  0.46619000  0.25509000  1.0 -0.1605388318
C  C165  1  0.24009000  0.48037000  0.21221000  1.0 -0.1664271194
C  C166  1  0.20505000  0.44667000  0.22509000  1.0 0.15902006
C  C167  1  0.19675000  0.39855000  0.28113000  1.0 -0.1957930352
C  C168  1  0.22097000  0.38441000  0.32411000  1.0 -0.1464174155
C  C169  1  0.45258000  0.87358000  0.26596000  1.0 0.4865000545
C  C170  1  0.40465000  0.93017000  0.23745000  1.0 0.3802749948
C  C171  1  0.31180000  0.01432000  0.25542000  1.0 0.2270449958
C  C172  1  0.25509000  0.01343000  0.26529000  1.0 -0.1605388318
C  C173  1  0.21221000  0.06733000  0.24009000  1.0 -0.1664271194
C  C174  1  0.22509000  0.12319000  0.20505000  1.0 0.15902006
C  C175  1  0.28113000  0.12357000  0.19675000  1.0 -0.1957930352
C  C176  1  0.32411000  0.07051000  0.22097000  1.0 -0.1464174155
C  C177  1  0.87358000  0.45258000  0.40788000  1.0 0.4865000545
C  C178  1  0.93017000  0.40465000  0.42773000  1.0 0.3802749948
C  C179  1  0.01432000  0.31180000  0.41846000  1.0 0.2270449958
C  C180  1  0.01343000  0.25509000  0.46619000  1.0 -0.1605388318
C  C181  1  0.06733000  0.21221000  0.48037000  1.0 -0.1664271194
C  C182  1  0.12319000  0.22509000  0.44667000  1.0 0.15902006
C  C183  1  0.12357000  0.28113000  0.39855000  1.0 -0.1957930352
C  C184  1  0.07051000  0.32411000  0.38441000  1.0 -0.1464174155
C  C185  1  0.40788000  0.26596000  0.87358000  1.0 0.4865000545
C  C186  1  0.42773000  0.23745000  0.93017000  1.0 0.3802749948
C  C187  1  0.41846000  0.25542000  0.01432000  1.0 0.2270449958
C  C188  1  0.46619000  0.26529000  0.01343000  1.0 -0.1605388318
C  C189  1  0.48037000  0.24009000  0.06733000  1.0 -0.1664271194
C  C190  1  0.44667000  0.20505000  0.12319000  1.0 0.15902006
C  C191  1  0.39855000  0.19675000  0.12357000  1.0 -0.1957930352
C  C192  1  0.38441000  0.22097000  0.07051000  1.0 -0.1464174155
N  N1  1  0.04119000  0.59551000  0.72197000  1.0 -0.4490583155
N  N2  1  0.59551000  0.04119000  0.64133000  1.0 -0.4490583155
N  N3  1  0.72197000  0.64133000  0.04119000  1.0 -0.4490583155
N  N4  1  0.64133000  0.72197000  0.59551000  1.0 -0.4490583155
N  N5  1  0.64133000  0.59551000  0.04119000  1.0 -0.4490583155
N  N6  1  0.72197000  0.04119000  0.59551000  1.0 -0.4490583155
N  N7  1  0.59551000  0.64133000  0.72197000  1.0 -0.4490583155
N  N8  1  0.04119000  0.72197000  0.64133000  1.0 -0.4490583155
N  N9  1  0.72197000  0.59551000  0.64133000  1.0 -0.4490583155
N  N10  1  0.64133000  0.04119000  0.72197000  1.0 -0.4490583155
N  N11  1  0.04119000  0.64133000  0.59551000  1.0 -0.4490583155
N  N12  1  0.59551000  0.72197000  0.04119000  1.0 -0.4490583155
N  N13  1  0.95881000  0.40449000  0.27803000  1.0 -0.4490583155
N  N14  1  0.40449000  0.95881000  0.35867000  1.0 -0.4490583155
N  N15  1  0.27803000  0.35867000  0.95881000  1.0 -0.4490583155
N  N16  1  0.35867000  0.27803000  0.40449000  1.0 -0.4490583155
N  N17  1  0.35867000  0.40449000  0.95881000  1.0 -0.4490583155
N  N18  1  0.27803000  0.95881000  0.40449000  1.0 -0.4490583155
N  N19  1  0.40449000  0.35867000  0.27803000  1.0 -0.4490583155
N  N20  1  0.95881000  0.27803000  0.35867000  1.0 -0.4490583155
N  N21  1  0.27803000  0.40449000  0.35867000  1.0 -0.4490583155
N  N22  1  0.35867000  0.95881000  0.27803000  1.0 -0.4490583155
N  N23  1  0.95881000  0.35867000  0.40449000  1.0 -0.4490583155
N  N24  1  0.40449000  0.27803000  0.95881000  1.0 -0.4490583155
N  N25  1  0.82051000  0.53847000  0.82051000  1.0 -0.208328
N  N26  1  0.53847000  0.82051000  0.82051000  1.0 -0.208328
N  N27  1  0.82051000  0.82051000  0.82051000  1.0 -0.208328
N  N28  1  0.82051000  0.82051000  0.53847000  1.0 -0.208328
N  N29  1  0.17949000  0.46153000  0.17949000  1.0 -0.208328
N  N30  1  0.46153000  0.17949000  0.17949000  1.0 -0.208328
N  N31  1  0.17949000  0.17949000  0.17949000  1.0 -0.208328
N  N32  1  0.17949000  0.17949000  0.46153000  1.0 -0.208328
O  O1  1  0.13951000  0.62541000  0.67669000  1.0 -0.4490583155
O  O2  1  0.15655000  0.57593000  0.76735000  1.0 -0.498816946
O  O3  1  0.05501000  0.53883000  0.81893000  1.0 -0.5198050303
O  O4  1  0.62541000  0.13951000  0.55839000  1.0 -0.4490583155
O  O5  1  0.57593000  0.15655000  0.50017000  1.0 -0.498816946
O  O6  1  0.53883000  0.05501000  0.58723000  1.0 -0.5198050303
O  O7  1  0.67669000  0.55839000  0.13951000  1.0 -0.4490583155
O  O8  1  0.76735000  0.50017000  0.15655000  1.0 -0.498816946
O  O9  1  0.81893000  0.58723000  0.05501000  1.0 -0.5198050303
O  O10  1  0.55839000  0.67669000  0.62541000  1.0 -0.4490583155
O  O11  1  0.50017000  0.76735000  0.57593000  1.0 -0.498816946
O  O12  1  0.58723000  0.81893000  0.53883000  1.0 -0.5198050303
O  O13  1  0.55839000  0.62541000  0.13951000  1.0 -0.4490583155
O  O14  1  0.50017000  0.57593000  0.15655000  1.0 -0.498816946
O  O15  1  0.58723000  0.53883000  0.05501000  1.0 -0.5198050303
O  O16  1  0.67669000  0.13951000  0.62541000  1.0 -0.4490583155
O  O17  1  0.76735000  0.15655000  0.57593000  1.0 -0.498816946
O  O18  1  0.81893000  0.05501000  0.53883000  1.0 -0.5198050303
O  O19  1  0.62541000  0.55839000  0.67669000  1.0 -0.4490583155
O  O20  1  0.57593000  0.50017000  0.76735000  1.0 -0.498816946
O  O21  1  0.53883000  0.58723000  0.81893000  1.0 -0.5198050303
O  O22  1  0.13951000  0.67669000  0.55839000  1.0 -0.4490583155
O  O23  1  0.15655000  0.76735000  0.50017000  1.0 -0.498816946
O  O24  1  0.05501000  0.81893000  0.58723000  1.0 -0.5198050303
O  O25  1  0.67669000  0.62541000  0.55839000  1.0 -0.4490583155
O  O26  1  0.76735000  0.57593000  0.50017000  1.0 -0.498816946
O  O27  1  0.81893000  0.53883000  0.58723000  1.0 -0.5198050303
O  O28  1  0.55839000  0.13951000  0.67669000  1.0 -0.4490583155
O  O29  1  0.50017000  0.15655000  0.76735000  1.0 -0.498816946
O  O30  1  0.58723000  0.05501000  0.81893000  1.0 -0.5198050303
O  O31  1  0.13951000  0.55839000  0.62541000  1.0 -0.4490583155
O  O32  1  0.15655000  0.50017000  0.57593000  1.0 -0.498816946
O  O33  1  0.05501000  0.58723000  0.53883000  1.0 -0.5198050303
O  O34  1  0.62541000  0.67669000  0.13951000  1.0 -0.4490583155
O  O35  1  0.57593000  0.76735000  0.15655000  1.0 -0.498816946
O  O36  1  0.53883000  0.81893000  0.05501000  1.0 -0.5198050303
O  O37  1  0.86049000  0.37459000  0.32331000  1.0 -0.4490583155
O  O38  1  0.84345000  0.42407000  0.23265000  1.0 -0.498816946
O  O39  1  0.94499000  0.46117000  0.18107000  1.0 -0.5198050303
O  O40  1  0.37459000  0.86049000  0.44161000  1.0 -0.4490583155
O  O41  1  0.42407000  0.84345000  0.49983000  1.0 -0.498816946
O  O42  1  0.46117000  0.94499000  0.41277000  1.0 -0.5198050303
O  O43  1  0.32331000  0.44161000  0.86049000  1.0 -0.4490583155
O  O44  1  0.23265000  0.49983000  0.84345000  1.0 -0.498816946
O  O45  1  0.18107000  0.41277000  0.94499000  1.0 -0.5198050303
O  O46  1  0.44161000  0.32331000  0.37459000  1.0 -0.4490583155
O  O47  1  0.49983000  0.23265000  0.42407000  1.0 -0.498816946
O  O48  1  0.41277000  0.18107000  0.46117000  1.0 -0.5198050303
O  O49  1  0.44161000  0.37459000  0.86049000  1.0 -0.4490583155
O  O50  1  0.49983000  0.42407000  0.84345000  1.0 -0.498816946
O  O51  1  0.41277000  0.46117000  0.94499000  1.0 -0.5198050303
O  O52  1  0.32331000  0.86049000  0.37459000  1.0 -0.4490583155
O  O53  1  0.23265000  0.84345000  0.42407000  1.0 -0.498816946
O  O54  1  0.18107000  0.94499000  0.46117000  1.0 -0.5198050303
O  O55  1  0.37459000  0.44161000  0.32331000  1.0 -0.4490583155
O  O56  1  0.42407000  0.49983000  0.23265000  1.0 -0.498816946
O  O57  1  0.46117000  0.41277000  0.18107000  1.0 -0.5198050303
O  O58  1  0.86049000  0.32331000  0.44161000  1.0 -0.4490583155
O  O59  1  0.84345000  0.23265000  0.49983000  1.0 -0.498816946
O  O60  1  0.94499000  0.18107000  0.41277000  1.0 -0.5198050303
O  O61  1  0.32331000  0.37459000  0.44161000  1.0 -0.4490583155
O  O62  1  0.23265000  0.42407000  0.49983000  1.0 -0.498816946
O  O63  1  0.18107000  0.46117000  0.41277000  1.0 -0.5198050303
O  O64  1  0.44161000  0.86049000  0.32331000  1.0 -0.4490583155
O  O65  1  0.49983000  0.84345000  0.23265000  1.0 -0.498816946
O  O66  1  0.41277000  0.94499000  0.18107000  1.0 -0.5198050303
O  O67  1  0.86049000  0.44161000  0.37459000  1.0 -0.4490583155
O  O68  1  0.84345000  0.49983000  0.42407000  1.0 -0.498816946
O  O69  1  0.94499000  0.41277000  0.46117000  1.0 -0.5198050303
O  O70  1  0.37459000  0.32331000  0.86049000  1.0 -0.4490583155
O  O71  1  0.42407000  0.23265000  0.84345000  1.0 -0.498816946
O  O72  1  0.46117000  0.18107000  0.94499000  1.0 -0.5198050303
