# DDEC6 charges by PACMAN v1.1 (https://github.com/mtap-research/PACMAN-charge/)
data_TUBDEC_FSR_pacman
_symmetry_space_group_name_H-M   'P 1'
_cell_length_a   25.83840000
_cell_length_b   25.83840000
_cell_length_c   25.83840000
_cell_angle_alpha   60.00000000
_cell_angle_beta   60.00000000
_cell_angle_gamma   60.00000000
_symmetry_Int_Tables_number   1
_chemical_formula_structural   Dy3Co2H24C48(N2O9)4
_chemical_formula_sum   'Dy12 Co8 H96 C192 N32 O144'
_cell_volume   12197.80970465
_cell_formula_units_Z   4
loop_
 _symmetry_equiv_pos_site_id
 _symmetry_equiv_pos_as_xyz
  1  'x, y, z'
loop_
 _atom_site_type_symbol
 _atom_site_label
 _atom_site_symmetry_multiplicity
 _atom_site_fract_x
 _atom_site_fract_y
 _atom_site_fract_z
 _atom_site_occupancy
 _atom_site_charge
Dy  Dy1  1  0.47442000  0.12054000  0.87946000  1.0 1.9673410889
Dy  Dy2  1  0.12054000  0.47442000  0.52558000  1.0 1.9673410889
Dy  Dy3  1  0.87946000  0.52558000  0.47442000  1.0 1.9673410889
Dy  Dy4  1  0.52558000  0.87946000  0.12054000  1.0 1.9640965962
Dy  Dy5  1  0.52558000  0.12054000  0.47442000  1.0 1.9673410889
Dy  Dy6  1  0.87946000  0.47442000  0.12054000  1.0 1.9673410889
Dy  Dy7  1  0.12054000  0.52558000  0.87946000  1.0 1.9673410889
Dy  Dy8  1  0.47442000  0.87946000  0.52558000  1.0 1.9640965962
Dy  Dy9  1  0.87946000  0.12054000  0.52558000  1.0 1.9673410889
Dy  Dy10  1  0.52558000  0.47442000  0.87946000  1.0 1.9673410889
Dy  Dy11  1  0.47442000  0.52558000  0.12054000  1.0 1.9640965962
Dy  Dy12  1  0.12054000  0.87946000  0.47442000  1.0 1.9673410889
Co  Co1  1  0.36315000  0.36315000  0.91055000  1.0 0.8024158332
Co  Co2  1  0.36315000  0.36315000  0.36315000  1.0 0.8024158332
Co  Co3  1  0.91055000  0.36315000  0.36315000  1.0 0.8024158332
Co  Co4  1  0.36315000  0.91055000  0.36315000  1.0 0.8024158332
Co  Co5  1  0.63685000  0.63685000  0.08945000  1.0 0.8024158332
Co  Co6  1  0.63685000  0.63685000  0.63685000  1.0 0.8024158332
Co  Co7  1  0.08945000  0.63685000  0.63685000  1.0 0.8024158332
Co  Co8  1  0.63685000  0.08945000  0.63685000  1.0 0.8024158332
H  H1  1  0.35090000  0.21372000  0.06910000  1.0 0.1459139452
H  H2  1  0.37390000  0.17624000  0.16354000  1.0 0.1338078792
H  H3  1  0.51452000  0.24706000  0.06510000  1.0 0.1594988417
H  H4  1  0.49172000  0.28588000  0.97164000  1.0 0.1594988417
H  H5  1  0.21372000  0.35090000  0.36628000  1.0 0.1459139452
H  H6  1  0.17624000  0.37390000  0.28632000  1.0 0.1338078792
H  H7  1  0.24706000  0.51452000  0.17332000  1.0 0.1594988417
H  H8  1  0.28588000  0.49172000  0.25076000  1.0 0.1594988417
H  H9  1  0.06910000  0.36628000  0.35090000  1.0 0.1459139452
H  H10  1  0.16354000  0.28632000  0.37390000  1.0 0.1338078792
H  H11  1  0.06510000  0.17332000  0.51452000  1.0 0.1594988417
H  H12  1  0.97164000  0.25076000  0.49172000  1.0 0.1594988417
H  H13  1  0.36628000  0.06910000  0.21372000  1.0 0.1459139452
H  H14  1  0.28632000  0.16354000  0.17624000  1.0 0.1338078792
H  H15  1  0.17332000  0.06510000  0.24706000  1.0 0.1594988417
H  H16  1  0.25076000  0.97164000  0.28588000  1.0 0.1594988417
H  H17  1  0.36628000  0.21372000  0.35090000  1.0 0.1459139452
H  H18  1  0.28632000  0.17624000  0.37390000  1.0 0.1338078792
H  H19  1  0.17332000  0.24706000  0.51452000  1.0 0.1594988417
H  H20  1  0.25076000  0.28588000  0.49172000  1.0 0.1594988417
H  H21  1  0.06910000  0.35090000  0.21372000  1.0 0.1459139452
H  H22  1  0.16354000  0.37390000  0.17624000  1.0 0.1338078792
H  H23  1  0.06510000  0.51452000  0.24706000  1.0 0.1594988417
H  H24  1  0.97164000  0.49172000  0.28588000  1.0 0.1594988417
H  H25  1  0.21372000  0.36628000  0.06910000  1.0 0.1459139452
H  H26  1  0.17624000  0.28632000  0.16354000  1.0 0.1338078792
H  H27  1  0.24706000  0.17332000  0.06510000  1.0 0.1594988417
H  H28  1  0.28588000  0.25076000  0.97164000  1.0 0.1594988417
H  H29  1  0.35090000  0.06910000  0.36628000  1.0 0.1459139452
H  H30  1  0.37390000  0.16354000  0.28632000  1.0 0.1338078792
H  H31  1  0.51452000  0.06510000  0.17332000  1.0 0.1594988417
H  H32  1  0.49172000  0.97164000  0.25076000  1.0 0.1594988417
H  H33  1  0.06910000  0.21372000  0.36628000  1.0 0.1459139452
H  H34  1  0.16354000  0.17624000  0.28632000  1.0 0.1338078792
H  H35  1  0.06510000  0.24706000  0.17332000  1.0 0.1594988417
H  H36  1  0.97164000  0.28588000  0.25076000  1.0 0.1594988417
H  H37  1  0.36628000  0.35090000  0.06910000  1.0 0.1459139452
H  H38  1  0.28632000  0.37390000  0.16354000  1.0 0.1338078792
H  H39  1  0.17332000  0.51452000  0.06510000  1.0 0.1594988417
H  H40  1  0.25076000  0.49172000  0.97164000  1.0 0.1594988417
H  H41  1  0.35090000  0.36628000  0.21372000  1.0 0.1459139452
H  H42  1  0.37390000  0.28632000  0.17624000  1.0 0.1338078792
H  H43  1  0.51452000  0.17332000  0.24706000  1.0 0.1594988417
H  H44  1  0.49172000  0.25076000  0.28588000  1.0 0.1594988417
H  H45  1  0.21372000  0.06910000  0.35090000  1.0 0.1459139452
H  H46  1  0.17624000  0.16354000  0.37390000  1.0 0.1338078792
H  H47  1  0.24706000  0.06510000  0.51452000  1.0 0.1594988417
H  H48  1  0.28588000  0.97164000  0.49172000  1.0 0.1594988417
H  H49  1  0.64910000  0.78628000  0.93090000  1.0 0.1459139452
H  H50  1  0.62610000  0.82376000  0.83646000  1.0 0.1338078792
H  H51  1  0.48548000  0.75294000  0.93490000  1.0 0.1594988417
H  H52  1  0.50828000  0.71412000  0.02836000  1.0 0.1594988417
H  H53  1  0.78628000  0.64910000  0.63372000  1.0 0.1459139452
H  H54  1  0.82376000  0.62610000  0.71368000  1.0 0.1338078792
H  H55  1  0.75294000  0.48548000  0.82668000  1.0 0.1594988417
H  H56  1  0.71412000  0.50828000  0.74924000  1.0 0.1594988417
H  H57  1  0.93090000  0.63372000  0.64910000  1.0 0.1459139452
H  H58  1  0.83646000  0.71368000  0.62610000  1.0 0.1338078792
H  H59  1  0.93490000  0.82668000  0.48548000  1.0 0.1594988417
H  H60  1  0.02836000  0.74924000  0.50828000  1.0 0.1594988417
H  H61  1  0.63372000  0.93090000  0.78628000  1.0 0.1459139452
H  H62  1  0.71368000  0.83646000  0.82376000  1.0 0.1338078792
H  H63  1  0.82668000  0.93490000  0.75294000  1.0 0.1594988417
H  H64  1  0.74924000  0.02836000  0.71412000  1.0 0.1594988417
H  H65  1  0.63372000  0.78628000  0.64910000  1.0 0.1459139452
H  H66  1  0.71368000  0.82376000  0.62610000  1.0 0.1338078792
H  H67  1  0.82668000  0.75294000  0.48548000  1.0 0.1594988417
H  H68  1  0.74924000  0.71412000  0.50828000  1.0 0.1594988417
H  H69  1  0.93090000  0.64910000  0.78628000  1.0 0.1459139452
H  H70  1  0.83646000  0.62610000  0.82376000  1.0 0.1338078792
H  H71  1  0.93490000  0.48548000  0.75294000  1.0 0.1594988417
H  H72  1  0.02836000  0.50828000  0.71412000  1.0 0.1594988417
H  H73  1  0.78628000  0.63372000  0.93090000  1.0 0.1459139452
H  H74  1  0.82376000  0.71368000  0.83646000  1.0 0.1338078792
H  H75  1  0.75294000  0.82668000  0.93490000  1.0 0.1594988417
H  H76  1  0.71412000  0.74924000  0.02836000  1.0 0.1594988417
H  H77  1  0.64910000  0.93090000  0.63372000  1.0 0.1459139452
H  H78  1  0.62610000  0.83646000  0.71368000  1.0 0.1338078792
H  H79  1  0.48548000  0.93490000  0.82668000  1.0 0.1594988417
H  H80  1  0.50828000  0.02836000  0.74924000  1.0 0.1594988417
H  H81  1  0.93090000  0.78628000  0.63372000  1.0 0.1459139452
H  H82  1  0.83646000  0.82376000  0.71368000  1.0 0.1338078792
H  H83  1  0.93490000  0.75294000  0.82668000  1.0 0.1594988417
H  H84  1  0.02836000  0.71412000  0.74924000  1.0 0.1594988417
H  H85  1  0.63372000  0.64910000  0.93090000  1.0 0.1459139452
H  H86  1  0.71368000  0.62610000  0.83646000  1.0 0.1338078792
H  H87  1  0.82668000  0.48548000  0.93490000  1.0 0.1594988417
H  H88  1  0.74924000  0.50828000  0.02836000  1.0 0.1594988417
H  H89  1  0.64910000  0.63372000  0.78628000  1.0 0.1459139452
H  H90  1  0.62610000  0.71368000  0.82376000  1.0 0.1338078792
H  H91  1  0.48548000  0.82668000  0.75294000  1.0 0.1594988417
H  H92  1  0.50828000  0.74924000  0.71412000  1.0 0.1594988417
H  H93  1  0.78628000  0.93090000  0.64910000  1.0 0.1459139452
H  H94  1  0.82376000  0.83646000  0.62610000  1.0 0.1338078792
H  H95  1  0.75294000  0.93490000  0.48548000  1.0 0.1594988417
H  H96  1  0.71412000  0.02836000  0.50828000  1.0 0.1594988417
C  C1  1  0.40340000  0.26980000  0.86780000  1.0 0.4775018621
C  C2  1  0.42170000  0.23630000  0.92810000  1.0 0.4022426757
C  C3  1  0.42030000  0.25310000  0.01270000  1.0 0.2091426337
C  C4  1  0.38440000  0.22060000  0.06780000  1.0 -0.1027151763
C  C5  1  0.39950000  0.19710000  0.12390000  1.0 -0.1595600244
C  C6  1  0.44840000  0.20420000  0.12120000  1.0 0.1594988417
C  C7  1  0.48180000  0.23900000  0.06620000  1.0 -0.1240818137
C  C8  1  0.46760000  0.26280000  0.01060000  1.0 -0.1027151763
C  C9  1  0.26980000  0.40340000  0.45900000  1.0 0.4775018621
C  C10  1  0.23630000  0.42170000  0.41390000  1.0 0.4022426757
C  C11  1  0.25310000  0.42030000  0.31390000  1.0 0.2091426337
C  C12  1  0.22060000  0.38440000  0.32720000  1.0 -0.1027151763
C  C13  1  0.19710000  0.39950000  0.27950000  1.0 -0.1595600244
C  C14  1  0.20420000  0.44840000  0.22620000  1.0 0.1594988417
C  C15  1  0.23900000  0.48180000  0.21300000  1.0 -0.1240818137
C  C16  1  0.26280000  0.46760000  0.25900000  1.0 -0.1027151763
C  C17  1  0.86780000  0.45900000  0.40340000  1.0 0.4775018621
C  C18  1  0.92810000  0.41390000  0.42170000  1.0 0.4022426757
C  C19  1  0.01270000  0.31390000  0.42030000  1.0 0.2091426337
C  C20  1  0.06780000  0.32720000  0.38440000  1.0 -0.1053593975
C  C21  1  0.12390000  0.27950000  0.39950000  1.0 -0.1595600244
C  C22  1  0.12120000  0.22620000  0.44840000  1.0 0.1594988417
C  C23  1  0.06620000  0.21300000  0.48180000  1.0 -0.1240818137
C  C24  1  0.01060000  0.25900000  0.46760000  1.0 -0.1027151763
C  C25  1  0.45900000  0.86780000  0.26980000  1.0 0.4775018621
C  C26  1  0.41390000  0.92810000  0.23630000  1.0 0.4022426757
C  C27  1  0.31390000  0.01270000  0.25310000  1.0 0.2091426337
C  C28  1  0.32720000  0.06780000  0.22060000  1.0 -0.1027151763
C  C29  1  0.27950000  0.12390000  0.19710000  1.0 -0.1595600244
C  C30  1  0.22620000  0.12120000  0.20420000  1.0 0.1594988417
C  C31  1  0.21300000  0.06620000  0.23900000  1.0 -0.1240818137
C  C32  1  0.25900000  0.01060000  0.26280000  1.0 -0.1027151763
C  C33  1  0.45900000  0.26980000  0.40340000  1.0 0.4775018621
C  C34  1  0.41390000  0.23630000  0.42170000  1.0 0.4022426757
C  C35  1  0.31390000  0.25310000  0.42030000  1.0 0.2091426337
C  C36  1  0.32720000  0.22060000  0.38440000  1.0 -0.1053593975
C  C37  1  0.27950000  0.19710000  0.39950000  1.0 -0.1595600244
C  C38  1  0.22620000  0.20420000  0.44840000  1.0 0.1594988417
C  C39  1  0.21300000  0.23900000  0.48180000  1.0 -0.1240818137
C  C40  1  0.25900000  0.26280000  0.46760000  1.0 -0.1027151763
C  C41  1  0.86780000  0.40340000  0.26980000  1.0 0.4775018621
C  C42  1  0.92810000  0.42170000  0.23630000  1.0 0.4022426757
C  C43  1  0.01270000  0.42030000  0.25310000  1.0 0.2091426337
C  C44  1  0.06780000  0.38440000  0.22060000  1.0 -0.1027151763
C  C45  1  0.12390000  0.39950000  0.19710000  1.0 -0.1595600244
C  C46  1  0.12120000  0.44840000  0.20420000  1.0 0.1594988417
C  C47  1  0.06620000  0.48180000  0.23900000  1.0 -0.1240818137
C  C48  1  0.01060000  0.46760000  0.26280000  1.0 -0.1027151763
C  C49  1  0.26980000  0.45900000  0.86780000  1.0 0.4775018621
C  C50  1  0.23630000  0.41390000  0.92810000  1.0 0.4022426757
C  C51  1  0.25310000  0.31390000  0.01270000  1.0 0.2091426337
C  C52  1  0.22060000  0.32720000  0.06780000  1.0 -0.1027151763
C  C53  1  0.19710000  0.27950000  0.12390000  1.0 -0.1595600244
C  C54  1  0.20420000  0.22620000  0.12120000  1.0 0.1594988417
C  C55  1  0.23900000  0.21300000  0.06620000  1.0 -0.1240818137
C  C56  1  0.26280000  0.25900000  0.01060000  1.0 -0.1027151763
C  C57  1  0.40340000  0.86780000  0.45900000  1.0 0.4775018621
C  C58  1  0.42170000  0.92810000  0.41390000  1.0 0.4022426757
C  C59  1  0.42030000  0.01270000  0.31390000  1.0 0.2091426337
C  C60  1  0.38440000  0.06780000  0.32720000  1.0 -0.1027151763
C  C61  1  0.39950000  0.12390000  0.27950000  1.0 -0.1595600244
C  C62  1  0.44840000  0.12120000  0.22620000  1.0 0.1594988417
C  C63  1  0.48180000  0.06620000  0.21300000  1.0 -0.1240818137
C  C64  1  0.46760000  0.01060000  0.25900000  1.0 -0.1027151763
C  C65  1  0.86780000  0.26980000  0.45900000  1.0 0.4775018621
C  C66  1  0.92810000  0.23630000  0.41390000  1.0 0.4022426757
C  C67  1  0.01270000  0.25310000  0.31390000  1.0 0.2091426337
C  C68  1  0.06780000  0.22060000  0.32720000  1.0 -0.1027151763
C  C69  1  0.12390000  0.19710000  0.27950000  1.0 -0.1595600244
C  C70  1  0.12120000  0.20420000  0.22620000  1.0 0.1594988417
C  C71  1  0.06620000  0.23900000  0.21300000  1.0 -0.1240818137
C  C72  1  0.01060000  0.26280000  0.25900000  1.0 -0.1027151763
C  C73  1  0.45900000  0.40340000  0.86780000  1.0 0.4775018621
C  C74  1  0.41390000  0.42170000  0.92810000  1.0 0.4022426757
C  C75  1  0.31390000  0.42030000  0.01270000  1.0 0.2091426337
C  C76  1  0.32720000  0.38440000  0.06780000  1.0 -0.1027151763
C  C77  1  0.27950000  0.39950000  0.12390000  1.0 -0.1595600244
C  C78  1  0.22620000  0.44840000  0.12120000  1.0 0.1594988417
C  C79  1  0.21300000  0.48180000  0.06620000  1.0 -0.1240818137
C  C80  1  0.25900000  0.46760000  0.01060000  1.0 -0.1027151763
C  C81  1  0.40340000  0.45900000  0.26980000  1.0 0.4775018621
C  C82  1  0.42170000  0.41390000  0.23630000  1.0 0.4022426757
C  C83  1  0.42030000  0.31390000  0.25310000  1.0 0.2091426337
C  C84  1  0.38440000  0.32720000  0.22060000  1.0 -0.1027151763
C  C85  1  0.39950000  0.27950000  0.19710000  1.0 -0.1595600244
C  C86  1  0.44840000  0.22620000  0.20420000  1.0 0.1594988417
C  C87  1  0.48180000  0.21300000  0.23900000  1.0 -0.1240818137
C  C88  1  0.46760000  0.25900000  0.26280000  1.0 -0.1027151763
C  C89  1  0.26980000  0.86780000  0.40340000  1.0 0.4775018621
C  C90  1  0.23630000  0.92810000  0.42170000  1.0 0.4022426757
C  C91  1  0.25310000  0.01270000  0.42030000  1.0 0.2091426337
C  C92  1  0.22060000  0.06780000  0.38440000  1.0 -0.1027151763
C  C93  1  0.19710000  0.12390000  0.39950000  1.0 -0.1595600244
C  C94  1  0.20420000  0.12120000  0.44840000  1.0 0.1594988417
C  C95  1  0.23900000  0.06620000  0.48180000  1.0 -0.1240818137
C  C96  1  0.26280000  0.01060000  0.46760000  1.0 -0.1027151763
C  C97  1  0.59660000  0.73020000  0.13220000  1.0 0.4775018621
C  C98  1  0.57830000  0.76370000  0.07190000  1.0 0.4022426757
C  C99  1  0.57970000  0.74690000  0.98730000  1.0 0.2091426337
C  C100  1  0.61560000  0.77940000  0.93220000  1.0 -0.1027151763
C  C101  1  0.60050000  0.80290000  0.87610000  1.0 -0.1595600244
C  C102  1  0.55160000  0.79580000  0.87880000  1.0 0.1594988417
C  C103  1  0.51820000  0.76100000  0.93380000  1.0 -0.1240818137
C  C104  1  0.53240000  0.73720000  0.98940000  1.0 -0.1027151763
C  C105  1  0.73020000  0.59660000  0.54100000  1.0 0.4775018621
C  C106  1  0.76370000  0.57830000  0.58610000  1.0 0.4022426757
C  C107  1  0.74690000  0.57970000  0.68610000  1.0 0.2091426337
C  C108  1  0.77940000  0.61560000  0.67280000  1.0 -0.1027151763
C  C109  1  0.80290000  0.60050000  0.72050000  1.0 -0.1595600244
C  C110  1  0.79580000  0.55160000  0.77380000  1.0 0.1594988417
C  C111  1  0.76100000  0.51820000  0.78700000  1.0 -0.1240818137
C  C112  1  0.73720000  0.53240000  0.74100000  1.0 -0.1027151763
C  C113  1  0.13220000  0.54100000  0.59660000  1.0 0.4775018621
C  C114  1  0.07190000  0.58610000  0.57830000  1.0 0.4022426757
C  C115  1  0.98730000  0.68610000  0.57970000  1.0 0.2091426337
C  C116  1  0.93220000  0.67280000  0.61560000  1.0 -0.1027151763
C  C117  1  0.87610000  0.72050000  0.60050000  1.0 -0.1595600244
C  C118  1  0.87880000  0.77380000  0.55160000  1.0 0.1594988417
C  C119  1  0.93380000  0.78700000  0.51820000  1.0 -0.1240818137
C  C120  1  0.98940000  0.74100000  0.53240000  1.0 -0.1027151763
C  C121  1  0.54100000  0.13220000  0.73020000  1.0 0.4775018621
C  C122  1  0.58610000  0.07190000  0.76370000  1.0 0.4022426757
C  C123  1  0.68610000  0.98730000  0.74690000  1.0 0.2091426337
C  C124  1  0.67280000  0.93220000  0.77940000  1.0 -0.1027151763
C  C125  1  0.72050000  0.87610000  0.80290000  1.0 -0.1595600244
C  C126  1  0.77380000  0.87880000  0.79580000  1.0 0.1594988417
C  C127  1  0.78700000  0.93380000  0.76100000  1.0 -0.1240818137
C  C128  1  0.74100000  0.98940000  0.73720000  1.0 -0.1027151763
C  C129  1  0.54100000  0.73020000  0.59660000  1.0 0.4775018621
C  C130  1  0.58610000  0.76370000  0.57830000  1.0 0.4022426757
C  C131  1  0.68610000  0.74690000  0.57970000  1.0 0.2091426337
C  C132  1  0.67280000  0.77940000  0.61560000  1.0 -0.1027151763
C  C133  1  0.72050000  0.80290000  0.60050000  1.0 -0.1595600244
C  C134  1  0.77380000  0.79580000  0.55160000  1.0 0.1594988417
C  C135  1  0.78700000  0.76100000  0.51820000  1.0 -0.1240818137
C  C136  1  0.74100000  0.73720000  0.53240000  1.0 -0.1027151763
C  C137  1  0.13220000  0.59660000  0.73020000  1.0 0.4775018621
C  C138  1  0.07190000  0.57830000  0.76370000  1.0 0.4022426757
C  C139  1  0.98730000  0.57970000  0.74690000  1.0 0.2091426337
C  C140  1  0.93220000  0.61560000  0.77940000  1.0 -0.1027151763
C  C141  1  0.87610000  0.60050000  0.80290000  1.0 -0.1595600244
C  C142  1  0.87880000  0.55160000  0.79580000  1.0 0.1594988417
C  C143  1  0.93380000  0.51820000  0.76100000  1.0 -0.1240818137
C  C144  1  0.98940000  0.53240000  0.73720000  1.0 -0.1027151763
C  C145  1  0.73020000  0.54100000  0.13220000  1.0 0.4775018621
C  C146  1  0.76370000  0.58610000  0.07190000  1.0 0.4022426757
C  C147  1  0.74690000  0.68610000  0.98730000  1.0 0.2091426337
C  C148  1  0.77940000  0.67280000  0.93220000  1.0 -0.1053593975
C  C149  1  0.80290000  0.72050000  0.87610000  1.0 -0.1595600244
C  C150  1  0.79580000  0.77380000  0.87880000  1.0 0.1594988417
C  C151  1  0.76100000  0.78700000  0.93380000  1.0 -0.1240818137
C  C152  1  0.73720000  0.74100000  0.98940000  1.0 -0.1027151763
C  C153  1  0.59660000  0.13220000  0.54100000  1.0 0.4775018621
C  C154  1  0.57830000  0.07190000  0.58610000  1.0 0.4022426757
C  C155  1  0.57970000  0.98730000  0.68610000  1.0 0.2091426337
C  C156  1  0.61560000  0.93220000  0.67280000  1.0 -0.1053593975
C  C157  1  0.60050000  0.87610000  0.72050000  1.0 -0.1595600244
C  C158  1  0.55160000  0.87880000  0.77380000  1.0 0.1594988417
C  C159  1  0.51820000  0.93380000  0.78700000  1.0 -0.1240818137
C  C160  1  0.53240000  0.98940000  0.74100000  1.0 -0.1027151763
C  C161  1  0.13220000  0.73020000  0.54100000  1.0 0.4775018621
C  C162  1  0.07190000  0.76370000  0.58610000  1.0 0.4022426757
C  C163  1  0.98730000  0.74690000  0.68610000  1.0 0.2091426337
C  C164  1  0.93220000  0.77940000  0.67280000  1.0 -0.1027151763
C  C165  1  0.87610000  0.80290000  0.72050000  1.0 -0.1595600244
C  C166  1  0.87880000  0.79580000  0.77380000  1.0 0.1594988417
C  C167  1  0.93380000  0.76100000  0.78700000  1.0 -0.1240818137
C  C168  1  0.98940000  0.73720000  0.74100000  1.0 -0.1027151763
C  C169  1  0.54100000  0.59660000  0.13220000  1.0 0.4775018621
C  C170  1  0.58610000  0.57830000  0.07190000  1.0 0.4022426757
C  C171  1  0.68610000  0.57970000  0.98730000  1.0 0.2091426337
C  C172  1  0.67280000  0.61560000  0.93220000  1.0 -0.1053593975
C  C173  1  0.72050000  0.60050000  0.87610000  1.0 -0.1595600244
C  C174  1  0.77380000  0.55160000  0.87880000  1.0 0.1594988417
C  C175  1  0.78700000  0.51820000  0.93380000  1.0 -0.1240818137
C  C176  1  0.74100000  0.53240000  0.98940000  1.0 -0.1027151763
C  C177  1  0.59660000  0.54100000  0.73020000  1.0 0.4775018621
C  C178  1  0.57830000  0.58610000  0.76370000  1.0 0.4022426757
C  C179  1  0.57970000  0.68610000  0.74690000  1.0 0.2091426337
C  C180  1  0.61560000  0.67280000  0.77940000  1.0 -0.1027151763
C  C181  1  0.60050000  0.72050000  0.80290000  1.0 -0.1595600244
C  C182  1  0.55160000  0.77380000  0.79580000  1.0 0.1594988417
C  C183  1  0.51820000  0.78700000  0.76100000  1.0 -0.1240818137
C  C184  1  0.53240000  0.74100000  0.73720000  1.0 -0.1027151763
C  C185  1  0.73020000  0.13220000  0.59660000  1.0 0.4775018621
C  C186  1  0.76370000  0.07190000  0.57830000  1.0 0.4022426757
C  C187  1  0.74690000  0.98730000  0.57970000  1.0 0.2091426337
C  C188  1  0.77940000  0.93220000  0.61560000  1.0 -0.1027151763
C  C189  1  0.80290000  0.87610000  0.60050000  1.0 -0.1595600244
C  C190  1  0.79580000  0.87880000  0.55160000  1.0 0.1594988417
C  C191  1  0.76100000  0.93380000  0.51820000  1.0 -0.1240818137
C  C192  1  0.73720000  0.98940000  0.53240000  1.0 -0.1027151763
N  N1  1  0.40490000  0.27550000  0.95590000  1.0 -0.3981815573
N  N2  1  0.27550000  0.40490000  0.36370000  1.0 -0.3981815573
N  N3  1  0.95590000  0.36370000  0.40490000  1.0 -0.3981815573
N  N4  1  0.36370000  0.95590000  0.27550000  1.0 -0.3981815573
N  N5  1  0.36370000  0.27550000  0.40490000  1.0 -0.3981815573
N  N6  1  0.95590000  0.40490000  0.27550000  1.0 -0.3981815573
N  N7  1  0.27550000  0.36370000  0.95590000  1.0 -0.3981815573
N  N8  1  0.40490000  0.95590000  0.36370000  1.0 -0.3981815573
N  N9  1  0.95590000  0.27550000  0.36370000  1.0 -0.3981815573
N  N10  1  0.36370000  0.40490000  0.95590000  1.0 -0.3981815573
N  N11  1  0.40490000  0.36370000  0.27550000  1.0 -0.3981815573
N  N12  1  0.27550000  0.95590000  0.40490000  1.0 -0.3981815573
N  N13  1  0.59510000  0.72450000  0.04410000  1.0 -0.3981815573
N  N14  1  0.72450000  0.59510000  0.63630000  1.0 -0.3981815573
N  N15  1  0.04410000  0.63630000  0.59510000  1.0 -0.3981815573
N  N16  1  0.63630000  0.04410000  0.72450000  1.0 -0.3981815573
N  N17  1  0.63630000  0.72450000  0.59510000  1.0 -0.3981815573
N  N18  1  0.04410000  0.59510000  0.72450000  1.0 -0.3981815573
N  N19  1  0.72450000  0.63630000  0.04410000  1.0 -0.3981815573
N  N20  1  0.59510000  0.04410000  0.63630000  1.0 -0.3981815573
N  N21  1  0.04410000  0.72450000  0.63630000  1.0 -0.3981815573
N  N22  1  0.63630000  0.59510000  0.04410000  1.0 -0.3981815573
N  N23  1  0.59510000  0.63630000  0.72450000  1.0 -0.3981815573
N  N24  1  0.72450000  0.04410000  0.59510000  1.0 -0.3981815573
N  N25  1  0.46300000  0.17900000  0.17900000  1.0 -0.1702353113
N  N26  1  0.17900000  0.46300000  0.17900000  1.0 -0.1702353113
N  N27  1  0.17900000  0.17900000  0.46300000  1.0 -0.1702353113
N  N28  1  0.17900000  0.17900000  0.17900000  1.0 -0.1702353113
N  N29  1  0.53700000  0.82100000  0.82100000  1.0 -0.1702353113
N  N30  1  0.82100000  0.53700000  0.82100000  1.0 -0.1702353113
N  N31  1  0.82100000  0.82100000  0.53700000  1.0 -0.1702353113
N  N32  1  0.82100000  0.82100000  0.82100000  1.0 -0.1702353113
O  O1  1  0.41760000  0.23480000  0.84040000  1.0 -0.4732617534
O  O2  1  0.45020000  0.17700000  0.94480000  1.0 -0.454804897
O  O3  1  0.37432000  0.32568000  0.85532000  1.0 -0.3591829668
O  O4  1  0.45340000  0.04320000  0.87820000  1.0 -0.6306361553
O  O5  1  0.23480000  0.41760000  0.50720000  1.0 -0.476776989
O  O6  1  0.17700000  0.45020000  0.42800000  1.0 -0.4561736864
O  O7  1  0.32568000  0.37432000  0.44468000  1.0 -0.3591829668
O  O8  1  0.04320000  0.45340000  0.62520000  1.0 -0.6306361553
O  O9  1  0.84040000  0.50720000  0.41760000  1.0 -0.4732617534
O  O10  1  0.94480000  0.42800000  0.45020000  1.0 -0.4561736864
O  O11  1  0.85532000  0.44468000  0.37432000  1.0 -0.3591829668
O  O12  1  0.87820000  0.62520000  0.45340000  1.0 -0.6394700405
O  O13  1  0.50720000  0.84040000  0.23480000  1.0 -0.4732617534
O  O14  1  0.42800000  0.94480000  0.17700000  1.0 -0.4561736864
O  O15  1  0.44468000  0.85532000  0.32568000  1.0 -0.3591829668
O  O16  1  0.62520000  0.87820000  0.04320000  1.0 -0.6306361553
O  O17  1  0.50720000  0.23480000  0.41760000  1.0 -0.4732617534
O  O18  1  0.42800000  0.17700000  0.45020000  1.0 -0.4561736864
O  O19  1  0.44468000  0.32568000  0.37432000  1.0 -0.3591829668
O  O20  1  0.62520000  0.04320000  0.45340000  1.0 -0.6306361553
O  O21  1  0.84040000  0.41760000  0.23480000  1.0 -0.476776989
O  O22  1  0.94480000  0.45020000  0.17700000  1.0 -0.4561736864
O  O23  1  0.85532000  0.37432000  0.32568000  1.0 -0.3591829668
O  O24  1  0.87820000  0.45340000  0.04320000  1.0 -0.6306361553
O  O25  1  0.23480000  0.50720000  0.84040000  1.0 -0.4732617534
O  O26  1  0.17700000  0.42800000  0.94480000  1.0 -0.4561736864
O  O27  1  0.32568000  0.44468000  0.85532000  1.0 -0.3591829668
O  O28  1  0.04320000  0.62520000  0.87820000  1.0 -0.6306361553
O  O29  1  0.41760000  0.84040000  0.50720000  1.0 -0.476776989
O  O30  1  0.45020000  0.94480000  0.42800000  1.0 -0.454804897
O  O31  1  0.37432000  0.85532000  0.44468000  1.0 -0.3591829668
O  O32  1  0.45340000  0.87820000  0.62520000  1.0 -0.6306361553
O  O33  1  0.84040000  0.23480000  0.50720000  1.0 -0.476776989
O  O34  1  0.94480000  0.17700000  0.42800000  1.0 -0.4561736864
O  O35  1  0.85532000  0.32568000  0.44468000  1.0 -0.3591829668
O  O36  1  0.87820000  0.04320000  0.62520000  1.0 -0.6306361553
O  O37  1  0.50720000  0.41760000  0.84040000  1.0 -0.4732617534
O  O38  1  0.42800000  0.45020000  0.94480000  1.0 -0.4561736864
O  O39  1  0.44468000  0.37432000  0.85532000  1.0 -0.3591829668
O  O40  1  0.62520000  0.45340000  0.87820000  1.0 -0.6306361553
O  O41  1  0.41760000  0.50720000  0.23480000  1.0 -0.476776989
O  O42  1  0.45020000  0.42800000  0.17700000  1.0 -0.454804897
O  O43  1  0.37432000  0.44468000  0.32568000  1.0 -0.3591829668
O  O44  1  0.45340000  0.62520000  0.04320000  1.0 -0.6306361553
O  O45  1  0.23480000  0.84040000  0.41760000  1.0 -0.4732617534
O  O46  1  0.17700000  0.94480000  0.45020000  1.0 -0.4561736864
O  O47  1  0.32568000  0.85532000  0.37432000  1.0 -0.3591829668
O  O48  1  0.04320000  0.87820000  0.45340000  1.0 -0.6394700405
O  O49  1  0.58240000  0.76520000  0.15960000  1.0 -0.476776989
O  O50  1  0.54980000  0.82300000  0.05520000  1.0 -0.4561736864
O  O51  1  0.62568000  0.67432000  0.14468000  1.0 -0.3591829668
O  O52  1  0.54660000  0.95680000  0.12180000  1.0 -0.6394700405
O  O53  1  0.76520000  0.58240000  0.49280000  1.0 -0.4732617534
O  O54  1  0.82300000  0.54980000  0.57200000  1.0 -0.4561736864
O  O55  1  0.67432000  0.62568000  0.55532000  1.0 -0.3591829668
O  O56  1  0.95680000  0.54660000  0.37480000  1.0 -0.6306361553
O  O57  1  0.15960000  0.49280000  0.58240000  1.0 -0.476776989
O  O58  1  0.05520000  0.57200000  0.54980000  1.0 -0.4561736864
O  O59  1  0.14468000  0.55532000  0.62568000  1.0 -0.3591829668
O  O60  1  0.12180000  0.37480000  0.54660000  1.0 -0.6306361553
O  O61  1  0.49280000  0.15960000  0.76520000  1.0 -0.476776989
O  O62  1  0.57200000  0.05520000  0.82300000  1.0 -0.454804897
O  O63  1  0.55532000  0.14468000  0.67432000  1.0 -0.3591829668
O  O64  1  0.37480000  0.12180000  0.95680000  1.0 -0.6394700405
O  O65  1  0.49280000  0.76520000  0.58240000  1.0 -0.476776989
O  O66  1  0.57200000  0.82300000  0.54980000  1.0 -0.4561736864
O  O67  1  0.55532000  0.67432000  0.62568000  1.0 -0.3591829668
O  O68  1  0.37480000  0.95680000  0.54660000  1.0 -0.6306361553
O  O69  1  0.15960000  0.58240000  0.76520000  1.0 -0.476776989
O  O70  1  0.05520000  0.54980000  0.82300000  1.0 -0.454804897
O  O71  1  0.14468000  0.62568000  0.67432000  1.0 -0.3591829668
O  O72  1  0.12180000  0.54660000  0.95680000  1.0 -0.6306361553
O  O73  1  0.76520000  0.49280000  0.15960000  1.0 -0.476776989
O  O74  1  0.82300000  0.57200000  0.05520000  1.0 -0.4561736864
O  O75  1  0.67432000  0.55532000  0.14468000  1.0 -0.3591829668
O  O76  1  0.95680000  0.37480000  0.12180000  1.0 -0.6306361553
O  O77  1  0.58240000  0.15960000  0.49280000  1.0 -0.476776989
O  O78  1  0.54980000  0.05520000  0.57200000  1.0 -0.4561736864
O  O79  1  0.62568000  0.14468000  0.55532000  1.0 -0.3591829668
O  O80  1  0.54660000  0.12180000  0.37480000  1.0 -0.6306361553
O  O81  1  0.15960000  0.76520000  0.49280000  1.0 -0.476776989
O  O82  1  0.05520000  0.82300000  0.57200000  1.0 -0.4561736864
O  O83  1  0.14468000  0.67432000  0.55532000  1.0 -0.3591829668
O  O84  1  0.12180000  0.95680000  0.37480000  1.0 -0.6306361553
O  O85  1  0.49280000  0.58240000  0.15960000  1.0 -0.476776989
O  O86  1  0.57200000  0.54980000  0.05520000  1.0 -0.4561736864
O  O87  1  0.55532000  0.62568000  0.14468000  1.0 -0.3591829668
O  O88  1  0.37480000  0.54660000  0.12180000  1.0 -0.6394700405
O  O89  1  0.58240000  0.49280000  0.76520000  1.0 -0.4732617534
O  O90  1  0.54980000  0.57200000  0.82300000  1.0 -0.454804897
O  O91  1  0.62568000  0.55532000  0.67432000  1.0 -0.3591829668
O  O92  1  0.54660000  0.37480000  0.95680000  1.0 -0.6306361553
O  O93  1  0.76520000  0.15960000  0.58240000  1.0 -0.476776989
O  O94  1  0.82300000  0.05520000  0.54980000  1.0 -0.4561736864
O  O95  1  0.67432000  0.14468000  0.62568000  1.0 -0.3591829668
O  O96  1  0.95680000  0.12180000  0.54660000  1.0 -0.6394700405
O  O97  1  0.37000000  0.18800000  0.81200000  1.0 0.2812439678
O  O98  1  0.55180000  0.16740000  0.83260000  1.0 -0.4561736864
O  O99  1  0.53500000  0.05640000  0.94360000  1.0 -0.3437858817
O  O100  1  0.37800000  0.16200000  0.83800000  1.0 0.0425586033
O  O101  1  0.18800000  0.37000000  0.63000000  1.0 0.2812439678
O  O102  1  0.16740000  0.55180000  0.44820000  1.0 -0.4300559955
O  O103  1  0.05640000  0.53500000  0.46500000  1.0 -0.3516908413
O  O104  1  0.16200000  0.37800000  0.62200000  1.0 0.0465277275
O  O105  1  0.81200000  0.63000000  0.37000000  1.0 0.2812439678
O  O106  1  0.83260000  0.44820000  0.55180000  1.0 -0.4300559955
O  O107  1  0.94360000  0.46500000  0.53500000  1.0 -0.3516908413
O  O108  1  0.83800000  0.62200000  0.37800000  1.0 0.0465277275
O  O109  1  0.63000000  0.81200000  0.18800000  1.0 0.2812439678
O  O110  1  0.44820000  0.83260000  0.16740000  1.0 -0.4300559955
O  O111  1  0.46500000  0.94360000  0.05640000  1.0 -0.3591829668
O  O112  1  0.62200000  0.83800000  0.16200000  1.0 0.0465277275
O  O113  1  0.63000000  0.18800000  0.37000000  1.0 0.2812439678
O  O114  1  0.44820000  0.16740000  0.55180000  1.0 -0.4362565276
O  O115  1  0.46500000  0.05640000  0.53500000  1.0 -0.3516908413
O  O116  1  0.62200000  0.16200000  0.37800000  1.0 0.0425586033
O  O117  1  0.81200000  0.37000000  0.18800000  1.0 0.2812439678
O  O118  1  0.83260000  0.55180000  0.16740000  1.0 -0.4300559955
O  O119  1  0.94360000  0.53500000  0.05640000  1.0 -0.3516908413
O  O120  1  0.83800000  0.37800000  0.16200000  1.0 0.0465277275
O  O121  1  0.18800000  0.63000000  0.81200000  1.0 0.2812439678
O  O122  1  0.16740000  0.44820000  0.83260000  1.0 -0.4362565276
O  O123  1  0.05640000  0.46500000  0.94360000  1.0 -0.3516908413
O  O124  1  0.16200000  0.62200000  0.83800000  1.0 0.0465277275
O  O125  1  0.37000000  0.81200000  0.63000000  1.0 0.2812439678
O  O126  1  0.55180000  0.83260000  0.44820000  1.0 -0.424298316
O  O127  1  0.53500000  0.94360000  0.46500000  1.0 -0.3591829668
O  O128  1  0.37800000  0.83800000  0.62200000  1.0 0.0465277275
O  O129  1  0.81200000  0.18800000  0.63000000  1.0 0.2812439678
O  O130  1  0.83260000  0.16740000  0.44820000  1.0 -0.4300559955
O  O131  1  0.94360000  0.05640000  0.46500000  1.0 -0.3516908413
O  O132  1  0.83800000  0.16200000  0.62200000  1.0 0.0465277275
O  O133  1  0.63000000  0.37000000  0.81200000  1.0 0.2812439678
O  O134  1  0.44820000  0.55180000  0.83260000  1.0 -0.4561736864
O  O135  1  0.46500000  0.53500000  0.94360000  1.0 -0.3437858817
O  O136  1  0.62200000  0.37800000  0.83800000  1.0 0.0425586033
O  O137  1  0.37000000  0.63000000  0.18800000  1.0 0.2812439678
O  O138  1  0.55180000  0.44820000  0.16740000  1.0 -0.424298316
O  O139  1  0.53500000  0.46500000  0.05640000  1.0 -0.3591829668
O  O140  1  0.37800000  0.62200000  0.16200000  1.0 0.0465277275
O  O141  1  0.18800000  0.81200000  0.37000000  1.0 0.2812439678
O  O142  1  0.16740000  0.83260000  0.55180000  1.0 -0.4300559955
O  O143  1  0.05640000  0.94360000  0.53500000  1.0 -0.3516908413
O  O144  1  0.16200000  0.83800000  0.37800000  1.0 0.0465277275
