# DDEC6 charges by PACMAN v1.1 (https://github.com/mtap-research/PACMAN-charge/)
data_TUBJAD_ASR_pacman
_symmetry_space_group_name_H-M   'P 1'
_cell_length_a   8.83800000
_cell_length_b   15.98700000
_cell_length_c   16.92000000
_cell_angle_alpha   90.00000000
_cell_angle_beta   90.00000000
_cell_angle_gamma   90.00000000
_symmetry_Int_Tables_number   1
_chemical_formula_structural   CuH14C20N3O5
_chemical_formula_sum   'Cu4 H56 C80 N12 O20'
_cell_volume   2390.67935352
_cell_formula_units_Z   4
loop_
 _symmetry_equiv_pos_site_id
 _symmetry_equiv_pos_as_xyz
  1  'x, y, z'
loop_
 _atom_site_type_symbol
 _atom_site_label
 _atom_site_symmetry_multiplicity
 _atom_site_fract_x
 _atom_site_fract_y
 _atom_site_fract_z
 _atom_site_occupancy
 _atom_site_charge
Cu  Cu1  1  0.92960000  0.80611000  0.21839000  1.0 0.7196337019
Cu  Cu2  1  0.42960000  0.19389000  0.78161000  1.0 0.7196337019
Cu  Cu3  1  0.92960000  0.30611000  0.28161000  1.0 0.7196337019
Cu  Cu4  1  0.42960000  0.69389000  0.71839000  1.0 0.7196337019
H  H1  1  0.57070000  0.01900000  0.31070000  1.0 0.2864430432
H  H2  1  0.07070000  0.98100000  0.68930000  1.0 0.2864430432
H  H3  1  0.57070000  0.51900000  0.18930000  1.0 0.2864430432
H  H4  1  0.07070000  0.48100000  0.81070000  1.0 0.2864430432
H  H5  1  0.71310000  0.76560000  0.09290000  1.0 0.1189580132
H  H6  1  0.21310000  0.23440000  0.90710000  1.0 0.1189580132
H  H7  1  0.71310000  0.26560000  0.40710000  1.0 0.1189580132
H  H8  1  0.21310000  0.73440000  0.59290000  1.0 0.1189580132
H  H9  1  0.46270000  0.78190000  0.05770000  1.0 0.1380863075
H  H10  1  0.96270000  0.21810000  0.94230000  1.0 0.1380863075
H  H11  1  0.46270000  0.28190000  0.44230000  1.0 0.1380863075
H  H12  1  0.96270000  0.71810000  0.55770000  1.0 0.1380863075
H  H13  1  0.32350000  0.87910000  0.12740000  1.0 0.1271830469
H  H14  1  0.82350000  0.12090000  0.87260000  1.0 0.1271830469
H  H15  1  0.32350000  0.37910000  0.37260000  1.0 0.1271830469
H  H16  1  0.82350000  0.62090000  0.62740000  1.0 0.1271830469
H  H17  1  0.68590000  0.91430000  0.27290000  1.0 0.1046962325
H  H18  1  0.18590000  0.08570000  0.72710000  1.0 0.1046962325
H  H19  1  0.68590000  0.41430000  0.22710000  1.0 0.1046962325
H  H20  1  0.18590000  0.58570000  0.77290000  1.0 0.1046962325
H  H21  1  0.37190000  0.09950000  0.39550000  1.0 0.1189580132
H  H22  1  0.87190000  0.90050000  0.60450000  1.0 0.1189580132
H  H23  1  0.37190000  0.59950000  0.10450000  1.0 0.1189580132
H  H24  1  0.87190000  0.40050000  0.89550000  1.0 0.1189580132
H  H25  1  0.16590000  0.32710000  0.15840000  1.0 0.1189580132
H  H26  1  0.66590000  0.67290000  0.84160000  1.0 0.1189580132
H  H27  1  0.16590000  0.82710000  0.34160000  1.0 0.1189580132
H  H28  1  0.66590000  0.17290000  0.65840000  1.0 0.1189580132
H  H29  1  0.38960000  0.26160000  0.12220000  1.0 0.1271830469
H  H30  1  0.88960000  0.73840000  0.87780000  1.0 0.1271830469
H  H31  1  0.38960000  0.76160000  0.37780000  1.0 0.1271830469
H  H32  1  0.88960000  0.23840000  0.62220000  1.0 0.1271830469
H  H33  1  0.50040000  0.15430000  0.20430000  1.0 0.1088145708
H  H34  1  0.00040000  0.84570000  0.79570000  1.0 0.1088145708
H  H35  1  0.50040000  0.65430000  0.29570000  1.0 0.1088145708
H  H36  1  0.00040000  0.34570000  0.70430000  1.0 0.1088145708
H  H37  1  0.13720000  0.18030000  0.34750000  1.0 0.1189580132
H  H38  1  0.63720000  0.81970000  0.65250000  1.0 0.1189580132
H  H39  1  0.13720000  0.68030000  0.15250000  1.0 0.1189580132
H  H40  1  0.63720000  0.31970000  0.84750000  1.0 0.1189580132
H  H41  1  0.15460000  0.76480000  0.92850000  1.0 0.1189580132
H  H42  1  0.65460000  0.23520000  0.07150000  1.0 0.1189580132
H  H43  1  0.15460000  0.26480000  0.57150000  1.0 0.1189580132
H  H44  1  0.65460000  0.73520000  0.42850000  1.0 0.1189580132
H  H45  1  0.34230000  0.98140000  0.84940000  1.0 0.1271830469
H  H46  1  0.84230000  0.01860000  0.15060000  1.0 0.1271830469
H  H47  1  0.34230000  0.48140000  0.65060000  1.0 0.1271830469
H  H48  1  0.84230000  0.51860000  0.34940000  1.0 0.1271830469
H  H49  1  0.25070000  0.04830000  0.95700000  1.0 0.1189580132
H  H50  1  0.75070000  0.95170000  0.04300000  1.0 0.1189580132
H  H51  1  0.25070000  0.54830000  0.54300000  1.0 0.1189580132
H  H52  1  0.75070000  0.45170000  0.45700000  1.0 0.1189580132
H  H53  1  0.11730000  0.98130000  0.05080000  1.0 0.1271830469
H  H54  1  0.61730000  0.01870000  0.94920000  1.0 0.1271830469
H  H55  1  0.11730000  0.48130000  0.44920000  1.0 0.1271830469
H  H56  1  0.61730000  0.51870000  0.55080000  1.0 0.1271830469
C  C1  1  0.65090000  0.80020000  0.12490000  1.0 0.0630680506
C  C2  1  0.15090000  0.19980000  0.87510000  1.0 0.0630680506
C  C3  1  0.65090000  0.30020000  0.37510000  1.0 0.0630680506
C  C4  1  0.15090000  0.69980000  0.62490000  1.0 0.0630680506
C  C5  1  0.50480000  0.81160000  0.10100000  1.0 -0.129668128
C  C6  1  0.00480000  0.18840000  0.89900000  1.0 -0.129668128
C  C7  1  0.50480000  0.31160000  0.39900000  1.0 -0.129668128
C  C8  1  0.00480000  0.68840000  0.60100000  1.0 -0.129668128
C  C9  1  0.42500000  0.86740000  0.14280000  1.0 -0.0588142279
C  C10  1  0.92500000  0.13260000  0.85720000  1.0 -0.0588142279
C  C11  1  0.42500000  0.36740000  0.35720000  1.0 -0.0588142279
C  C12  1  0.92500000  0.63260000  0.64280000  1.0 -0.0588142279
C  C13  1  0.48530000  0.90870000  0.20790000  1.0 -0.0436504002
C  C14  1  0.98530000  0.09130000  0.79210000  1.0 -0.0436504002
C  C15  1  0.48530000  0.40870000  0.29210000  1.0 -0.0436504002
C  C16  1  0.98530000  0.59130000  0.70790000  1.0 -0.0436504002
C  C17  1  0.63880000  0.88790000  0.22910000  1.0 0.0310962905
C  C18  1  0.13880000  0.11210000  0.77090000  1.0 0.0310962905
C  C19  1  0.63880000  0.38790000  0.27090000  1.0 0.0310962905
C  C20  1  0.13880000  0.61210000  0.72910000  1.0 0.0310962905
C  C21  1  0.39890000  0.97420000  0.25710000  1.0 0.4452299063
C  C22  1  0.89890000  0.02580000  0.74290000  1.0 0.4452299063
C  C23  1  0.39890000  0.47420000  0.24290000  1.0 0.4452299063
C  C24  1  0.89890000  0.52580000  0.75710000  1.0 0.4452299063
C  C25  1  0.38560000  0.09530000  0.34000000  1.0 -0.0198448264
C  C26  1  0.88560000  0.90470000  0.66000000  1.0 -0.0198448264
C  C27  1  0.38560000  0.59530000  0.16000000  1.0 -0.0198448264
C  C28  1  0.88560000  0.40470000  0.84000000  1.0 -0.0198448264
C  C29  1  0.20710000  0.28340000  0.18970000  1.0 0.0528029499
C  C30  1  0.70710000  0.71660000  0.81030000  1.0 0.0528029499
C  C31  1  0.20710000  0.78340000  0.31030000  1.0 0.0528029499
C  C32  1  0.70710000  0.21660000  0.68970000  1.0 0.0528029499
C  C33  1  0.34000000  0.24500000  0.16940000  1.0 -0.129668128
C  C34  1  0.84000000  0.75500000  0.83060000  1.0 -0.129668128
C  C35  1  0.34000000  0.74500000  0.33060000  1.0 -0.129668128
C  C36  1  0.84000000  0.25500000  0.66940000  1.0 -0.129668128
C  C37  1  0.40700000  0.17950000  0.21790000  1.0 -0.0724968765
C  C38  1  0.90700000  0.82050000  0.78210000  1.0 -0.0724968765
C  C39  1  0.40700000  0.67950000  0.28210000  1.0 -0.0724968765
C  C40  1  0.90700000  0.32050000  0.71790000  1.0 -0.0724968765
C  C41  1  0.32500000  0.15480000  0.28630000  1.0 0.0391969492
C  C42  1  0.82500000  0.84520000  0.71370000  1.0 0.0391969492
C  C43  1  0.32500000  0.65480000  0.21370000  1.0 0.0391969492
C  C44  1  0.82500000  0.34520000  0.78630000  1.0 0.0391969492
C  C45  1  0.19240000  0.19610000  0.30160000  1.0 0.0528029499
C  C46  1  0.69240000  0.80390000  0.69840000  1.0 0.0528029499
C  C47  1  0.19240000  0.69610000  0.19840000  1.0 0.0528029499
C  C48  1  0.69240000  0.30390000  0.80160000  1.0 0.0528029499
C  C49  1  0.02610000  0.81730000  0.05810000  1.0 0.5310469453
C  C50  1  0.52610000  0.18270000  0.94190000  1.0 0.5310469453
C  C51  1  0.02610000  0.31730000  0.44190000  1.0 0.5310469453
C  C52  1  0.52610000  0.68270000  0.55810000  1.0 0.5310469453
C  C53  1  0.32750000  0.81260000  0.80910000  1.0 0.5310469453
C  C54  1  0.82750000  0.18740000  0.19090000  1.0 0.5310469453
C  C55  1  0.32750000  0.31260000  0.69090000  1.0 0.5310469453
C  C56  1  0.82750000  0.68740000  0.30910000  1.0 0.5310469453
C  C57  1  0.12150000  0.86690000  0.99830000  1.0 -0.0198448264
C  C58  1  0.62150000  0.13310000  0.00170000  1.0 -0.0198448264
C  C59  1  0.12150000  0.36690000  0.50170000  1.0 -0.0198448264
C  C60  1  0.62150000  0.63310000  0.49830000  1.0 -0.0198448264
C  C61  1  0.17570000  0.82280000  0.93440000  1.0 -0.1523199345
C  C62  1  0.67570000  0.17720000  0.06560000  1.0 -0.1523199345
C  C63  1  0.17570000  0.32280000  0.56560000  1.0 -0.1523199345
C  C64  1  0.67570000  0.67720000  0.43440000  1.0 -0.1523199345
C  C65  1  0.26030000  0.86460000  0.88010000  1.0 0.002727928
C  C66  1  0.76030000  0.13540000  0.11990000  1.0 0.002727928
C  C67  1  0.26030000  0.36460000  0.61990000  1.0 0.002727928
C  C68  1  0.76030000  0.63540000  0.38010000  1.0 0.002727928
C  C69  1  0.28670000  0.95150000  0.88820000  1.0 -0.1155228431
C  C70  1  0.78670000  0.04850000  0.11180000  1.0 -0.1155228431
C  C71  1  0.28670000  0.45150000  0.61180000  1.0 -0.1155228431
C  C72  1  0.78670000  0.54850000  0.38820000  1.0 -0.1155228431
C  C73  1  0.23210000  0.99010000  0.95110000  1.0 -0.0896843935
C  C74  1  0.73210000  0.00990000  0.04890000  1.0 -0.0896843935
C  C75  1  0.23210000  0.49010000  0.54890000  1.0 -0.0896843935
C  C76  1  0.73210000  0.50990000  0.45110000  1.0 -0.0896843935
C  C77  1  0.15280000  0.95130000  0.00600000  1.0 -0.1068835895
C  C78  1  0.65280000  0.04870000  0.99400000  1.0 -0.1068835895
C  C79  1  0.15280000  0.45130000  0.49400000  1.0 -0.1068835895
C  C80  1  0.65280000  0.54870000  0.50600000  1.0 -0.1068835895
N  N1  1  0.71210000  0.83260000  0.18760000  1.0 -0.1991071145
N  N2  1  0.21210000  0.16740000  0.81240000  1.0 -0.1991071145
N  N3  1  0.71210000  0.33260000  0.31240000  1.0 -0.1991071145
N  N4  1  0.21210000  0.66740000  0.68760000  1.0 -0.1991071145
N  N5  1  0.47310000  0.02520000  0.30240000  1.0 -0.3390758152
N  N6  1  0.97310000  0.97480000  0.69760000  1.0 -0.3390758152
N  N7  1  0.47310000  0.52520000  0.19760000  1.0 -0.3390758152
N  N8  1  0.97310000  0.47480000  0.80240000  1.0 -0.3390758152
N  N9  1  0.13590000  0.25650000  0.25690000  1.0 -0.1991071145
N  N10  1  0.63590000  0.74350000  0.74310000  1.0 -0.1991071145
N  N11  1  0.13590000  0.75650000  0.24310000  1.0 -0.1991071145
N  N12  1  0.63590000  0.24350000  0.75690000  1.0 -0.1991071145
O  O1  1  0.01040000  0.85810000  0.12430000  1.0 -0.544523042
O  O2  1  0.51040000  0.14190000  0.87570000  1.0 -0.544523042
O  O3  1  0.01040000  0.35810000  0.37570000  1.0 -0.544523042
O  O4  1  0.51040000  0.64190000  0.62430000  1.0 -0.544523042
O  O5  1  0.98100000  0.74670000  0.04620000  1.0 -0.544523042
O  O6  1  0.48100000  0.25330000  0.95380000  1.0 -0.544523042
O  O7  1  0.98100000  0.24670000  0.45380000  1.0 -0.544523042
O  O8  1  0.48100000  0.75330000  0.54620000  1.0 -0.544523042
O  O9  1  0.35260000  0.73810000  0.82050000  1.0 -0.5111376013
O  O10  1  0.85260000  0.26190000  0.17950000  1.0 -0.5111376013
O  O11  1  0.35260000  0.23810000  0.67950000  1.0 -0.5111376013
O  O12  1  0.85260000  0.76190000  0.32050000  1.0 -0.5111376013
O  O13  1  0.34350000  0.85110000  0.74370000  1.0 -0.5860613997
O  O14  1  0.84350000  0.14890000  0.25630000  1.0 -0.5860613997
O  O15  1  0.34350000  0.35110000  0.75630000  1.0 -0.5860613997
O  O16  1  0.84350000  0.64890000  0.24370000  1.0 -0.5860613997
O  O17  1  0.26170000  0.97840000  0.24090000  1.0 -0.4672397341
O  O18  1  0.76170000  0.02160000  0.75910000  1.0 -0.4672397341
O  O19  1  0.26170000  0.47840000  0.25910000  1.0 -0.4672397341
O  O20  1  0.76170000  0.52160000  0.74090000  1.0 -0.4672397341
