# DDEC6 charges by PACMAN v1.1 (https://github.com/mtap-research/PACMAN-charge/)
data_TUBWEU_FSR_pacman
_symmetry_space_group_name_H-M   'P 1'
_cell_length_a   22.24800000
_cell_length_b   22.24800000
_cell_length_c   27.46000000
_cell_angle_alpha   90.00000000
_cell_angle_beta   90.00000000
_cell_angle_gamma   120.00000000
_symmetry_Int_Tables_number   1
_chemical_formula_structural   Sn3H144C76(N2O5)2
_chemical_formula_sum   'Sn18 H864 C456 N24 O60'
_cell_volume   11770.99340312
_cell_formula_units_Z   6
loop_
 _symmetry_equiv_pos_site_id
 _symmetry_equiv_pos_as_xyz
  1  'x, y, z'
loop_
 _atom_site_type_symbol
 _atom_site_label
 _atom_site_symmetry_multiplicity
 _atom_site_fract_x
 _atom_site_fract_y
 _atom_site_fract_z
 _atom_site_occupancy
 _atom_site_charge
Sn  Sn1  1  0.60439000  0.39561000  0.91667000  1.0 0.9565531387
Sn  Sn2  1  0.60439000  0.20878000  0.25000000  1.0 0.9565531387
Sn  Sn3  1  0.79122000  0.39561000  0.58333000  1.0 0.9565531387
Sn  Sn4  1  0.39561000  0.60439000  0.41667000  1.0 0.9565531387
Sn  Sn5  1  0.39561000  0.79122000  0.75000000  1.0 0.9565531387
Sn  Sn6  1  0.20878000  0.60439000  0.08333000  1.0 0.9565531387
Sn  Sn7  1  0.30506000  0.45606000  0.98153000  1.0 0.6806392403
Sn  Sn8  1  0.54394000  0.84900000  0.31486000  1.0 0.6806392403
Sn  Sn9  1  0.15100000  0.69494000  0.64820000  1.0 0.6806392403
Sn  Sn10  1  0.69494000  0.54394000  0.48153000  1.0 0.6806392403
Sn  Sn11  1  0.45606000  0.15100000  0.81486000  1.0 0.6806392403
Sn  Sn12  1  0.84900000  0.30506000  0.14820000  1.0 0.688078983
Sn  Sn13  1  0.45606000  0.30506000  0.35180000  1.0 0.688078983
Sn  Sn14  1  0.84900000  0.54394000  0.01847000  1.0 0.688078983
Sn  Sn15  1  0.69494000  0.15100000  0.68514000  1.0 0.6806392403
Sn  Sn16  1  0.54394000  0.69494000  0.85180000  1.0 0.6806392403
Sn  Sn17  1  0.15100000  0.45606000  0.51847000  1.0 0.688078983
Sn  Sn18  1  0.30506000  0.84900000  0.18514000  1.0 0.688078983
H  H1  1  0.57669000  0.61739000  0.02010000  1.0 0.115809687
H  H2  1  0.38261000  0.95930000  0.35343000  1.0 0.115809687
H  H3  1  0.04070000  0.42331000  0.68677000  1.0 0.115809687
H  H4  1  0.42331000  0.38261000  0.52010000  1.0 0.115809687
H  H5  1  0.61739000  0.04070000  0.85343000  1.0 0.115809687
H  H6  1  0.95930000  0.57669000  0.18677000  1.0 0.115809687
H  H7  1  0.61739000  0.57669000  0.31323000  1.0 0.115809687
H  H8  1  0.95930000  0.38261000  0.97990000  1.0 0.115809687
H  H9  1  0.42331000  0.04070000  0.64657000  1.0 0.115809687
H  H10  1  0.38261000  0.42331000  0.81323000  1.0 0.115809687
H  H11  1  0.04070000  0.61739000  0.47990000  1.0 0.115809687
H  H12  1  0.57669000  0.95930000  0.14657000  1.0 0.115809687
H  H13  1  0.68359000  0.61919000  0.02040000  1.0 0.1394119485
H  H14  1  0.38081000  0.06440000  0.35373000  1.0 0.1394119485
H  H15  1  0.93560000  0.31641000  0.68707000  1.0 0.1394119485
H  H16  1  0.31641000  0.38081000  0.52040000  1.0 0.1394119485
H  H17  1  0.61919000  0.93560000  0.85373000  1.0 0.1394119485
H  H18  1  0.06440000  0.68359000  0.18707000  1.0 0.1394119485
H  H19  1  0.61919000  0.68359000  0.31293000  1.0 0.1394119485
H  H20  1  0.06440000  0.38081000  0.97960000  1.0 0.1394119485
H  H21  1  0.31641000  0.93560000  0.64627000  1.0 0.1394119485
H  H22  1  0.38081000  0.31641000  0.81293000  1.0 0.1394119485
H  H23  1  0.93560000  0.61919000  0.47960000  1.0 0.1394119485
H  H24  1  0.68359000  0.06440000  0.14627000  1.0 0.1394119485
H  H25  1  0.31799000  0.57699000  0.96430000  1.0 0.130719715
H  H26  1  0.42301000  0.74100000  0.29763000  1.0 0.130719715
H  H27  1  0.25900000  0.68201000  0.63097000  1.0 0.130719715
H  H28  1  0.68201000  0.42301000  0.46430000  1.0 0.130719715
H  H29  1  0.57699000  0.25900000  0.79763000  1.0 0.130719715
H  H30  1  0.74100000  0.31799000  0.13097000  1.0 0.130719715
H  H31  1  0.57699000  0.31799000  0.36903000  1.0 0.130719715
H  H32  1  0.74100000  0.42301000  0.03570000  1.0 0.130719715
H  H33  1  0.68201000  0.25900000  0.70237000  1.0 0.130719715
H  H34  1  0.42301000  0.68201000  0.86903000  1.0 0.130719715
H  H35  1  0.25900000  0.57699000  0.53570000  1.0 0.130719715
H  H36  1  0.31799000  0.74100000  0.20237000  1.0 0.130719715
H  H37  1  0.34579000  0.55549000  0.91780000  1.0 0.130719715
H  H38  1  0.44451000  0.79030000  0.25113000  1.0 0.130719715
H  H39  1  0.20970000  0.65421000  0.58447000  1.0 0.130719715
H  H40  1  0.65421000  0.44451000  0.41780000  1.0 0.130719715
H  H41  1  0.55549000  0.20970000  0.75113000  1.0 0.130719715
H  H42  1  0.79030000  0.34579000  0.08447000  1.0 0.130719715
H  H43  1  0.55549000  0.34579000  0.41553000  1.0 0.130719715
H  H44  1  0.79030000  0.44451000  0.08220000  1.0 0.130719715
H  H45  1  0.65421000  0.20970000  0.74887000  1.0 0.130719715
H  H46  1  0.44451000  0.65421000  0.91553000  1.0 0.130719715
H  H47  1  0.20970000  0.55549000  0.58220000  1.0 0.130719715
H  H48  1  0.34579000  0.79030000  0.24887000  1.0 0.130719715
H  H49  1  0.20389000  0.51099000  0.93680000  1.0 0.0993230198
H  H50  1  0.48901000  0.69290000  0.27013000  1.0 0.0993230198
H  H51  1  0.30710000  0.79611000  0.60347000  1.0 0.0993230198
H  H52  1  0.79611000  0.48901000  0.43680000  1.0 0.0993230198
H  H53  1  0.51099000  0.30710000  0.77013000  1.0 0.0993230198
H  H54  1  0.69290000  0.20389000  0.10347000  1.0 0.0993230198
H  H55  1  0.51099000  0.20389000  0.39653000  1.0 0.0993230198
H  H56  1  0.69290000  0.48901000  0.06320000  1.0 0.0993230198
H  H57  1  0.79611000  0.30710000  0.72987000  1.0 0.0993230198
H  H58  1  0.48901000  0.79611000  0.89653000  1.0 0.0993230198
H  H59  1  0.30710000  0.51099000  0.56320000  1.0 0.0993230198
H  H60  1  0.20389000  0.69290000  0.22987000  1.0 0.0993230198
H  H61  1  0.22899000  0.48399000  0.89150000  1.0 0.0993230198
H  H62  1  0.51601000  0.74500000  0.22483000  1.0 0.0993230198
H  H63  1  0.25500000  0.77101000  0.55817000  1.0 0.0993230198
H  H64  1  0.77101000  0.51601000  0.39150000  1.0 0.0993230198
H  H65  1  0.48399000  0.25500000  0.72483000  1.0 0.0993230198
H  H66  1  0.74500000  0.22899000  0.05817000  1.0 0.0993230198
H  H67  1  0.48399000  0.22899000  0.44183000  1.0 0.0993230198
H  H68  1  0.74500000  0.51601000  0.10850000  1.0 0.0993230198
H  H69  1  0.77101000  0.25500000  0.77517000  1.0 0.0993230198
H  H70  1  0.51601000  0.77101000  0.94183000  1.0 0.0993230198
H  H71  1  0.25500000  0.48399000  0.60850000  1.0 0.0993230198
H  H72  1  0.22899000  0.74500000  0.27517000  1.0 0.0993230198
H  H73  1  0.26319000  0.62609000  0.90480000  1.0 0.0896736223
H  H74  1  0.37391000  0.63710000  0.23813000  1.0 0.0896736223
H  H75  1  0.36290000  0.73681000  0.57147000  1.0 0.0896736223
H  H76  1  0.73681000  0.37391000  0.40480000  1.0 0.0896736223
H  H77  1  0.62609000  0.36290000  0.73813000  1.0 0.0896736223
H  H78  1  0.63710000  0.26319000  0.07147000  1.0 0.0896736223
H  H79  1  0.62609000  0.26319000  0.42853000  1.0 0.0896736223
H  H80  1  0.63710000  0.37391000  0.09520000  1.0 0.0896736223
H  H81  1  0.73681000  0.36290000  0.76187000  1.0 0.0896736223
H  H82  1  0.37391000  0.73681000  0.92853000  1.0 0.0896736223
H  H83  1  0.36290000  0.62609000  0.59520000  1.0 0.0896736223
H  H84  1  0.26319000  0.63710000  0.26187000  1.0 0.0896736223
H  H85  1  0.29089000  0.60069000  0.86010000  1.0 0.0896736223
H  H86  1  0.39931000  0.69020000  0.19343000  1.0 0.0896736223
H  H87  1  0.30980000  0.70911000  0.52677000  1.0 0.0896736223
H  H88  1  0.70911000  0.39931000  0.36010000  1.0 0.0896736223
H  H89  1  0.60069000  0.30980000  0.69343000  1.0 0.079208403
H  H90  1  0.69020000  0.29089000  0.02677000  1.0 0.0896736223
H  H91  1  0.60069000  0.29089000  0.47323000  1.0 0.0896736223
H  H92  1  0.69020000  0.39931000  0.13990000  1.0 0.0896736223
H  H93  1  0.70911000  0.30980000  0.80657000  1.0 0.0896736223
H  H94  1  0.39931000  0.70911000  0.97323000  1.0 0.0896736223
H  H95  1  0.30980000  0.60069000  0.63990000  1.0 0.0896736223
H  H96  1  0.29089000  0.69020000  0.30657000  1.0 0.0896736223
H  H97  1  0.19509000  0.61179000  0.83500000  1.0 0.1097424923
H  H98  1  0.38821000  0.58330000  0.16833000  1.0 0.1097424923
H  H99  1  0.41670000  0.80491000  0.50167000  1.0 0.1097424923
H  H100  1  0.80491000  0.38821000  0.33500000  1.0 0.1097424923
H  H101  1  0.61179000  0.41670000  0.66833000  1.0 0.1097424923
H  H102  1  0.58330000  0.19509000  0.00167000  1.0 0.1097424923
H  H103  1  0.61179000  0.19509000  0.49833000  1.0 0.1097424923
H  H104  1  0.58330000  0.38821000  0.16500000  1.0 0.1097424923
H  H105  1  0.80491000  0.41670000  0.83167000  1.0 0.1097424923
H  H106  1  0.38821000  0.80491000  0.99833000  1.0 0.1097424923
H  H107  1  0.41670000  0.61179000  0.66500000  1.0 0.1097424923
H  H108  1  0.19509000  0.58330000  0.33167000  1.0 0.1097424923
H  H109  1  0.14739000  0.55709000  0.87570000  1.0 0.1097424923
H  H110  1  0.44291000  0.59030000  0.20903000  1.0 0.1097424923
H  H111  1  0.40970000  0.85261000  0.54237000  1.0 0.1097424923
H  H112  1  0.85261000  0.44291000  0.37570000  1.0 0.1097424923
H  H113  1  0.55709000  0.40970000  0.70903000  1.0 0.1097424923
H  H114  1  0.59030000  0.14739000  0.04237000  1.0 0.1097424923
H  H115  1  0.55709000  0.14739000  0.45763000  1.0 0.1097424923
H  H116  1  0.59030000  0.44291000  0.12430000  1.0 0.1097424923
H  H117  1  0.85261000  0.40970000  0.79097000  1.0 0.1097424923
H  H118  1  0.44291000  0.85261000  0.95763000  1.0 0.1097424923
H  H119  1  0.40970000  0.55709000  0.62430000  1.0 0.1097424923
H  H120  1  0.14739000  0.59030000  0.29097000  1.0 0.1097424923
H  H121  1  0.17549000  0.53229000  0.83070000  1.0 0.0993230198
H  H122  1  0.46771000  0.64320000  0.16403000  1.0 0.0993230198
H  H123  1  0.35680000  0.82451000  0.49737000  1.0 0.0993230198
H  H124  1  0.82451000  0.46771000  0.33070000  1.0 0.0993230198
H  H125  1  0.53229000  0.35680000  0.66403000  1.0 0.0993230198
H  H126  1  0.64320000  0.17549000  0.99737000  1.0 0.0993230198
H  H127  1  0.53229000  0.17549000  0.50263000  1.0 0.0993230198
H  H128  1  0.64320000  0.46771000  0.16930000  1.0 0.0993230198
H  H129  1  0.82451000  0.35680000  0.83597000  1.0 0.0993230198
H  H130  1  0.46771000  0.82451000  0.00263000  1.0 0.0993230198
H  H131  1  0.35680000  0.53229000  0.66930000  1.0 0.0993230198
H  H132  1  0.17549000  0.64320000  0.33597000  1.0 0.0993230198
H  H133  1  0.36079000  0.42949000  0.05090000  1.0 0.0896736223
H  H134  1  0.57051000  0.93130000  0.38423000  1.0 0.0896736223
H  H135  1  0.06870000  0.63921000  0.71757000  1.0 0.0896736223
H  H136  1  0.63921000  0.57051000  0.55090000  1.0 0.0896736223
H  H137  1  0.42949000  0.06870000  0.88423000  1.0 0.0896736223
H  H138  1  0.93130000  0.36079000  0.21757000  1.0 0.0896736223
H  H139  1  0.42949000  0.36079000  0.28243000  1.0 0.0896736223
H  H140  1  0.93130000  0.57051000  0.94910000  1.0 0.0896736223
H  H141  1  0.63921000  0.06870000  0.61577000  1.0 0.0896736223
H  H142  1  0.57051000  0.63921000  0.78243000  1.0 0.0896736223
H  H143  1  0.06870000  0.42949000  0.44910000  1.0 0.0896736223
H  H144  1  0.36079000  0.93130000  0.11577000  1.0 0.0896736223
H  H145  1  0.35829000  0.49739000  0.06370000  1.0 0.079208403
H  H146  1  0.50261000  0.86090000  0.39703000  1.0 0.079208403
H  H147  1  0.13910000  0.64171000  0.73037000  1.0 0.079208403
H  H148  1  0.64171000  0.50261000  0.56370000  1.0 0.079208403
H  H149  1  0.49739000  0.13910000  0.89703000  1.0 0.079208403
H  H150  1  0.86090000  0.35829000  0.23037000  1.0 0.079208403
H  H151  1  0.49739000  0.35829000  0.26963000  1.0 0.079208403
H  H152  1  0.86090000  0.50261000  0.93630000  1.0 0.079208403
H  H153  1  0.64171000  0.13910000  0.60297000  1.0 0.079208403
H  H154  1  0.50261000  0.64171000  0.76963000  1.0 0.079208403
H  H155  1  0.13910000  0.49739000  0.43630000  1.0 0.079208403
H  H156  1  0.35829000  0.86090000  0.10297000  1.0 0.079208403
H  H157  1  0.30909000  0.42089000  0.12510000  1.0 0.0409549059
H  H158  1  0.57911000  0.88820000  0.45843000  1.0 0.0409549059
H  H159  1  0.11180000  0.69091000  0.79177000  1.0 0.0409549059
H  H160  1  0.69091000  0.57911000  0.62510000  1.0 0.0409549059
H  H161  1  0.42089000  0.11180000  0.95843000  1.0 0.0409549059
H  H162  1  0.88820000  0.30909000  0.29177000  1.0 0.0409549059
H  H163  1  0.42089000  0.30909000  0.20823000  1.0 0.0409549059
H  H164  1  0.88820000  0.57911000  0.87490000  1.0 0.0409549059
H  H165  1  0.69091000  0.11180000  0.54157000  1.0 0.0409549059
H  H166  1  0.57911000  0.69091000  0.70823000  1.0 0.0409549059
H  H167  1  0.11180000  0.42089000  0.37490000  1.0 0.0409549059
H  H168  1  0.30909000  0.88820000  0.04157000  1.0 0.0409549059
H  H169  1  0.24909000  0.42949000  0.09950000  1.0 0.0605698762
H  H170  1  0.57051000  0.81960000  0.43283000  1.0 0.0605698762
H  H171  1  0.18040000  0.75091000  0.76617000  1.0 0.0605698762
H  H172  1  0.75091000  0.57051000  0.59950000  1.0 0.0605698762
H  H173  1  0.42949000  0.18040000  0.93283000  1.0 0.0605698762
H  H174  1  0.81960000  0.24909000  0.26617000  1.0 0.0605698762
H  H175  1  0.42949000  0.24909000  0.23383000  1.0 0.0605698762
H  H176  1  0.81960000  0.57051000  0.90050000  1.0 0.0605698762
H  H177  1  0.75091000  0.18040000  0.56717000  1.0 0.0605698762
H  H178  1  0.57051000  0.75091000  0.73383000  1.0 0.0605698762
H  H179  1  0.18040000  0.42949000  0.40050000  1.0 0.0605698762
H  H180  1  0.24909000  0.81960000  0.06717000  1.0 0.0605698762
H  H181  1  0.27299000  0.31779000  0.07690000  1.0 0.079208403
H  H182  1  0.68221000  0.95520000  0.41023000  1.0 0.079208403
H  H183  1  0.04480000  0.72701000  0.74357000  1.0 0.079208403
H  H184  1  0.72701000  0.68221000  0.57690000  1.0 0.079208403
H  H185  1  0.31779000  0.04480000  0.91023000  1.0 0.079208403
H  H186  1  0.95520000  0.27299000  0.24357000  1.0 0.079208403
H  H187  1  0.31779000  0.27299000  0.25643000  1.0 0.079208403
H  H188  1  0.95520000  0.68221000  0.92310000  1.0 0.079208403
H  H189  1  0.72701000  0.04480000  0.58977000  1.0 0.079208403
H  H190  1  0.68221000  0.72701000  0.75643000  1.0 0.079208403
H  H191  1  0.04480000  0.31779000  0.42310000  1.0 0.079208403
H  H192  1  0.27299000  0.95520000  0.08977000  1.0 0.079208403
H  H193  1  0.20879000  0.32499000  0.05790000  1.0 0.0694500685
H  H194  1  0.67501000  0.88380000  0.39123000  1.0 0.0694500685
H  H195  1  0.11620000  0.79121000  0.72457000  1.0 0.0694500685
H  H196  1  0.79121000  0.67501000  0.55790000  1.0 0.0694500685
H  H197  1  0.32499000  0.11620000  0.89123000  1.0 0.0694500685
H  H198  1  0.88380000  0.20879000  0.22457000  1.0 0.0694500685
H  H199  1  0.32499000  0.20879000  0.27543000  1.0 0.0694500685
H  H200  1  0.88380000  0.67501000  0.94210000  1.0 0.0694500685
H  H201  1  0.79121000  0.11620000  0.60877000  1.0 0.0694500685
H  H202  1  0.67501000  0.79121000  0.77543000  1.0 0.0694500685
H  H203  1  0.11620000  0.32499000  0.44210000  1.0 0.0694500685
H  H204  1  0.20879000  0.88380000  0.10877000  1.0 0.0694500685
H  H205  1  0.17789000  0.24479000  0.12610000  1.0 0.0993230198
H  H206  1  0.75521000  0.93310000  0.45943000  1.0 0.0993230198
H  H207  1  0.06690000  0.82211000  0.79277000  1.0 0.0993230198
H  H208  1  0.82211000  0.75521000  0.62610000  1.0 0.0993230198
H  H209  1  0.24479000  0.06690000  0.95943000  1.0 0.0993230198
H  H210  1  0.93310000  0.17789000  0.29277000  1.0 0.0993230198
H  H211  1  0.24479000  0.17789000  0.20723000  1.0 0.0993230198
H  H212  1  0.93310000  0.75521000  0.87390000  1.0 0.0993230198
H  H213  1  0.82211000  0.06690000  0.54057000  1.0 0.0993230198
H  H214  1  0.75521000  0.82211000  0.70723000  1.0 0.0993230198
H  H215  1  0.06690000  0.24479000  0.37390000  1.0 0.0993230198
H  H216  1  0.17789000  0.93310000  0.04057000  1.0 0.0993230198
H  H217  1  0.16099000  0.30549000  0.13670000  1.0 0.0233841916
H  H218  1  0.69451000  0.85550000  0.47003000  1.0 0.0233841916
H  H219  1  0.14450000  0.83901000  0.80337000  1.0 0.0233841916
H  H220  1  0.83901000  0.69451000  0.63670000  1.0 0.0233841916
H  H221  1  0.30549000  0.14450000  0.97003000  1.0 0.0233841916
H  H222  1  0.85550000  0.16099000  0.30337000  1.0 0.0233841916
H  H223  1  0.30549000  0.16099000  0.19663000  1.0 0.0233841916
H  H224  1  0.85550000  0.69451000  0.86330000  1.0 0.0233841916
H  H225  1  0.83901000  0.14450000  0.52997000  1.0 0.0233841916
H  H226  1  0.69451000  0.83901000  0.69663000  1.0 0.0233841916
H  H227  1  0.14450000  0.30549000  0.36330000  1.0 0.0233841916
H  H228  1  0.16099000  0.85550000  0.02997000  1.0 0.0233841916
H  H229  1  0.22879000  0.30899000  0.15970000  1.0 0.0694500685
H  H230  1  0.69101000  0.91980000  0.49303000  1.0 0.0694500685
H  H231  1  0.08020000  0.77121000  0.82637000  1.0 0.0694500685
H  H232  1  0.77121000  0.69101000  0.65970000  1.0 0.0694500685
H  H233  1  0.30899000  0.08020000  0.99303000  1.0 0.0694500685
H  H234  1  0.91980000  0.22879000  0.32637000  1.0 0.0694500685
H  H235  1  0.30899000  0.22879000  0.17363000  1.0 0.0694500685
H  H236  1  0.91980000  0.69101000  0.84030000  1.0 0.0694500685
H  H237  1  0.77121000  0.08020000  0.50697000  1.0 0.0694500685
H  H238  1  0.69101000  0.77121000  0.67363000  1.0 0.0694500685
H  H239  1  0.08020000  0.30899000  0.34030000  1.0 0.0694500685
H  H240  1  0.22879000  0.91980000  0.00697000  1.0 0.0694500685
H  H241  1  0.20909000  0.33379000  0.94060000  1.0 0.0605698762
H  H242  1  0.66621000  0.87530000  0.27393000  1.0 0.0605698762
H  H243  1  0.12470000  0.79091000  0.60727000  1.0 0.0605698762
H  H244  1  0.79091000  0.66621000  0.44060000  1.0 0.0605698762
H  H245  1  0.33379000  0.12470000  0.77393000  1.0 0.0605698762
H  H246  1  0.87530000  0.20909000  0.10727000  1.0 0.0605698762
H  H247  1  0.33379000  0.20909000  0.39273000  1.0 0.0605698762
H  H248  1  0.87530000  0.66621000  0.05940000  1.0 0.0605698762
H  H249  1  0.79091000  0.12470000  0.72607000  1.0 0.0605698762
H  H250  1  0.66621000  0.79091000  0.89273000  1.0 0.0605698762
H  H251  1  0.12470000  0.33379000  0.55940000  1.0 0.0605698762
H  H252  1  0.20909000  0.87530000  0.22607000  1.0 0.0605698762
H  H253  1  0.26959000  0.37359000  0.90110000  1.0 0.0993230198
H  H254  1  0.62641000  0.89600000  0.23443000  1.0 0.0993230198
H  H255  1  0.10400000  0.73041000  0.56777000  1.0 0.0993230198
H  H256  1  0.73041000  0.62641000  0.40110000  1.0 0.0993230198
H  H257  1  0.37359000  0.10400000  0.73443000  1.0 0.0993230198
H  H258  1  0.89600000  0.26959000  0.06777000  1.0 0.0993230198
H  H259  1  0.37359000  0.26959000  0.43223000  1.0 0.0993230198
H  H260  1  0.89600000  0.62641000  0.09890000  1.0 0.0993230198
H  H261  1  0.73041000  0.10400000  0.76557000  1.0 0.0993230198
H  H262  1  0.62641000  0.73041000  0.93223000  1.0 0.0993230198
H  H263  1  0.10400000  0.37359000  0.59890000  1.0 0.0993230198
H  H264  1  0.26959000  0.89600000  0.26557000  1.0 0.0993230198
H  H265  1  0.27889000  0.30569000  0.98510000  1.0 0.079208403
H  H266  1  0.69431000  0.97320000  0.31843000  1.0 0.079208403
H  H267  1  0.02680000  0.72111000  0.65177000  1.0 0.079208403
H  H268  1  0.72111000  0.69431000  0.48510000  1.0 0.079208403
H  H269  1  0.30569000  0.02680000  0.81843000  1.0 0.079208403
H  H270  1  0.97320000  0.27889000  0.15177000  1.0 0.079208403
H  H271  1  0.30569000  0.27889000  0.34823000  1.0 0.079208403
H  H272  1  0.97320000  0.69431000  0.01490000  1.0 0.079208403
H  H273  1  0.72111000  0.02680000  0.68157000  1.0 0.079208403
H  H274  1  0.69431000  0.72111000  0.84823000  1.0 0.079208403
H  H275  1  0.02680000  0.30569000  0.51490000  1.0 0.079208403
H  H276  1  0.27889000  0.97320000  0.18157000  1.0 0.079208403
H  H277  1  0.34259000  0.34989000  0.94960000  1.0 0.0694500685
H  H278  1  0.65011000  0.99270000  0.28293000  1.0 0.0694500685
H  H279  1  0.00730000  0.65741000  0.61627000  1.0 0.0694500685
H  H280  1  0.65741000  0.65011000  0.44960000  1.0 0.0694500685
H  H281  1  0.34989000  0.00730000  0.78293000  1.0 0.0694500685
H  H282  1  0.99270000  0.34259000  0.11627000  1.0 0.0694500685
H  H283  1  0.34989000  0.34259000  0.38373000  1.0 0.0694500685
H  H284  1  0.99270000  0.65011000  0.05040000  1.0 0.0694500685
H  H285  1  0.65741000  0.00730000  0.71707000  1.0 0.0694500685
H  H286  1  0.65011000  0.65741000  0.88373000  1.0 0.0694500685
H  H287  1  0.00730000  0.34989000  0.55040000  1.0 0.0694500685
H  H288  1  0.34259000  0.99270000  0.21707000  1.0 0.0694500685
H  H289  1  0.28959000  0.26629000  0.88840000  1.0 0.079208403
H  H290  1  0.73371000  0.02330000  0.22173000  1.0 0.079208403
H  H291  1  0.97670000  0.71041000  0.55507000  1.0 0.079208403
H  H292  1  0.71041000  0.73371000  0.38840000  1.0 0.079208403
H  H293  1  0.26629000  0.97670000  0.72173000  1.0 0.079208403
H  H294  1  0.02330000  0.28959000  0.05507000  1.0 0.079208403
H  H295  1  0.26629000  0.28959000  0.44493000  1.0 0.079208403
H  H296  1  0.02330000  0.73371000  0.11160000  1.0 0.079208403
H  H297  1  0.71041000  0.97670000  0.77827000  1.0 0.079208403
H  H298  1  0.73371000  0.71041000  0.94493000  1.0 0.079208403
H  H299  1  0.97670000  0.26629000  0.61160000  1.0 0.079208403
H  H300  1  0.28959000  0.02330000  0.27827000  1.0 0.079208403
H  H301  1  0.22369000  0.22219000  0.92290000  1.0 0.0605698762
H  H302  1  0.77781000  0.00150000  0.25623000  1.0 0.0605698762
H  H303  1  0.99850000  0.77631000  0.58957000  1.0 0.0605698762
H  H304  1  0.77631000  0.77781000  0.42290000  1.0 0.0605698762
H  H305  1  0.22219000  0.99850000  0.75623000  1.0 0.0605698762
H  H306  1  0.00150000  0.22369000  0.08957000  1.0 0.0605698762
H  H307  1  0.22219000  0.22369000  0.41043000  1.0 0.0605698762
H  H308  1  0.00150000  0.77781000  0.07710000  1.0 0.0605698762
H  H309  1  0.77631000  0.99850000  0.74377000  1.0 0.0605698762
H  H310  1  0.77781000  0.77631000  0.91043000  1.0 0.0605698762
H  H311  1  0.99850000  0.22219000  0.57710000  1.0 0.0605698762
H  H312  1  0.22369000  0.00150000  0.24377000  1.0 0.0605698762
H  H313  1  0.25809000  0.15989000  0.89880000  1.0 0.079208403
H  H314  1  0.84011000  0.09820000  0.23213000  1.0 0.0896736223
H  H315  1  0.90180000  0.74191000  0.56547000  1.0 0.0896736223
H  H316  1  0.74191000  0.84011000  0.39880000  1.0 0.0896736223
H  H317  1  0.15989000  0.90180000  0.73213000  1.0 0.079208403
H  H318  1  0.09820000  0.25809000  0.06547000  1.0 0.0896736223
H  H319  1  0.15989000  0.25809000  0.43453000  1.0 0.0896736223
H  H320  1  0.09820000  0.84011000  0.10120000  1.0 0.079208403
H  H321  1  0.74191000  0.90180000  0.76787000  1.0 0.0896736223
H  H322  1  0.84011000  0.74191000  0.93453000  1.0 0.0896736223
H  H323  1  0.90180000  0.15989000  0.60120000  1.0 0.0896736223
H  H324  1  0.25809000  0.09820000  0.26787000  1.0 0.0896736223
H  H325  1  0.28459000  0.18789000  0.95270000  1.0 0.0409549059
H  H326  1  0.81211000  0.09670000  0.28603000  1.0 0.0409549059
H  H327  1  0.90330000  0.71541000  0.61937000  1.0 0.0409549059
H  H328  1  0.71541000  0.81211000  0.45270000  1.0 0.0409549059
H  H329  1  0.18789000  0.90330000  0.78603000  1.0 0.0409549059
H  H330  1  0.09670000  0.28459000  0.11937000  1.0 0.0409549059
H  H331  1  0.18789000  0.28459000  0.38063000  1.0 0.0409549059
H  H332  1  0.09670000  0.81211000  0.04730000  1.0 0.0409549059
H  H333  1  0.71541000  0.90330000  0.71397000  1.0 0.0409549059
H  H334  1  0.81211000  0.71541000  0.88063000  1.0 0.0409549059
H  H335  1  0.90330000  0.18789000  0.54730000  1.0 0.0409549059
H  H336  1  0.28459000  0.09670000  0.21397000  1.0 0.0409549059
H  H337  1  0.33209000  0.22809000  0.90670000  1.0 0.0493168358
H  H338  1  0.77191000  0.10400000  0.24003000  1.0 0.0493168358
H  H339  1  0.89600000  0.66791000  0.57337000  1.0 0.0493168358
H  H340  1  0.66791000  0.77191000  0.40670000  1.0 0.0493168358
H  H341  1  0.22809000  0.89600000  0.74003000  1.0 0.0493168358
H  H342  1  0.10400000  0.33209000  0.07337000  1.0 0.0493168358
H  H343  1  0.22809000  0.33209000  0.42663000  1.0 0.0493168358
H  H344  1  0.10400000  0.77191000  0.09330000  1.0 0.0493168358
H  H345  1  0.66791000  0.89600000  0.75997000  1.0 0.0493168358
H  H346  1  0.77191000  0.66791000  0.92663000  1.0 0.0493168358
H  H347  1  0.89600000  0.22809000  0.59330000  1.0 0.0493168358
H  H348  1  0.33209000  0.10400000  0.25997000  1.0 0.0493168358
H  H349  1  0.55569000  0.29899000  0.98420000  1.0 0.0896736223
H  H350  1  0.70101000  0.25670000  0.31753000  1.0 0.079208403
H  H351  1  0.74330000  0.44431000  0.65087000  1.0 0.0896736223
H  H352  1  0.44431000  0.70101000  0.48420000  1.0 0.0896736223
H  H353  1  0.29899000  0.74330000  0.81753000  1.0 0.0896736223
H  H354  1  0.25670000  0.55569000  0.15087000  1.0 0.0896736223
H  H355  1  0.29899000  0.55569000  0.34913000  1.0 0.0896736223
H  H356  1  0.25670000  0.70101000  0.01580000  1.0 0.0896736223
H  H357  1  0.44431000  0.74330000  0.68247000  1.0 0.0896736223
H  H358  1  0.70101000  0.44431000  0.84913000  1.0 0.0896736223
H  H359  1  0.74330000  0.29899000  0.51580000  1.0 0.0896736223
H  H360  1  0.55569000  0.25670000  0.18247000  1.0 0.079208403
H  H361  1  0.60099000  0.37209000  0.01070000  1.0 0.130719715
H  H362  1  0.62791000  0.22890000  0.34403000  1.0 0.130719715
H  H363  1  0.77110000  0.39901000  0.67737000  1.0 0.130719715
H  H364  1  0.39901000  0.62791000  0.51070000  1.0 0.130719715
H  H365  1  0.37209000  0.77110000  0.84403000  1.0 0.130719715
H  H366  1  0.22890000  0.60099000  0.17737000  1.0 0.130719715
H  H367  1  0.37209000  0.60099000  0.32263000  1.0 0.130719715
H  H368  1  0.22890000  0.62791000  0.98930000  1.0 0.130719715
H  H369  1  0.39901000  0.77110000  0.65597000  1.0 0.130719715
H  H370  1  0.62791000  0.39901000  0.82263000  1.0 0.130719715
H  H371  1  0.77110000  0.37209000  0.48930000  1.0 0.130719715
H  H372  1  0.60099000  0.22890000  0.15597000  1.0 0.130719715
H  H373  1  0.50979000  0.39329000  0.00870000  1.0 0.0605698762
H  H374  1  0.60671000  0.11650000  0.34203000  1.0 0.0605698762
H  H375  1  0.88350000  0.49021000  0.67537000  1.0 0.0605698762
H  H376  1  0.49021000  0.60671000  0.50870000  1.0 0.0605698762
H  H377  1  0.39329000  0.88350000  0.84203000  1.0 0.0605698762
H  H378  1  0.11650000  0.50979000  0.17537000  1.0 0.0605698762
H  H379  1  0.39329000  0.50979000  0.32463000  1.0 0.0605698762
H  H380  1  0.11650000  0.60671000  0.99130000  1.0 0.0605698762
H  H381  1  0.49021000  0.88350000  0.65797000  1.0 0.0605698762
H  H382  1  0.60671000  0.49021000  0.82463000  1.0 0.0605698762
H  H383  1  0.88350000  0.39329000  0.49130000  1.0 0.0605698762
H  H384  1  0.50979000  0.11650000  0.15797000  1.0 0.0605698762
H  H385  1  0.46469000  0.32599000  0.97600000  1.0 0.0605698762
H  H386  1  0.67401000  0.13870000  0.30933000  1.0 0.0605698762
H  H387  1  0.86130000  0.53531000  0.64267000  1.0 0.0605698762
H  H388  1  0.53531000  0.67401000  0.47600000  1.0 0.0605698762
H  H389  1  0.32599000  0.86130000  0.80933000  1.0 0.0605698762
H  H390  1  0.13870000  0.46469000  0.14267000  1.0 0.0605698762
H  H391  1  0.32599000  0.46469000  0.35733000  1.0 0.0605698762
H  H392  1  0.13870000  0.67401000  0.02400000  1.0 0.0605698762
H  H393  1  0.53531000  0.86130000  0.69067000  1.0 0.0605698762
H  H394  1  0.67401000  0.53531000  0.85733000  1.0 0.0605698762
H  H395  1  0.86130000  0.32599000  0.52400000  1.0 0.0605698762
H  H396  1  0.46469000  0.13870000  0.19067000  1.0 0.0605698762
H  H397  1  0.50639000  0.31199000  0.07060000  1.0 0.0993230198
H  H398  1  0.68801000  0.19440000  0.40393000  1.0 0.0993230198
H  H399  1  0.80560000  0.49361000  0.73727000  1.0 0.0993230198
H  H400  1  0.49361000  0.68801000  0.57060000  1.0 0.0993230198
H  H401  1  0.31199000  0.80560000  0.90393000  1.0 0.0993230198
H  H402  1  0.19440000  0.50639000  0.23727000  1.0 0.0993230198
H  H403  1  0.31199000  0.50639000  0.26273000  1.0 0.0993230198
H  H404  1  0.19440000  0.68801000  0.92940000  1.0 0.0993230198
H  H405  1  0.49361000  0.80560000  0.59607000  1.0 0.0993230198
H  H406  1  0.68801000  0.49361000  0.76273000  1.0 0.0993230198
H  H407  1  0.80560000  0.31199000  0.42940000  1.0 0.0993230198
H  H408  1  0.50639000  0.19440000  0.09607000  1.0 0.0993230198
H  H409  1  0.44479000  0.25319000  0.03890000  1.0 0.0493168358
H  H410  1  0.74681000  0.19160000  0.37223000  1.0 0.0493168358
H  H411  1  0.80840000  0.55521000  0.70557000  1.0 0.0493168358
H  H412  1  0.55521000  0.74681000  0.53890000  1.0 0.0493168358
H  H413  1  0.25319000  0.80840000  0.87223000  1.0 0.0493168358
H  H414  1  0.19160000  0.44479000  0.20557000  1.0 0.0493168358
H  H415  1  0.25319000  0.44479000  0.29443000  1.0 0.0493168358
H  H416  1  0.19160000  0.74681000  0.96110000  1.0 0.0493168358
H  H417  1  0.55521000  0.80840000  0.62777000  1.0 0.0493168358
H  H418  1  0.74681000  0.55521000  0.79443000  1.0 0.0493168358
H  H419  1  0.80840000  0.25319000  0.46110000  1.0 0.0493168358
H  H420  1  0.44479000  0.19160000  0.12777000  1.0 0.0493168358
H  H421  1  0.38529000  0.27899000  0.09450000  1.0 0.0409549059
H  H422  1  0.72101000  0.10630000  0.42783000  1.0 0.0409549059
H  H423  1  0.89370000  0.61471000  0.76117000  1.0 0.0409549059
H  H424  1  0.61471000  0.72101000  0.59450000  1.0 0.0409549059
H  H425  1  0.27899000  0.89370000  0.92783000  1.0 0.0409549059
H  H426  1  0.10630000  0.38529000  0.26117000  1.0 0.0409549059
H  H427  1  0.27899000  0.38529000  0.23883000  1.0 0.0409549059
H  H428  1  0.10630000  0.72101000  0.90550000  1.0 0.0409549059
H  H429  1  0.61471000  0.89370000  0.57217000  1.0 0.0409549059
H  H430  1  0.72101000  0.61471000  0.73883000  1.0 0.0409549059
H  H431  1  0.89370000  0.27899000  0.40550000  1.0 0.0409549059
H  H432  1  0.38529000  0.10630000  0.07217000  1.0 0.0409549059
H  H433  1  0.38809000  0.32599000  0.04950000  1.0 0.0605698762
H  H434  1  0.67401000  0.06210000  0.38283000  1.0 0.0605698762
H  H435  1  0.93790000  0.61191000  0.71617000  1.0 0.0605698762
H  H436  1  0.61191000  0.67401000  0.54950000  1.0 0.0605698762
H  H437  1  0.32599000  0.93790000  0.88283000  1.0 0.0605698762
H  H438  1  0.06210000  0.38809000  0.21617000  1.0 0.0605698762
H  H439  1  0.32599000  0.38809000  0.28383000  1.0 0.0605698762
H  H440  1  0.06210000  0.67401000  0.95050000  1.0 0.0605698762
H  H441  1  0.61191000  0.93790000  0.61717000  1.0 0.0605698762
H  H442  1  0.67401000  0.61191000  0.78383000  1.0 0.0605698762
H  H443  1  0.93790000  0.32599000  0.45050000  1.0 0.0605698762
H  H444  1  0.38809000  0.06210000  0.11717000  1.0 0.0605698762
H  H445  1  0.44109000  0.36019000  0.09390000  1.0 0.0694500685
H  H446  1  0.63981000  0.08090000  0.42723000  1.0 0.0694500685
H  H447  1  0.91910000  0.55891000  0.76057000  1.0 0.0694500685
H  H448  1  0.55891000  0.63981000  0.59390000  1.0 0.0694500685
H  H449  1  0.36019000  0.91910000  0.92723000  1.0 0.0694500685
H  H450  1  0.08090000  0.44109000  0.26057000  1.0 0.0694500685
H  H451  1  0.36019000  0.44109000  0.23943000  1.0 0.0694500685
H  H452  1  0.08090000  0.63981000  0.90610000  1.0 0.0694500685
H  H453  1  0.55891000  0.91910000  0.57277000  1.0 0.0694500685
H  H454  1  0.63981000  0.55891000  0.73943000  1.0 0.0694500685
H  H455  1  0.91910000  0.36019000  0.40610000  1.0 0.0694500685
H  H456  1  0.44109000  0.08090000  0.07277000  1.0 0.0694500685
H  H457  1  0.38499000  0.46499000  0.06080000  1.0 0.0694500685
H  H458  1  0.53501000  0.92000000  0.39413000  1.0 0.0694500685
H  H459  1  0.08000000  0.61501000  0.72747000  1.0 0.0694500685
H  H460  1  0.61501000  0.53501000  0.56080000  1.0 0.0694500685
H  H461  1  0.46499000  0.08000000  0.89413000  1.0 0.0694500685
H  H462  1  0.92000000  0.38499000  0.22747000  1.0 0.0694500685
H  H463  1  0.46499000  0.38499000  0.27253000  1.0 0.0694500685
H  H464  1  0.92000000  0.53501000  0.93920000  1.0 0.0694500685
H  H465  1  0.61501000  0.08000000  0.60587000  1.0 0.0694500685
H  H466  1  0.53501000  0.61501000  0.77253000  1.0 0.0694500685
H  H467  1  0.08000000  0.46499000  0.43920000  1.0 0.0694500685
H  H468  1  0.38499000  0.92000000  0.10587000  1.0 0.0694500685
H  H469  1  0.34519000  0.50619000  0.07470000  1.0 0.0896736223
H  H470  1  0.49381000  0.83900000  0.40803000  1.0 0.0896736223
H  H471  1  0.16100000  0.65481000  0.74137000  1.0 0.0896736223
H  H472  1  0.65481000  0.49381000  0.57470000  1.0 0.0896736223
H  H473  1  0.50619000  0.16100000  0.90803000  1.0 0.0896736223
H  H474  1  0.83900000  0.34519000  0.24137000  1.0 0.0896736223
H  H475  1  0.50619000  0.34519000  0.25863000  1.0 0.0896736223
H  H476  1  0.83900000  0.49381000  0.92530000  1.0 0.0896736223
H  H477  1  0.65481000  0.16100000  0.59197000  1.0 0.0896736223
H  H478  1  0.49381000  0.65481000  0.75863000  1.0 0.0896736223
H  H479  1  0.16100000  0.50619000  0.42530000  1.0 0.0896736223
H  H480  1  0.34519000  0.83900000  0.09197000  1.0 0.0896736223
H  H481  1  0.24019000  0.40039000  0.08600000  1.0 0.079208403
H  H482  1  0.59961000  0.83980000  0.41933000  1.0 0.079208403
H  H483  1  0.16020000  0.75981000  0.75267000  1.0 0.079208403
H  H484  1  0.75981000  0.59961000  0.58600000  1.0 0.079208403
H  H485  1  0.40039000  0.16020000  0.91933000  1.0 0.079208403
H  H486  1  0.83980000  0.24019000  0.25267000  1.0 0.079208403
H  H487  1  0.40039000  0.24019000  0.24733000  1.0 0.079208403
H  H488  1  0.83980000  0.59961000  0.91400000  1.0 0.079208403
H  H489  1  0.75981000  0.16020000  0.58067000  1.0 0.079208403
H  H490  1  0.59961000  0.75981000  0.74733000  1.0 0.079208403
H  H491  1  0.16020000  0.40039000  0.41400000  1.0 0.079208403
H  H492  1  0.24019000  0.83980000  0.08067000  1.0 0.079208403
H  H493  1  0.27569000  0.35719000  0.06770000  1.0 0.0493168358
H  H494  1  0.64281000  0.91850000  0.40103000  1.0 0.0493168358
H  H495  1  0.08150000  0.72431000  0.73437000  1.0 0.0493168358
H  H496  1  0.72431000  0.64281000  0.56770000  1.0 0.0493168358
H  H497  1  0.35719000  0.08150000  0.90103000  1.0 0.0493168358
H  H498  1  0.91850000  0.27569000  0.23437000  1.0 0.0493168358
H  H499  1  0.35719000  0.27569000  0.26563000  1.0 0.0493168358
H  H500  1  0.91850000  0.64281000  0.93230000  1.0 0.0493168358
H  H501  1  0.72431000  0.08150000  0.59897000  1.0 0.0493168358
H  H502  1  0.64281000  0.72431000  0.76563000  1.0 0.0493168358
H  H503  1  0.08150000  0.35719000  0.43230000  1.0 0.0493168358
H  H504  1  0.27569000  0.91850000  0.09897000  1.0 0.0493168358
H  H505  1  0.32209000  0.43969000  0.15350000  1.0 0.079208403
H  H506  1  0.56031000  0.88240000  0.48683000  1.0 0.079208403
H  H507  1  0.11760000  0.67791000  0.82017000  1.0 0.079208403
H  H508  1  0.67791000  0.56031000  0.65350000  1.0 0.079208403
H  H509  1  0.43969000  0.11760000  0.98683000  1.0 0.079208403
H  H510  1  0.88240000  0.32209000  0.32017000  1.0 0.079208403
H  H511  1  0.43969000  0.32209000  0.17983000  1.0 0.079208403
H  H512  1  0.88240000  0.56031000  0.84650000  1.0 0.079208403
H  H513  1  0.67791000  0.11760000  0.51317000  1.0 0.079208403
H  H514  1  0.56031000  0.67791000  0.67983000  1.0 0.079208403
H  H515  1  0.11760000  0.43969000  0.34650000  1.0 0.079208403
H  H516  1  0.32209000  0.88240000  0.01317000  1.0 0.079208403
H  H517  1  0.34189000  0.38309000  0.13700000  1.0 0.079208403
H  H518  1  0.61691000  0.95880000  0.47033000  1.0 0.079208403
H  H519  1  0.04120000  0.65811000  0.80367000  1.0 0.079208403
H  H520  1  0.65811000  0.61691000  0.63700000  1.0 0.079208403
H  H521  1  0.38309000  0.04120000  0.97033000  1.0 0.079208403
H  H522  1  0.95880000  0.34189000  0.30367000  1.0 0.079208403
H  H523  1  0.38309000  0.34189000  0.19633000  1.0 0.079208403
H  H524  1  0.95880000  0.61691000  0.86300000  1.0 0.079208403
H  H525  1  0.65811000  0.04120000  0.52967000  1.0 0.079208403
H  H526  1  0.61691000  0.65811000  0.69633000  1.0 0.079208403
H  H527  1  0.04120000  0.38309000  0.36300000  1.0 0.079208403
H  H528  1  0.34189000  0.95880000  0.02967000  1.0 0.079208403
H  H529  1  0.26079000  0.34469000  0.20400000  1.0 0.0694500685
H  H530  1  0.65531000  0.91610000  0.53733000  1.0 0.0694500685
H  H531  1  0.08390000  0.73921000  0.87067000  1.0 0.0694500685
H  H532  1  0.73921000  0.65531000  0.70400000  1.0 0.0694500685
H  H533  1  0.34469000  0.08390000  0.03733000  1.0 0.0694500685
H  H534  1  0.91610000  0.26079000  0.37067000  1.0 0.0694500685
H  H535  1  0.34469000  0.26079000  0.12933000  1.0 0.0694500685
H  H536  1  0.91610000  0.65531000  0.79600000  1.0 0.0694500685
H  H537  1  0.73921000  0.08390000  0.46267000  1.0 0.0694500685
H  H538  1  0.65531000  0.73921000  0.62933000  1.0 0.0694500685
H  H539  1  0.08390000  0.34469000  0.29600000  1.0 0.0694500685
H  H540  1  0.26079000  0.91610000  0.96267000  1.0 0.0694500685
H  H541  1  0.23229000  0.29239000  0.15880000  1.0 0.0896736223
H  H542  1  0.70761000  0.93990000  0.49213000  1.0 0.0896736223
H  H543  1  0.06010000  0.76771000  0.82547000  1.0 0.0896736223
H  H544  1  0.76771000  0.70761000  0.65880000  1.0 0.0896736223
H  H545  1  0.29239000  0.06010000  0.99213000  1.0 0.0896736223
H  H546  1  0.93990000  0.23229000  0.32547000  1.0 0.0896736223
H  H547  1  0.29239000  0.23229000  0.17453000  1.0 0.0896736223
H  H548  1  0.93990000  0.70761000  0.84120000  1.0 0.0896736223
H  H549  1  0.76771000  0.06010000  0.50787000  1.0 0.0896736223
H  H550  1  0.70761000  0.76771000  0.67453000  1.0 0.0896736223
H  H551  1  0.06010000  0.29239000  0.34120000  1.0 0.0896736223
H  H552  1  0.23229000  0.93990000  0.00787000  1.0 0.0896736223
H  H553  1  0.20429000  0.34519000  0.16810000  1.0 0.0694500685
H  H554  1  0.65481000  0.85910000  0.50143000  1.0 0.0694500685
H  H555  1  0.14090000  0.79571000  0.83477000  1.0 0.0694500685
H  H556  1  0.79571000  0.65481000  0.66810000  1.0 0.0694500685
H  H557  1  0.34519000  0.14090000  0.00143000  1.0 0.0694500685
H  H558  1  0.85910000  0.20429000  0.33477000  1.0 0.0694500685
H  H559  1  0.34519000  0.20429000  0.16523000  1.0 0.0694500685
H  H560  1  0.85910000  0.65481000  0.83190000  1.0 0.0694500685
H  H561  1  0.79571000  0.14090000  0.49857000  1.0 0.0694500685
H  H562  1  0.65481000  0.79571000  0.66523000  1.0 0.0694500685
H  H563  1  0.14090000  0.34519000  0.33190000  1.0 0.0694500685
H  H564  1  0.20429000  0.85910000  0.99857000  1.0 0.0694500685
H  H565  1  0.21709000  0.33239000  0.96350000  1.0 0.079208403
H  H566  1  0.66761000  0.88470000  0.29683000  1.0 0.079208403
H  H567  1  0.11530000  0.78291000  0.63017000  1.0 0.079208403
H  H568  1  0.78291000  0.66761000  0.46350000  1.0 0.079208403
H  H569  1  0.33239000  0.11530000  0.79683000  1.0 0.079208403
H  H570  1  0.88470000  0.21709000  0.13017000  1.0 0.079208403
H  H571  1  0.33239000  0.21709000  0.36983000  1.0 0.079208403
H  H572  1  0.88470000  0.66761000  0.03650000  1.0 0.079208403
H  H573  1  0.78291000  0.11530000  0.70317000  1.0 0.079208403
H  H574  1  0.66761000  0.78291000  0.86983000  1.0 0.079208403
H  H575  1  0.11530000  0.33239000  0.53650000  1.0 0.079208403
H  H576  1  0.21709000  0.88470000  0.20317000  1.0 0.079208403
H  H577  1  0.25619000  0.36789000  0.91480000  1.0 0.079208403
H  H578  1  0.63211000  0.88830000  0.24813000  1.0 0.079208403
H  H579  1  0.11170000  0.74381000  0.58147000  1.0 0.079208403
H  H580  1  0.74381000  0.63211000  0.41480000  1.0 0.079208403
H  H581  1  0.36789000  0.11170000  0.74813000  1.0 0.079208403
H  H582  1  0.88830000  0.25619000  0.08147000  1.0 0.079208403
H  H583  1  0.36789000  0.25619000  0.41853000  1.0 0.079208403
H  H584  1  0.88830000  0.63211000  0.08520000  1.0 0.079208403
H  H585  1  0.74381000  0.11170000  0.75187000  1.0 0.079208403
H  H586  1  0.63211000  0.74381000  0.91853000  1.0 0.079208403
H  H587  1  0.11170000  0.36789000  0.58520000  1.0 0.079208403
H  H588  1  0.25619000  0.88830000  0.25187000  1.0 0.079208403
H  H589  1  0.29299000  0.29649000  0.97980000  1.0 0.079208403
H  H590  1  0.70351000  0.99650000  0.31313000  1.0 0.079208403
H  H591  1  0.00350000  0.70701000  0.64647000  1.0 0.079208403
H  H592  1  0.70701000  0.70351000  0.47980000  1.0 0.079208403
H  H593  1  0.29649000  0.00350000  0.81313000  1.0 0.079208403
H  H594  1  0.99650000  0.29299000  0.14647000  1.0 0.079208403
H  H595  1  0.29649000  0.29299000  0.35353000  1.0 0.079208403
H  H596  1  0.99650000  0.70351000  0.02020000  1.0 0.079208403
H  H597  1  0.70701000  0.00350000  0.68687000  1.0 0.079208403
H  H598  1  0.70351000  0.70701000  0.85353000  1.0 0.079208403
H  H599  1  0.00350000  0.29649000  0.52020000  1.0 0.079208403
H  H600  1  0.29299000  0.99650000  0.18687000  1.0 0.079208403
H  H601  1  0.33819000  0.33679000  0.93340000  1.0 0.0694500685
H  H602  1  0.66321000  0.00140000  0.26673000  1.0 0.0694500685
H  H603  1  0.99860000  0.66181000  0.60007000  1.0 0.079208403
H  H604  1  0.66181000  0.66321000  0.43340000  1.0 0.0694500685
H  H605  1  0.33679000  0.99860000  0.76673000  1.0 0.079208403
H  H606  1  0.00140000  0.33819000  0.10007000  1.0 0.0694500685
H  H607  1  0.33679000  0.33819000  0.39993000  1.0 0.079208403
H  H608  1  0.00140000  0.66321000  0.06660000  1.0 0.0694500685
H  H609  1  0.66181000  0.99860000  0.73327000  1.0 0.079208403
H  H610  1  0.66321000  0.66181000  0.89993000  1.0 0.079208403
H  H611  1  0.99860000  0.33679000  0.56660000  1.0 0.0694500685
H  H612  1  0.33819000  0.00140000  0.23327000  1.0 0.0694500685
H  H613  1  0.24909000  0.25929000  0.88160000  1.0 0.0409549059
H  H614  1  0.74071000  0.98980000  0.21493000  1.0 0.0409549059
H  H615  1  0.01020000  0.75091000  0.54827000  1.0 0.0409549059
H  H616  1  0.75091000  0.74071000  0.38160000  1.0 0.0409549059
H  H617  1  0.25929000  0.01020000  0.71493000  1.0 0.0409549059
H  H618  1  0.98980000  0.24909000  0.04827000  1.0 0.0409549059
H  H619  1  0.25929000  0.24909000  0.45173000  1.0 0.0409549059
H  H620  1  0.98980000  0.74071000  0.11840000  1.0 0.0409549059
H  H621  1  0.75091000  0.01020000  0.78507000  1.0 0.0409549059
H  H622  1  0.74071000  0.75091000  0.95173000  1.0 0.0409549059
H  H623  1  0.01020000  0.25929000  0.61840000  1.0 0.0409549059
H  H624  1  0.24909000  0.98980000  0.28507000  1.0 0.0409549059
H  H625  1  0.20199000  0.21949000  0.92790000  1.0 0.079208403
H  H626  1  0.78051000  0.98250000  0.26123000  1.0 0.079208403
H  H627  1  0.01750000  0.79801000  0.59457000  1.0 0.079208403
H  H628  1  0.79801000  0.78051000  0.42790000  1.0 0.079208403
H  H629  1  0.21949000  0.01750000  0.76123000  1.0 0.079208403
H  H630  1  0.98250000  0.20199000  0.09457000  1.0 0.079208403
H  H631  1  0.21949000  0.20199000  0.40543000  1.0 0.079208403
H  H632  1  0.98250000  0.78051000  0.07210000  1.0 0.079208403
H  H633  1  0.79801000  0.01750000  0.73877000  1.0 0.079208403
H  H634  1  0.78051000  0.79801000  0.90543000  1.0 0.079208403
H  H635  1  0.01750000  0.21949000  0.57210000  1.0 0.079208403
H  H636  1  0.20199000  0.98250000  0.23877000  1.0 0.079208403
H  H637  1  0.29399000  0.17249000  0.92890000  1.0 0.0295998372
H  H638  1  0.82751000  0.12150000  0.26223000  1.0 0.0295998372
H  H639  1  0.87850000  0.70601000  0.59557000  1.0 0.0295998372
H  H640  1  0.70601000  0.82751000  0.42890000  1.0 0.0295998372
H  H641  1  0.17249000  0.87850000  0.76223000  1.0 0.0295998372
H  H642  1  0.12150000  0.29399000  0.09557000  1.0 0.0295998372
H  H643  1  0.17249000  0.29399000  0.40443000  1.0 0.0295998372
H  H644  1  0.12150000  0.82751000  0.07110000  1.0 0.0295998372
H  H645  1  0.70601000  0.87850000  0.73777000  1.0 0.0295998372
H  H646  1  0.82751000  0.70601000  0.90443000  1.0 0.0295998372
H  H647  1  0.87850000  0.17249000  0.57110000  1.0 0.0295998372
H  H648  1  0.29399000  0.12150000  0.23777000  1.0 0.0295998372
H  H649  1  0.29989000  0.20989000  0.97990000  1.0 0.079208403
H  H650  1  0.79011000  0.09000000  0.31323000  1.0 0.079208403
H  H651  1  0.91000000  0.70011000  0.64657000  1.0 0.079208403
H  H652  1  0.70011000  0.79011000  0.47990000  1.0 0.079208403
H  H653  1  0.20989000  0.91000000  0.81323000  1.0 0.079208403
H  H654  1  0.09000000  0.29989000  0.14657000  1.0 0.079208403
H  H655  1  0.20989000  0.29989000  0.35343000  1.0 0.079208403
H  H656  1  0.09000000  0.79011000  0.02010000  1.0 0.079208403
H  H657  1  0.70011000  0.91000000  0.68677000  1.0 0.079208403
H  H658  1  0.79011000  0.70011000  0.85343000  1.0 0.079208403
H  H659  1  0.91000000  0.20989000  0.52010000  1.0 0.079208403
H  H660  1  0.29989000  0.09000000  0.18677000  1.0 0.079208403
H  H661  1  0.36079000  0.24609000  0.94060000  1.0 0.079208403
H  H662  1  0.75391000  0.11470000  0.27393000  1.0 0.079208403
H  H663  1  0.88530000  0.63921000  0.60727000  1.0 0.079208403
H  H664  1  0.63921000  0.75391000  0.44060000  1.0 0.079208403
H  H665  1  0.24609000  0.88530000  0.77393000  1.0 0.079208403
H  H666  1  0.11470000  0.36079000  0.10727000  1.0 0.079208403
H  H667  1  0.24609000  0.36079000  0.39273000  1.0 0.079208403
H  H668  1  0.11470000  0.75391000  0.05940000  1.0 0.079208403
H  H669  1  0.63921000  0.88530000  0.72607000  1.0 0.079208403
H  H670  1  0.75391000  0.63921000  0.89273000  1.0 0.079208403
H  H671  1  0.88530000  0.24609000  0.55940000  1.0 0.079208403
H  H672  1  0.36079000  0.11470000  0.22607000  1.0 0.079208403
H  H673  1  0.53319000  0.29859000  0.97980000  1.0 0.0993230198
H  H674  1  0.70141000  0.23460000  0.31313000  1.0 0.0993230198
H  H675  1  0.76540000  0.46681000  0.64647000  1.0 0.0993230198
H  H676  1  0.46681000  0.70141000  0.47980000  1.0 0.0993230198
H  H677  1  0.29859000  0.76540000  0.81313000  1.0 0.0993230198
H  H678  1  0.23460000  0.53319000  0.14647000  1.0 0.0993230198
H  H679  1  0.29859000  0.53319000  0.35353000  1.0 0.0993230198
H  H680  1  0.23460000  0.70141000  0.02020000  1.0 0.0993230198
H  H681  1  0.46681000  0.76540000  0.68687000  1.0 0.0993230198
H  H682  1  0.70141000  0.46681000  0.85353000  1.0 0.0993230198
H  H683  1  0.76540000  0.29859000  0.52020000  1.0 0.0993230198
H  H684  1  0.53319000  0.23460000  0.18687000  1.0 0.0993230198
H  H685  1  0.60169000  0.35619000  0.00610000  1.0 0.1097424923
H  H686  1  0.64381000  0.24550000  0.33943000  1.0 0.1097424923
H  H687  1  0.75450000  0.39831000  0.67277000  1.0 0.1097424923
H  H688  1  0.39831000  0.64381000  0.50610000  1.0 0.1097424923
H  H689  1  0.35619000  0.75450000  0.83943000  1.0 0.1097424923
H  H690  1  0.24550000  0.60169000  0.17277000  1.0 0.1097424923
H  H691  1  0.35619000  0.60169000  0.32723000  1.0 0.1097424923
H  H692  1  0.24550000  0.64381000  0.99390000  1.0 0.1097424923
H  H693  1  0.39831000  0.75450000  0.66057000  1.0 0.1097424923
H  H694  1  0.64381000  0.39831000  0.82723000  1.0 0.1097424923
H  H695  1  0.75450000  0.35619000  0.49390000  1.0 0.1097424923
H  H696  1  0.60169000  0.24550000  0.16057000  1.0 0.1097424923
H  H697  1  0.55179000  0.41989000  0.02650000  1.0 0.0694500685
H  H698  1  0.58011000  0.13190000  0.35983000  1.0 0.0694500685
H  H699  1  0.86810000  0.44821000  0.69317000  1.0 0.0694500685
H  H700  1  0.44821000  0.58011000  0.52650000  1.0 0.0694500685
H  H701  1  0.41989000  0.86810000  0.85983000  1.0 0.0694500685
H  H702  1  0.13190000  0.55179000  0.19317000  1.0 0.0694500685
H  H703  1  0.41989000  0.55179000  0.30683000  1.0 0.0694500685
H  H704  1  0.13190000  0.58011000  0.97350000  1.0 0.0694500685
H  H705  1  0.44821000  0.86810000  0.64017000  1.0 0.0694500685
H  H706  1  0.58011000  0.44821000  0.80683000  1.0 0.0694500685
H  H707  1  0.86810000  0.41989000  0.47350000  1.0 0.0694500685
H  H708  1  0.55179000  0.13190000  0.14017000  1.0 0.0694500685
H  H709  1  0.48789000  0.37719000  0.99040000  1.0 0.0493168358
H  H710  1  0.62281000  0.11070000  0.32373000  1.0 0.0493168358
H  H711  1  0.88930000  0.51211000  0.65707000  1.0 0.0493168358
H  H712  1  0.51211000  0.62281000  0.49040000  1.0 0.0493168358
H  H713  1  0.37719000  0.88930000  0.82373000  1.0 0.0493168358
H  H714  1  0.11070000  0.48789000  0.15707000  1.0 0.0493168358
H  H715  1  0.37719000  0.48789000  0.34293000  1.0 0.0493168358
H  H716  1  0.11070000  0.62281000  0.00960000  1.0 0.0493168358
H  H717  1  0.51211000  0.88930000  0.67627000  1.0 0.0493168358
H  H718  1  0.62281000  0.51211000  0.84293000  1.0 0.0493168358
H  H719  1  0.88930000  0.37719000  0.50960000  1.0 0.0493168358
H  H720  1  0.48789000  0.11070000  0.17627000  1.0 0.0493168358
H  H721  1  0.46749000  0.35259000  0.07750000  1.0 0.0409549059
H  H722  1  0.64741000  0.11490000  0.41083000  1.0 0.0409549059
H  H723  1  0.88510000  0.53251000  0.74417000  1.0 0.0409549059
H  H724  1  0.53251000  0.64741000  0.57750000  1.0 0.0409549059
H  H725  1  0.35259000  0.88510000  0.91083000  1.0 0.0409549059
H  H726  1  0.11490000  0.46749000  0.24417000  1.0 0.0409549059
H  H727  1  0.35259000  0.46749000  0.25583000  1.0 0.0409549059
H  H728  1  0.11490000  0.64741000  0.92250000  1.0 0.0409549059
H  H729  1  0.53251000  0.88510000  0.58917000  1.0 0.0409549059
H  H730  1  0.64741000  0.53251000  0.75583000  1.0 0.0409549059
H  H731  1  0.88510000  0.35259000  0.42250000  1.0 0.0409549059
H  H732  1  0.46749000  0.11490000  0.08917000  1.0 0.0409549059
H  H733  1  0.50869000  0.31139000  0.07160000  1.0 0.0896736223
H  H734  1  0.68861000  0.19730000  0.40493000  1.0 0.0896736223
H  H735  1  0.80270000  0.49131000  0.73827000  1.0 0.0896736223
H  H736  1  0.49131000  0.68861000  0.57160000  1.0 0.0896736223
H  H737  1  0.31139000  0.80270000  0.90493000  1.0 0.0896736223
H  H738  1  0.19730000  0.50869000  0.23827000  1.0 0.0896736223
H  H739  1  0.31139000  0.50869000  0.26173000  1.0 0.0896736223
H  H740  1  0.19730000  0.68861000  0.92840000  1.0 0.0896736223
H  H741  1  0.49131000  0.80270000  0.59507000  1.0 0.0896736223
H  H742  1  0.68861000  0.49131000  0.76173000  1.0 0.0896736223
H  H743  1  0.80270000  0.31139000  0.42840000  1.0 0.0896736223
H  H744  1  0.50869000  0.19730000  0.09507000  1.0 0.0896736223
H  H745  1  0.40819000  0.22139000  0.05700000  1.0 0.0694500685
H  H746  1  0.77861000  0.18680000  0.39033000  1.0 0.0694500685
H  H747  1  0.81320000  0.59181000  0.72367000  1.0 0.0694500685
H  H748  1  0.59181000  0.77861000  0.55700000  1.0 0.0694500685
H  H749  1  0.22139000  0.81320000  0.89033000  1.0 0.0694500685
H  H750  1  0.18680000  0.40819000  0.22367000  1.0 0.0694500685
H  H751  1  0.22139000  0.40819000  0.27633000  1.0 0.0694500685
H  H752  1  0.18680000  0.77861000  0.94300000  1.0 0.0694500685
H  H753  1  0.59181000  0.81320000  0.60967000  1.0 0.0694500685
H  H754  1  0.77861000  0.59181000  0.77633000  1.0 0.0694500685
H  H755  1  0.81320000  0.22139000  0.44300000  1.0 0.0694500685
H  H756  1  0.40819000  0.18680000  0.10967000  1.0 0.0694500685
H  H757  1  0.41359000  0.25419000  0.00420000  1.0 0.0694500685
H  H758  1  0.74581000  0.15940000  0.33753000  1.0 0.0694500685
H  H759  1  0.84060000  0.58641000  0.67087000  1.0 0.0694500685
H  H760  1  0.58641000  0.74581000  0.50420000  1.0 0.0694500685
H  H761  1  0.25419000  0.84060000  0.83753000  1.0 0.0694500685
H  H762  1  0.15940000  0.41359000  0.17087000  1.0 0.0694500685
H  H763  1  0.25419000  0.41359000  0.32913000  1.0 0.0694500685
H  H764  1  0.15940000  0.74581000  0.99580000  1.0 0.0694500685
H  H765  1  0.58641000  0.84060000  0.66247000  1.0 0.0694500685
H  H766  1  0.74581000  0.58641000  0.82913000  1.0 0.0694500685
H  H767  1  0.84060000  0.25419000  0.49580000  1.0 0.0694500685
H  H768  1  0.41359000  0.15940000  0.16247000  1.0 0.0694500685
H  H769  1  0.37289000  0.26769000  0.04700000  1.0 0.0409549059
H  H770  1  0.73231000  0.10520000  0.38033000  1.0 0.0409549059
H  H771  1  0.89480000  0.62711000  0.71367000  1.0 0.0409549059
H  H772  1  0.62711000  0.73231000  0.54700000  1.0 0.0409549059
H  H773  1  0.26769000  0.89480000  0.88033000  1.0 0.0409549059
H  H774  1  0.10520000  0.37289000  0.21367000  1.0 0.0409549059
H  H775  1  0.26769000  0.37289000  0.28633000  1.0 0.0409549059
H  H776  1  0.10520000  0.73231000  0.95300000  1.0 0.0409549059
H  H777  1  0.62711000  0.89480000  0.61967000  1.0 0.0409549059
H  H778  1  0.73231000  0.62711000  0.78633000  1.0 0.0409549059
H  H779  1  0.89480000  0.26769000  0.45300000  1.0 0.0409549059
H  H780  1  0.37289000  0.10520000  0.11967000  1.0 0.0409549059
H  H781  1  0.74459000  0.37609000  0.94480000  1.0 0.0993230198
H  H782  1  0.62391000  0.36850000  0.27813000  1.0 0.0993230198
H  H783  1  0.63150000  0.25541000  0.61147000  1.0 0.0993230198
H  H784  1  0.25541000  0.62391000  0.44480000  1.0 0.0993230198
H  H785  1  0.37609000  0.63150000  0.77813000  1.0 0.0993230198
H  H786  1  0.36850000  0.74459000  0.11147000  1.0 0.0993230198
H  H787  1  0.37609000  0.74459000  0.38853000  1.0 0.0993230198
H  H788  1  0.36850000  0.62391000  0.05520000  1.0 0.0993230198
H  H789  1  0.25541000  0.63150000  0.72187000  1.0 0.0993230198
H  H790  1  0.62391000  0.25541000  0.88853000  1.0 0.0993230198
H  H791  1  0.63150000  0.37609000  0.55520000  1.0 0.0993230198
H  H792  1  0.74459000  0.36850000  0.22187000  1.0 0.0993230198
H  H793  1  0.64199000  0.22609000  0.88100000  1.0 0.0605698762
H  H794  1  0.77391000  0.41590000  0.21433000  1.0 0.0605698762
H  H795  1  0.58410000  0.35801000  0.54767000  1.0 0.0605698762
H  H796  1  0.35801000  0.77391000  0.38100000  1.0 0.0605698762
H  H797  1  0.22609000  0.58410000  0.71433000  1.0 0.0605698762
H  H798  1  0.41590000  0.64199000  0.04767000  1.0 0.0605698762
H  H799  1  0.22609000  0.64199000  0.45233000  1.0 0.0605698762
H  H800  1  0.41590000  0.77391000  0.11900000  1.0 0.0605698762
H  H801  1  0.35801000  0.58410000  0.78567000  1.0 0.0605698762
H  H802  1  0.77391000  0.35801000  0.95233000  1.0 0.0605698762
H  H803  1  0.58410000  0.22609000  0.61900000  1.0 0.0605698762
H  H804  1  0.64199000  0.41590000  0.28567000  1.0 0.0605698762
H  H805  1  0.66839000  0.18209000  0.91100000  1.0 0.0694500685
H  H806  1  0.81791000  0.48630000  0.24433000  1.0 0.0694500685
H  H807  1  0.51370000  0.33161000  0.57767000  1.0 0.0694500685
H  H808  1  0.33161000  0.81791000  0.41100000  1.0 0.0694500685
H  H809  1  0.18209000  0.51370000  0.74433000  1.0 0.0694500685
H  H810  1  0.48630000  0.66839000  0.07767000  1.0 0.0694500685
H  H811  1  0.18209000  0.66839000  0.42233000  1.0 0.0694500685
H  H812  1  0.48630000  0.81791000  0.08900000  1.0 0.0694500685
H  H813  1  0.33161000  0.51370000  0.75567000  1.0 0.0694500685
H  H814  1  0.81791000  0.33161000  0.92233000  1.0 0.0694500685
H  H815  1  0.51370000  0.18209000  0.58900000  1.0 0.0694500685
H  H816  1  0.66839000  0.48630000  0.25567000  1.0 0.0694500685
H  H817  1  0.70749000  0.22119000  0.86210000  1.0 0.0694500685
H  H818  1  0.77881000  0.48630000  0.19543000  1.0 0.079208403
H  H819  1  0.51370000  0.29251000  0.52877000  1.0 0.079208403
H  H820  1  0.29251000  0.77881000  0.36210000  1.0 0.0694500685
H  H821  1  0.22119000  0.51370000  0.69543000  1.0 0.0694500685
H  H822  1  0.48630000  0.70749000  0.02877000  1.0 0.0694500685
H  H823  1  0.22119000  0.70749000  0.47123000  1.0 0.0694500685
H  H824  1  0.48630000  0.77881000  0.13790000  1.0 0.0694500685
H  H825  1  0.29251000  0.51370000  0.80457000  1.0 0.0694500685
H  H826  1  0.77881000  0.29251000  0.97123000  1.0 0.079208403
H  H827  1  0.51370000  0.22119000  0.63790000  1.0 0.0694500685
H  H828  1  0.70749000  0.48630000  0.30457000  1.0 0.079208403
H  H829  1  0.82159000  0.29049000  0.91370000  1.0 0.079208403
H  H830  1  0.70951000  0.53110000  0.24703000  1.0 0.079208403
H  H831  1  0.46890000  0.17841000  0.58037000  1.0 0.079208403
H  H832  1  0.17841000  0.70951000  0.41370000  1.0 0.079208403
H  H833  1  0.29049000  0.46890000  0.74703000  1.0 0.079208403
H  H834  1  0.53110000  0.82159000  0.08037000  1.0 0.079208403
H  H835  1  0.29049000  0.82159000  0.41963000  1.0 0.079208403
H  H836  1  0.53110000  0.70951000  0.08630000  1.0 0.079208403
H  H837  1  0.17841000  0.46890000  0.75297000  1.0 0.079208403
H  H838  1  0.70951000  0.17841000  0.91963000  1.0 0.079208403
H  H839  1  0.46890000  0.29049000  0.58630000  1.0 0.079208403
H  H840  1  0.82159000  0.53110000  0.25297000  1.0 0.079208403
H  H841  1  0.77539000  0.24299000  0.95790000  1.0 0.0694500685
H  H842  1  0.75701000  0.53240000  0.29123000  1.0 0.0694500685
H  H843  1  0.46760000  0.22461000  0.62457000  1.0 0.0694500685
H  H844  1  0.22461000  0.75701000  0.45790000  1.0 0.0694500685
H  H845  1  0.24299000  0.46760000  0.79123000  1.0 0.0694500685
H  H846  1  0.53240000  0.77539000  0.12457000  1.0 0.0694500685
H  H847  1  0.24299000  0.77539000  0.37543000  1.0 0.0694500685
H  H848  1  0.53240000  0.75701000  0.04210000  1.0 0.0694500685
H  H849  1  0.22461000  0.46760000  0.70877000  1.0 0.0694500685
H  H850  1  0.75701000  0.22461000  0.87543000  1.0 0.0694500685
H  H851  1  0.46760000  0.24299000  0.54210000  1.0 0.0694500685
H  H852  1  0.77539000  0.53240000  0.20877000  1.0 0.0694500685
H  H853  1  0.81339000  0.32569000  0.96210000  1.0 0.0694500685
H  H854  1  0.67431000  0.48770000  0.29543000  1.0 0.0694500685
H  H855  1  0.51230000  0.18661000  0.62877000  1.0 0.0694500685
H  H856  1  0.18661000  0.67431000  0.46210000  1.0 0.0694500685
H  H857  1  0.32569000  0.51230000  0.79543000  1.0 0.0694500685
H  H858  1  0.48770000  0.81339000  0.12877000  1.0 0.0694500685
H  H859  1  0.32569000  0.81339000  0.37123000  1.0 0.0694500685
H  H860  1  0.48770000  0.67431000  0.03790000  1.0 0.0694500685
H  H861  1  0.18661000  0.51230000  0.70457000  1.0 0.0694500685
H  H862  1  0.67431000  0.18661000  0.87123000  1.0 0.0694500685
H  H863  1  0.51230000  0.32569000  0.53790000  1.0 0.0694500685
H  H864  1  0.81339000  0.48770000  0.20457000  1.0 0.0694500685
C  C1  1  0.54426000  0.50224000  0.93603000  1.0 0.079208403
C  C2  1  0.49776000  0.04202000  0.26936000  1.0 0.079208403
C  C3  1  0.95798000  0.45574000  0.60270000  1.0 0.079208403
C  C4  1  0.45574000  0.49776000  0.43603000  1.0 0.079208403
C  C5  1  0.50224000  0.95798000  0.76936000  1.0 0.079208403
C  C6  1  0.04202000  0.54426000  0.10270000  1.0 0.079208403
C  C7  1  0.50224000  0.54426000  0.39730000  1.0 0.079208403
C  C8  1  0.04202000  0.49776000  0.06397000  1.0 0.079208403
C  C9  1  0.45574000  0.95798000  0.73064000  1.0 0.079208403
C  C10  1  0.49776000  0.45574000  0.89730000  1.0 0.079208403
C  C11  1  0.95798000  0.50224000  0.56397000  1.0 0.079208403
C  C12  1  0.54426000  0.04202000  0.23064000  1.0 0.079208403
C  C13  1  0.53088000  0.54266000  0.96775000  1.0 -0.0612652814
C  C14  1  0.45734000  0.98822000  0.30108000  1.0 -0.0612652814
C  C15  1  0.01178000  0.46912000  0.63442000  1.0 -0.065259114
C  C16  1  0.46912000  0.45734000  0.46775000  1.0 -0.0612652814
C  C17  1  0.54266000  0.01178000  0.80108000  1.0 -0.0612652814
C  C18  1  0.98822000  0.53088000  0.13442000  1.0 -0.0612652814
C  C19  1  0.54266000  0.53088000  0.36558000  1.0 -0.0612652814
C  C20  1  0.98822000  0.45734000  0.03225000  1.0 -0.0612652814
C  C21  1  0.46912000  0.01178000  0.69892000  1.0 -0.0612652814
C  C22  1  0.45734000  0.46912000  0.86558000  1.0 -0.0612652814
C  C23  1  0.01178000  0.54266000  0.53225000  1.0 -0.0612652814
C  C24  1  0.53088000  0.98822000  0.19892000  1.0 -0.0612652814
C  C25  1  0.46062000  0.53720000  0.97325000  1.0 0.393888749
C  C26  1  0.46280000  0.92342000  0.30658000  1.0 0.393888749
C  C27  1  0.07658000  0.53938000  0.63992000  1.0 0.393888749
C  C28  1  0.53938000  0.46280000  0.47325000  1.0 0.393888749
C  C29  1  0.53720000  0.07658000  0.80658000  1.0 0.393888749
C  C30  1  0.92342000  0.46062000  0.13992000  1.0 0.393888749
C  C31  1  0.53720000  0.46062000  0.36008000  1.0 0.393888749
C  C32  1  0.92342000  0.46280000  0.02675000  1.0 0.393888749
C  C33  1  0.53938000  0.07658000  0.69342000  1.0 0.393888749
C  C34  1  0.46280000  0.53938000  0.86008000  1.0 0.393888749
C  C35  1  0.07658000  0.53720000  0.52675000  1.0 0.393888749
C  C36  1  0.46062000  0.92342000  0.19342000  1.0 0.393888749
C  C37  1  0.58359000  0.58728000  0.99927000  1.0 -0.109592251
C  C38  1  0.41272000  0.99631000  0.33260000  1.0 -0.109592251
C  C39  1  0.00369000  0.41641000  0.66594000  1.0 -0.109592251
C  C40  1  0.41641000  0.41272000  0.49927000  1.0 -0.109592251
C  C41  1  0.58728000  0.00369000  0.83260000  1.0 -0.109592251
C  C42  1  0.99631000  0.58359000  0.16594000  1.0 -0.109592251
C  C43  1  0.58728000  0.58359000  0.33406000  1.0 -0.109592251
C  C44  1  0.99631000  0.41272000  0.00073000  1.0 -0.109592251
C  C45  1  0.41641000  0.00369000  0.66740000  1.0 -0.109592251
C  C46  1  0.41272000  0.41641000  0.83406000  1.0 -0.109592251
C  C47  1  0.00369000  0.58728000  0.50073000  1.0 -0.109592251
C  C48  1  0.58359000  0.99631000  0.16740000  1.0 -0.109592251
C  C49  1  0.64633000  0.58766000  0.00026000  1.0 -0.1909124542
C  C50  1  0.41234000  0.05867000  0.33359000  1.0 -0.1909124542
C  C51  1  0.94133000  0.35367000  0.66693000  1.0 -0.1909124542
C  C52  1  0.35367000  0.41234000  0.50026000  1.0 -0.1909124542
C  C53  1  0.58766000  0.94133000  0.83359000  1.0 -0.1909124542
C  C54  1  0.05867000  0.64633000  0.16693000  1.0 -0.1909124542
C  C55  1  0.58766000  0.64633000  0.33307000  1.0 -0.1909124542
C  C56  1  0.05867000  0.41234000  0.99974000  1.0 -0.1909124542
C  C57  1  0.35367000  0.94133000  0.66641000  1.0 -0.1909124542
C  C58  1  0.41234000  0.35367000  0.83307000  1.0 -0.1909124542
C  C59  1  0.94133000  0.58766000  0.49974000  1.0 -0.1909124542
C  C60  1  0.64633000  0.05867000  0.16641000  1.0 -0.1909124542
C  C61  1  0.65269000  0.54091000  0.97119000  1.0 0.0409549059
C  C62  1  0.45909000  0.11178000  0.30452000  1.0 0.0409549059
C  C63  1  0.88822000  0.34731000  0.63786000  1.0 0.0409549059
C  C64  1  0.34731000  0.45909000  0.47119000  1.0 0.0409549059
C  C65  1  0.54091000  0.88822000  0.80452000  1.0 0.0409549059
C  C66  1  0.11178000  0.65269000  0.13786000  1.0 0.0409549059
C  C67  1  0.54091000  0.65269000  0.36214000  1.0 0.0409549059
C  C68  1  0.11178000  0.45909000  0.02881000  1.0 0.0409549059
C  C69  1  0.34731000  0.88822000  0.69548000  1.0 0.0409549059
C  C70  1  0.45909000  0.34731000  0.86214000  1.0 0.0409549059
C  C71  1  0.88822000  0.54091000  0.52881000  1.0 0.0409549059
C  C72  1  0.65269000  0.11178000  0.19548000  1.0 0.0409549059
C  C73  1  0.71503000  0.53047000  0.97292000  1.0 0.2674823849
C  C74  1  0.46953000  0.18456000  0.30625000  1.0 0.2674823849
C  C75  1  0.81544000  0.28497000  0.63959000  1.0 0.2674823849
C  C76  1  0.28497000  0.46953000  0.47292000  1.0 0.2674823849
C  C77  1  0.53047000  0.81544000  0.80625000  1.0 0.2674823849
C  C78  1  0.18456000  0.71503000  0.13959000  1.0 0.2674823849
C  C79  1  0.53047000  0.71503000  0.36041000  1.0 0.2674823849
C  C80  1  0.18456000  0.46953000  0.02708000  1.0 0.2674823849
C  C81  1  0.28497000  0.81544000  0.69375000  1.0 0.2674823849
C  C82  1  0.46953000  0.28497000  0.86041000  1.0 0.2674823849
C  C83  1  0.81544000  0.53047000  0.52708000  1.0 0.2674823849
C  C84  1  0.71503000  0.18456000  0.19375000  1.0 0.2674823849
C  C85  1  0.30697000  0.53859000  0.94135000  1.0 -0.472121887
C  C86  1  0.46141000  0.76838000  0.27468000  1.0 -0.472121887
C  C87  1  0.23162000  0.69303000  0.60802000  1.0 -0.472121887
C  C88  1  0.69303000  0.46141000  0.44135000  1.0 -0.472121887
C  C89  1  0.53859000  0.23162000  0.77468000  1.0 -0.472121887
C  C90  1  0.76838000  0.30697000  0.10802000  1.0 -0.472121887
C  C91  1  0.53859000  0.30697000  0.39198000  1.0 -0.472121887
C  C92  1  0.76838000  0.46141000  0.05865000  1.0 -0.472121887
C  C93  1  0.69303000  0.23162000  0.72532000  1.0 -0.472121887
C  C94  1  0.46141000  0.69303000  0.89198000  1.0 -0.472121887
C  C95  1  0.23162000  0.53859000  0.55865000  1.0 -0.472121887
C  C96  1  0.30697000  0.76838000  0.22532000  1.0 -0.472121887
C  C97  1  0.24229000  0.52409000  0.91345000  1.0 -0.1304335539
C  C98  1  0.47591000  0.71820000  0.24678000  1.0 -0.1304335539
C  C99  1  0.28180000  0.75771000  0.58012000  1.0 -0.1304335539
C  C100  1  0.75771000  0.47591000  0.41345000  1.0 -0.1304335539
C  C101  1  0.52409000  0.28180000  0.74678000  1.0 -0.1304335539
C  C102  1  0.71820000  0.24229000  0.08012000  1.0 -0.1304335539
C  C103  1  0.52409000  0.24229000  0.41988000  1.0 -0.1304335539
C  C104  1  0.71820000  0.47591000  0.08655000  1.0 -0.1304335539
C  C105  1  0.75771000  0.28180000  0.75322000  1.0 -0.1304335539
C  C106  1  0.47591000  0.75771000  0.91988000  1.0 -0.1304335539
C  C107  1  0.28180000  0.52409000  0.58655000  1.0 -0.1304335539
C  C108  1  0.24229000  0.71820000  0.25322000  1.0 -0.1304335539
C  C109  1  0.25149000  0.58649000  0.88280000  1.0 -0.1474409452
C  C110  1  0.41351000  0.66500000  0.21613000  1.0 -0.1474409452
C  C111  1  0.33500000  0.74851000  0.54947000  1.0 -0.1474409452
C  C112  1  0.74851000  0.41351000  0.38280000  1.0 -0.1474409452
C  C113  1  0.58649000  0.33500000  0.71613000  1.0 -0.1474409452
C  C114  1  0.66500000  0.25149000  0.04947000  1.0 -0.1474409452
C  C115  1  0.58649000  0.25149000  0.45053000  1.0 -0.1474409452
C  C116  1  0.66500000  0.41351000  0.11720000  1.0 -0.1474409452
C  C117  1  0.74851000  0.33500000  0.78387000  1.0 -0.1474409452
C  C118  1  0.41351000  0.74851000  0.95053000  1.0 -0.1474409452
C  C119  1  0.33500000  0.58649000  0.61720000  1.0 -0.1474409452
C  C120  1  0.25149000  0.66500000  0.28387000  1.0 -0.1474409452
C  C121  1  0.18649000  0.57049000  0.85340000  1.0 -0.4585036934
C  C122  1  0.42951000  0.61600000  0.18673000  1.0 -0.4585036934
C  C123  1  0.38400000  0.81351000  0.52007000  1.0 -0.4585036934
C  C124  1  0.81351000  0.42951000  0.35340000  1.0 -0.4585036934
C  C125  1  0.57049000  0.38400000  0.68673000  1.0 -0.4585036934
C  C126  1  0.61600000  0.18649000  0.02007000  1.0 -0.4585036934
C  C127  1  0.57049000  0.18649000  0.47993000  1.0 -0.4585036934
C  C128  1  0.61600000  0.42951000  0.14660000  1.0 -0.4585036934
C  C129  1  0.81351000  0.38400000  0.81327000  1.0 -0.4585036934
C  C130  1  0.42951000  0.81351000  0.97993000  1.0 -0.4585036934
C  C131  1  0.38400000  0.57049000  0.64660000  1.0 -0.4585036934
C  C132  1  0.18649000  0.61600000  0.31327000  1.0 -0.4585036934
C  C133  1  0.32929000  0.44879000  0.05260000  1.0 -0.2906547935
C  C134  1  0.55121000  0.88050000  0.38593000  1.0 -0.2906547935
C  C135  1  0.11950000  0.67071000  0.71927000  1.0 -0.2906547935
C  C136  1  0.67071000  0.55121000  0.55260000  1.0 -0.2906547935
C  C137  1  0.44879000  0.11950000  0.88593000  1.0 -0.2906547935
C  C138  1  0.88050000  0.32929000  0.21927000  1.0 -0.2906547935
C  C139  1  0.44879000  0.32929000  0.28073000  1.0 -0.2906547935
C  C140  1  0.88050000  0.55121000  0.94740000  1.0 -0.2906547935
C  C141  1  0.67071000  0.11950000  0.61407000  1.0 -0.2906547935
C  C142  1  0.55121000  0.67071000  0.78073000  1.0 -0.2906547935
C  C143  1  0.11950000  0.44879000  0.44740000  1.0 -0.2906547935
C  C144  1  0.32929000  0.88050000  0.11407000  1.0 -0.2906547935
C  C145  1  0.28149000  0.41169000  0.09490000  1.0 -0.021543637
C  C146  1  0.58831000  0.86980000  0.42823000  1.0 -0.021543637
C  C147  1  0.13020000  0.71851000  0.76157000  1.0 -0.021543637
C  C148  1  0.71851000  0.58831000  0.59490000  1.0 -0.021543637
C  C149  1  0.41169000  0.13020000  0.92823000  1.0 -0.021543637
C  C150  1  0.86980000  0.28149000  0.26157000  1.0 -0.021543637
C  C151  1  0.41169000  0.28149000  0.23843000  1.0 -0.021543637
C  C152  1  0.86980000  0.58831000  0.90510000  1.0 -0.021543637
C  C153  1  0.71851000  0.13020000  0.57177000  1.0 -0.021543637
C  C154  1  0.58831000  0.71851000  0.73843000  1.0 -0.021543637
C  C155  1  0.13020000  0.41169000  0.40510000  1.0 -0.021543637
C  C156  1  0.28149000  0.86980000  0.07177000  1.0 -0.021543637
C  C157  1  0.24069000  0.33449000  0.08560000  1.0 -0.1387830825
C  C158  1  0.66551000  0.90620000  0.41893000  1.0 -0.1387830825
C  C159  1  0.09380000  0.75931000  0.75227000  1.0 -0.1387830825
C  C160  1  0.75931000  0.66551000  0.58560000  1.0 -0.1387830825
C  C161  1  0.33449000  0.09380000  0.91893000  1.0 -0.1387830825
C  C162  1  0.90620000  0.24069000  0.25227000  1.0 -0.1387830825
C  C163  1  0.33449000  0.24069000  0.24773000  1.0 -0.1387830825
C  C164  1  0.90620000  0.66551000  0.91440000  1.0 -0.1387830825
C  C165  1  0.75931000  0.09380000  0.58107000  1.0 -0.1387830825
C  C166  1  0.66551000  0.75931000  0.74773000  1.0 -0.1387830825
C  C167  1  0.09380000  0.33449000  0.41440000  1.0 -0.1387830825
C  C168  1  0.24069000  0.90620000  0.08107000  1.0 -0.1387830825
C  C169  1  0.19819000  0.29479000  0.13120000  1.0 -0.2343335078
C  C170  1  0.70521000  0.90340000  0.46453000  1.0 -0.2343335078
C  C171  1  0.09660000  0.80181000  0.79787000  1.0 -0.2343335078
C  C172  1  0.80181000  0.70521000  0.63120000  1.0 -0.2343335078
C  C173  1  0.29479000  0.09660000  0.96453000  1.0 -0.2343335078
C  C174  1  0.90340000  0.19819000  0.29787000  1.0 -0.2343335078
C  C175  1  0.29479000  0.19819000  0.20213000  1.0 -0.2343335078
C  C176  1  0.90340000  0.70521000  0.86880000  1.0 -0.2343335078
C  C177  1  0.80181000  0.09660000  0.53547000  1.0 -0.2343335078
C  C178  1  0.70521000  0.80181000  0.70213000  1.0 -0.2343335078
C  C179  1  0.09660000  0.29479000  0.36880000  1.0 -0.2343335078
C  C180  1  0.19819000  0.90340000  0.03547000  1.0 -0.2343335078
C  C181  1  0.71259000  0.33519000  0.92790000  1.0 0.2234412207
C  C182  1  0.66481000  0.37740000  0.26123000  1.0 0.2234412207
C  C183  1  0.62260000  0.28741000  0.59457000  1.0 0.2234412207
C  C184  1  0.28741000  0.66481000  0.42790000  1.0 0.2234412207
C  C185  1  0.33519000  0.62260000  0.76123000  1.0 0.2234412207
C  C186  1  0.37740000  0.71259000  0.09457000  1.0 0.2234412207
C  C187  1  0.33519000  0.71259000  0.40543000  1.0 0.2234412207
C  C188  1  0.37740000  0.66481000  0.07210000  1.0 0.2234412207
C  C189  1  0.28741000  0.62260000  0.73877000  1.0 0.2234412207
C  C190  1  0.66481000  0.28741000  0.90543000  1.0 0.2234412207
C  C191  1  0.62260000  0.33519000  0.57210000  1.0 0.2234412207
C  C192  1  0.71259000  0.37740000  0.23877000  1.0 0.2234412207
C  C193  1  0.68289000  0.22359000  0.89110000  1.0 -0.0330558286
C  C194  1  0.77641000  0.45930000  0.22443000  1.0 -0.0330558286
C  C195  1  0.54070000  0.31711000  0.55777000  1.0 -0.038274985
C  C196  1  0.31711000  0.77641000  0.39110000  1.0 -0.038274985
C  C197  1  0.22359000  0.54070000  0.72443000  1.0 -0.038274985
C  C198  1  0.45930000  0.68289000  0.05777000  1.0 -0.038274985
C  C199  1  0.22359000  0.68289000  0.44223000  1.0 -0.038274985
C  C200  1  0.45930000  0.77641000  0.10890000  1.0 -0.038274985
C  C201  1  0.31711000  0.54070000  0.77557000  1.0 -0.038274985
C  C202  1  0.77641000  0.31711000  0.94223000  1.0 -0.038274985
C  C203  1  0.54070000  0.22359000  0.60890000  1.0 -0.038274985
C  C204  1  0.68289000  0.45930000  0.27557000  1.0 -0.0330558286
C  C205  1  0.78979000  0.28609000  0.93990000  1.0 -0.1720857844
C  C206  1  0.71391000  0.50370000  0.27323000  1.0 -0.1720857844
C  C207  1  0.49630000  0.21021000  0.60657000  1.0 -0.1720857844
C  C208  1  0.21021000  0.71391000  0.43990000  1.0 -0.1720857844
C  C209  1  0.28609000  0.49630000  0.77323000  1.0 -0.1720857844
C  C210  1  0.50370000  0.78979000  0.10657000  1.0 -0.1720857844
C  C211  1  0.28609000  0.78979000  0.39343000  1.0 -0.1720857844
C  C212  1  0.50370000  0.71391000  0.06010000  1.0 -0.1720857844
C  C213  1  0.21021000  0.49630000  0.72677000  1.0 -0.1720857844
C  C214  1  0.71391000  0.21021000  0.89343000  1.0 -0.1720857844
C  C215  1  0.49630000  0.28609000  0.56010000  1.0 -0.1720857844
C  C216  1  0.78979000  0.50370000  0.22677000  1.0 -0.1720857844
C  C217  1  0.25999000  0.36099000  0.93600000  1.0 -0.1909124542
C  C218  1  0.63901000  0.89900000  0.26933000  1.0 -0.1909124542
C  C219  1  0.10100000  0.74001000  0.60267000  1.0 -0.1909124542
C  C220  1  0.74001000  0.63901000  0.43600000  1.0 -0.1909124542
C  C221  1  0.36099000  0.10100000  0.76933000  1.0 -0.1909124542
C  C222  1  0.89900000  0.25999000  0.10267000  1.0 -0.1909124542
C  C223  1  0.36099000  0.25999000  0.39733000  1.0 -0.1909124542
C  C224  1  0.89900000  0.63901000  0.06400000  1.0 -0.1909124542
C  C225  1  0.74001000  0.10100000  0.73067000  1.0 -0.1909124542
C  C226  1  0.63901000  0.74001000  0.89733000  1.0 -0.1909124542
C  C227  1  0.10100000  0.36099000  0.56400000  1.0 -0.1909124542
C  C228  1  0.25999000  0.89900000  0.23067000  1.0 -0.1909124542
C  C229  1  0.29199000  0.31899000  0.95100000  1.0 -0.1387830825
C  C230  1  0.68101000  0.97300000  0.28433000  1.0 -0.1387830825
C  C231  1  0.02700000  0.70801000  0.61767000  1.0 -0.1387830825
C  C232  1  0.70801000  0.68101000  0.45100000  1.0 -0.1387830825
C  C233  1  0.31899000  0.02700000  0.78433000  1.0 -0.1387830825
C  C234  1  0.97300000  0.29199000  0.11767000  1.0 -0.1387830825
C  C235  1  0.31899000  0.29199000  0.38233000  1.0 -0.1387830825
C  C236  1  0.97300000  0.68101000  0.04900000  1.0 -0.1387830825
C  C237  1  0.70801000  0.02700000  0.71567000  1.0 -0.1387830825
C  C238  1  0.68101000  0.70801000  0.88233000  1.0 -0.1387830825
C  C239  1  0.02700000  0.31899000  0.54900000  1.0 -0.1387830825
C  C240  1  0.29199000  0.97300000  0.21567000  1.0 -0.1387830825
C  C241  1  0.27449000  0.25409000  0.92270000  1.0 -0.038274985
C  C242  1  0.74591000  0.02040000  0.25603000  1.0 -0.038274985
C  C243  1  0.97960000  0.72551000  0.58937000  1.0 -0.038274985
C  C244  1  0.72551000  0.74591000  0.42270000  1.0 -0.038274985
C  C245  1  0.25409000  0.97960000  0.75603000  1.0 -0.038274985
C  C246  1  0.02040000  0.27449000  0.08937000  1.0 -0.038274985
C  C247  1  0.25409000  0.27449000  0.41063000  1.0 -0.038274985
C  C248  1  0.02040000  0.74591000  0.07730000  1.0 -0.038274985
C  C249  1  0.72551000  0.97960000  0.74397000  1.0 -0.038274985
C  C250  1  0.74591000  0.72551000  0.91063000  1.0 -0.038274985
C  C251  1  0.97960000  0.25409000  0.57730000  1.0 -0.038274985
C  C252  1  0.27449000  0.02040000  0.24397000  1.0 -0.038274985
C  C253  1  0.28399000  0.20159000  0.91880000  1.0 -0.1304335539
C  C254  1  0.79841000  0.08240000  0.25213000  1.0 -0.1304335539
C  C255  1  0.91760000  0.71601000  0.58547000  1.0 -0.1304335539
C  C256  1  0.71601000  0.79841000  0.41880000  1.0 -0.1304335539
C  C257  1  0.20159000  0.91760000  0.75213000  1.0 -0.1304335539
C  C258  1  0.08240000  0.28399000  0.08547000  1.0 -0.1304335539
C  C259  1  0.20159000  0.28399000  0.41453000  1.0 -0.1304335539
C  C260  1  0.08240000  0.79841000  0.08120000  1.0 -0.1304335539
C  C261  1  0.71601000  0.91760000  0.74787000  1.0 -0.1304335539
C  C262  1  0.79841000  0.71601000  0.91453000  1.0 -0.1304335539
C  C263  1  0.91760000  0.20159000  0.58120000  1.0 -0.1304335539
C  C264  1  0.28399000  0.08240000  0.24787000  1.0 -0.1304335539
C  C265  1  0.56459000  0.34699000  0.98580000  1.0 -0.3766889846
C  C266  1  0.65301000  0.21760000  0.31913000  1.0 -0.3766889846
C  C267  1  0.78240000  0.43541000  0.65247000  1.0 -0.3766889846
C  C268  1  0.43541000  0.65301000  0.48580000  1.0 -0.3766889846
C  C269  1  0.34699000  0.78240000  0.81913000  1.0 -0.3766889846
C  C270  1  0.21760000  0.56459000  0.15247000  1.0 -0.3766889846
C  C271  1  0.34699000  0.56459000  0.34753000  1.0 -0.3766889846
C  C272  1  0.21760000  0.65301000  0.01420000  1.0 -0.3766889846
C  C273  1  0.43541000  0.78240000  0.68087000  1.0 -0.3766889846
C  C274  1  0.65301000  0.43541000  0.84753000  1.0 -0.3766889846
C  C275  1  0.78240000  0.34699000  0.51420000  1.0 -0.3766889846
C  C276  1  0.56459000  0.21760000  0.18087000  1.0 -0.3766889846
C  C277  1  0.49939000  0.34529000  0.00250000  1.0 -0.0048357466
C  C278  1  0.65471000  0.15410000  0.33583000  1.0 -0.0048357466
C  C279  1  0.84590000  0.50061000  0.66917000  1.0 -0.0048357466
C  C280  1  0.50061000  0.65471000  0.50250000  1.0 -0.0048357466
C  C281  1  0.34529000  0.84590000  0.83583000  1.0 -0.0048357466
C  C282  1  0.15410000  0.49939000  0.16917000  1.0 -0.0048357466
C  C283  1  0.34529000  0.49939000  0.33083000  1.0 -0.0048357466
C  C284  1  0.15410000  0.65471000  0.99750000  1.0 -0.0051393622
C  C285  1  0.50061000  0.84590000  0.66417000  1.0 -0.0048357466
C  C286  1  0.65471000  0.50061000  0.83083000  1.0 -0.0048357466
C  C287  1  0.84590000  0.34529000  0.49750000  1.0 -0.0048357466
C  C288  1  0.49939000  0.15410000  0.16417000  1.0 -0.0048357466
C  C289  1  0.46849000  0.30299000  0.04760000  1.0 -0.0612652814
C  C290  1  0.69701000  0.16550000  0.38093000  1.0 -0.0612652814
C  C291  1  0.83450000  0.53151000  0.71427000  1.0 -0.0612652814
C  C292  1  0.53151000  0.69701000  0.54760000  1.0 -0.0612652814
C  C293  1  0.30299000  0.83450000  0.88093000  1.0 -0.0612652814
C  C294  1  0.16550000  0.46849000  0.21427000  1.0 -0.0612652814
C  C295  1  0.30299000  0.46849000  0.28573000  1.0 -0.0612652814
C  C296  1  0.16550000  0.69701000  0.95240000  1.0 -0.0612652814
C  C297  1  0.53151000  0.83450000  0.61907000  1.0 -0.0612652814
C  C298  1  0.69701000  0.53151000  0.78573000  1.0 -0.0612652814
C  C299  1  0.83450000  0.30299000  0.45240000  1.0 -0.0612652814
C  C300  1  0.46849000  0.16550000  0.11907000  1.0 -0.0612652814
C  C301  1  0.41589000  0.31849000  0.07380000  1.0 -0.1909124542
C  C302  1  0.68151000  0.09740000  0.40713000  1.0 -0.1909124542
C  C303  1  0.90260000  0.58411000  0.74047000  1.0 -0.1909124542
C  C304  1  0.58411000  0.68151000  0.57380000  1.0 -0.1909124542
C  C305  1  0.31849000  0.90260000  0.90713000  1.0 -0.1909124542
C  C306  1  0.09740000  0.41589000  0.24047000  1.0 -0.1909124542
C  C307  1  0.31849000  0.41589000  0.25953000  1.0 -0.1909124542
C  C308  1  0.09740000  0.68151000  0.92620000  1.0 -0.1909124542
C  C309  1  0.58411000  0.90260000  0.59287000  1.0 -0.1909124542
C  C310  1  0.68151000  0.58411000  0.75953000  1.0 -0.1909124542
C  C311  1  0.90260000  0.31849000  0.42620000  1.0 -0.1909124542
C  C312  1  0.41589000  0.09740000  0.09287000  1.0 -0.1909124542
C  C313  1  0.33979000  0.46349000  0.05930000  1.0 -0.2729672915
C  C314  1  0.53651000  0.87630000  0.39263000  1.0 -0.2729672915
C  C315  1  0.12370000  0.66021000  0.72597000  1.0 -0.2729672915
C  C316  1  0.66021000  0.53651000  0.55930000  1.0 -0.2729672915
C  C317  1  0.46349000  0.12370000  0.89263000  1.0 -0.2729672915
C  C318  1  0.87630000  0.33979000  0.22597000  1.0 -0.2729672915
C  C319  1  0.46349000  0.33979000  0.27403000  1.0 -0.2729672915
C  C320  1  0.87630000  0.53651000  0.94070000  1.0 -0.2729672915
C  C321  1  0.66021000  0.12370000  0.60737000  1.0 -0.2729672915
C  C322  1  0.53651000  0.66021000  0.77403000  1.0 -0.2729672915
C  C323  1  0.12370000  0.46349000  0.44070000  1.0 -0.2729672915
C  C324  1  0.33979000  0.87630000  0.10737000  1.0 -0.2729672915
C  C325  1  0.28409000  0.39919000  0.08580000  1.0 -0.0330558286
C  C326  1  0.60081000  0.88490000  0.41913000  1.0 -0.0330558286
C  C327  1  0.11510000  0.71591000  0.75247000  1.0 -0.0330558286
C  C328  1  0.71591000  0.60081000  0.58580000  1.0 -0.0330558286
C  C329  1  0.39919000  0.11510000  0.91913000  1.0 -0.0330558286
C  C330  1  0.88490000  0.28409000  0.25247000  1.0 -0.0330558286
C  C331  1  0.39919000  0.28409000  0.24753000  1.0 -0.0330558286
C  C332  1  0.88490000  0.60081000  0.91420000  1.0 -0.0330558286
C  C333  1  0.71591000  0.11510000  0.58087000  1.0 -0.0330558286
C  C334  1  0.60081000  0.71591000  0.74753000  1.0 -0.0330558286
C  C335  1  0.11510000  0.39919000  0.41420000  1.0 -0.0330558286
C  C336  1  0.28409000  0.88490000  0.08087000  1.0 -0.0330558286
C  C337  1  0.30379000  0.39379000  0.13780000  1.0 -0.1198138372
C  C338  1  0.60621000  0.91000000  0.47113000  1.0 -0.1198138372
C  C339  1  0.09000000  0.69621000  0.80447000  1.0 -0.1198138372
C  C340  1  0.69621000  0.60621000  0.63780000  1.0 -0.1198138372
C  C341  1  0.39379000  0.09000000  0.97113000  1.0 -0.1198138372
C  C342  1  0.91000000  0.30379000  0.30447000  1.0 -0.1198138372
C  C343  1  0.39379000  0.30379000  0.19553000  1.0 -0.1198138372
C  C344  1  0.91000000  0.60621000  0.86220000  1.0 -0.1198138372
C  C345  1  0.69621000  0.09000000  0.52887000  1.0 -0.1198138372
C  C346  1  0.60621000  0.69621000  0.69553000  1.0 -0.1198138372
C  C347  1  0.09000000  0.39379000  0.36220000  1.0 -0.1198138372
C  C348  1  0.30379000  0.91000000  0.02887000  1.0 -0.1198138372
C  C349  1  0.24489000  0.33899000  0.17010000  1.0 -0.2219776189
C  C350  1  0.66101000  0.90590000  0.50343000  1.0 -0.2219776189
C  C351  1  0.09410000  0.75511000  0.83677000  1.0 -0.2219776189
C  C352  1  0.75511000  0.66101000  0.67010000  1.0 -0.2219776189
C  C353  1  0.33899000  0.09410000  0.00343000  1.0 -0.2219776189
C  C354  1  0.90590000  0.24489000  0.33677000  1.0 -0.2219776189
C  C355  1  0.33899000  0.24489000  0.16323000  1.0 -0.2219776189
C  C356  1  0.90590000  0.66101000  0.82990000  1.0 -0.2219776189
C  C357  1  0.75511000  0.09410000  0.49657000  1.0 -0.2219776189
C  C358  1  0.66101000  0.75511000  0.66323000  1.0 -0.2219776189
C  C359  1  0.09410000  0.33899000  0.32990000  1.0 -0.2219776189
C  C360  1  0.24489000  0.90590000  0.99657000  1.0 -0.2219776189
C  C361  1  0.26399000  0.35979000  0.94910000  1.0 -0.1909124542
C  C362  1  0.64021000  0.90420000  0.28243000  1.0 -0.1909124542
C  C363  1  0.09580000  0.73601000  0.61577000  1.0 -0.1909124542
C  C364  1  0.73601000  0.64021000  0.44910000  1.0 -0.1909124542
C  C365  1  0.35979000  0.09580000  0.78243000  1.0 -0.1909124542
C  C366  1  0.90420000  0.26399000  0.11577000  1.0 -0.1909124542
C  C367  1  0.35979000  0.26399000  0.38423000  1.0 -0.1909124542
C  C368  1  0.90420000  0.64021000  0.05090000  1.0 -0.1909124542
C  C369  1  0.73601000  0.09580000  0.71757000  1.0 -0.1909124542
C  C370  1  0.64021000  0.73601000  0.88423000  1.0 -0.1909124542
C  C371  1  0.09580000  0.35979000  0.55090000  1.0 -0.1909124542
C  C372  1  0.26399000  0.90420000  0.21757000  1.0 -0.1909124542
C  C373  1  0.28999000  0.31099000  0.94600000  1.0 -0.1304335539
C  C374  1  0.68901000  0.97900000  0.27933000  1.0 -0.1304335539
C  C375  1  0.02100000  0.71001000  0.61267000  1.0 -0.1304335539
C  C376  1  0.71001000  0.68901000  0.44600000  1.0 -0.1304335539
C  C377  1  0.31099000  0.02100000  0.77933000  1.0 -0.1304335539
C  C378  1  0.97900000  0.28999000  0.11267000  1.0 -0.1304335539
C  C379  1  0.31099000  0.28999000  0.38733000  1.0 -0.1304335539
C  C380  1  0.97900000  0.68901000  0.05400000  1.0 -0.1304335539
C  C381  1  0.71001000  0.02100000  0.72067000  1.0 -0.1304335539
C  C382  1  0.68901000  0.71001000  0.88733000  1.0 -0.1304335539
C  C383  1  0.02100000  0.31099000  0.55400000  1.0 -0.1304335539
C  C384  1  0.28999000  0.97900000  0.22067000  1.0 -0.1304335539
C  C385  1  0.25039000  0.24629000  0.91590000  1.0 -0.088763876
C  C386  1  0.75371000  0.00410000  0.24923000  1.0 -0.088763876
C  C387  1  0.99590000  0.74961000  0.58257000  1.0 -0.088763876
C  C388  1  0.74961000  0.75371000  0.41590000  1.0 -0.088763876
C  C389  1  0.24629000  0.99590000  0.74923000  1.0 -0.088763876
C  C390  1  0.00410000  0.25039000  0.08257000  1.0 -0.088763876
C  C391  1  0.24629000  0.25039000  0.41743000  1.0 -0.088763876
C  C392  1  0.00410000  0.75371000  0.08410000  1.0 -0.088763876
C  C393  1  0.74961000  0.99590000  0.75077000  1.0 -0.088763876
C  C394  1  0.75371000  0.74961000  0.91743000  1.0 -0.088763876
C  C395  1  0.99590000  0.24629000  0.58410000  1.0 -0.088763876
C  C396  1  0.25039000  0.00410000  0.25077000  1.0 -0.088763876
C  C397  1  0.31099000  0.21729000  0.94500000  1.0 -0.2026816061
C  C398  1  0.78271000  0.09370000  0.27833000  1.0 -0.2026816061
C  C399  1  0.90630000  0.68901000  0.61167000  1.0 -0.2026816061
C  C400  1  0.68901000  0.78271000  0.44500000  1.0 -0.2026816061
C  C401  1  0.21729000  0.90630000  0.77833000  1.0 -0.2026816061
C  C402  1  0.09370000  0.31099000  0.11167000  1.0 -0.2026816061
C  C403  1  0.21729000  0.31099000  0.38833000  1.0 -0.2026816061
C  C404  1  0.09370000  0.78271000  0.05500000  1.0 -0.2026816061
C  C405  1  0.68901000  0.90630000  0.72167000  1.0 -0.2026816061
C  C406  1  0.78271000  0.68901000  0.88833000  1.0 -0.2026816061
C  C407  1  0.90630000  0.21729000  0.55500000  1.0 -0.2026816061
C  C408  1  0.31099000  0.09370000  0.22167000  1.0 -0.2026816061
C  C409  1  0.56259000  0.34899000  0.98510000  1.0 -0.3997809739
C  C410  1  0.65101000  0.21360000  0.31843000  1.0 -0.3997809739
C  C411  1  0.78640000  0.43741000  0.65177000  1.0 -0.3997809739
C  C412  1  0.43741000  0.65101000  0.48510000  1.0 -0.3997809739
C  C413  1  0.34899000  0.78640000  0.81843000  1.0 -0.3997809739
C  C414  1  0.21360000  0.56259000  0.15177000  1.0 -0.3997809739
C  C415  1  0.34899000  0.56259000  0.34823000  1.0 -0.3997809739
C  C416  1  0.21360000  0.65101000  0.01490000  1.0 -0.3997809739
C  C417  1  0.43741000  0.78640000  0.68157000  1.0 -0.3997809739
C  C418  1  0.65101000  0.43741000  0.84823000  1.0 -0.3997809739
C  C419  1  0.78640000  0.34899000  0.51490000  1.0 -0.3997809739
C  C420  1  0.56259000  0.21360000  0.18157000  1.0 -0.3997809739
C  C421  1  0.52019000  0.37309000  0.01320000  1.0 0.0059779435
C  C422  1  0.62691000  0.14710000  0.34653000  1.0 0.0059779435
C  C423  1  0.85290000  0.47981000  0.67987000  1.0 0.0059779435
C  C424  1  0.47981000  0.62691000  0.51320000  1.0 0.0059779435
C  C425  1  0.37309000  0.85290000  0.84653000  1.0 0.0059779435
C  C426  1  0.14710000  0.52019000  0.17987000  1.0 0.0059779435
C  C427  1  0.37309000  0.52019000  0.32013000  1.0 0.0059779435
C  C428  1  0.14710000  0.62691000  0.98680000  1.0 0.0059779435
C  C429  1  0.47981000  0.85290000  0.65347000  1.0 0.0059779435
C  C430  1  0.62691000  0.47981000  0.82013000  1.0 0.0059779435
C  C431  1  0.85290000  0.37309000  0.48680000  1.0 0.0059779435
C  C432  1  0.52019000  0.14710000  0.15347000  1.0 0.0059779435
C  C433  1  0.47909000  0.32589000  0.05420000  1.0 -0.0485332125
C  C434  1  0.67411000  0.15320000  0.38753000  1.0 -0.0485332125
C  C435  1  0.84680000  0.52091000  0.72087000  1.0 -0.0485332125
C  C436  1  0.52091000  0.67411000  0.55420000  1.0 -0.0485332125
C  C437  1  0.32589000  0.84680000  0.88753000  1.0 -0.0485332125
C  C438  1  0.15320000  0.47909000  0.22087000  1.0 -0.0485332125
C  C439  1  0.32589000  0.47909000  0.27913000  1.0 -0.0485332125
C  C440  1  0.15320000  0.67411000  0.94580000  1.0 -0.0485332125
C  C441  1  0.52091000  0.84680000  0.61247000  1.0 -0.0485332125
C  C442  1  0.67411000  0.52091000  0.77913000  1.0 -0.0485332125
C  C443  1  0.84680000  0.32589000  0.44580000  1.0 -0.0485332125
C  C444  1  0.47909000  0.15320000  0.11247000  1.0 -0.0485332125
C  C445  1  0.41259000  0.26169000  0.03930000  1.0 -0.1621411891
C  C446  1  0.73831000  0.15090000  0.37263000  1.0 -0.1621411891
C  C447  1  0.84910000  0.58741000  0.70597000  1.0 -0.1621411891
C  C448  1  0.58741000  0.73831000  0.53930000  1.0 -0.1621411891
C  C449  1  0.26169000  0.84910000  0.87263000  1.0 -0.1621411891
C  C450  1  0.15090000  0.41259000  0.20597000  1.0 -0.1621411891
C  C451  1  0.26169000  0.41259000  0.29403000  1.0 -0.1621411891
C  C452  1  0.15090000  0.73831000  0.96070000  1.0 -0.1621411891
C  C453  1  0.58741000  0.84910000  0.62737000  1.0 -0.1621411891
C  C454  1  0.73831000  0.58741000  0.79403000  1.0 -0.1621411891
C  C455  1  0.84910000  0.26169000  0.46070000  1.0 -0.1621411891
C  C456  1  0.41259000  0.15090000  0.12737000  1.0 -0.1621411891
N  N1  1  0.60323000  0.49910000  0.94043000  1.0 -0.2496855049
N  N2  1  0.50090000  0.10413000  0.27376000  1.0 -0.2496855049
N  N3  1  0.89587000  0.39677000  0.60710000  1.0 -0.2496855049
N  N4  1  0.39677000  0.50090000  0.44043000  1.0 -0.2496855049
N  N5  1  0.49910000  0.89587000  0.77376000  1.0 -0.2496855049
N  N6  1  0.10413000  0.60323000  0.10710000  1.0 -0.2496855049
N  N7  1  0.49910000  0.60323000  0.39290000  1.0 -0.2496855049
N  N8  1  0.10413000  0.50090000  0.05957000  1.0 -0.2496855049
N  N9  1  0.39677000  0.89587000  0.72624000  1.0 -0.2496855049
N  N10  1  0.50090000  0.39677000  0.89290000  1.0 -0.2496855049
N  N11  1  0.89587000  0.49910000  0.55957000  1.0 -0.2496855049
N  N12  1  0.60323000  0.10413000  0.22624000  1.0 -0.2496855049
N  N13  1  0.72889000  0.28499000  0.91920000  1.0 0.0605698762
N  N14  1  0.71501000  0.44390000  0.25253000  1.0 0.0605698762
N  N15  1  0.55610000  0.27111000  0.58587000  1.0 0.0605698762
N  N16  1  0.27111000  0.71501000  0.41920000  1.0 0.0605698762
N  N17  1  0.28499000  0.55610000  0.75253000  1.0 0.0605698762
N  N18  1  0.44390000  0.72889000  0.08587000  1.0 0.0605698762
N  N19  1  0.28499000  0.72889000  0.41413000  1.0 0.0605698762
N  N20  1  0.44390000  0.71501000  0.08080000  1.0 0.0605698762
N  N21  1  0.27111000  0.55610000  0.74747000  1.0 0.0605698762
N  N22  1  0.71501000  0.27111000  0.91413000  1.0 0.0605698762
N  N23  1  0.55610000  0.28499000  0.58080000  1.0 0.0605698762
N  N24  1  0.72889000  0.44390000  0.24747000  1.0 0.0605698762
O  O1  1  0.70800000  0.47597000  0.95320000  1.0 -0.4401609116
O  O2  1  0.52403000  0.23203000  0.28653000  1.0 -0.4401609116
O  O3  1  0.76797000  0.29200000  0.61987000  1.0 -0.4401609116
O  O4  1  0.29200000  0.52403000  0.45320000  1.0 -0.4401609116
O  O5  1  0.47597000  0.76797000  0.78653000  1.0 -0.4401609116
O  O6  1  0.23203000  0.70800000  0.11987000  1.0 -0.4401609116
O  O7  1  0.47597000  0.70800000  0.38013000  1.0 -0.4401609116
O  O8  1  0.23203000  0.52403000  0.04680000  1.0 -0.4401609116
O  O9  1  0.29200000  0.76797000  0.71347000  1.0 -0.4401609116
O  O10  1  0.52403000  0.29200000  0.88013000  1.0 -0.4401609116
O  O11  1  0.76797000  0.47597000  0.54680000  1.0 -0.4401609116
O  O12  1  0.70800000  0.23203000  0.21347000  1.0 -0.4401609116
O  O13  1  0.76793000  0.57573000  0.99427000  1.0 -0.4401609116
O  O14  1  0.42427000  0.19220000  0.32760000  1.0 -0.4401609116
O  O15  1  0.80780000  0.23207000  0.66094000  1.0 -0.4401609116
O  O16  1  0.23207000  0.42427000  0.49427000  1.0 -0.4401609116
O  O17  1  0.57573000  0.80780000  0.82760000  1.0 -0.4401609116
O  O18  1  0.19220000  0.76793000  0.16094000  1.0 -0.4401609116
O  O19  1  0.57573000  0.76793000  0.33906000  1.0 -0.4401609116
O  O20  1  0.19220000  0.42427000  0.00573000  1.0 -0.4401609116
O  O21  1  0.23207000  0.80780000  0.67240000  1.0 -0.4401609116
O  O22  1  0.42427000  0.23207000  0.83906000  1.0 -0.4401609116
O  O23  1  0.80780000  0.57573000  0.50573000  1.0 -0.4401609116
O  O24  1  0.76793000  0.19220000  0.17240000  1.0 -0.4401609116
O  O25  1  0.40976000  0.47859000  0.95844000  1.0 -0.472121887
O  O26  1  0.52141000  0.93117000  0.29177000  1.0 -0.472121887
O  O27  1  0.06883000  0.59024000  0.62511000  1.0 -0.472121887
O  O28  1  0.59024000  0.52141000  0.45844000  1.0 -0.472121887
O  O29  1  0.47859000  0.06883000  0.79177000  1.0 -0.472121887
O  O30  1  0.93117000  0.40976000  0.12511000  1.0 -0.472121887
O  O31  1  0.47859000  0.40976000  0.37489000  1.0 -0.472121887
O  O32  1  0.93117000  0.52141000  0.04156000  1.0 -0.472121887
O  O33  1  0.59024000  0.06883000  0.70823000  1.0 -0.472121887
O  O34  1  0.52141000  0.59024000  0.87489000  1.0 -0.472121887
O  O35  1  0.06883000  0.47859000  0.54156000  1.0 -0.472121887
O  O36  1  0.40976000  0.93117000  0.20823000  1.0 -0.472121887
O  O37  1  0.45597000  0.58447000  0.99176000  1.0 -0.4338941501
O  O38  1  0.41553000  0.87150000  0.32509000  1.0 -0.4338941501
O  O39  1  0.12850000  0.54403000  0.65843000  1.0 -0.4338941501
O  O40  1  0.54403000  0.41553000  0.49176000  1.0 -0.4338941501
O  O41  1  0.58447000  0.12850000  0.82509000  1.0 -0.4338941501
O  O42  1  0.87150000  0.45597000  0.15843000  1.0 -0.4338941501
O  O43  1  0.58447000  0.45597000  0.34157000  1.0 -0.4338941501
O  O44  1  0.87150000  0.41553000  0.00824000  1.0 -0.4338941501
O  O45  1  0.54403000  0.12850000  0.67491000  1.0 -0.4338941501
O  O46  1  0.41553000  0.54403000  0.84157000  1.0 -0.4338941501
O  O47  1  0.12850000  0.58447000  0.50824000  1.0 -0.4338941501
O  O48  1  0.45597000  0.87150000  0.17491000  1.0 -0.4338941501
O  O49  1  0.65619000  0.32859000  0.91410000  1.0 -0.2906547935
O  O50  1  0.67141000  0.32760000  0.24743000  1.0 -0.2906547935
O  O51  1  0.67240000  0.34381000  0.58077000  1.0 -0.2906547935
O  O52  1  0.34381000  0.67141000  0.41410000  1.0 -0.2906547935
O  O53  1  0.32859000  0.67240000  0.74743000  1.0 -0.2906547935
O  O54  1  0.32760000  0.65619000  0.08077000  1.0 -0.2906547935
O  O55  1  0.32859000  0.65619000  0.41923000  1.0 -0.2906547935
O  O56  1  0.32760000  0.67141000  0.08590000  1.0 -0.2906547935
O  O57  1  0.34381000  0.67240000  0.75257000  1.0 -0.2906547935
O  O58  1  0.67141000  0.34381000  0.91923000  1.0 -0.2906547935
O  O59  1  0.67240000  0.32859000  0.58590000  1.0 -0.2906547935
O  O60  1  0.65619000  0.32760000  0.25257000  1.0 -0.2906547935
