# DDEC6 charges by PACMAN v1.1 (https://github.com/mtap-research/PACMAN-charge/)
data_TUHDIM_ASR_pacman
_symmetry_space_group_name_H-M   'P 1'
_cell_length_a   19.59280000
_cell_length_b   19.59280000
_cell_length_c   27.65200000
_cell_angle_alpha   90.00000000
_cell_angle_beta   90.00000000
_cell_angle_gamma   127.68900000
_symmetry_Int_Tables_number   1
_chemical_formula_structural   Cu2H22C40O9
_chemical_formula_sum   'Cu8 H88 C160 O36'
_cell_volume   8400.07539468
_cell_formula_units_Z   4
loop_
 _symmetry_equiv_pos_site_id
 _symmetry_equiv_pos_as_xyz
  1  'x, y, z'
loop_
 _atom_site_type_symbol
 _atom_site_label
 _atom_site_symmetry_multiplicity
 _atom_site_fract_x
 _atom_site_fract_y
 _atom_site_fract_z
 _atom_site_occupancy
 _atom_site_charge
Cu  Cu1  1  0.26874000  0.37164000  0.25000000  1.0 0.8511412193
Cu  Cu2  1  0.28598000  0.24836000  0.25000000  1.0 0.8571423818
Cu  Cu3  1  0.37164000  0.26874000  0.75000000  1.0 0.8511412193
Cu  Cu4  1  0.24836000  0.28598000  0.75000000  1.0 0.8571423818
Cu  Cu5  1  0.73511000  0.30649000  0.75000000  1.0 0.8571423818
Cu  Cu6  1  0.90298000  0.43298000  0.75000000  1.0 0.8511412193
Cu  Cu7  1  0.30649000  0.73511000  0.25000000  1.0 0.8571423818
Cu  Cu8  1  0.43298000  0.90298000  0.25000000  1.0 0.8571423818
H  H1  1  0.71344000  0.86446000  0.47121000  1.0 0.1303530566
H  H2  1  0.69789000  0.72973000  0.58471000  1.0 0.1458766956
H  H3  1  0.49089000  0.64119000  0.50305000  1.0 0.1183346712
H  H4  1  0.54302000  0.46737000  0.64872000  1.0 0.1183346712
H  H5  1  0.89613000  0.95473000  0.47024000  1.0 0.1303530566
H  H6  1  0.45936000  0.64142000  0.42780000  1.0 0.1112622077
H  H7  1  0.79843000  0.97593000  0.58948000  1.0 0.1421156314
H  H8  1  0.39818000  0.65808000  0.36273000  1.0 0.1303530566
H  H9  1  0.95997000  0.18387000  0.50672000  1.0 0.1112622077
H  H10  1  0.02356000  0.03364000  0.43409000  1.0 0.1112622077
H  H11  1  0.72953000  0.13183000  0.65664000  1.0 0.1303530566
H  H12  1  0.07552000  0.27300000  0.36147000  1.0 0.1303530566
H  H13  1  0.62090000  0.57684000  0.59304000  1.0 0.1112622077
H  H14  1  0.11521000  0.09461000  0.36673000  1.0 0.1183346712
H  H15  1  0.98579000  0.25537000  0.57687000  1.0 0.1183346712
H  H16  1  0.98421000  0.21059000  0.42695000  1.0 0.1112622077
H  H17  1  0.57727000  0.91225000  0.37038000  1.0 0.1303530566
H  H18  1  0.63718000  0.89474000  0.43522000  1.0 0.1183346712
H  H19  1  0.74660000  0.05008000  0.60626000  1.0 0.1112622077
H  H20  1  0.42405000  0.58647000  0.58086000  1.0 0.1112622077
H  H21  1  0.34767000  0.47881000  0.63610000  1.0 0.1303530566
H  H22  1  0.97081000  0.33511000  0.63062000  1.0 0.1303530566
H  H23  1  0.86446000  0.71344000  0.52879000  1.0 0.1303530566
H  H24  1  0.72973000  0.69789000  0.41529000  1.0 0.1458766956
H  H25  1  0.64119000  0.49089000  0.49695000  1.0 0.1183346712
H  H26  1  0.46738000  0.54302000  0.35128000  1.0 0.1183346712
H  H27  1  0.95473000  0.89613000  0.52976000  1.0 0.1303530566
H  H28  1  0.64142000  0.45936000  0.57220000  1.0 0.1112622077
H  H29  1  0.97593000  0.79843000  0.41052000  1.0 0.1421156314
H  H30  1  0.65808000  0.39818000  0.63727000  1.0 0.1303530566
H  H31  1  0.18387000  0.95997000  0.49328000  1.0 0.1112622077
H  H32  1  0.03364000  0.02356000  0.56591000  1.0 0.1112622077
H  H33  1  0.13183000  0.72953000  0.34336000  1.0 0.1303530566
H  H34  1  0.27300000  0.07552000  0.63853000  1.0 0.1303530566
H  H35  1  0.57684000  0.62090000  0.40696000  1.0 0.1112622077
H  H36  1  0.09461000  0.11521000  0.63327000  1.0 0.1183346712
H  H37  1  0.25537000  0.98579000  0.42313000  1.0 0.1183346712
H  H38  1  0.21059000  0.98421000  0.57305000  1.0 0.1112622077
H  H39  1  0.91225000  0.57727000  0.62962000  1.0 0.1303530566
H  H40  1  0.89474000  0.63718000  0.56478000  1.0 0.1183346712
H  H41  1  0.05008000  0.74660000  0.39374000  1.0 0.1112622077
H  H42  1  0.58647000  0.42405000  0.41914000  1.0 0.1112622077
H  H43  1  0.47881000  0.34767000  0.36390000  1.0 0.1303530566
H  H44  1  0.33511000  0.97081000  0.36938000  1.0 0.1303530566
H  H45  1  0.86446000  0.71344000  0.97121000  1.0 0.1303530566
H  H46  1  0.72973000  0.69789000  0.08471000  1.0 0.1458766956
H  H47  1  0.64119000  0.49089000  0.00305000  1.0 0.1183346712
H  H48  1  0.46738000  0.54302000  0.14872000  1.0 0.1183346712
H  H49  1  0.95473000  0.89613000  0.97024000  1.0 0.1303530566
H  H50  1  0.64142000  0.45936000  0.92780000  1.0 0.1112622077
H  H51  1  0.97593000  0.79843000  0.08948000  1.0 0.1421156314
H  H52  1  0.65808000  0.39818000  0.86273000  1.0 0.1303530566
H  H53  1  0.18387000  0.95997000  0.00672000  1.0 0.1112622077
H  H54  1  0.03364000  0.02356000  0.93409000  1.0 0.1112622077
H  H55  1  0.13183000  0.72953000  0.15664000  1.0 0.1303530566
H  H56  1  0.27300000  0.07552000  0.86147000  1.0 0.1303530566
H  H57  1  0.57684000  0.62090000  0.09304000  1.0 0.1112622077
H  H58  1  0.09461000  0.11521000  0.86673000  1.0 0.1183346712
H  H59  1  0.25537000  0.98579000  0.07687000  1.0 0.1183346712
H  H60  1  0.21059000  0.98421000  0.92695000  1.0 0.1112622077
H  H61  1  0.91225000  0.57727000  0.87038000  1.0 0.1303530566
H  H62  1  0.89474000  0.63718000  0.93522000  1.0 0.1183346712
H  H63  1  0.05008000  0.74660000  0.10626000  1.0 0.1112622077
H  H64  1  0.58647000  0.42405000  0.08086000  1.0 0.1112622077
H  H65  1  0.47881000  0.34767000  0.13610000  1.0 0.1303530566
H  H66  1  0.33511000  0.97081000  0.13062000  1.0 0.1303530566
H  H67  1  0.71344000  0.86446000  0.02879000  1.0 0.1303530566
H  H68  1  0.69789000  0.72973000  0.91529000  1.0 0.1458766956
H  H69  1  0.49089000  0.64119000  0.99695000  1.0 0.1183346712
H  H70  1  0.54302000  0.46737000  0.85128000  1.0 0.1183346712
H  H71  1  0.89613000  0.95473000  0.02976000  1.0 0.1303530566
H  H72  1  0.45936000  0.64142000  0.07220000  1.0 0.1112622077
H  H73  1  0.79843000  0.97593000  0.91052000  1.0 0.1421156314
H  H74  1  0.39818000  0.65808000  0.13727000  1.0 0.1303530566
H  H75  1  0.95997000  0.18387000  0.99328000  1.0 0.1112622077
H  H76  1  0.02356000  0.03364000  0.06591000  1.0 0.1112622077
H  H77  1  0.72953000  0.13183000  0.84336000  1.0 0.1303530566
H  H78  1  0.07552000  0.27300000  0.13853000  1.0 0.1303530566
H  H79  1  0.62090000  0.57684000  0.90696000  1.0 0.1112622077
H  H80  1  0.11521000  0.09461000  0.13327000  1.0 0.1183346712
H  H81  1  0.98579000  0.25537000  0.92313000  1.0 0.1183346712
H  H82  1  0.98421000  0.21059000  0.07305000  1.0 0.1112622077
H  H83  1  0.57727000  0.91225000  0.12962000  1.0 0.1303530566
H  H84  1  0.63718000  0.89474000  0.06478000  1.0 0.1183346712
H  H85  1  0.74660000  0.05008000  0.89374000  1.0 0.1112622077
H  H86  1  0.42405000  0.58647000  0.91914000  1.0 0.1112622077
H  H87  1  0.34767000  0.47881000  0.86390000  1.0 0.1303530566
H  H88  1  0.97081000  0.33511000  0.86938000  1.0 0.1303530566
C  C1  1  0.59705000  0.75455000  0.48020000  1.0 0.0989317719
C  C2  1  0.68066000  0.81574000  0.49069000  1.0 -0.2595820601
C  C3  1  0.67185000  0.73615000  0.55890000  1.0 -0.2437552065
C  C4  1  0.71952000  0.80728000  0.53077000  1.0 0.2718850423
C  C5  1  0.48358000  0.78602000  0.35830000  1.0 -0.0227496258
C  C6  1  0.93978000  0.07622000  0.48110000  1.0 0.0989317719
C  C7  1  0.55845000  0.76415000  0.43733000  1.0 0.0682661061
C  C8  1  0.10465000  0.19095000  0.35735000  1.0 -0.0320422017
C  C9  1  0.16642000  0.23498000  0.31540000  1.0 0.5761864458
C  C10  1  0.54906000  0.68334000  0.50990000  1.0 -0.2184000612
C  C11  1  0.84338000  0.95382000  0.53225000  1.0 0.2392006565
C  C12  1  0.44023000  0.79477000  0.31549000  1.0 0.5735009064
C  C13  1  0.51898000  0.49182000  0.63530000  1.0 -0.0889180856
C  C14  1  0.89342000  0.98978000  0.49150000  1.0 -0.2471168986
C  C15  1  0.58462000  0.67238000  0.54990000  1.0 0.0989317719
C  C16  1  0.38811000  0.39269000  0.68536000  1.0 0.5761864458
C  C17  1  0.53125000  0.59635000  0.58160000  1.0 0.0682661061
C  C18  1  0.99700000  0.11700000  0.43769000  1.0 0.0682661061
C  C19  1  0.48540000  0.69660000  0.41580000  1.0 -0.1585595581
C  C20  1  0.83417000  0.00163000  0.56260000  1.0 -0.2437552065
C  C21  1  0.44802000  0.70638000  0.37660000  1.0 -0.0889180856
C  C22  1  0.86909000  0.14391000  0.58670000  1.0 0.0645909768
C  C23  1  0.93052000  0.12548000  0.51290000  1.0 -0.2184000612
C  C24  1  0.03459000  0.08221000  0.41940000  1.0 -0.1681493397
C  C25  1  0.78250000  0.15690000  0.64170000  1.0 -0.0889180856
C  C26  1  0.43739000  0.46161000  0.64900000  1.0 -0.0451430629
C  C27  1  0.84890000  0.24110000  0.65060000  1.0 -0.0320422017
C  C28  1  0.06521000  0.22459000  0.37590000  1.0 -0.0832325702
C  C29  1  0.56600000  0.55780000  0.60200000  1.0 -0.1681493397
C  C30  1  0.08960000  0.11840000  0.37880000  1.0 -0.0889180856
C  C31  1  0.87759000  0.08861000  0.55400000  1.0 0.0989317719
C  C32  1  0.84167000  0.29273000  0.68720000  1.0 0.5735009064
C  C33  1  0.93430000  0.22910000  0.59370000  1.0 -0.1585595581
C  C34  1  0.01110000  0.18790000  0.41540000  1.0 -0.1585595581
C  C35  1  0.55410000  0.85710000  0.38120000  1.0 -0.0889180856
C  C36  1  0.59010000  0.84610000  0.41990000  1.0 -0.1585595581
C  C37  1  0.79230000  0.10810000  0.61080000  1.0 -0.1585595581
C  C38  1  0.44920000  0.56360000  0.59480000  1.0 -0.1470275621
C  C39  1  0.40300000  0.49860000  0.62780000  1.0 -0.0832325702
C  C40  1  0.92490000  0.27730000  0.62580000  1.0 -0.0889180856
C  C41  1  0.75455000  0.59705000  0.51980000  1.0 0.0989317719
C  C42  1  0.81574000  0.68066000  0.50931000  1.0 -0.2595820601
C  C43  1  0.73615000  0.67185000  0.44110000  1.0 -0.2437552065
C  C44  1  0.80728000  0.71952000  0.46923000  1.0 0.2718850423
C  C45  1  0.78602000  0.48358000  0.64170000  1.0 -0.0227496258
C  C46  1  0.07622000  0.93978000  0.51890000  1.0 0.0989317719
C  C47  1  0.76415000  0.55845000  0.56267000  1.0 0.0682661061
C  C48  1  0.19095000  0.10465000  0.64265000  1.0 -0.0320422017
C  C49  1  0.23498000  0.16642000  0.68460000  1.0 0.5761864458
C  C50  1  0.68334000  0.54906000  0.49010000  1.0 -0.2184000612
C  C51  1  0.95382000  0.84338000  0.46775000  1.0 0.2392006565
C  C52  1  0.79477000  0.44023000  0.68451000  1.0 0.5735009064
C  C53  1  0.49182000  0.51898000  0.36470000  1.0 -0.0889180856
C  C54  1  0.98978000  0.89342000  0.50850000  1.0 -0.2471168986
C  C55  1  0.67238000  0.58462000  0.45010000  1.0 0.0989317719
C  C56  1  0.39269000  0.38811000  0.31464000  1.0 0.5761864458
C  C57  1  0.59635000  0.53125000  0.41840000  1.0 0.0682661061
C  C58  1  0.11700000  0.99700000  0.56231000  1.0 0.0682661061
C  C59  1  0.69660000  0.48540000  0.58420000  1.0 -0.1585595581
C  C60  1  0.00163000  0.83417000  0.43740000  1.0 -0.2471168986
C  C61  1  0.70638000  0.44802000  0.62340000  1.0 -0.0889180856
C  C62  1  0.14391000  0.86909000  0.41330000  1.0 0.0645909768
C  C63  1  0.12548000  0.93052000  0.48710000  1.0 -0.2184000612
C  C64  1  0.08221000  0.03459000  0.58060000  1.0 -0.1681493397
C  C65  1  0.15690000  0.78250000  0.35830000  1.0 -0.0889180856
C  C66  1  0.46161000  0.43739000  0.35100000  1.0 -0.0451430629
C  C67  1  0.24110000  0.84890000  0.34940000  1.0 -0.0370475601
C  C68  1  0.22459000  0.06521000  0.62410000  1.0 -0.0832325702
C  C69  1  0.55780000  0.56600000  0.39800000  1.0 -0.1681493397
C  C70  1  0.11840000  0.08960000  0.62120000  1.0 -0.0889180856
C  C71  1  0.08861000  0.87759000  0.44600000  1.0 0.0989317719
C  C72  1  0.29273000  0.84167000  0.31280000  1.0 0.5735009064
C  C73  1  0.22910000  0.93430000  0.40630000  1.0 -0.1585595581
C  C74  1  0.18790000  0.01110000  0.58460000  1.0 -0.1585595581
C  C75  1  0.85710000  0.55410000  0.61880000  1.0 -0.0889180856
C  C76  1  0.84610000  0.59010000  0.58010000  1.0 -0.1585595581
C  C77  1  0.10810000  0.79230000  0.38920000  1.0 -0.1585595581
C  C78  1  0.56360000  0.44920000  0.40520000  1.0 -0.1470275621
C  C79  1  0.49860000  0.40300000  0.37220000  1.0 -0.0832325702
C  C80  1  0.27730000  0.92490000  0.37420000  1.0 -0.0889180856
C  C81  1  0.75455000  0.59705000  0.98020000  1.0 0.0989317719
C  C82  1  0.81574000  0.68066000  0.99069000  1.0 -0.2595820601
C  C83  1  0.73615000  0.67185000  0.05890000  1.0 -0.2437552065
C  C84  1  0.80728000  0.71952000  0.03077000  1.0 0.2718850423
C  C85  1  0.78602000  0.48358000  0.85830000  1.0 -0.0227496258
C  C86  1  0.07622000  0.93978000  0.98110000  1.0 0.0989317719
C  C87  1  0.76415000  0.55845000  0.93733000  1.0 0.0682661061
C  C88  1  0.19095000  0.10465000  0.85735000  1.0 -0.0320422017
C  C89  1  0.23498000  0.16642000  0.81540000  1.0 0.5761864458
C  C90  1  0.68334000  0.54906000  0.00990000  1.0 -0.2184000612
C  C91  1  0.95382000  0.84338000  0.03225000  1.0 0.2392006565
C  C92  1  0.79477000  0.44023000  0.81549000  1.0 0.5735009064
C  C93  1  0.49182000  0.51898000  0.13530000  1.0 -0.0889180856
C  C94  1  0.98978000  0.89342000  0.99150000  1.0 -0.2471168986
C  C95  1  0.67238000  0.58462000  0.04990000  1.0 0.0989317719
C  C96  1  0.39269000  0.38811000  0.18536000  1.0 0.5761864458
C  C97  1  0.59635000  0.53125000  0.08160000  1.0 0.0682661061
C  C98  1  0.11700000  0.99700000  0.93769000  1.0 0.0682661061
C  C99  1  0.69660000  0.48540000  0.91580000  1.0 -0.1585595581
C  C100  1  0.00163000  0.83417000  0.06260000  1.0 -0.2471168986
C  C101  1  0.70638000  0.44802000  0.87660000  1.0 -0.0889180856
C  C102  1  0.14391000  0.86909000  0.08670000  1.0 0.0645909768
C  C103  1  0.12548000  0.93052000  0.01290000  1.0 -0.2184000612
C  C104  1  0.08221000  0.03459000  0.91940000  1.0 -0.1681493397
C  C105  1  0.15690000  0.78250000  0.14170000  1.0 -0.0889180856
C  C106  1  0.46161000  0.43739000  0.14900000  1.0 -0.0451430629
C  C107  1  0.24110000  0.84890000  0.15060000  1.0 -0.0370475601
C  C108  1  0.22459000  0.06521000  0.87590000  1.0 -0.0832325702
C  C109  1  0.55780000  0.56600000  0.10200000  1.0 -0.1681493397
C  C110  1  0.11840000  0.08960000  0.87880000  1.0 -0.0889180856
C  C111  1  0.08861000  0.87759000  0.05400000  1.0 0.0989317719
C  C112  1  0.29273000  0.84167000  0.18720000  1.0 0.5735009064
C  C113  1  0.22910000  0.93430000  0.09370000  1.0 -0.1585595581
C  C114  1  0.18790000  0.01110000  0.91540000  1.0 -0.1585595581
C  C115  1  0.85710000  0.55410000  0.88120000  1.0 -0.0889180856
C  C116  1  0.84610000  0.59010000  0.91990000  1.0 -0.1585595581
C  C117  1  0.10810000  0.79230000  0.11080000  1.0 -0.1585595581
C  C118  1  0.56360000  0.44920000  0.09480000  1.0 -0.1470275621
C  C119  1  0.49860000  0.40300000  0.12780000  1.0 -0.0832325702
C  C120  1  0.27730000  0.92490000  0.12580000  1.0 -0.0889180856
C  C121  1  0.59705000  0.75455000  0.01980000  1.0 0.0989317719
C  C122  1  0.68066000  0.81574000  0.00931000  1.0 -0.2595820601
C  C123  1  0.67185000  0.73615000  0.94110000  1.0 -0.2437552065
C  C124  1  0.71952000  0.80728000  0.96923000  1.0 0.2718850423
C  C125  1  0.48358000  0.78602000  0.14170000  1.0 -0.0227496258
C  C126  1  0.93978000  0.07622000  0.01890000  1.0 0.0989317719
C  C127  1  0.55845000  0.76415000  0.06267000  1.0 0.0682661061
C  C128  1  0.10465000  0.19095000  0.14265000  1.0 -0.0320422017
C  C129  1  0.16642000  0.23498000  0.18460000  1.0 0.5761864458
C  C130  1  0.54906000  0.68334000  0.99010000  1.0 -0.2184000612
C  C131  1  0.84338000  0.95382000  0.96775000  1.0 0.2392006565
C  C132  1  0.44023000  0.79477000  0.18451000  1.0 0.5735009064
C  C133  1  0.51898000  0.49182000  0.86470000  1.0 -0.0889180856
C  C134  1  0.89342000  0.98978000  0.00850000  1.0 -0.2471168986
C  C135  1  0.58462000  0.67238000  0.95010000  1.0 0.0989317719
C  C136  1  0.38811000  0.39269000  0.81464000  1.0 0.5761864458
C  C137  1  0.53125000  0.59635000  0.91840000  1.0 0.0682661061
C  C138  1  0.99700000  0.11700000  0.06231000  1.0 0.0682661061
C  C139  1  0.48540000  0.69660000  0.08420000  1.0 -0.1585595581
C  C140  1  0.83417000  0.00163000  0.93740000  1.0 -0.2437552065
C  C141  1  0.44802000  0.70638000  0.12340000  1.0 -0.0889180856
C  C142  1  0.86909000  0.14391000  0.91330000  1.0 0.0645909768
C  C143  1  0.93052000  0.12548000  0.98710000  1.0 -0.2184000612
C  C144  1  0.03459000  0.08221000  0.08060000  1.0 -0.1681493397
C  C145  1  0.78250000  0.15690000  0.85830000  1.0 -0.0889180856
C  C146  1  0.43739000  0.46161000  0.85100000  1.0 -0.0451430629
C  C147  1  0.84890000  0.24110000  0.84940000  1.0 -0.0320422017
C  C148  1  0.06521000  0.22459000  0.12410000  1.0 -0.0832325702
C  C149  1  0.56600000  0.55780000  0.89800000  1.0 -0.1681493397
C  C150  1  0.08960000  0.11840000  0.12120000  1.0 -0.0889180856
C  C151  1  0.87759000  0.08861000  0.94600000  1.0 0.0989317719
C  C152  1  0.84167000  0.29273000  0.81280000  1.0 0.5735009064
C  C153  1  0.93430000  0.22910000  0.90630000  1.0 -0.1585595581
C  C154  1  0.01110000  0.18790000  0.08460000  1.0 -0.1585595581
C  C155  1  0.55410000  0.85710000  0.11880000  1.0 -0.0889180856
C  C156  1  0.59010000  0.84610000  0.08010000  1.0 -0.1585595581
C  C157  1  0.79230000  0.10810000  0.88920000  1.0 -0.1585595581
C  C158  1  0.44920000  0.56360000  0.90520000  1.0 -0.1470275621
C  C159  1  0.40300000  0.49860000  0.87220000  1.0 -0.0832325702
C  C160  1  0.92490000  0.27730000  0.87420000  1.0 -0.0889180856
O  O1  1  0.80395000  0.86765000  0.54311000  1.0 -0.2184000612
O  O2  1  0.37290000  0.73010000  0.29992000  1.0 -0.4923893164
O  O3  1  0.18182000  0.30118000  0.29961000  1.0 -0.4969941378
O  O4  1  0.42280000  0.35860000  0.70011000  1.0 -0.5334139492
O  O5  1  0.19808000  0.19792000  0.30042000  1.0 -0.5374093901
O  O6  1  0.31791000  0.37309000  0.69967000  1.0 -0.4969941378
O  O7  1  0.47970000  0.87170000  0.30013000  1.0 -0.5334139492
O  O8  1  0.76415000  0.25705000  0.70097000  1.0 -0.5374093901
O  O9  1  0.90761000  0.36399000  0.69963000  1.0 -0.4969941378
O  O10  1  0.86765000  0.80395000  0.45689000  1.0 -0.2184000612
O  O11  1  0.73010000  0.37290000  0.70008000  1.0 -0.4923893164
O  O12  1  0.30118000  0.18182000  0.70039000  1.0 -0.4969941378
O  O13  1  0.35860000  0.42280000  0.29989000  1.0 -0.5334139492
O  O14  1  0.19792000  0.19808000  0.69958000  1.0 -0.5374093901
O  O15  1  0.37309000  0.31791000  0.30033000  1.0 -0.4969941378
O  O16  1  0.87170000  0.47970000  0.69987000  1.0 -0.5334139492
O  O17  1  0.25705000  0.76415000  0.29903000  1.0 -0.5374093901
O  O18  1  0.36399000  0.90761000  0.30037000  1.0 -0.4969941378
O  O19  1  0.86765000  0.80395000  0.04311000  1.0 -0.2184000612
O  O20  1  0.73010000  0.37290000  0.79992000  1.0 -0.4923893164
O  O21  1  0.30118000  0.18182000  0.79961000  1.0 -0.4969941378
O  O22  1  0.35860000  0.42280000  0.20011000  1.0 -0.5334139492
O  O23  1  0.19792000  0.19808000  0.80042000  1.0 -0.5374093901
O  O24  1  0.37309000  0.31791000  0.19967000  1.0 -0.4969941378
O  O25  1  0.87170000  0.47970000  0.80013000  1.0 -0.5334139492
O  O26  1  0.25705000  0.76415000  0.20097000  1.0 -0.5374093901
O  O27  1  0.36399000  0.90761000  0.19963000  1.0 -0.4969941378
O  O28  1  0.80395000  0.86765000  0.95689000  1.0 -0.2184000612
O  O29  1  0.37290000  0.73010000  0.20008000  1.0 -0.4923893164
O  O30  1  0.18182000  0.30118000  0.20039000  1.0 -0.4969941378
O  O31  1  0.42280000  0.35860000  0.79989000  1.0 -0.5334139492
O  O32  1  0.19808000  0.19792000  0.19958000  1.0 -0.5374093901
O  O33  1  0.31791000  0.37309000  0.80033000  1.0 -0.4969941378
O  O34  1  0.47970000  0.87170000  0.19987000  1.0 -0.5334139492
O  O35  1  0.76415000  0.25705000  0.79903000  1.0 -0.5374093901
O  O36  1  0.90761000  0.36399000  0.80037000  1.0 -0.4969941378
