# DDEC6 charges by PACMAN v1.1 (https://github.com/mtap-research/PACMAN-charge/)
data_TUPGIU_ion_pacman
_symmetry_space_group_name_H-M   'P 1'
_cell_length_a   6.97100000
_cell_length_b   12.54000000
_cell_length_c   13.21200000
_cell_angle_alpha   112.62000000
_cell_angle_beta   96.10000000
_cell_angle_gamma   93.44000000
_symmetry_Int_Tables_number   1
_chemical_formula_structural   NaC13N2ClO9
_chemical_formula_sum   'Na2 C26 N4 Cl2 O18'
_cell_volume   1053.64388693
_cell_formula_units_Z   2
loop_
 _symmetry_equiv_pos_site_id
 _symmetry_equiv_pos_as_xyz
  1  'x, y, z'
loop_
 _atom_site_type_symbol
 _atom_site_label
 _atom_site_symmetry_multiplicity
 _atom_site_fract_x
 _atom_site_fract_y
 _atom_site_fract_z
 _atom_site_occupancy
 _atom_site_charge
Na  Na1  1  0.24860000  0.53990000  0.47950000  1.0 0.8726406685
Na  Na2  1  0.75140000  0.46010000  0.52050000  1.0 0.8726406685
C  C1  1  0.46110000  0.48510000  0.29450000  1.0 0.5717367224
C  C2  1  0.53890000  0.51490000  0.70550000  1.0 0.5717367224
C  C3  1  0.54060000  0.49010000  0.19240000  1.0 0.0306711337
C  C4  1  0.45940000  0.50990000  0.80760000  1.0 0.0306711337
C  C5  1  0.86060000  0.59680000  0.28090000  1.0 0.2078756234
C  C6  1  0.13940000  0.40320000  0.71910000  1.0 0.2078756234
C  C7  1  0.82590000  0.38220000  0.19510000  1.0 0.232330083
C  C8  1  0.17410000  0.61780000  0.80490000  1.0 0.232330083
C  C9  1  0.78710000  0.49410000  0.07780000  1.0 0.1104097879
C  C10  1  0.21290000  0.50590000  0.92220000  1.0 0.1104097879
C  C11  1  0.99690000  0.50340000  0.05850000  1.0 -0.0622449255
C  C12  1  0.00310000  0.49660000  0.94150000  1.0 -0.0622449255
C  C13  1  0.03420000  0.26500000  0.38750000  1.0 0.5922317496
C  C14  1  0.96580000  0.73500000  0.61250000  1.0 0.5922317496
C  C15  1  0.22360000  0.24330000  0.33650000  1.0 -0.034497895
C  C16  1  0.77640000  0.75670000  0.66350000  1.0 -0.0354202794
C  C17  1  0.43210000  0.13610000  0.20910000  1.0 0.2202352277
C  C18  1  0.56790000  0.86390000  0.79090000  1.0 0.2202352277
C  C19  1  0.21930000  0.02980000  0.28190000  1.0 0.1695708848
C  C20  1  0.78070000  0.97020000  0.71810000  1.0 0.1695708848
C  C21  1  0.07970000  0.11030000  0.14900000  1.0 0.1104097879
C  C22  1  0.92030000  0.88970000  0.85100000  1.0 0.1104097879
C  C23  1  0.08120000  0.00140000  0.04380000  1.0 -0.0739074917
C  C24  1  0.91880000  0.99860000  0.95620000  1.0 -0.0739074917
C  C25  1  0.38010000  0.79400000  0.42270000  1.0 0.4888310424
C  C26  1  0.61990000  0.20600000  0.57730000  1.0 0.4888310424
N  N1  1  0.75660000  0.49070000  0.18880000  1.0 0.0174507118
N  N2  1  0.24340000  0.50930000  0.81120000  1.0 0.0174507118
N  N3  1  0.23580000  0.12760000  0.24350000  1.0 0.0306711337
N  N4  1  0.76420000  0.87240000  0.75650000  1.0 0.0306711337
Cl  Cl1  1  0.37380000  0.18970000  0.90240000  1.0 1.2458198062
Cl  Cl2  1  0.62620000  0.81030000  0.09760000  1.0 1.2447985402
O  O1  1  0.28150000  0.48590000  0.28720000  1.0 -0.5935618886
O  O2  1  0.71850000  0.51410000  0.71280000  1.0 -0.5935618886
O  O3  1  0.56820000  0.47820000  0.37290000  1.0 -0.6465333709
O  O4  1  0.43180000  0.52180000  0.62710000  1.0 -0.6465333709
O  O5  1  0.02580000  0.36950000  0.44510000  1.0 -0.6640987405
O  O6  1  0.97420000  0.63050000  0.55490000  1.0 -0.6640987405
O  O7  1  0.90800000  0.18400000  0.36820000  1.0 -0.4574633622
O  O8  1  0.09200000  0.81600000  0.63180000  1.0 -0.4574633622
O  O9  1  0.36220000  0.74200000  0.50080000  1.0 -0.6177883157
O  O10  1  0.63780000  0.25800000  0.49920000  1.0 -0.6177883157
O  O11  1  0.52430000  0.15890000  0.96430000  1.0 -0.4155421564
O  O12  1  0.46540000  0.25850000  0.85710000  1.0 -0.4448842415
O  O13  1  0.25780000  0.25470000  0.97920000  1.0 -0.4574633622
O  O14  1  0.28570000  0.08360000  0.82780000  1.0 -0.4317246982
O  O15  1  0.47570000  0.84110000  0.03570000  1.0 -0.4155421564
O  O16  1  0.53460000  0.74150000  0.14290000  1.0 -0.4452884206
O  O17  1  0.74220000  0.74530000  0.02080000  1.0 -0.4574633622
O  O18  1  0.71430000  0.91640000  0.17220000  1.0 -0.4317246982
