# DDEC6 charges by PACMAN v1.1 (https://github.com/mtap-research/PACMAN-charge/)
data_TURBUE_ion_pacman
_symmetry_space_group_name_H-M   'P 1'
_cell_length_a   20.92710000
_cell_length_b   20.92710000
_cell_length_c   20.92710000
_cell_angle_alpha   90.00000000
_cell_angle_beta   90.00000000
_cell_angle_gamma   90.00000000
_symmetry_Int_Tables_number   1
_chemical_formula_structural   Gd60Ni15C288N24(ClO37)8
_chemical_formula_sum   'Gd60 Ni15 C288 N24 Cl8 O296'
_cell_volume   9164.88772041
_cell_formula_units_Z   1
loop_
 _symmetry_equiv_pos_site_id
 _symmetry_equiv_pos_as_xyz
  1  'x, y, z'
loop_
 _atom_site_type_symbol
 _atom_site_label
 _atom_site_symmetry_multiplicity
 _atom_site_fract_x
 _atom_site_fract_y
 _atom_site_fract_z
 _atom_site_occupancy
 _atom_site_charge
Gd  Gd1  1  0.50000000  0.80275000  0.80275000  1.0 -0.0742471343
Gd  Gd2  1  0.50000000  0.19725000  0.80275000  1.0 -0.0742471343
Gd  Gd3  1  0.50000000  0.80275000  0.19725000  1.0 -0.0742471343
Gd  Gd4  1  0.50000000  0.19725000  0.19725000  1.0 -0.0750594898
Gd  Gd5  1  0.80275000  0.50000000  0.80275000  1.0 -0.0742471343
Gd  Gd6  1  0.80275000  0.50000000  0.19725000  1.0 -0.0750594898
Gd  Gd7  1  0.19725000  0.50000000  0.80275000  1.0 -0.0742471343
Gd  Gd8  1  0.19725000  0.50000000  0.19725000  1.0 -0.0750594898
Gd  Gd9  1  0.80275000  0.80275000  0.50000000  1.0 -0.0742471343
Gd  Gd10  1  0.19725000  0.80275000  0.50000000  1.0 -0.0742471343
Gd  Gd11  1  0.80275000  0.19725000  0.50000000  1.0 -0.0750594898
Gd  Gd12  1  0.19725000  0.19725000  0.50000000  1.0 -0.0750594898
Gd  Gd13  1  0.47670000  0.24910000  0.78690000  1.0 -0.0575817138
Gd  Gd14  1  0.52330000  0.75090000  0.78690000  1.0 -0.0575817138
Gd  Gd15  1  0.52330000  0.24910000  0.21310000  1.0 -0.0575817138
Gd  Gd16  1  0.47670000  0.75090000  0.21310000  1.0 -0.0575817138
Gd  Gd17  1  0.78690000  0.47670000  0.24910000  1.0 -0.0575817138
Gd  Gd18  1  0.78690000  0.52330000  0.75090000  1.0 -0.0575817138
Gd  Gd19  1  0.21310000  0.52330000  0.24910000  1.0 -0.0575817138
Gd  Gd20  1  0.21310000  0.47670000  0.75090000  1.0 -0.0575817138
Gd  Gd21  1  0.24910000  0.78690000  0.47670000  1.0 -0.0575817138
Gd  Gd22  1  0.75090000  0.78690000  0.52330000  1.0 -0.0575817138
Gd  Gd23  1  0.24910000  0.21310000  0.52330000  1.0 -0.0575817138
Gd  Gd24  1  0.75090000  0.21310000  0.47670000  1.0 -0.0575817138
Gd  Gd25  1  0.24910000  0.47670000  0.21310000  1.0 -0.0575817138
Gd  Gd26  1  0.75090000  0.52330000  0.21310000  1.0 -0.0575817138
Gd  Gd27  1  0.24910000  0.52330000  0.78690000  1.0 -0.0575817138
Gd  Gd28  1  0.75090000  0.47670000  0.78690000  1.0 -0.0575817138
Gd  Gd29  1  0.47670000  0.78690000  0.75090000  1.0 -0.0575817138
Gd  Gd30  1  0.52330000  0.78690000  0.24910000  1.0 -0.0575817138
Gd  Gd31  1  0.52330000  0.21310000  0.75090000  1.0 -0.0575817138
Gd  Gd32  1  0.47670000  0.21310000  0.24910000  1.0 -0.0575817138
Gd  Gd33  1  0.78690000  0.24910000  0.52330000  1.0 -0.0575817138
Gd  Gd34  1  0.78690000  0.75090000  0.47670000  1.0 -0.0575817138
Gd  Gd35  1  0.21310000  0.24910000  0.47670000  1.0 -0.0575817138
Gd  Gd36  1  0.21310000  0.75090000  0.52330000  1.0 -0.0575817138
Gd  Gd37  1  0.52330000  0.75090000  0.21310000  1.0 -0.0575817138
Gd  Gd38  1  0.47670000  0.24910000  0.21310000  1.0 -0.0575817138
Gd  Gd39  1  0.47670000  0.75090000  0.78690000  1.0 -0.0575817138
Gd  Gd40  1  0.52330000  0.24910000  0.78690000  1.0 -0.0575817138
Gd  Gd41  1  0.21310000  0.52330000  0.75090000  1.0 -0.0575817138
Gd  Gd42  1  0.21310000  0.47670000  0.24910000  1.0 -0.0575817138
Gd  Gd43  1  0.78690000  0.47670000  0.75090000  1.0 -0.0575817138
Gd  Gd44  1  0.78690000  0.52330000  0.24910000  1.0 -0.0575817138
Gd  Gd45  1  0.75090000  0.21310000  0.52330000  1.0 -0.0575817138
Gd  Gd46  1  0.24910000  0.21310000  0.47670000  1.0 -0.0575817138
Gd  Gd47  1  0.75090000  0.78690000  0.47670000  1.0 -0.0575817138
Gd  Gd48  1  0.24910000  0.78690000  0.52330000  1.0 -0.0575817138
Gd  Gd49  1  0.75090000  0.52330000  0.78690000  1.0 -0.0575817138
Gd  Gd50  1  0.24910000  0.47670000  0.78690000  1.0 -0.0575817138
Gd  Gd51  1  0.75090000  0.47670000  0.21310000  1.0 -0.0575817138
Gd  Gd52  1  0.24910000  0.52330000  0.21310000  1.0 -0.0575817138
Gd  Gd53  1  0.52330000  0.21310000  0.24910000  1.0 -0.0575817138
Gd  Gd54  1  0.47670000  0.21310000  0.75090000  1.0 -0.0575817138
Gd  Gd55  1  0.47670000  0.78690000  0.24910000  1.0 -0.0575817138
Gd  Gd56  1  0.52330000  0.78690000  0.75090000  1.0 -0.0575817138
Gd  Gd57  1  0.21310000  0.75090000  0.47670000  1.0 -0.0575817138
Gd  Gd58  1  0.21310000  0.24910000  0.52330000  1.0 -0.0575817138
Gd  Gd59  1  0.78690000  0.75090000  0.52330000  1.0 -0.0575817138
Gd  Gd60  1  0.78690000  0.24910000  0.47670000  1.0 -0.0575817138
Ni  Ni1  1  0.32794000  0.67206000  0.00000000  1.0 0.4390861726
Ni  Ni2  1  0.67206000  0.32794000  0.00000000  1.0 0.4390861726
Ni  Ni3  1  0.67206000  0.67206000  0.00000000  1.0 0.4390861726
Ni  Ni4  1  0.32794000  0.32794000  0.00000000  1.0 0.4390861726
Ni  Ni5  1  0.00000000  0.32794000  0.67206000  1.0 0.4390861726
Ni  Ni6  1  0.00000000  0.67206000  0.32794000  1.0 0.4390861726
Ni  Ni7  1  0.00000000  0.67206000  0.67206000  1.0 0.4390861726
Ni  Ni8  1  0.00000000  0.32794000  0.32794000  1.0 0.4390861726
Ni  Ni9  1  0.67206000  0.00000000  0.32794000  1.0 0.4390861726
Ni  Ni10  1  0.32794000  0.00000000  0.67206000  1.0 0.4390861726
Ni  Ni11  1  0.67206000  0.00000000  0.67206000  1.0 0.4390861726
Ni  Ni12  1  0.32794000  0.00000000  0.32794000  1.0 0.4390861726
Ni  Ni13  1  0.50000000  0.50000000  0.00000000  1.0 0.2323551214
Ni  Ni14  1  0.00000000  0.50000000  0.50000000  1.0 0.2323551214
Ni  Ni15  1  0.50000000  0.00000000  0.50000000  1.0 0.2323551214
C  C1  1  0.35960000  0.80690000  0.94860000  1.0 -0.0446884866
C  C2  1  0.64040000  0.19310000  0.94860000  1.0 -0.0446884866
C  C3  1  0.64040000  0.80690000  0.05140000  1.0 -0.0446884866
C  C4  1  0.35960000  0.19310000  0.05140000  1.0 -0.0446884866
C  C5  1  0.94860000  0.35960000  0.80690000  1.0 -0.0446884866
C  C6  1  0.94860000  0.64040000  0.19310000  1.0 -0.0446884866
C  C7  1  0.05140000  0.64040000  0.80690000  1.0 -0.0446884866
C  C8  1  0.05140000  0.35960000  0.19310000  1.0 -0.0446884866
C  C9  1  0.80690000  0.94860000  0.35960000  1.0 -0.0446884866
C  C10  1  0.19310000  0.94860000  0.64040000  1.0 -0.0446884866
C  C11  1  0.80690000  0.05140000  0.64040000  1.0 -0.0446884866
C  C12  1  0.19310000  0.05140000  0.35960000  1.0 -0.0446884866
C  C13  1  0.80690000  0.35960000  0.05140000  1.0 -0.0446884866
C  C14  1  0.19310000  0.64040000  0.05140000  1.0 -0.0446884866
C  C15  1  0.80690000  0.64040000  0.94860000  1.0 -0.0446884866
C  C16  1  0.19310000  0.35960000  0.94860000  1.0 -0.0446884866
C  C17  1  0.35960000  0.94860000  0.19310000  1.0 -0.0446884866
C  C18  1  0.64040000  0.94860000  0.80690000  1.0 -0.0446884866
C  C19  1  0.64040000  0.05140000  0.19310000  1.0 -0.0446884866
C  C20  1  0.35960000  0.05140000  0.80690000  1.0 -0.0446884866
C  C21  1  0.94860000  0.80690000  0.64040000  1.0 -0.0446884866
C  C22  1  0.94860000  0.19310000  0.35960000  1.0 -0.0446884866
C  C23  1  0.05140000  0.80690000  0.35960000  1.0 -0.0446884866
C  C24  1  0.05140000  0.19310000  0.64040000  1.0 -0.0446884866
C  C25  1  0.64040000  0.19310000  0.05140000  1.0 -0.0446884866
C  C26  1  0.35960000  0.80690000  0.05140000  1.0 -0.0446884866
C  C27  1  0.35960000  0.19310000  0.94860000  1.0 -0.0446884866
C  C28  1  0.64040000  0.80690000  0.94860000  1.0 -0.0446884866
C  C29  1  0.05140000  0.64040000  0.19310000  1.0 -0.0446884866
C  C30  1  0.05140000  0.35960000  0.80690000  1.0 -0.0446884866
C  C31  1  0.94860000  0.35960000  0.19310000  1.0 -0.0446884866
C  C32  1  0.94860000  0.64040000  0.80690000  1.0 -0.0446884866
C  C33  1  0.19310000  0.05140000  0.64040000  1.0 -0.0446884866
C  C34  1  0.80690000  0.05140000  0.35960000  1.0 -0.0446884866
C  C35  1  0.19310000  0.94860000  0.35960000  1.0 -0.0446884866
C  C36  1  0.80690000  0.94860000  0.64040000  1.0 -0.0446884866
C  C37  1  0.19310000  0.64040000  0.94860000  1.0 -0.0446884866
C  C38  1  0.80690000  0.35960000  0.94860000  1.0 -0.0446884866
C  C39  1  0.19310000  0.35960000  0.05140000  1.0 -0.0446884866
C  C40  1  0.80690000  0.64040000  0.05140000  1.0 -0.0446884866
C  C41  1  0.64040000  0.05140000  0.80690000  1.0 -0.0446884866
C  C42  1  0.35960000  0.05140000  0.19310000  1.0 -0.0446884866
C  C43  1  0.35960000  0.94860000  0.80690000  1.0 -0.0446884866
C  C44  1  0.64040000  0.94860000  0.19310000  1.0 -0.0446884866
C  C45  1  0.05140000  0.19310000  0.35960000  1.0 -0.0446884866
C  C46  1  0.05140000  0.80690000  0.64040000  1.0 -0.0446884866
C  C47  1  0.94860000  0.19310000  0.64040000  1.0 -0.0446884866
C  C48  1  0.94860000  0.80690000  0.35960000  1.0 -0.0446884866
C  C49  1  0.36780000  0.76400000  0.90990000  1.0 0.1468250077
C  C50  1  0.63220000  0.23600000  0.90990000  1.0 0.1468250077
C  C51  1  0.63220000  0.76400000  0.09010000  1.0 0.1468250077
C  C52  1  0.36780000  0.23600000  0.09010000  1.0 0.1468250077
C  C53  1  0.90990000  0.36780000  0.76400000  1.0 0.1468250077
C  C54  1  0.90990000  0.63220000  0.23600000  1.0 0.1468250077
C  C55  1  0.09010000  0.63220000  0.76400000  1.0 0.1468250077
C  C56  1  0.09010000  0.36780000  0.23600000  1.0 0.1468250077
C  C57  1  0.76400000  0.90990000  0.36780000  1.0 0.1468250077
C  C58  1  0.23600000  0.90990000  0.63220000  1.0 0.1468250077
C  C59  1  0.76400000  0.09010000  0.63220000  1.0 0.1468250077
C  C60  1  0.23600000  0.09010000  0.36780000  1.0 0.1468250077
C  C61  1  0.76400000  0.36780000  0.09010000  1.0 0.1468250077
C  C62  1  0.23600000  0.63220000  0.09010000  1.0 0.1468250077
C  C63  1  0.76400000  0.63220000  0.90990000  1.0 0.1468250077
C  C64  1  0.23600000  0.36780000  0.90990000  1.0 0.1468250077
C  C65  1  0.36780000  0.90990000  0.23600000  1.0 0.1468250077
C  C66  1  0.63220000  0.90990000  0.76400000  1.0 0.1468250077
C  C67  1  0.63220000  0.09010000  0.23600000  1.0 0.1468250077
C  C68  1  0.36780000  0.09010000  0.76400000  1.0 0.1468250077
C  C69  1  0.90990000  0.76400000  0.63220000  1.0 0.1468250077
C  C70  1  0.90990000  0.23600000  0.36780000  1.0 0.1468250077
C  C71  1  0.09010000  0.76400000  0.36780000  1.0 0.1468250077
C  C72  1  0.09010000  0.23600000  0.63220000  1.0 0.1468250077
C  C73  1  0.63220000  0.23600000  0.09010000  1.0 0.1468250077
C  C74  1  0.36780000  0.76400000  0.09010000  1.0 0.1468250077
C  C75  1  0.36780000  0.23600000  0.90990000  1.0 0.1468250077
C  C76  1  0.63220000  0.76400000  0.90990000  1.0 0.1468250077
C  C77  1  0.09010000  0.63220000  0.23600000  1.0 0.1468250077
C  C78  1  0.09010000  0.36780000  0.76400000  1.0 0.1468250077
C  C79  1  0.90990000  0.36780000  0.23600000  1.0 0.1468250077
C  C80  1  0.90990000  0.63220000  0.76400000  1.0 0.1468250077
C  C81  1  0.23600000  0.09010000  0.63220000  1.0 0.1468250077
C  C82  1  0.76400000  0.09010000  0.36780000  1.0 0.1468250077
C  C83  1  0.23600000  0.90990000  0.36780000  1.0 0.1468250077
C  C84  1  0.76400000  0.90990000  0.63220000  1.0 0.1468250077
C  C85  1  0.23600000  0.63220000  0.90990000  1.0 0.1468250077
C  C86  1  0.76400000  0.36780000  0.90990000  1.0 0.1468250077
C  C87  1  0.23600000  0.36780000  0.09010000  1.0 0.1468250077
C  C88  1  0.76400000  0.63220000  0.09010000  1.0 0.1468250077
C  C89  1  0.63220000  0.09010000  0.76400000  1.0 0.1468250077
C  C90  1  0.36780000  0.09010000  0.23600000  1.0 0.1468250077
C  C91  1  0.36780000  0.90990000  0.76400000  1.0 0.1468250077
C  C92  1  0.63220000  0.90990000  0.23600000  1.0 0.1468250077
C  C93  1  0.09010000  0.23600000  0.36780000  1.0 0.1468250077
C  C94  1  0.09010000  0.76400000  0.63220000  1.0 0.1468250077
C  C95  1  0.90990000  0.23600000  0.63220000  1.0 0.1468250077
C  C96  1  0.90990000  0.76400000  0.36780000  1.0 0.1468250077
C  C97  1  0.25210000  0.77880000  0.02320000  1.0 0.0183162328
C  C98  1  0.74790000  0.22120000  0.02320000  1.0 0.0183162328
C  C99  1  0.74790000  0.77880000  0.97680000  1.0 0.0183162328
C  C100  1  0.25210000  0.22120000  0.97680000  1.0 0.0183162328
C  C101  1  0.02320000  0.25210000  0.77880000  1.0 0.0183162328
C  C102  1  0.02320000  0.74790000  0.22120000  1.0 0.0183162328
C  C103  1  0.97680000  0.74790000  0.77880000  1.0 0.0183162328
C  C104  1  0.97680000  0.25210000  0.22120000  1.0 0.0183162328
C  C105  1  0.77880000  0.02320000  0.25210000  1.0 0.0183162328
C  C106  1  0.22120000  0.02320000  0.74790000  1.0 0.0183162328
C  C107  1  0.77880000  0.97680000  0.74790000  1.0 0.0183162328
C  C108  1  0.22120000  0.97680000  0.25210000  1.0 0.0183162328
C  C109  1  0.77880000  0.25210000  0.97680000  1.0 0.0183162328
C  C110  1  0.22120000  0.74790000  0.97680000  1.0 0.0183162328
C  C111  1  0.77880000  0.74790000  0.02320000  1.0 0.0183162328
C  C112  1  0.22120000  0.25210000  0.02320000  1.0 0.0183162328
C  C113  1  0.25210000  0.02320000  0.22120000  1.0 0.0183162328
C  C114  1  0.74790000  0.02320000  0.77880000  1.0 0.0183162328
C  C115  1  0.74790000  0.97680000  0.22120000  1.0 0.0183162328
C  C116  1  0.25210000  0.97680000  0.77880000  1.0 0.0183162328
C  C117  1  0.02320000  0.77880000  0.74790000  1.0 0.0183162328
C  C118  1  0.02320000  0.22120000  0.25210000  1.0 0.0183162328
C  C119  1  0.97680000  0.77880000  0.25210000  1.0 0.0183162328
C  C120  1  0.97680000  0.22120000  0.74790000  1.0 0.0183162328
C  C121  1  0.74790000  0.22120000  0.97680000  1.0 0.0183162328
C  C122  1  0.25210000  0.77880000  0.97680000  1.0 0.0183162328
C  C123  1  0.25210000  0.22120000  0.02320000  1.0 0.0183162328
C  C124  1  0.74790000  0.77880000  0.02320000  1.0 0.0183162328
C  C125  1  0.97680000  0.74790000  0.22120000  1.0 0.0183162328
C  C126  1  0.97680000  0.25210000  0.77880000  1.0 0.0183162328
C  C127  1  0.02320000  0.25210000  0.22120000  1.0 0.0183162328
C  C128  1  0.02320000  0.74790000  0.77880000  1.0 0.0183162328
C  C129  1  0.22120000  0.97680000  0.74790000  1.0 0.0183162328
C  C130  1  0.77880000  0.97680000  0.25210000  1.0 0.0183162328
C  C131  1  0.22120000  0.02320000  0.25210000  1.0 0.0183162328
C  C132  1  0.77880000  0.02320000  0.74790000  1.0 0.0183162328
C  C133  1  0.22120000  0.74790000  0.02320000  1.0 0.0183162328
C  C134  1  0.77880000  0.25210000  0.02320000  1.0 0.0183162328
C  C135  1  0.22120000  0.25210000  0.97680000  1.0 0.0183162328
C  C136  1  0.77880000  0.74790000  0.97680000  1.0 0.0183162328
C  C137  1  0.74790000  0.97680000  0.77880000  1.0 0.0183162328
C  C138  1  0.25210000  0.97680000  0.22120000  1.0 0.0183162328
C  C139  1  0.25210000  0.02320000  0.77880000  1.0 0.0183162328
C  C140  1  0.74790000  0.02320000  0.22120000  1.0 0.0183162328
C  C141  1  0.97680000  0.22120000  0.25210000  1.0 0.0183162328
C  C142  1  0.97680000  0.77880000  0.74790000  1.0 0.0183162328
C  C143  1  0.02320000  0.22120000  0.74790000  1.0 0.0183162328
C  C144  1  0.02320000  0.77880000  0.25210000  1.0 0.0183162328
C  C145  1  0.24700000  0.85100000  0.00000000  1.0 -0.001536644
C  C146  1  0.75300000  0.14900000  0.00000000  1.0 -0.001536644
C  C147  1  0.75300000  0.85100000  0.00000000  1.0 -0.001536644
C  C148  1  0.24700000  0.14900000  0.00000000  1.0 -0.001536644
C  C149  1  0.00000000  0.24700000  0.85100000  1.0 -0.001536644
C  C150  1  0.00000000  0.75300000  0.14900000  1.0 -0.001536644
C  C151  1  0.00000000  0.75300000  0.85100000  1.0 -0.001536644
C  C152  1  0.00000000  0.24700000  0.14900000  1.0 -0.001536644
C  C153  1  0.85100000  0.00000000  0.24700000  1.0 -0.001536644
C  C154  1  0.14900000  0.00000000  0.75300000  1.0 -0.001536644
C  C155  1  0.85100000  0.00000000  0.75300000  1.0 -0.001536644
C  C156  1  0.14900000  0.00000000  0.24700000  1.0 -0.001536644
C  C157  1  0.85100000  0.24700000  0.00000000  1.0 -0.001536644
C  C158  1  0.14900000  0.75300000  0.00000000  1.0 -0.001536644
C  C159  1  0.85100000  0.75300000  0.00000000  1.0 -0.001536644
C  C160  1  0.14900000  0.24700000  0.00000000  1.0 -0.001536644
C  C161  1  0.24700000  0.00000000  0.14900000  1.0 -0.001536644
C  C162  1  0.75300000  0.00000000  0.85100000  1.0 -0.001536644
C  C163  1  0.75300000  0.00000000  0.14900000  1.0 -0.001536644
C  C164  1  0.24700000  0.00000000  0.85100000  1.0 -0.001536644
C  C165  1  0.00000000  0.85100000  0.75300000  1.0 -0.001536644
C  C166  1  0.00000000  0.14900000  0.24700000  1.0 -0.001536644
C  C167  1  0.00000000  0.85100000  0.24700000  1.0 -0.001536644
C  C168  1  0.00000000  0.14900000  0.75300000  1.0 -0.001536644
C  C169  1  0.14840000  0.14840000  0.94800000  1.0 0.3329301836
C  C170  1  0.85160000  0.85160000  0.94800000  1.0 0.3329301836
C  C171  1  0.85160000  0.14840000  0.05200000  1.0 0.3458631547
C  C172  1  0.14840000  0.85160000  0.05200000  1.0 0.3458631547
C  C173  1  0.94800000  0.14840000  0.14840000  1.0 0.3391194255
C  C174  1  0.94800000  0.85160000  0.85160000  1.0 0.3391194255
C  C175  1  0.05200000  0.85160000  0.14840000  1.0 0.3391194255
C  C176  1  0.05200000  0.14840000  0.85160000  1.0 0.3391194255
C  C177  1  0.14840000  0.94800000  0.14840000  1.0 0.3391194255
C  C178  1  0.85160000  0.94800000  0.85160000  1.0 0.3391194255
C  C179  1  0.14840000  0.05200000  0.85160000  1.0 0.3391194255
C  C180  1  0.85160000  0.05200000  0.14840000  1.0 0.3391194255
C  C181  1  0.14840000  0.14840000  0.05200000  1.0 0.3458631547
C  C182  1  0.85160000  0.85160000  0.05200000  1.0 0.3458631547
C  C183  1  0.14840000  0.85160000  0.94800000  1.0 0.3329301836
C  C184  1  0.85160000  0.14840000  0.94800000  1.0 0.3329301836
C  C185  1  0.14840000  0.94800000  0.85160000  1.0 0.3391194255
C  C186  1  0.85160000  0.94800000  0.14840000  1.0 0.3391194255
C  C187  1  0.85160000  0.05200000  0.85160000  1.0 0.3391194255
C  C188  1  0.14840000  0.05200000  0.14840000  1.0 0.3391194255
C  C189  1  0.94800000  0.14840000  0.85160000  1.0 0.3391194255
C  C190  1  0.94800000  0.85160000  0.14840000  1.0 0.3391194255
C  C191  1  0.05200000  0.14840000  0.14840000  1.0 0.3391194255
C  C192  1  0.05200000  0.85160000  0.85160000  1.0 0.3391194255
C  C193  1  0.37400000  0.22700000  0.96300000  1.0 0.0183162328
C  C194  1  0.62600000  0.77300000  0.96300000  1.0 0.0183162328
C  C195  1  0.62600000  0.22700000  0.03700000  1.0 0.0183162328
C  C196  1  0.37400000  0.77300000  0.03700000  1.0 0.0183162328
C  C197  1  0.96300000  0.37400000  0.22700000  1.0 0.0183162328
C  C198  1  0.96300000  0.62600000  0.77300000  1.0 0.0183162328
C  C199  1  0.03700000  0.62600000  0.22700000  1.0 0.0183162328
C  C200  1  0.03700000  0.37400000  0.77300000  1.0 0.0183162328
C  C201  1  0.22700000  0.96300000  0.37400000  1.0 0.0183162328
C  C202  1  0.77300000  0.96300000  0.62600000  1.0 0.0183162328
C  C203  1  0.22700000  0.03700000  0.62600000  1.0 0.0183162328
C  C204  1  0.77300000  0.03700000  0.37400000  1.0 0.0183162328
C  C205  1  0.22700000  0.37400000  0.03700000  1.0 0.0183162328
C  C206  1  0.77300000  0.62600000  0.03700000  1.0 0.0183162328
C  C207  1  0.22700000  0.62600000  0.96300000  1.0 0.0183162328
C  C208  1  0.77300000  0.37400000  0.96300000  1.0 0.0183162328
C  C209  1  0.37400000  0.96300000  0.77300000  1.0 0.0183162328
C  C210  1  0.62600000  0.96300000  0.22700000  1.0 0.0183162328
C  C211  1  0.62600000  0.03700000  0.77300000  1.0 0.0183162328
C  C212  1  0.37400000  0.03700000  0.22700000  1.0 0.0183162328
C  C213  1  0.96300000  0.22700000  0.62600000  1.0 0.0183162328
C  C214  1  0.96300000  0.77300000  0.37400000  1.0 0.0183162328
C  C215  1  0.03700000  0.22700000  0.37400000  1.0 0.0183162328
C  C216  1  0.03700000  0.77300000  0.62600000  1.0 0.0183162328
C  C217  1  0.62600000  0.77300000  0.03700000  1.0 0.0183162328
C  C218  1  0.37400000  0.22700000  0.03700000  1.0 0.0183162328
C  C219  1  0.37400000  0.77300000  0.96300000  1.0 0.0183162328
C  C220  1  0.62600000  0.22700000  0.96300000  1.0 0.0183162328
C  C221  1  0.03700000  0.62600000  0.77300000  1.0 0.0183162328
C  C222  1  0.03700000  0.37400000  0.22700000  1.0 0.0183162328
C  C223  1  0.96300000  0.37400000  0.77300000  1.0 0.0183162328
C  C224  1  0.96300000  0.62600000  0.22700000  1.0 0.0183162328
C  C225  1  0.77300000  0.03700000  0.62600000  1.0 0.0183162328
C  C226  1  0.22700000  0.03700000  0.37400000  1.0 0.0183162328
C  C227  1  0.77300000  0.96300000  0.37400000  1.0 0.0183162328
C  C228  1  0.22700000  0.96300000  0.62600000  1.0 0.0183162328
C  C229  1  0.77300000  0.62600000  0.96300000  1.0 0.0183162328
C  C230  1  0.22700000  0.37400000  0.96300000  1.0 0.0183162328
C  C231  1  0.77300000  0.37400000  0.03700000  1.0 0.0183162328
C  C232  1  0.22700000  0.62600000  0.03700000  1.0 0.0183162328
C  C233  1  0.62600000  0.03700000  0.22700000  1.0 0.0183162328
C  C234  1  0.37400000  0.03700000  0.77300000  1.0 0.0183162328
C  C235  1  0.37400000  0.96300000  0.22700000  1.0 0.0183162328
C  C236  1  0.62600000  0.96300000  0.77300000  1.0 0.0183162328
C  C237  1  0.03700000  0.77300000  0.37400000  1.0 0.0183162328
C  C238  1  0.03700000  0.22700000  0.62600000  1.0 0.0183162328
C  C239  1  0.96300000  0.77300000  0.62600000  1.0 0.0183162328
C  C240  1  0.96300000  0.22700000  0.37400000  1.0 0.0183162328
C  C241  1  0.40950000  0.27170000  0.92440000  1.0 0.2812908266
C  C242  1  0.59050000  0.72830000  0.92440000  1.0 0.2812908266
C  C243  1  0.59050000  0.27170000  0.07560000  1.0 0.2812908266
C  C244  1  0.40950000  0.72830000  0.07560000  1.0 0.2812908266
C  C245  1  0.92440000  0.40950000  0.27170000  1.0 0.2812908266
C  C246  1  0.92440000  0.59050000  0.72830000  1.0 0.2812908266
C  C247  1  0.07560000  0.59050000  0.27170000  1.0 0.2812908266
C  C248  1  0.07560000  0.40950000  0.72830000  1.0 0.2812908266
C  C249  1  0.27170000  0.92440000  0.40950000  1.0 0.2812908266
C  C250  1  0.72830000  0.92440000  0.59050000  1.0 0.2812908266
C  C251  1  0.27170000  0.07560000  0.59050000  1.0 0.2812908266
C  C252  1  0.72830000  0.07560000  0.40950000  1.0 0.2812908266
C  C253  1  0.27170000  0.40950000  0.07560000  1.0 0.2812908266
C  C254  1  0.72830000  0.59050000  0.07560000  1.0 0.2812908266
C  C255  1  0.27170000  0.59050000  0.92440000  1.0 0.2812908266
C  C256  1  0.72830000  0.40950000  0.92440000  1.0 0.2812908266
C  C257  1  0.40950000  0.92440000  0.72830000  1.0 0.2812908266
C  C258  1  0.59050000  0.92440000  0.27170000  1.0 0.2812908266
C  C259  1  0.59050000  0.07560000  0.72830000  1.0 0.2812908266
C  C260  1  0.40950000  0.07560000  0.27170000  1.0 0.2812908266
C  C261  1  0.92440000  0.27170000  0.59050000  1.0 0.2812908266
C  C262  1  0.92440000  0.72830000  0.40950000  1.0 0.2812908266
C  C263  1  0.07560000  0.27170000  0.40950000  1.0 0.2812908266
C  C264  1  0.07560000  0.72830000  0.59050000  1.0 0.2812908266
C  C265  1  0.59050000  0.72830000  0.07560000  1.0 0.2812908266
C  C266  1  0.40950000  0.27170000  0.07560000  1.0 0.2812908266
C  C267  1  0.40950000  0.72830000  0.92440000  1.0 0.2812908266
C  C268  1  0.59050000  0.27170000  0.92440000  1.0 0.2812908266
C  C269  1  0.07560000  0.59050000  0.72830000  1.0 0.2812908266
C  C270  1  0.07560000  0.40950000  0.27170000  1.0 0.2812908266
C  C271  1  0.92440000  0.40950000  0.72830000  1.0 0.2812908266
C  C272  1  0.92440000  0.59050000  0.27170000  1.0 0.2812908266
C  C273  1  0.72830000  0.07560000  0.59050000  1.0 0.2812908266
C  C274  1  0.27170000  0.07560000  0.40950000  1.0 0.2812908266
C  C275  1  0.72830000  0.92440000  0.40950000  1.0 0.2812908266
C  C276  1  0.27170000  0.92440000  0.59050000  1.0 0.2812908266
C  C277  1  0.72830000  0.59050000  0.92440000  1.0 0.2812908266
C  C278  1  0.27170000  0.40950000  0.92440000  1.0 0.2812908266
C  C279  1  0.72830000  0.40950000  0.07560000  1.0 0.2812908266
C  C280  1  0.27170000  0.59050000  0.07560000  1.0 0.2812908266
C  C281  1  0.59050000  0.07560000  0.27170000  1.0 0.2812908266
C  C282  1  0.40950000  0.07560000  0.72830000  1.0 0.2812908266
C  C283  1  0.40950000  0.92440000  0.27170000  1.0 0.2812908266
C  C284  1  0.59050000  0.92440000  0.72830000  1.0 0.2812908266
C  C285  1  0.07560000  0.72830000  0.40950000  1.0 0.2812908266
C  C286  1  0.07560000  0.27170000  0.59050000  1.0 0.2812908266
C  C287  1  0.92440000  0.72830000  0.59050000  1.0 0.2812908266
C  C288  1  0.92440000  0.27170000  0.40950000  1.0 0.2812908266
N  N1  1  0.32710000  0.77150000  0.00000000  1.0 0.0047251755
N  N2  1  0.67290000  0.22850000  0.00000000  1.0 0.0047251755
N  N3  1  0.67290000  0.77150000  0.00000000  1.0 0.0047251755
N  N4  1  0.32710000  0.22850000  0.00000000  1.0 0.0047251755
N  N5  1  0.00000000  0.32710000  0.77150000  1.0 0.0047251755
N  N6  1  0.00000000  0.67290000  0.22850000  1.0 0.0047251755
N  N7  1  0.00000000  0.67290000  0.77150000  1.0 0.0047251755
N  N8  1  0.00000000  0.32710000  0.22850000  1.0 0.0047251755
N  N9  1  0.77150000  0.00000000  0.32710000  1.0 0.0047251755
N  N10  1  0.22850000  0.00000000  0.67290000  1.0 0.0047251755
N  N11  1  0.77150000  0.00000000  0.67290000  1.0 0.0047251755
N  N12  1  0.22850000  0.00000000  0.32710000  1.0 0.0047251755
N  N13  1  0.77150000  0.32710000  0.00000000  1.0 0.0047251755
N  N14  1  0.22850000  0.67290000  0.00000000  1.0 0.0047251755
N  N15  1  0.77150000  0.67290000  0.00000000  1.0 0.0047251755
N  N16  1  0.22850000  0.32710000  0.00000000  1.0 0.0047251755
N  N17  1  0.32710000  0.00000000  0.22850000  1.0 0.0047251755
N  N18  1  0.67290000  0.00000000  0.77150000  1.0 0.0047251755
N  N19  1  0.67290000  0.00000000  0.22850000  1.0 0.0047251755
N  N20  1  0.32710000  0.00000000  0.77150000  1.0 0.0047251755
N  N21  1  0.00000000  0.77150000  0.67290000  1.0 0.0047251755
N  N22  1  0.00000000  0.22850000  0.32710000  1.0 0.0047251755
N  N23  1  0.00000000  0.77150000  0.32710000  1.0 0.0047251755
N  N24  1  0.00000000  0.22850000  0.67290000  1.0 0.0047251755
Cl  Cl1  1  0.78100000  0.21900000  0.78100000  1.0 0.4904668467
Cl  Cl2  1  0.21900000  0.78100000  0.78100000  1.0 0.4904668467
Cl  Cl3  1  0.78100000  0.78100000  0.21900000  1.0 0.4904668467
Cl  Cl4  1  0.21900000  0.21900000  0.21900000  1.0 0.4904668467
Cl  Cl5  1  0.21900000  0.78100000  0.21900000  1.0 0.4904668467
Cl  Cl6  1  0.78100000  0.21900000  0.21900000  1.0 0.4904668467
Cl  Cl7  1  0.78100000  0.78100000  0.78100000  1.0 0.4904668467
Cl  Cl8  1  0.21900000  0.21900000  0.78100000  1.0 0.4904668467
O  O1  1  0.40700000  0.78930000  0.86340000  1.0 -0.1175887629
O  O2  1  0.59300000  0.21070000  0.86340000  1.0 -0.1175887629
O  O3  1  0.59300000  0.78930000  0.13660000  1.0 -0.1175887629
O  O4  1  0.40700000  0.21070000  0.13660000  1.0 -0.1175887629
O  O5  1  0.86340000  0.40700000  0.78930000  1.0 -0.1175887629
O  O6  1  0.86340000  0.59300000  0.21070000  1.0 -0.1175887629
O  O7  1  0.13660000  0.59300000  0.78930000  1.0 -0.1175887629
O  O8  1  0.13660000  0.40700000  0.21070000  1.0 -0.1175887629
O  O9  1  0.78930000  0.86340000  0.40700000  1.0 -0.1175887629
O  O10  1  0.21070000  0.86340000  0.59300000  1.0 -0.1175887629
O  O11  1  0.78930000  0.13660000  0.59300000  1.0 -0.1175887629
O  O12  1  0.21070000  0.13660000  0.40700000  1.0 -0.1175887629
O  O13  1  0.78930000  0.40700000  0.13660000  1.0 -0.1175887629
O  O14  1  0.21070000  0.59300000  0.13660000  1.0 -0.1175887629
O  O15  1  0.78930000  0.59300000  0.86340000  1.0 -0.1175887629
O  O16  1  0.21070000  0.40700000  0.86340000  1.0 -0.1175887629
O  O17  1  0.40700000  0.86340000  0.21070000  1.0 -0.1175887629
O  O18  1  0.59300000  0.86340000  0.78930000  1.0 -0.1175887629
O  O19  1  0.59300000  0.13660000  0.21070000  1.0 -0.1175887629
O  O20  1  0.40700000  0.13660000  0.78930000  1.0 -0.1175887629
O  O21  1  0.86340000  0.78930000  0.59300000  1.0 -0.1175887629
O  O22  1  0.86340000  0.21070000  0.40700000  1.0 -0.1175887629
O  O23  1  0.13660000  0.78930000  0.40700000  1.0 -0.1175887629
O  O24  1  0.13660000  0.21070000  0.59300000  1.0 -0.1175887629
O  O25  1  0.59300000  0.21070000  0.13660000  1.0 -0.1175887629
O  O26  1  0.40700000  0.78930000  0.13660000  1.0 -0.1175887629
O  O27  1  0.40700000  0.21070000  0.86340000  1.0 -0.1175887629
O  O28  1  0.59300000  0.78930000  0.86340000  1.0 -0.1175887629
O  O29  1  0.13660000  0.59300000  0.21070000  1.0 -0.1175887629
O  O30  1  0.13660000  0.40700000  0.78930000  1.0 -0.1175887629
O  O31  1  0.86340000  0.40700000  0.21070000  1.0 -0.1175887629
O  O32  1  0.86340000  0.59300000  0.78930000  1.0 -0.1175887629
O  O33  1  0.21070000  0.13660000  0.59300000  1.0 -0.1175887629
O  O34  1  0.78930000  0.13660000  0.40700000  1.0 -0.1175887629
O  O35  1  0.21070000  0.86340000  0.40700000  1.0 -0.1175887629
O  O36  1  0.78930000  0.86340000  0.59300000  1.0 -0.1175887629
O  O37  1  0.21070000  0.59300000  0.86340000  1.0 -0.1175887629
O  O38  1  0.78930000  0.40700000  0.86340000  1.0 -0.1175887629
O  O39  1  0.21070000  0.40700000  0.13660000  1.0 -0.1175887629
O  O40  1  0.78930000  0.59300000  0.13660000  1.0 -0.1175887629
O  O41  1  0.59300000  0.13660000  0.78930000  1.0 -0.1175887629
O  O42  1  0.40700000  0.13660000  0.21070000  1.0 -0.1175887629
O  O43  1  0.40700000  0.86340000  0.78930000  1.0 -0.1175887629
O  O44  1  0.59300000  0.86340000  0.21070000  1.0 -0.1175887629
O  O45  1  0.13660000  0.21070000  0.40700000  1.0 -0.1175887629
O  O46  1  0.13660000  0.78930000  0.59300000  1.0 -0.1175887629
O  O47  1  0.86340000  0.21070000  0.59300000  1.0 -0.1175887629
O  O48  1  0.86340000  0.78930000  0.40700000  1.0 -0.1175887629
O  O49  1  0.36090000  0.70470000  0.90650000  1.0 -0.1908813418
O  O50  1  0.63910000  0.29530000  0.90650000  1.0 -0.1908813418
O  O51  1  0.63910000  0.70470000  0.09350000  1.0 -0.1908813418
O  O52  1  0.36090000  0.29530000  0.09350000  1.0 -0.1908813418
O  O53  1  0.90650000  0.36090000  0.70470000  1.0 -0.1908813418
O  O54  1  0.90650000  0.63910000  0.29530000  1.0 -0.1908813418
O  O55  1  0.09350000  0.63910000  0.70470000  1.0 -0.1908813418
O  O56  1  0.09350000  0.36090000  0.29530000  1.0 -0.1908813418
O  O57  1  0.70470000  0.90650000  0.36090000  1.0 -0.1908813418
O  O58  1  0.29530000  0.90650000  0.63910000  1.0 -0.1908813418
O  O59  1  0.70470000  0.09350000  0.63910000  1.0 -0.1908813418
O  O60  1  0.29530000  0.09350000  0.36090000  1.0 -0.1908813418
O  O61  1  0.70470000  0.36090000  0.09350000  1.0 -0.1908813418
O  O62  1  0.29530000  0.63910000  0.09350000  1.0 -0.1908813418
O  O63  1  0.70470000  0.63910000  0.90650000  1.0 -0.1908813418
O  O64  1  0.29530000  0.36090000  0.90650000  1.0 -0.1908813418
O  O65  1  0.36090000  0.90650000  0.29530000  1.0 -0.1908813418
O  O66  1  0.63910000  0.90650000  0.70470000  1.0 -0.1908813418
O  O67  1  0.63910000  0.09350000  0.29530000  1.0 -0.1908813418
O  O68  1  0.36090000  0.09350000  0.70470000  1.0 -0.1908813418
O  O69  1  0.90650000  0.70470000  0.63910000  1.0 -0.1908813418
O  O70  1  0.90650000  0.29530000  0.36090000  1.0 -0.1908813418
O  O71  1  0.09350000  0.70470000  0.36090000  1.0 -0.1908813418
O  O72  1  0.09350000  0.29530000  0.63910000  1.0 -0.1908813418
O  O73  1  0.63910000  0.29530000  0.09350000  1.0 -0.1908813418
O  O74  1  0.36090000  0.70470000  0.09350000  1.0 -0.1908813418
O  O75  1  0.36090000  0.29530000  0.90650000  1.0 -0.1908813418
O  O76  1  0.63910000  0.70470000  0.90650000  1.0 -0.1908813418
O  O77  1  0.09350000  0.63910000  0.29530000  1.0 -0.1908813418
O  O78  1  0.09350000  0.36090000  0.70470000  1.0 -0.1908813418
O  O79  1  0.90650000  0.36090000  0.29530000  1.0 -0.1908813418
O  O80  1  0.90650000  0.63910000  0.70470000  1.0 -0.1908813418
O  O81  1  0.29530000  0.09350000  0.63910000  1.0 -0.1908813418
O  O82  1  0.70470000  0.09350000  0.36090000  1.0 -0.1908813418
O  O83  1  0.29530000  0.90650000  0.36090000  1.0 -0.1908813418
O  O84  1  0.70470000  0.90650000  0.63910000  1.0 -0.1908813418
O  O85  1  0.29530000  0.63910000  0.90650000  1.0 -0.1908813418
O  O86  1  0.70470000  0.36090000  0.90650000  1.0 -0.1908813418
O  O87  1  0.29530000  0.36090000  0.09350000  1.0 -0.1908813418
O  O88  1  0.70470000  0.63910000  0.09350000  1.0 -0.1908813418
O  O89  1  0.63910000  0.09350000  0.70470000  1.0 -0.1908813418
O  O90  1  0.36090000  0.09350000  0.29530000  1.0 -0.1908813418
O  O91  1  0.36090000  0.90650000  0.70470000  1.0 -0.1908813418
O  O92  1  0.63910000  0.90650000  0.29530000  1.0 -0.1908813418
O  O93  1  0.09350000  0.29530000  0.36090000  1.0 -0.1908813418
O  O94  1  0.09350000  0.70470000  0.63910000  1.0 -0.1908813418
O  O95  1  0.90650000  0.29530000  0.63910000  1.0 -0.1908813418
O  O96  1  0.90650000  0.70470000  0.36090000  1.0 -0.1908813418
O  O97  1  0.50000000  0.88460000  0.88460000  1.0 0.3601436775
O  O98  1  0.50000000  0.11540000  0.88460000  1.0 0.3601436775
O  O99  1  0.50000000  0.88460000  0.11540000  1.0 0.3601436775
O  O100  1  0.50000000  0.11540000  0.11540000  1.0 0.3601436775
O  O101  1  0.88460000  0.50000000  0.88460000  1.0 0.3601436775
O  O102  1  0.88460000  0.50000000  0.11540000  1.0 0.3601436775
O  O103  1  0.11540000  0.50000000  0.88460000  1.0 0.3601436775
O  O104  1  0.11540000  0.50000000  0.11540000  1.0 0.3601436775
O  O105  1  0.88460000  0.88460000  0.50000000  1.0 0.3601436775
O  O106  1  0.11540000  0.88460000  0.50000000  1.0 0.3601436775
O  O107  1  0.88460000  0.11540000  0.50000000  1.0 0.3601436775
O  O108  1  0.11540000  0.11540000  0.50000000  1.0 0.3601436775
O  O109  1  0.58930000  0.74340000  0.74340000  1.0 -0.2088247607
O  O110  1  0.41070000  0.25660000  0.74340000  1.0 -0.2088247607
O  O111  1  0.41070000  0.74340000  0.25660000  1.0 -0.2088247607
O  O112  1  0.58930000  0.25660000  0.25660000  1.0 -0.2088247607
O  O113  1  0.74340000  0.58930000  0.74340000  1.0 -0.2088247607
O  O114  1  0.74340000  0.41070000  0.25660000  1.0 -0.2088247607
O  O115  1  0.25660000  0.41070000  0.74340000  1.0 -0.2088247607
O  O116  1  0.25660000  0.58930000  0.25660000  1.0 -0.2088247607
O  O117  1  0.74340000  0.74340000  0.58930000  1.0 -0.2088247607
O  O118  1  0.25660000  0.74340000  0.41070000  1.0 -0.2088247607
O  O119  1  0.74340000  0.25660000  0.41070000  1.0 -0.2088247607
O  O120  1  0.25660000  0.25660000  0.58930000  1.0 -0.2088247607
O  O121  1  0.74340000  0.58930000  0.25660000  1.0 -0.2088247607
O  O122  1  0.25660000  0.41070000  0.25660000  1.0 -0.2088247607
O  O123  1  0.74340000  0.41070000  0.74340000  1.0 -0.2088247607
O  O124  1  0.25660000  0.58930000  0.74340000  1.0 -0.2088247607
O  O125  1  0.58930000  0.74340000  0.25660000  1.0 -0.2088247607
O  O126  1  0.41070000  0.74340000  0.74340000  1.0 -0.2088247607
O  O127  1  0.41070000  0.25660000  0.25660000  1.0 -0.2088247607
O  O128  1  0.58930000  0.25660000  0.74340000  1.0 -0.2088247607
O  O129  1  0.74340000  0.74340000  0.41070000  1.0 -0.2088247607
O  O130  1  0.74340000  0.25660000  0.58930000  1.0 -0.2088247607
O  O131  1  0.25660000  0.74340000  0.58930000  1.0 -0.2088247607
O  O132  1  0.25660000  0.25660000  0.41070000  1.0 -0.2088247607
O  O133  1  0.50000000  0.39330000  0.00000000  1.0 0.1031173789
O  O134  1  0.50000000  0.60670000  0.00000000  1.0 0.1031173789
O  O135  1  0.00000000  0.50000000  0.39330000  1.0 0.1031173789
O  O136  1  0.00000000  0.50000000  0.60670000  1.0 0.1031173789
O  O137  1  0.39330000  0.00000000  0.50000000  1.0 0.1031173789
O  O138  1  0.60670000  0.00000000  0.50000000  1.0 0.1031173789
O  O139  1  0.39330000  0.50000000  0.00000000  1.0 0.1031173789
O  O140  1  0.60670000  0.50000000  0.00000000  1.0 0.1031173789
O  O141  1  0.50000000  0.00000000  0.60670000  1.0 0.1031173789
O  O142  1  0.50000000  0.00000000  0.39330000  1.0 0.1031173789
O  O143  1  0.00000000  0.39330000  0.50000000  1.0 0.1031173789
O  O144  1  0.00000000  0.60670000  0.50000000  1.0 0.1031173789
O  O145  1  0.50000000  0.39220000  0.91450000  1.0 0.0891556801
O  O146  1  0.50000000  0.60780000  0.91450000  1.0 0.0891556801
O  O147  1  0.50000000  0.39220000  0.08550000  1.0 0.0891556801
O  O148  1  0.50000000  0.60780000  0.08550000  1.0 0.0891556801
O  O149  1  0.91450000  0.50000000  0.39220000  1.0 0.0891556801
O  O150  1  0.91450000  0.50000000  0.60780000  1.0 0.0891556801
O  O151  1  0.08550000  0.50000000  0.39220000  1.0 0.0891556801
O  O152  1  0.08550000  0.50000000  0.60780000  1.0 0.0891556801
O  O153  1  0.39220000  0.91450000  0.50000000  1.0 0.0891556801
O  O154  1  0.60780000  0.91450000  0.50000000  1.0 0.0891556801
O  O155  1  0.39220000  0.08550000  0.50000000  1.0 0.0891556801
O  O156  1  0.60780000  0.08550000  0.50000000  1.0 0.0891556801
O  O157  1  0.39220000  0.50000000  0.08550000  1.0 0.0891556801
O  O158  1  0.60780000  0.50000000  0.08550000  1.0 0.0891556801
O  O159  1  0.39220000  0.50000000  0.91450000  1.0 0.0891556801
O  O160  1  0.60780000  0.50000000  0.91450000  1.0 0.0891556801
O  O161  1  0.50000000  0.91450000  0.60780000  1.0 0.0891556801
O  O162  1  0.50000000  0.91450000  0.39220000  1.0 0.0891556801
O  O163  1  0.50000000  0.08550000  0.60780000  1.0 0.0891556801
O  O164  1  0.50000000  0.08550000  0.39220000  1.0 0.0891556801
O  O165  1  0.91450000  0.39220000  0.50000000  1.0 0.0891556801
O  O166  1  0.91450000  0.60780000  0.50000000  1.0 0.0891556801
O  O167  1  0.08550000  0.39220000  0.50000000  1.0 0.0891556801
O  O168  1  0.08550000  0.60780000  0.50000000  1.0 0.0891556801
O  O169  1  0.45530000  0.24500000  0.89880000  1.0 -0.1426574043
O  O170  1  0.54470000  0.75500000  0.89880000  1.0 -0.1426574043
O  O171  1  0.54470000  0.24500000  0.10120000  1.0 -0.1426574043
O  O172  1  0.45530000  0.75500000  0.10120000  1.0 -0.1426574043
O  O173  1  0.89880000  0.45530000  0.24500000  1.0 -0.1426574043
O  O174  1  0.89880000  0.54470000  0.75500000  1.0 -0.1426574043
O  O175  1  0.10120000  0.54470000  0.24500000  1.0 -0.1426574043
O  O176  1  0.10120000  0.45530000  0.75500000  1.0 -0.1426574043
O  O177  1  0.24500000  0.89880000  0.45530000  1.0 -0.1426574043
O  O178  1  0.75500000  0.89880000  0.54470000  1.0 -0.1426574043
O  O179  1  0.24500000  0.10120000  0.54470000  1.0 -0.1426574043
O  O180  1  0.75500000  0.10120000  0.45530000  1.0 -0.1426574043
O  O181  1  0.24500000  0.45530000  0.10120000  1.0 -0.1426574043
O  O182  1  0.75500000  0.54470000  0.10120000  1.0 -0.1426574043
O  O183  1  0.24500000  0.54470000  0.89880000  1.0 -0.1426574043
O  O184  1  0.75500000  0.45530000  0.89880000  1.0 -0.1426574043
O  O185  1  0.45530000  0.89880000  0.75500000  1.0 -0.1426574043
O  O186  1  0.54470000  0.89880000  0.24500000  1.0 -0.1426574043
O  O187  1  0.54470000  0.10120000  0.75500000  1.0 -0.1426574043
O  O188  1  0.45530000  0.10120000  0.24500000  1.0 -0.1426574043
O  O189  1  0.89880000  0.24500000  0.54470000  1.0 -0.1426574043
O  O190  1  0.89880000  0.75500000  0.45530000  1.0 -0.1426574043
O  O191  1  0.10120000  0.24500000  0.45530000  1.0 -0.1426574043
O  O192  1  0.10120000  0.75500000  0.54470000  1.0 -0.1426574043
O  O193  1  0.54470000  0.75500000  0.10120000  1.0 -0.1426574043
O  O194  1  0.45530000  0.24500000  0.10120000  1.0 -0.1426574043
O  O195  1  0.45530000  0.75500000  0.89880000  1.0 -0.1426574043
O  O196  1  0.54470000  0.24500000  0.89880000  1.0 -0.1426574043
O  O197  1  0.10120000  0.54470000  0.75500000  1.0 -0.1426574043
O  O198  1  0.10120000  0.45530000  0.24500000  1.0 -0.1426574043
O  O199  1  0.89880000  0.45530000  0.75500000  1.0 -0.1426574043
O  O200  1  0.89880000  0.54470000  0.24500000  1.0 -0.1426574043
O  O201  1  0.75500000  0.10120000  0.54470000  1.0 -0.1426574043
O  O202  1  0.24500000  0.10120000  0.45530000  1.0 -0.1426574043
O  O203  1  0.75500000  0.89880000  0.45530000  1.0 -0.1426574043
O  O204  1  0.24500000  0.89880000  0.54470000  1.0 -0.1426574043
O  O205  1  0.75500000  0.54470000  0.89880000  1.0 -0.1426574043
O  O206  1  0.24500000  0.45530000  0.89880000  1.0 -0.1426574043
O  O207  1  0.75500000  0.45530000  0.10120000  1.0 -0.1426574043
O  O208  1  0.24500000  0.54470000  0.10120000  1.0 -0.1426574043
O  O209  1  0.54470000  0.10120000  0.24500000  1.0 -0.1426574043
O  O210  1  0.45530000  0.10120000  0.75500000  1.0 -0.1426574043
O  O211  1  0.45530000  0.89880000  0.24500000  1.0 -0.1426574043
O  O212  1  0.54470000  0.89880000  0.75500000  1.0 -0.1426574043
O  O213  1  0.10120000  0.75500000  0.45530000  1.0 -0.1426574043
O  O214  1  0.10120000  0.24500000  0.54470000  1.0 -0.1426574043
O  O215  1  0.89880000  0.75500000  0.54470000  1.0 -0.1426574043
O  O216  1  0.89880000  0.24500000  0.45530000  1.0 -0.1426574043
O  O217  1  0.41880000  0.31220000  0.96710000  1.0 -0.1743551022
O  O218  1  0.58120000  0.68780000  0.96710000  1.0 -0.1743551022
O  O219  1  0.58120000  0.31220000  0.03290000  1.0 -0.1743551022
O  O220  1  0.41880000  0.68780000  0.03290000  1.0 -0.1743551022
O  O221  1  0.96710000  0.41880000  0.31220000  1.0 -0.1743551022
O  O222  1  0.96710000  0.58120000  0.68780000  1.0 -0.1743551022
O  O223  1  0.03290000  0.58120000  0.31220000  1.0 -0.1743551022
O  O224  1  0.03290000  0.41880000  0.68780000  1.0 -0.1743551022
O  O225  1  0.31220000  0.96710000  0.41880000  1.0 -0.1743551022
O  O226  1  0.68780000  0.96710000  0.58120000  1.0 -0.1743551022
O  O227  1  0.31220000  0.03290000  0.58120000  1.0 -0.1743551022
O  O228  1  0.68780000  0.03290000  0.41880000  1.0 -0.1743551022
O  O229  1  0.31220000  0.41880000  0.03290000  1.0 -0.1743551022
O  O230  1  0.68780000  0.58120000  0.03290000  1.0 -0.1743551022
O  O231  1  0.31220000  0.58120000  0.96710000  1.0 -0.1743551022
O  O232  1  0.68780000  0.41880000  0.96710000  1.0 -0.1743551022
O  O233  1  0.41880000  0.96710000  0.68780000  1.0 -0.1743551022
O  O234  1  0.58120000  0.96710000  0.31220000  1.0 -0.1743551022
O  O235  1  0.58120000  0.03290000  0.68780000  1.0 -0.1743551022
O  O236  1  0.41880000  0.03290000  0.31220000  1.0 -0.1743551022
O  O237  1  0.96710000  0.31220000  0.58120000  1.0 -0.1743551022
O  O238  1  0.96710000  0.68780000  0.41880000  1.0 -0.1743551022
O  O239  1  0.03290000  0.31220000  0.41880000  1.0 -0.1743551022
O  O240  1  0.03290000  0.68780000  0.58120000  1.0 -0.1743551022
O  O241  1  0.58120000  0.68780000  0.03290000  1.0 -0.1743551022
O  O242  1  0.41880000  0.31220000  0.03290000  1.0 -0.1743551022
O  O243  1  0.41880000  0.68780000  0.96710000  1.0 -0.1743551022
O  O244  1  0.58120000  0.31220000  0.96710000  1.0 -0.1743551022
O  O245  1  0.03290000  0.58120000  0.68780000  1.0 -0.1743551022
O  O246  1  0.03290000  0.41880000  0.31220000  1.0 -0.1743551022
O  O247  1  0.96710000  0.41880000  0.68780000  1.0 -0.1743551022
O  O248  1  0.96710000  0.58120000  0.31220000  1.0 -0.1743551022
O  O249  1  0.68780000  0.03290000  0.58120000  1.0 -0.1743551022
O  O250  1  0.31220000  0.03290000  0.41880000  1.0 -0.1743551022
O  O251  1  0.68780000  0.96710000  0.41880000  1.0 -0.1743551022
O  O252  1  0.31220000  0.96710000  0.58120000  1.0 -0.1743551022
O  O253  1  0.68780000  0.58120000  0.96710000  1.0 -0.1743551022
O  O254  1  0.31220000  0.41880000  0.96710000  1.0 -0.1743551022
O  O255  1  0.68780000  0.41880000  0.03290000  1.0 -0.1743551022
O  O256  1  0.31220000  0.58120000  0.03290000  1.0 -0.1743551022
O  O257  1  0.58120000  0.03290000  0.31220000  1.0 -0.1743551022
O  O258  1  0.41880000  0.03290000  0.68780000  1.0 -0.1743551022
O  O259  1  0.41880000  0.96710000  0.31220000  1.0 -0.1743551022
O  O260  1  0.58120000  0.96710000  0.68780000  1.0 -0.1743551022
O  O261  1  0.03290000  0.68780000  0.41880000  1.0 -0.1743551022
O  O262  1  0.03290000  0.31220000  0.58120000  1.0 -0.1743551022
O  O263  1  0.96710000  0.68780000  0.58120000  1.0 -0.1743551022
O  O264  1  0.96710000  0.31220000  0.41880000  1.0 -0.1743551022
O  O265  1  0.82230000  0.24780000  0.82230000  1.0 -0.2941064997
O  O266  1  0.75220000  0.17770000  0.82230000  1.0 -0.2941064997
O  O267  1  0.82230000  0.17770000  0.75220000  1.0 -0.2941064997
O  O268  1  0.75930000  0.24070000  0.75930000  1.0 -0.0270897406
O  O269  1  0.17770000  0.75220000  0.82230000  1.0 -0.2941064997
O  O270  1  0.24780000  0.82230000  0.82230000  1.0 -0.2941064997
O  O271  1  0.17770000  0.82230000  0.75220000  1.0 -0.2941064997
O  O272  1  0.24070000  0.75930000  0.75930000  1.0 -0.0270897406
O  O273  1  0.82230000  0.75220000  0.17770000  1.0 -0.2941064997
O  O274  1  0.75220000  0.82230000  0.17770000  1.0 -0.2941064997
O  O275  1  0.82230000  0.82230000  0.24780000  1.0 -0.2941064997
O  O276  1  0.75930000  0.75930000  0.24070000  1.0 -0.0270897406
O  O277  1  0.17770000  0.24780000  0.17770000  1.0 -0.2941064997
O  O278  1  0.24780000  0.17770000  0.17770000  1.0 -0.2941064997
O  O279  1  0.17770000  0.17770000  0.24780000  1.0 -0.2941064997
O  O280  1  0.24070000  0.24070000  0.24070000  1.0 -0.0270897406
O  O281  1  0.24780000  0.82230000  0.17770000  1.0 -0.2941064997
O  O282  1  0.17770000  0.75220000  0.17770000  1.0 -0.2941064997
O  O283  1  0.17770000  0.82230000  0.24780000  1.0 -0.2941064997
O  O284  1  0.24070000  0.75930000  0.24070000  1.0 -0.0270897406
O  O285  1  0.75220000  0.17770000  0.17770000  1.0 -0.2941064997
O  O286  1  0.82230000  0.24780000  0.17770000  1.0 -0.2941064997
O  O287  1  0.82230000  0.17770000  0.24780000  1.0 -0.2941064997
O  O288  1  0.75930000  0.24070000  0.24070000  1.0 -0.0270897406
O  O289  1  0.75220000  0.82230000  0.82230000  1.0 -0.2941064997
O  O290  1  0.82230000  0.75220000  0.82230000  1.0 -0.2941064997
O  O291  1  0.82230000  0.82230000  0.75220000  1.0 -0.2941064997
O  O292  1  0.75930000  0.75930000  0.75930000  1.0 -0.0270897406
O  O293  1  0.24780000  0.17770000  0.82230000  1.0 -0.2941064997
O  O294  1  0.17770000  0.24780000  0.82230000  1.0 -0.2941064997
O  O295  1  0.17770000  0.17770000  0.75220000  1.0 -0.2941064997
O  O296  1  0.24070000  0.24070000  0.75930000  1.0 -0.0270897406
