# DDEC6 charges by PACMAN v1.1 (https://github.com/mtap-research/PACMAN-charge/)
data_TURBOY_ion_pacman
_symmetry_space_group_name_H-M   'P 1'
_cell_length_a   21.04080000
_cell_length_b   21.04080000
_cell_length_c   21.04080000
_cell_angle_alpha   90.00000000
_cell_angle_beta   90.00000000
_cell_angle_gamma   90.00000000
_symmetry_Int_Tables_number   1
_chemical_formula_structural   La12Ni15H192C336N24(Cl4O163)2
_chemical_formula_sum   'La12 Ni15 H192 C336 N24 Cl8 O326'
_cell_volume   9315.08334024
_cell_formula_units_Z   1
loop_
 _symmetry_equiv_pos_site_id
 _symmetry_equiv_pos_as_xyz
  1  'x, y, z'
loop_
 _atom_site_type_symbol
 _atom_site_label
 _atom_site_symmetry_multiplicity
 _atom_site_fract_x
 _atom_site_fract_y
 _atom_site_fract_z
 _atom_site_occupancy
 _atom_site_charge
La  La1  1  0.50000000  0.79356000  0.20644000  1.0 1.5392235282
La  La2  1  0.50000000  0.20644000  0.20644000  1.0 1.5392235282
La  La3  1  0.50000000  0.79356000  0.79356000  1.0 1.5392235282
La  La4  1  0.50000000  0.20644000  0.79356000  1.0 1.5392235282
La  La5  1  0.20644000  0.50000000  0.79356000  1.0 1.5392235282
La  La6  1  0.20644000  0.50000000  0.20644000  1.0 1.5392235282
La  La7  1  0.79356000  0.50000000  0.79356000  1.0 1.5392235282
La  La8  1  0.79356000  0.50000000  0.20644000  1.0 1.5392235282
La  La9  1  0.79356000  0.20644000  0.50000000  1.0 1.5392235282
La  La10  1  0.20644000  0.20644000  0.50000000  1.0 1.5392235282
La  La11  1  0.79356000  0.79356000  0.50000000  1.0 1.5392235282
La  La12  1  0.20644000  0.79356000  0.50000000  1.0 1.5392235282
Ni  Ni1  1  0.32548000  0.67452000  0.00000000  1.0 0.4578261736
Ni  Ni2  1  0.67452000  0.32548000  0.00000000  1.0 0.4578261736
Ni  Ni3  1  0.67452000  0.67452000  0.00000000  1.0 0.4578261736
Ni  Ni4  1  0.32548000  0.32548000  0.00000000  1.0 0.4578261736
Ni  Ni5  1  0.00000000  0.32548000  0.67452000  1.0 0.4578261736
Ni  Ni6  1  0.00000000  0.67452000  0.32548000  1.0 0.4578261736
Ni  Ni7  1  0.00000000  0.67452000  0.67452000  1.0 0.4578261736
Ni  Ni8  1  0.00000000  0.32548000  0.32548000  1.0 0.4578261736
Ni  Ni9  1  0.67452000  0.00000000  0.32548000  1.0 0.4578261736
Ni  Ni10  1  0.32548000  0.00000000  0.67452000  1.0 0.4578261736
Ni  Ni11  1  0.67452000  0.00000000  0.67452000  1.0 0.4578261736
Ni  Ni12  1  0.32548000  0.00000000  0.32548000  1.0 0.4578261736
Ni  Ni13  1  0.50000000  0.50000000  0.00000000  1.0 0.293045601
Ni  Ni14  1  0.00000000  0.50000000  0.50000000  1.0 0.2841874722
Ni  Ni15  1  0.50000000  0.00000000  0.50000000  1.0 0.293045601
H  H1  1  0.32270000  0.83350000  0.06370000  1.0 0.1024642203
H  H2  1  0.67730000  0.16650000  0.06370000  1.0 0.1024642203
H  H3  1  0.67730000  0.83350000  0.93630000  1.0 0.1024642203
H  H4  1  0.32270000  0.16650000  0.93630000  1.0 0.1024642203
H  H5  1  0.06370000  0.32270000  0.83350000  1.0 0.1024642203
H  H6  1  0.06370000  0.67730000  0.16650000  1.0 0.1024642203
H  H7  1  0.93630000  0.67730000  0.83350000  1.0 0.1024642203
H  H8  1  0.93630000  0.32270000  0.16650000  1.0 0.1024642203
H  H9  1  0.83350000  0.06370000  0.32270000  1.0 0.1024642203
H  H10  1  0.16650000  0.06370000  0.67730000  1.0 0.1024642203
H  H11  1  0.83350000  0.93630000  0.67730000  1.0 0.1024642203
H  H12  1  0.16650000  0.93630000  0.32270000  1.0 0.1024642203
H  H13  1  0.83350000  0.32270000  0.93630000  1.0 0.1024642203
H  H14  1  0.16650000  0.67730000  0.93630000  1.0 0.1024642203
H  H15  1  0.83350000  0.67730000  0.06370000  1.0 0.1024642203
H  H16  1  0.16650000  0.32270000  0.06370000  1.0 0.1024642203
H  H17  1  0.32270000  0.06370000  0.16650000  1.0 0.1024642203
H  H18  1  0.67730000  0.06370000  0.83350000  1.0 0.1024642203
H  H19  1  0.67730000  0.93630000  0.16650000  1.0 0.1024642203
H  H20  1  0.32270000  0.93630000  0.83350000  1.0 0.1024642203
H  H21  1  0.06370000  0.83350000  0.67730000  1.0 0.1024642203
H  H22  1  0.06370000  0.16650000  0.32270000  1.0 0.1024642203
H  H23  1  0.93630000  0.83350000  0.32270000  1.0 0.1024642203
H  H24  1  0.93630000  0.16650000  0.67730000  1.0 0.1024642203
H  H25  1  0.67730000  0.16650000  0.93630000  1.0 0.1024642203
H  H26  1  0.32270000  0.83350000  0.93630000  1.0 0.1024642203
H  H27  1  0.32270000  0.16650000  0.06370000  1.0 0.1024642203
H  H28  1  0.67730000  0.83350000  0.06370000  1.0 0.1024642203
H  H29  1  0.93630000  0.67730000  0.16650000  1.0 0.1024642203
H  H30  1  0.93630000  0.32270000  0.83350000  1.0 0.1024642203
H  H31  1  0.06370000  0.32270000  0.16650000  1.0 0.1024642203
H  H32  1  0.06370000  0.67730000  0.83350000  1.0 0.1024642203
H  H33  1  0.16650000  0.93630000  0.67730000  1.0 0.1024642203
H  H34  1  0.83350000  0.93630000  0.32270000  1.0 0.1024642203
H  H35  1  0.16650000  0.06370000  0.32270000  1.0 0.1024642203
H  H36  1  0.83350000  0.06370000  0.67730000  1.0 0.1024642203
H  H37  1  0.16650000  0.67730000  0.06370000  1.0 0.1024642203
H  H38  1  0.83350000  0.32270000  0.06370000  1.0 0.1024642203
H  H39  1  0.16650000  0.32270000  0.93630000  1.0 0.1024642203
H  H40  1  0.83350000  0.67730000  0.93630000  1.0 0.1024642203
H  H41  1  0.67730000  0.93630000  0.83350000  1.0 0.1024642203
H  H42  1  0.32270000  0.93630000  0.16650000  1.0 0.1024642203
H  H43  1  0.32270000  0.06370000  0.83350000  1.0 0.1024642203
H  H44  1  0.67730000  0.06370000  0.16650000  1.0 0.1024642203
H  H45  1  0.93630000  0.16650000  0.32270000  1.0 0.1024642203
H  H46  1  0.93630000  0.83350000  0.67730000  1.0 0.1024642203
H  H47  1  0.06370000  0.16650000  0.67730000  1.0 0.1024642203
H  H48  1  0.06370000  0.83350000  0.32270000  1.0 0.1024642203
H  H49  1  0.38840000  0.82500000  0.02590000  1.0 0.0812081534
H  H50  1  0.61160000  0.17500000  0.02590000  1.0 0.0812081534
H  H51  1  0.61160000  0.82500000  0.97410000  1.0 0.0812081534
H  H52  1  0.38840000  0.17500000  0.97410000  1.0 0.0812081534
H  H53  1  0.02590000  0.38840000  0.82500000  1.0 0.0812081534
H  H54  1  0.02590000  0.61160000  0.17500000  1.0 0.0812081534
H  H55  1  0.97410000  0.61160000  0.82500000  1.0 0.0812081534
H  H56  1  0.97410000  0.38840000  0.17500000  1.0 0.0812081534
H  H57  1  0.82500000  0.02590000  0.38840000  1.0 0.0812081534
H  H58  1  0.17500000  0.02590000  0.61160000  1.0 0.0812081534
H  H59  1  0.82500000  0.97410000  0.61160000  1.0 0.0812081534
H  H60  1  0.17500000  0.97410000  0.38840000  1.0 0.0812081534
H  H61  1  0.82500000  0.38840000  0.97410000  1.0 0.0812081534
H  H62  1  0.17500000  0.61160000  0.97410000  1.0 0.0812081534
H  H63  1  0.82500000  0.61160000  0.02590000  1.0 0.0812081534
H  H64  1  0.17500000  0.38840000  0.02590000  1.0 0.0812081534
H  H65  1  0.38840000  0.02590000  0.17500000  1.0 0.0812081534
H  H66  1  0.61160000  0.02590000  0.82500000  1.0 0.0812081534
H  H67  1  0.61160000  0.97410000  0.17500000  1.0 0.0812081534
H  H68  1  0.38840000  0.97410000  0.82500000  1.0 0.0812081534
H  H69  1  0.02590000  0.82500000  0.61160000  1.0 0.0812081534
H  H70  1  0.02590000  0.17500000  0.38840000  1.0 0.0812081534
H  H71  1  0.97410000  0.82500000  0.38840000  1.0 0.0812081534
H  H72  1  0.97410000  0.17500000  0.61160000  1.0 0.0812081534
H  H73  1  0.61160000  0.17500000  0.97410000  1.0 0.0812081534
H  H74  1  0.38840000  0.82500000  0.97410000  1.0 0.0812081534
H  H75  1  0.38840000  0.17500000  0.02590000  1.0 0.0812081534
H  H76  1  0.61160000  0.82500000  0.02590000  1.0 0.0812081534
H  H77  1  0.97410000  0.61160000  0.17500000  1.0 0.0812081534
H  H78  1  0.97410000  0.38840000  0.82500000  1.0 0.0812081534
H  H79  1  0.02590000  0.38840000  0.17500000  1.0 0.0812081534
H  H80  1  0.02590000  0.61160000  0.82500000  1.0 0.0812081534
H  H81  1  0.17500000  0.97410000  0.61160000  1.0 0.0812081534
H  H82  1  0.82500000  0.97410000  0.38840000  1.0 0.0812081534
H  H83  1  0.17500000  0.02590000  0.38840000  1.0 0.0812081534
H  H84  1  0.82500000  0.02590000  0.61160000  1.0 0.0812081534
H  H85  1  0.17500000  0.61160000  0.02590000  1.0 0.0812081534
H  H86  1  0.82500000  0.38840000  0.02590000  1.0 0.0812081534
H  H87  1  0.17500000  0.38840000  0.97410000  1.0 0.0812081534
H  H88  1  0.82500000  0.61160000  0.97410000  1.0 0.0812081534
H  H89  1  0.61160000  0.97410000  0.82500000  1.0 0.0812081534
H  H90  1  0.38840000  0.97410000  0.17500000  1.0 0.0812081534
H  H91  1  0.38840000  0.02590000  0.82500000  1.0 0.0812081534
H  H92  1  0.61160000  0.02590000  0.17500000  1.0 0.0812081534
H  H93  1  0.97410000  0.17500000  0.38840000  1.0 0.0812081534
H  H94  1  0.97410000  0.82500000  0.61160000  1.0 0.0812081534
H  H95  1  0.02590000  0.17500000  0.61160000  1.0 0.0812081534
H  H96  1  0.02590000  0.82500000  0.38840000  1.0 0.0812081534
H  H97  1  0.37560000  0.82490000  0.92300000  1.0 0.0904362637
H  H98  1  0.62440000  0.17510000  0.92300000  1.0 0.0904362637
H  H99  1  0.62440000  0.82490000  0.07700000  1.0 0.0904362637
H  H100  1  0.37560000  0.17510000  0.07700000  1.0 0.0904362637
H  H101  1  0.92300000  0.37560000  0.82490000  1.0 0.0904362637
H  H102  1  0.92300000  0.62440000  0.17510000  1.0 0.0904362637
H  H103  1  0.07700000  0.62440000  0.82490000  1.0 0.0904362637
H  H104  1  0.07700000  0.37560000  0.17510000  1.0 0.0904362637
H  H105  1  0.82490000  0.92300000  0.37560000  1.0 0.0904362637
H  H106  1  0.17510000  0.92300000  0.62440000  1.0 0.0904362637
H  H107  1  0.82490000  0.07700000  0.62440000  1.0 0.0904362637
H  H108  1  0.17510000  0.07700000  0.37560000  1.0 0.0904362637
H  H109  1  0.82490000  0.37560000  0.07700000  1.0 0.0904362637
H  H110  1  0.17510000  0.62440000  0.07700000  1.0 0.0904362637
H  H111  1  0.82490000  0.62440000  0.92300000  1.0 0.0904362637
H  H112  1  0.17510000  0.37560000  0.92300000  1.0 0.0904362637
H  H113  1  0.37560000  0.92300000  0.17510000  1.0 0.0904362637
H  H114  1  0.62440000  0.92300000  0.82490000  1.0 0.0904362637
H  H115  1  0.62440000  0.07700000  0.17510000  1.0 0.0904362637
H  H116  1  0.37560000  0.07700000  0.82490000  1.0 0.0904362637
H  H117  1  0.92300000  0.82490000  0.62440000  1.0 0.0904362637
H  H118  1  0.92300000  0.17510000  0.37560000  1.0 0.0904362637
H  H119  1  0.07700000  0.82490000  0.37560000  1.0 0.0904362637
H  H120  1  0.07700000  0.17510000  0.62440000  1.0 0.0904362637
H  H121  1  0.62440000  0.17510000  0.07700000  1.0 0.0904362637
H  H122  1  0.37560000  0.82490000  0.07700000  1.0 0.0904362637
H  H123  1  0.37560000  0.17510000  0.92300000  1.0 0.0904362637
H  H124  1  0.62440000  0.82490000  0.92300000  1.0 0.0904362637
H  H125  1  0.07700000  0.62440000  0.17510000  1.0 0.0904362637
H  H126  1  0.07700000  0.37560000  0.82490000  1.0 0.0904362637
H  H127  1  0.92300000  0.37560000  0.17510000  1.0 0.0904362637
H  H128  1  0.92300000  0.62440000  0.82490000  1.0 0.0904362637
H  H129  1  0.17510000  0.07700000  0.62440000  1.0 0.0904362637
H  H130  1  0.82490000  0.07700000  0.37560000  1.0 0.0904362637
H  H131  1  0.17510000  0.92300000  0.37560000  1.0 0.0904362637
H  H132  1  0.82490000  0.92300000  0.62440000  1.0 0.0904362637
H  H133  1  0.17510000  0.62440000  0.92300000  1.0 0.0904362637
H  H134  1  0.82490000  0.37560000  0.92300000  1.0 0.0904362637
H  H135  1  0.17510000  0.37560000  0.07700000  1.0 0.0904362637
H  H136  1  0.82490000  0.62440000  0.07700000  1.0 0.0904362637
H  H137  1  0.62440000  0.07700000  0.82490000  1.0 0.0904362637
H  H138  1  0.37560000  0.07700000  0.17510000  1.0 0.0904362637
H  H139  1  0.37560000  0.92300000  0.82490000  1.0 0.0904362637
H  H140  1  0.62440000  0.92300000  0.17510000  1.0 0.0904362637
H  H141  1  0.07700000  0.17510000  0.37560000  1.0 0.0904362637
H  H142  1  0.07700000  0.82490000  0.62440000  1.0 0.0904362637
H  H143  1  0.92300000  0.17510000  0.62440000  1.0 0.0904362637
H  H144  1  0.92300000  0.82490000  0.37560000  1.0 0.0904362637
H  H145  1  0.33150000  0.77070000  0.89200000  1.0 0.121729235
H  H146  1  0.66850000  0.22930000  0.89200000  1.0 0.121729235
H  H147  1  0.66850000  0.77070000  0.10800000  1.0 0.121729235
H  H148  1  0.33150000  0.22930000  0.10800000  1.0 0.121729235
H  H149  1  0.89200000  0.33150000  0.77070000  1.0 0.121729235
H  H150  1  0.89200000  0.66850000  0.22930000  1.0 0.121729235
H  H151  1  0.10800000  0.66850000  0.77070000  1.0 0.121729235
H  H152  1  0.10800000  0.33150000  0.22930000  1.0 0.121729235
H  H153  1  0.77070000  0.89200000  0.33150000  1.0 0.121729235
H  H154  1  0.22930000  0.89200000  0.66850000  1.0 0.121729235
H  H155  1  0.77070000  0.10800000  0.66850000  1.0 0.121729235
H  H156  1  0.22930000  0.10800000  0.33150000  1.0 0.121729235
H  H157  1  0.77070000  0.33150000  0.10800000  1.0 0.121729235
H  H158  1  0.22930000  0.66850000  0.10800000  1.0 0.121729235
H  H159  1  0.77070000  0.66850000  0.89200000  1.0 0.121729235
H  H160  1  0.22930000  0.33150000  0.89200000  1.0 0.121729235
H  H161  1  0.33150000  0.89200000  0.22930000  1.0 0.121729235
H  H162  1  0.66850000  0.89200000  0.77070000  1.0 0.121729235
H  H163  1  0.66850000  0.10800000  0.22930000  1.0 0.121729235
H  H164  1  0.33150000  0.10800000  0.77070000  1.0 0.121729235
H  H165  1  0.89200000  0.77070000  0.66850000  1.0 0.121729235
H  H166  1  0.89200000  0.22930000  0.33150000  1.0 0.121729235
H  H167  1  0.10800000  0.77070000  0.33150000  1.0 0.121729235
H  H168  1  0.10800000  0.22930000  0.66850000  1.0 0.121729235
H  H169  1  0.66850000  0.22930000  0.10800000  1.0 0.121729235
H  H170  1  0.33150000  0.77070000  0.10800000  1.0 0.121729235
H  H171  1  0.33150000  0.22930000  0.89200000  1.0 0.121729235
H  H172  1  0.66850000  0.77070000  0.89200000  1.0 0.121729235
H  H173  1  0.10800000  0.66850000  0.22930000  1.0 0.121729235
H  H174  1  0.10800000  0.33150000  0.77070000  1.0 0.121729235
H  H175  1  0.89200000  0.33150000  0.22930000  1.0 0.121729235
H  H176  1  0.89200000  0.66850000  0.77070000  1.0 0.121729235
H  H177  1  0.22930000  0.10800000  0.66850000  1.0 0.121729235
H  H178  1  0.77070000  0.10800000  0.33150000  1.0 0.121729235
H  H179  1  0.22930000  0.89200000  0.33150000  1.0 0.121729235
H  H180  1  0.77070000  0.89200000  0.66850000  1.0 0.121729235
H  H181  1  0.22930000  0.66850000  0.89200000  1.0 0.121729235
H  H182  1  0.77070000  0.33150000  0.89200000  1.0 0.121729235
H  H183  1  0.22930000  0.33150000  0.10800000  1.0 0.121729235
H  H184  1  0.77070000  0.66850000  0.10800000  1.0 0.121729235
H  H185  1  0.66850000  0.10800000  0.77070000  1.0 0.121729235
H  H186  1  0.33150000  0.10800000  0.22930000  1.0 0.121729235
H  H187  1  0.33150000  0.89200000  0.77070000  1.0 0.121729235
H  H188  1  0.66850000  0.89200000  0.22930000  1.0 0.121729235
H  H189  1  0.10800000  0.22930000  0.33150000  1.0 0.121729235
H  H190  1  0.10800000  0.77070000  0.66850000  1.0 0.121729235
H  H191  1  0.89200000  0.22930000  0.66850000  1.0 0.121729235
H  H192  1  0.89200000  0.77070000  0.33150000  1.0 0.121729235
C  C1  1  0.25290000  0.78540000  0.97550000  1.0 0.0306887169
C  C2  1  0.74710000  0.21460000  0.97550000  1.0 0.0390793123
C  C3  1  0.74710000  0.78540000  0.02450000  1.0 0.0306887169
C  C4  1  0.25290000  0.21460000  0.02450000  1.0 0.0390793123
C  C5  1  0.97550000  0.25290000  0.78540000  1.0 0.0390793123
C  C6  1  0.97550000  0.74710000  0.21460000  1.0 0.0390793123
C  C7  1  0.02450000  0.74710000  0.78540000  1.0 0.0306887169
C  C8  1  0.02450000  0.25290000  0.21460000  1.0 0.0306887169
C  C9  1  0.78540000  0.97550000  0.25290000  1.0 0.0306887169
C  C10  1  0.21460000  0.97550000  0.74710000  1.0 0.0306887169
C  C11  1  0.78540000  0.02450000  0.74710000  1.0 0.0390793123
C  C12  1  0.21460000  0.02450000  0.25290000  1.0 0.0306887169
C  C13  1  0.78540000  0.25290000  0.02450000  1.0 0.0390793123
C  C14  1  0.21460000  0.74710000  0.02450000  1.0 0.0306887169
C  C15  1  0.78540000  0.74710000  0.97550000  1.0 0.0306887169
C  C16  1  0.21460000  0.25290000  0.97550000  1.0 0.0390793123
C  C17  1  0.25290000  0.97550000  0.21460000  1.0 0.0306887169
C  C18  1  0.74710000  0.97550000  0.78540000  1.0 0.0306887169
C  C19  1  0.74710000  0.02450000  0.21460000  1.0 0.0390793123
C  C20  1  0.25290000  0.02450000  0.78540000  1.0 0.0390793123
C  C21  1  0.97550000  0.78540000  0.74710000  1.0 0.0390793123
C  C22  1  0.97550000  0.21460000  0.25290000  1.0 0.0390793123
C  C23  1  0.02450000  0.78540000  0.25290000  1.0 0.0306887169
C  C24  1  0.02450000  0.21460000  0.74710000  1.0 0.0306887169
C  C25  1  0.74710000  0.21460000  0.02450000  1.0 0.0390793123
C  C26  1  0.25290000  0.78540000  0.02450000  1.0 0.0306887169
C  C27  1  0.25290000  0.21460000  0.97550000  1.0 0.0390793123
C  C28  1  0.74710000  0.78540000  0.97550000  1.0 0.0306887169
C  C29  1  0.02450000  0.74710000  0.21460000  1.0 0.0306887169
C  C30  1  0.02450000  0.25290000  0.78540000  1.0 0.0306887169
C  C31  1  0.97550000  0.25290000  0.21460000  1.0 0.0390793123
C  C32  1  0.97550000  0.74710000  0.78540000  1.0 0.0390793123
C  C33  1  0.21460000  0.02450000  0.74710000  1.0 0.0390793123
C  C34  1  0.78540000  0.02450000  0.25290000  1.0 0.0390793123
C  C35  1  0.21460000  0.97550000  0.25290000  1.0 0.0306887169
C  C36  1  0.78540000  0.97550000  0.74710000  1.0 0.0390793123
C  C37  1  0.21460000  0.74710000  0.97550000  1.0 0.0306887169
C  C38  1  0.78540000  0.25290000  0.97550000  1.0 0.0390793123
C  C39  1  0.21460000  0.25290000  0.02450000  1.0 0.0390793123
C  C40  1  0.78540000  0.74710000  0.02450000  1.0 0.0390793123
C  C41  1  0.74710000  0.02450000  0.78540000  1.0 0.0390793123
C  C42  1  0.25290000  0.02450000  0.21460000  1.0 0.0390793123
C  C43  1  0.25290000  0.97550000  0.78540000  1.0 0.0306887169
C  C44  1  0.74710000  0.97550000  0.21460000  1.0 0.0306887169
C  C45  1  0.02450000  0.21460000  0.25290000  1.0 0.0306887169
C  C46  1  0.02450000  0.78540000  0.74710000  1.0 0.0306887169
C  C47  1  0.97550000  0.21460000  0.74710000  1.0 0.0390793123
C  C48  1  0.97550000  0.78540000  0.25290000  1.0 0.0390793123
C  C49  1  0.23710000  0.85690000  0.97790000  1.0 -0.0586768217
C  C50  1  0.76290000  0.14310000  0.97790000  1.0 -0.0586768217
C  C51  1  0.76290000  0.85690000  0.02210000  1.0 -0.0586768217
C  C52  1  0.23710000  0.14310000  0.02210000  1.0 -0.0586768217
C  C53  1  0.97790000  0.23710000  0.85690000  1.0 -0.0586768217
C  C54  1  0.97790000  0.76290000  0.14310000  1.0 -0.0586768217
C  C55  1  0.02210000  0.76290000  0.85690000  1.0 -0.0586768217
C  C56  1  0.02210000  0.23710000  0.14310000  1.0 -0.0586768217
C  C57  1  0.85690000  0.97790000  0.23710000  1.0 -0.0586768217
C  C58  1  0.14310000  0.97790000  0.76290000  1.0 -0.0586768217
C  C59  1  0.85690000  0.02210000  0.76290000  1.0 -0.0586768217
C  C60  1  0.14310000  0.02210000  0.23710000  1.0 -0.0586768217
C  C61  1  0.85690000  0.23710000  0.02210000  1.0 -0.0586768217
C  C62  1  0.14310000  0.76290000  0.02210000  1.0 -0.0586768217
C  C63  1  0.85690000  0.76290000  0.97790000  1.0 -0.0586768217
C  C64  1  0.14310000  0.23710000  0.97790000  1.0 -0.0586768217
C  C65  1  0.23710000  0.97790000  0.14310000  1.0 -0.0586768217
C  C66  1  0.76290000  0.97790000  0.85690000  1.0 -0.0586768217
C  C67  1  0.76290000  0.02210000  0.14310000  1.0 -0.0586768217
C  C68  1  0.23710000  0.02210000  0.85690000  1.0 -0.0586768217
C  C69  1  0.97790000  0.85690000  0.76290000  1.0 -0.0586768217
C  C70  1  0.97790000  0.14310000  0.23710000  1.0 -0.0586768217
C  C71  1  0.02210000  0.85690000  0.23710000  1.0 -0.0586768217
C  C72  1  0.02210000  0.14310000  0.76290000  1.0 -0.0586768217
C  C73  1  0.76290000  0.14310000  0.02210000  1.0 -0.0586768217
C  C74  1  0.23710000  0.85690000  0.02210000  1.0 -0.0586768217
C  C75  1  0.23710000  0.14310000  0.97790000  1.0 -0.0586768217
C  C76  1  0.76290000  0.85690000  0.97790000  1.0 -0.0586768217
C  C77  1  0.02210000  0.76290000  0.14310000  1.0 -0.0586768217
C  C78  1  0.02210000  0.23710000  0.85690000  1.0 -0.0586768217
C  C79  1  0.97790000  0.23710000  0.14310000  1.0 -0.0586768217
C  C80  1  0.97790000  0.76290000  0.85690000  1.0 -0.0586768217
C  C81  1  0.14310000  0.02210000  0.76290000  1.0 -0.0586768217
C  C82  1  0.85690000  0.02210000  0.23710000  1.0 -0.0586768217
C  C83  1  0.14310000  0.97790000  0.23710000  1.0 -0.0586768217
C  C84  1  0.85690000  0.97790000  0.76290000  1.0 -0.0586768217
C  C85  1  0.14310000  0.76290000  0.97790000  1.0 -0.0586768217
C  C86  1  0.85690000  0.23710000  0.97790000  1.0 -0.0586768217
C  C87  1  0.14310000  0.23710000  0.02210000  1.0 -0.0586768217
C  C88  1  0.85690000  0.76290000  0.02210000  1.0 -0.0586768217
C  C89  1  0.76290000  0.02210000  0.85690000  1.0 -0.0586768217
C  C90  1  0.23710000  0.02210000  0.14310000  1.0 -0.0586768217
C  C91  1  0.23710000  0.97790000  0.85690000  1.0 -0.0586768217
C  C92  1  0.76290000  0.97790000  0.14310000  1.0 -0.0586768217
C  C93  1  0.02210000  0.14310000  0.23710000  1.0 -0.0586768217
C  C94  1  0.02210000  0.85690000  0.76290000  1.0 -0.0586768217
C  C95  1  0.97790000  0.14310000  0.76290000  1.0 -0.0586768217
C  C96  1  0.97790000  0.85690000  0.23710000  1.0 -0.0586768217
C  C97  1  0.16600000  0.86760000  0.97010000  1.0 0.0390793123
C  C98  1  0.83400000  0.13240000  0.97010000  1.0 0.0390793123
C  C99  1  0.83400000  0.86760000  0.02990000  1.0 0.0390793123
C  C100  1  0.16600000  0.13240000  0.02990000  1.0 0.0390793123
C  C101  1  0.97010000  0.16600000  0.86760000  1.0 0.0390793123
C  C102  1  0.97010000  0.83400000  0.13240000  1.0 0.0390793123
C  C103  1  0.02990000  0.83400000  0.86760000  1.0 0.0390793123
C  C104  1  0.02990000  0.16600000  0.13240000  1.0 0.0390793123
C  C105  1  0.86760000  0.97010000  0.16600000  1.0 0.0390793123
C  C106  1  0.13240000  0.97010000  0.83400000  1.0 0.0390793123
C  C107  1  0.86760000  0.02990000  0.83400000  1.0 0.0390793123
C  C108  1  0.13240000  0.02990000  0.16600000  1.0 0.0390793123
C  C109  1  0.86760000  0.16600000  0.02990000  1.0 0.0390793123
C  C110  1  0.13240000  0.83400000  0.02990000  1.0 0.0390793123
C  C111  1  0.86760000  0.83400000  0.97010000  1.0 0.0390793123
C  C112  1  0.13240000  0.16600000  0.97010000  1.0 0.0390793123
C  C113  1  0.16600000  0.97010000  0.13240000  1.0 0.0390793123
C  C114  1  0.83400000  0.97010000  0.86760000  1.0 0.0390793123
C  C115  1  0.83400000  0.02990000  0.13240000  1.0 0.0390793123
C  C116  1  0.16600000  0.02990000  0.86760000  1.0 0.0390793123
C  C117  1  0.97010000  0.86760000  0.83400000  1.0 0.0390793123
C  C118  1  0.97010000  0.13240000  0.16600000  1.0 0.0390793123
C  C119  1  0.02990000  0.86760000  0.16600000  1.0 0.0390793123
C  C120  1  0.02990000  0.13240000  0.83400000  1.0 0.0390793123
C  C121  1  0.83400000  0.13240000  0.02990000  1.0 0.0390793123
C  C122  1  0.16600000  0.86760000  0.02990000  1.0 0.0390793123
C  C123  1  0.16600000  0.13240000  0.97010000  1.0 0.0390793123
C  C124  1  0.83400000  0.86760000  0.97010000  1.0 0.0390793123
C  C125  1  0.02990000  0.83400000  0.13240000  1.0 0.0390793123
C  C126  1  0.02990000  0.16600000  0.86760000  1.0 0.0390793123
C  C127  1  0.97010000  0.16600000  0.13240000  1.0 0.0390793123
C  C128  1  0.97010000  0.83400000  0.86760000  1.0 0.0390793123
C  C129  1  0.13240000  0.02990000  0.83400000  1.0 0.0390793123
C  C130  1  0.86760000  0.02990000  0.16600000  1.0 0.0390793123
C  C131  1  0.13240000  0.97010000  0.16600000  1.0 0.0390793123
C  C132  1  0.86760000  0.97010000  0.83400000  1.0 0.0390793123
C  C133  1  0.13240000  0.83400000  0.97010000  1.0 0.0390793123
C  C134  1  0.86760000  0.16600000  0.97010000  1.0 0.0390793123
C  C135  1  0.13240000  0.16600000  0.02990000  1.0 0.0390793123
C  C136  1  0.86760000  0.83400000  0.02990000  1.0 0.0390793123
C  C137  1  0.83400000  0.02990000  0.86760000  1.0 0.0390793123
C  C138  1  0.16600000  0.02990000  0.13240000  1.0 0.0390793123
C  C139  1  0.16600000  0.97010000  0.86760000  1.0 0.0390793123
C  C140  1  0.83400000  0.97010000  0.13240000  1.0 0.0390793123
C  C141  1  0.02990000  0.13240000  0.16600000  1.0 0.0390793123
C  C142  1  0.02990000  0.86760000  0.83400000  1.0 0.0390793123
C  C143  1  0.97010000  0.13240000  0.83400000  1.0 0.0390793123
C  C144  1  0.97010000  0.86760000  0.16600000  1.0 0.0390793123
C  C145  1  0.35180000  0.80190000  0.04440000  1.0 -0.1323848111
C  C146  1  0.64820000  0.19810000  0.04440000  1.0 -0.1323848111
C  C147  1  0.64820000  0.80190000  0.95560000  1.0 -0.1323848111
C  C148  1  0.35180000  0.19810000  0.95560000  1.0 -0.1323848111
C  C149  1  0.04440000  0.35180000  0.80190000  1.0 -0.1323848111
C  C150  1  0.04440000  0.64820000  0.19810000  1.0 -0.1323848111
C  C151  1  0.95560000  0.64820000  0.80190000  1.0 -0.1323848111
C  C152  1  0.95560000  0.35180000  0.19810000  1.0 -0.1323848111
C  C153  1  0.80190000  0.04440000  0.35180000  1.0 -0.1323848111
C  C154  1  0.19810000  0.04440000  0.64820000  1.0 -0.1323848111
C  C155  1  0.80190000  0.95560000  0.64820000  1.0 -0.1323848111
C  C156  1  0.19810000  0.95560000  0.35180000  1.0 -0.1323848111
C  C157  1  0.80190000  0.35180000  0.95560000  1.0 -0.1323848111
C  C158  1  0.19810000  0.64820000  0.95560000  1.0 -0.1323848111
C  C159  1  0.80190000  0.64820000  0.04440000  1.0 -0.1323848111
C  C160  1  0.19810000  0.35180000  0.04440000  1.0 -0.1323848111
C  C161  1  0.35180000  0.04440000  0.19810000  1.0 -0.1323848111
C  C162  1  0.64820000  0.04440000  0.80190000  1.0 -0.1323848111
C  C163  1  0.64820000  0.95560000  0.19810000  1.0 -0.1323848111
C  C164  1  0.35180000  0.95560000  0.80190000  1.0 -0.1323848111
C  C165  1  0.04440000  0.80190000  0.64820000  1.0 -0.1323848111
C  C166  1  0.04440000  0.19810000  0.35180000  1.0 -0.1323848111
C  C167  1  0.95560000  0.80190000  0.35180000  1.0 -0.1323848111
C  C168  1  0.95560000  0.19810000  0.64820000  1.0 -0.1323848111
C  C169  1  0.64820000  0.19810000  0.95560000  1.0 -0.1323848111
C  C170  1  0.35180000  0.80190000  0.95560000  1.0 -0.1323848111
C  C171  1  0.35180000  0.19810000  0.04440000  1.0 -0.1323848111
C  C172  1  0.64820000  0.80190000  0.04440000  1.0 -0.1323848111
C  C173  1  0.95560000  0.64820000  0.19810000  1.0 -0.1323848111
C  C174  1  0.95560000  0.35180000  0.80190000  1.0 -0.1323848111
C  C175  1  0.04440000  0.35180000  0.19810000  1.0 -0.1323848111
C  C176  1  0.04440000  0.64820000  0.80190000  1.0 -0.1323848111
C  C177  1  0.19810000  0.95560000  0.64820000  1.0 -0.1323848111
C  C178  1  0.80190000  0.95560000  0.35180000  1.0 -0.1323848111
C  C179  1  0.19810000  0.04440000  0.35180000  1.0 -0.1323848111
C  C180  1  0.80190000  0.04440000  0.64820000  1.0 -0.1323848111
C  C181  1  0.19810000  0.64820000  0.04440000  1.0 -0.1323848111
C  C182  1  0.80190000  0.35180000  0.04440000  1.0 -0.1323848111
C  C183  1  0.19810000  0.35180000  0.95560000  1.0 -0.1323848111
C  C184  1  0.80190000  0.64820000  0.95560000  1.0 -0.1323848111
C  C185  1  0.64820000  0.95560000  0.80190000  1.0 -0.1323848111
C  C186  1  0.35180000  0.95560000  0.19810000  1.0 -0.1323848111
C  C187  1  0.35180000  0.04440000  0.80190000  1.0 -0.1323848111
C  C188  1  0.64820000  0.04440000  0.19810000  1.0 -0.1323848111
C  C189  1  0.95560000  0.19810000  0.35180000  1.0 -0.1323848111
C  C190  1  0.95560000  0.80190000  0.64820000  1.0 -0.1323848111
C  C191  1  0.04440000  0.19810000  0.64820000  1.0 -0.1323848111
C  C192  1  0.04440000  0.80190000  0.35180000  1.0 -0.1323848111
C  C193  1  0.37420000  0.75730000  0.09330000  1.0 0.1770021307
C  C194  1  0.62580000  0.24270000  0.09330000  1.0 0.1770021307
C  C195  1  0.62580000  0.75730000  0.90670000  1.0 0.1770021307
C  C196  1  0.37420000  0.24270000  0.90670000  1.0 0.1770021307
C  C197  1  0.09330000  0.37420000  0.75730000  1.0 0.1770021307
C  C198  1  0.09330000  0.62580000  0.24270000  1.0 0.1770021307
C  C199  1  0.90670000  0.62580000  0.75730000  1.0 0.1770021307
C  C200  1  0.90670000  0.37420000  0.24270000  1.0 0.1770021307
C  C201  1  0.75730000  0.09330000  0.37420000  1.0 0.1770021307
C  C202  1  0.24270000  0.09330000  0.62580000  1.0 0.1770021307
C  C203  1  0.75730000  0.90670000  0.62580000  1.0 0.1770021307
C  C204  1  0.24270000  0.90670000  0.37420000  1.0 0.1770021307
C  C205  1  0.75730000  0.37420000  0.90670000  1.0 0.1770021307
C  C206  1  0.24270000  0.62580000  0.90670000  1.0 0.1770021307
C  C207  1  0.75730000  0.62580000  0.09330000  1.0 0.1770021307
C  C208  1  0.24270000  0.37420000  0.09330000  1.0 0.1770021307
C  C209  1  0.37420000  0.09330000  0.24270000  1.0 0.1770021307
C  C210  1  0.62580000  0.09330000  0.75730000  1.0 0.1770021307
C  C211  1  0.62580000  0.90670000  0.24270000  1.0 0.1770021307
C  C212  1  0.37420000  0.90670000  0.75730000  1.0 0.1770021307
C  C213  1  0.09330000  0.75730000  0.62580000  1.0 0.1770021307
C  C214  1  0.09330000  0.24270000  0.37420000  1.0 0.1770021307
C  C215  1  0.90670000  0.75730000  0.37420000  1.0 0.1770021307
C  C216  1  0.90670000  0.24270000  0.62580000  1.0 0.1770021307
C  C217  1  0.62580000  0.24270000  0.90670000  1.0 0.1770021307
C  C218  1  0.37420000  0.75730000  0.90670000  1.0 0.1770021307
C  C219  1  0.37420000  0.24270000  0.09330000  1.0 0.1770021307
C  C220  1  0.62580000  0.75730000  0.09330000  1.0 0.1770021307
C  C221  1  0.90670000  0.62580000  0.24270000  1.0 0.1770021307
C  C222  1  0.90670000  0.37420000  0.75730000  1.0 0.1770021307
C  C223  1  0.09330000  0.37420000  0.24270000  1.0 0.1770021307
C  C224  1  0.09330000  0.62580000  0.75730000  1.0 0.1770021307
C  C225  1  0.24270000  0.90670000  0.62580000  1.0 0.1770021307
C  C226  1  0.75730000  0.90670000  0.37420000  1.0 0.1770021307
C  C227  1  0.24270000  0.09330000  0.37420000  1.0 0.1770021307
C  C228  1  0.75730000  0.09330000  0.62580000  1.0 0.1770021307
C  C229  1  0.24270000  0.62580000  0.09330000  1.0 0.1770021307
C  C230  1  0.75730000  0.37420000  0.09330000  1.0 0.1770021307
C  C231  1  0.24270000  0.37420000  0.90670000  1.0 0.1770021307
C  C232  1  0.75730000  0.62580000  0.90670000  1.0 0.1770021307
C  C233  1  0.62580000  0.90670000  0.75730000  1.0 0.1770021307
C  C234  1  0.37420000  0.90670000  0.24270000  1.0 0.1770021307
C  C235  1  0.37420000  0.09330000  0.75730000  1.0 0.1770021307
C  C236  1  0.62580000  0.09330000  0.24270000  1.0 0.1770021307
C  C237  1  0.90670000  0.24270000  0.37420000  1.0 0.1770021307
C  C238  1  0.90670000  0.75730000  0.62580000  1.0 0.1770021307
C  C239  1  0.09330000  0.24270000  0.62580000  1.0 0.1770021307
C  C240  1  0.09330000  0.75730000  0.37420000  1.0 0.1770021307
C  C241  1  0.36060000  0.78060000  0.92760000  1.0 0.0306887169
C  C242  1  0.63940000  0.21940000  0.92760000  1.0 0.0306887169
C  C243  1  0.63940000  0.78060000  0.07240000  1.0 0.0306887169
C  C244  1  0.36060000  0.21940000  0.07240000  1.0 0.0306887169
C  C245  1  0.92760000  0.36060000  0.78060000  1.0 0.0306887169
C  C246  1  0.92760000  0.63940000  0.21940000  1.0 0.0306887169
C  C247  1  0.07240000  0.63940000  0.78060000  1.0 0.0306887169
C  C248  1  0.07240000  0.36060000  0.21940000  1.0 0.0306887169
C  C249  1  0.78060000  0.92760000  0.36060000  1.0 0.0306887169
C  C250  1  0.21940000  0.92760000  0.63940000  1.0 0.0306887169
C  C251  1  0.78060000  0.07240000  0.63940000  1.0 0.0306887169
C  C252  1  0.21940000  0.07240000  0.36060000  1.0 0.0306887169
C  C253  1  0.78060000  0.36060000  0.07240000  1.0 0.0306887169
C  C254  1  0.21940000  0.63940000  0.07240000  1.0 0.0306887169
C  C255  1  0.78060000  0.63940000  0.92760000  1.0 0.0306887169
C  C256  1  0.21940000  0.36060000  0.92760000  1.0 0.0306887169
C  C257  1  0.36060000  0.92760000  0.21940000  1.0 0.0306887169
C  C258  1  0.63940000  0.92760000  0.78060000  1.0 0.0306887169
C  C259  1  0.63940000  0.07240000  0.21940000  1.0 0.0306887169
C  C260  1  0.36060000  0.07240000  0.78060000  1.0 0.0306887169
C  C261  1  0.92760000  0.78060000  0.63940000  1.0 0.0306887169
C  C262  1  0.92760000  0.21940000  0.36060000  1.0 0.0306887169
C  C263  1  0.07240000  0.78060000  0.36060000  1.0 0.0306887169
C  C264  1  0.07240000  0.21940000  0.63940000  1.0 0.0306887169
C  C265  1  0.63940000  0.21940000  0.07240000  1.0 0.0306887169
C  C266  1  0.36060000  0.78060000  0.07240000  1.0 0.0306887169
C  C267  1  0.36060000  0.21940000  0.92760000  1.0 0.0306887169
C  C268  1  0.63940000  0.78060000  0.92760000  1.0 0.0306887169
C  C269  1  0.07240000  0.63940000  0.21940000  1.0 0.0306887169
C  C270  1  0.07240000  0.36060000  0.78060000  1.0 0.0306887169
C  C271  1  0.92760000  0.36060000  0.21940000  1.0 0.0306887169
C  C272  1  0.92760000  0.63940000  0.78060000  1.0 0.0306887169
C  C273  1  0.21940000  0.07240000  0.63940000  1.0 0.0306887169
C  C274  1  0.78060000  0.07240000  0.36060000  1.0 0.0306887169
C  C275  1  0.21940000  0.92760000  0.36060000  1.0 0.0306887169
C  C276  1  0.78060000  0.92760000  0.63940000  1.0 0.0306887169
C  C277  1  0.21940000  0.63940000  0.92760000  1.0 0.0306887169
C  C278  1  0.78060000  0.36060000  0.92760000  1.0 0.0306887169
C  C279  1  0.21940000  0.36060000  0.07240000  1.0 0.0306887169
C  C280  1  0.78060000  0.63940000  0.07240000  1.0 0.0306887169
C  C281  1  0.63940000  0.07240000  0.78060000  1.0 0.0306887169
C  C282  1  0.36060000  0.07240000  0.21940000  1.0 0.0306887169
C  C283  1  0.36060000  0.92760000  0.78060000  1.0 0.0306887169
C  C284  1  0.63940000  0.92760000  0.21940000  1.0 0.0306887169
C  C285  1  0.07240000  0.21940000  0.36060000  1.0 0.0306887169
C  C286  1  0.07240000  0.78060000  0.63940000  1.0 0.0306887169
C  C287  1  0.92760000  0.21940000  0.63940000  1.0 0.0306887169
C  C288  1  0.92760000  0.78060000  0.36060000  1.0 0.0306887169
C  C289  1  0.41670000  0.73460000  0.92820000  1.0 0.293045601
C  C290  1  0.58330000  0.26540000  0.92820000  1.0 0.293045601
C  C291  1  0.58330000  0.73460000  0.07180000  1.0 0.293045601
C  C292  1  0.41670000  0.26540000  0.07180000  1.0 0.293045601
C  C293  1  0.92820000  0.41670000  0.73460000  1.0 0.293045601
C  C294  1  0.92820000  0.58330000  0.26540000  1.0 0.293045601
C  C295  1  0.07180000  0.58330000  0.73460000  1.0 0.293045601
C  C296  1  0.07180000  0.41670000  0.26540000  1.0 0.293045601
C  C297  1  0.73460000  0.92820000  0.41670000  1.0 0.293045601
C  C298  1  0.26540000  0.92820000  0.58330000  1.0 0.293045601
C  C299  1  0.73460000  0.07180000  0.58330000  1.0 0.293045601
C  C300  1  0.26540000  0.07180000  0.41670000  1.0 0.293045601
C  C301  1  0.73460000  0.41670000  0.07180000  1.0 0.293045601
C  C302  1  0.26540000  0.58330000  0.07180000  1.0 0.293045601
C  C303  1  0.73460000  0.58330000  0.92820000  1.0 0.293045601
C  C304  1  0.26540000  0.41670000  0.92820000  1.0 0.293045601
C  C305  1  0.41670000  0.92820000  0.26540000  1.0 0.293045601
C  C306  1  0.58330000  0.92820000  0.73460000  1.0 0.293045601
C  C307  1  0.58330000  0.07180000  0.26540000  1.0 0.293045601
C  C308  1  0.41670000  0.07180000  0.73460000  1.0 0.293045601
C  C309  1  0.92820000  0.73460000  0.58330000  1.0 0.293045601
C  C310  1  0.92820000  0.26540000  0.41670000  1.0 0.293045601
C  C311  1  0.07180000  0.73460000  0.41670000  1.0 0.293045601
C  C312  1  0.07180000  0.26540000  0.58330000  1.0 0.293045601
C  C313  1  0.58330000  0.26540000  0.07180000  1.0 0.293045601
C  C314  1  0.41670000  0.73460000  0.07180000  1.0 0.293045601
C  C315  1  0.41670000  0.26540000  0.92820000  1.0 0.293045601
C  C316  1  0.58330000  0.73460000  0.92820000  1.0 0.293045601
C  C317  1  0.07180000  0.58330000  0.26540000  1.0 0.293045601
C  C318  1  0.07180000  0.41670000  0.73460000  1.0 0.293045601
C  C319  1  0.92820000  0.41670000  0.26540000  1.0 0.293045601
C  C320  1  0.92820000  0.58330000  0.73460000  1.0 0.293045601
C  C321  1  0.26540000  0.07180000  0.58330000  1.0 0.293045601
C  C322  1  0.73460000  0.07180000  0.41670000  1.0 0.293045601
C  C323  1  0.26540000  0.92820000  0.41670000  1.0 0.293045601
C  C324  1  0.73460000  0.92820000  0.58330000  1.0 0.293045601
C  C325  1  0.26540000  0.58330000  0.92820000  1.0 0.293045601
C  C326  1  0.73460000  0.41670000  0.92820000  1.0 0.293045601
C  C327  1  0.26540000  0.41670000  0.07180000  1.0 0.293045601
C  C328  1  0.73460000  0.58330000  0.07180000  1.0 0.293045601
C  C329  1  0.58330000  0.07180000  0.73460000  1.0 0.293045601
C  C330  1  0.41670000  0.07180000  0.26540000  1.0 0.293045601
C  C331  1  0.41670000  0.92820000  0.73460000  1.0 0.293045601
C  C332  1  0.58330000  0.92820000  0.26540000  1.0 0.293045601
C  C333  1  0.07180000  0.26540000  0.41670000  1.0 0.293045601
C  C334  1  0.07180000  0.73460000  0.58330000  1.0 0.293045601
C  C335  1  0.92820000  0.26540000  0.58330000  1.0 0.293045601
C  C336  1  0.92820000  0.73460000  0.41670000  1.0 0.293045601
N  N1  1  0.32220000  0.77040000  0.00000000  1.0 -0.11111634
N  N2  1  0.67780000  0.22960000  0.00000000  1.0 -0.11111634
N  N3  1  0.67780000  0.77040000  0.00000000  1.0 -0.11111634
N  N4  1  0.32220000  0.22960000  0.00000000  1.0 -0.11111634
N  N5  1  0.00000000  0.32220000  0.77040000  1.0 -0.11111634
N  N6  1  0.00000000  0.67780000  0.22960000  1.0 -0.11111634
N  N7  1  0.00000000  0.67780000  0.77040000  1.0 -0.11111634
N  N8  1  0.00000000  0.32220000  0.22960000  1.0 -0.11111634
N  N9  1  0.77040000  0.00000000  0.32220000  1.0 -0.11111634
N  N10  1  0.22960000  0.00000000  0.67780000  1.0 -0.11111634
N  N11  1  0.77040000  0.00000000  0.67780000  1.0 -0.11111634
N  N12  1  0.22960000  0.00000000  0.32220000  1.0 -0.11111634
N  N13  1  0.77040000  0.32220000  0.00000000  1.0 -0.11111634
N  N14  1  0.22960000  0.67780000  0.00000000  1.0 -0.11111634
N  N15  1  0.77040000  0.67780000  0.00000000  1.0 -0.11111634
N  N16  1  0.22960000  0.32220000  0.00000000  1.0 -0.11111634
N  N17  1  0.32220000  0.00000000  0.22960000  1.0 -0.11111634
N  N18  1  0.67780000  0.00000000  0.77040000  1.0 -0.11111634
N  N19  1  0.67780000  0.00000000  0.22960000  1.0 -0.11111634
N  N20  1  0.32220000  0.00000000  0.77040000  1.0 -0.11111634
N  N21  1  0.00000000  0.77040000  0.67780000  1.0 -0.11111634
N  N22  1  0.00000000  0.22960000  0.32220000  1.0 -0.11111634
N  N23  1  0.00000000  0.77040000  0.32220000  1.0 -0.11111634
N  N24  1  0.00000000  0.22960000  0.67780000  1.0 -0.11111634
Cl  Cl1  1  0.78261000  0.21739000  0.21739000  1.0 0.3410165074
Cl  Cl2  1  0.21739000  0.78261000  0.21739000  1.0 0.3410165074
Cl  Cl3  1  0.78261000  0.78261000  0.78261000  1.0 0.3410165074
Cl  Cl4  1  0.21739000  0.21739000  0.78261000  1.0 0.3410165074
Cl  Cl5  1  0.21739000  0.78261000  0.78261000  1.0 0.3410165074
Cl  Cl6  1  0.78261000  0.21739000  0.78261000  1.0 0.3410165074
Cl  Cl7  1  0.78261000  0.78261000  0.21739000  1.0 0.3410165074
Cl  Cl8  1  0.21739000  0.21739000  0.21739000  1.0 0.3410165074
O  O1  1  0.50000000  0.88420000  0.11580000  1.0 0.0074631443
O  O2  1  0.50000000  0.11580000  0.11580000  1.0 0.0074631443
O  O3  1  0.50000000  0.88420000  0.88420000  1.0 0.0074631443
O  O4  1  0.50000000  0.11580000  0.88420000  1.0 0.0074631443
O  O5  1  0.11580000  0.50000000  0.88420000  1.0 0.0074631443
O  O6  1  0.11580000  0.50000000  0.11580000  1.0 0.0074631443
O  O7  1  0.88420000  0.50000000  0.88420000  1.0 0.0074631443
O  O8  1  0.88420000  0.50000000  0.11580000  1.0 0.0074631443
O  O9  1  0.88420000  0.11580000  0.50000000  1.0 0.0074631443
O  O10  1  0.11580000  0.11580000  0.50000000  1.0 0.0074631443
O  O11  1  0.88420000  0.88420000  0.50000000  1.0 0.0074631443
O  O12  1  0.11580000  0.88420000  0.50000000  1.0 0.0074631443
O  O13  1  0.50000000  0.77690000  0.32920000  1.0 -0.2939739721
O  O14  1  0.50000000  0.22310000  0.32920000  1.0 -0.2939739721
O  O15  1  0.50000000  0.77690000  0.67080000  1.0 -0.2939739721
O  O16  1  0.50000000  0.22310000  0.67080000  1.0 -0.2939739721
O  O17  1  0.32920000  0.50000000  0.77690000  1.0 -0.2939739721
O  O18  1  0.32920000  0.50000000  0.22310000  1.0 -0.2939739721
O  O19  1  0.67080000  0.50000000  0.77690000  1.0 -0.2939739721
O  O20  1  0.67080000  0.50000000  0.22310000  1.0 -0.2939739721
O  O21  1  0.77690000  0.32920000  0.50000000  1.0 -0.2939739721
O  O22  1  0.22310000  0.32920000  0.50000000  1.0 -0.2939739721
O  O23  1  0.77690000  0.67080000  0.50000000  1.0 -0.2939739721
O  O24  1  0.22310000  0.67080000  0.50000000  1.0 -0.2939739721
O  O25  1  0.77690000  0.50000000  0.67080000  1.0 -0.2939739721
O  O26  1  0.22310000  0.50000000  0.67080000  1.0 -0.2939739721
O  O27  1  0.77690000  0.50000000  0.32920000  1.0 -0.2939739721
O  O28  1  0.22310000  0.50000000  0.32920000  1.0 -0.2939739721
O  O29  1  0.50000000  0.32920000  0.22310000  1.0 -0.2939739721
O  O30  1  0.50000000  0.32920000  0.77690000  1.0 -0.2939739721
O  O31  1  0.50000000  0.67080000  0.22310000  1.0 -0.2939739721
O  O32  1  0.50000000  0.67080000  0.77690000  1.0 -0.2939739721
O  O33  1  0.32920000  0.77690000  0.50000000  1.0 -0.2939739721
O  O34  1  0.32920000  0.22310000  0.50000000  1.0 -0.2939739721
O  O35  1  0.67080000  0.77690000  0.50000000  1.0 -0.2939739721
O  O36  1  0.67080000  0.22310000  0.50000000  1.0 -0.2939739721
O  O37  1  0.39330000  0.75070000  0.24930000  1.0 -0.1655898627
O  O38  1  0.60670000  0.24930000  0.24930000  1.0 -0.164008446
O  O39  1  0.60670000  0.75070000  0.75070000  1.0 -0.164008446
O  O40  1  0.39330000  0.24930000  0.75070000  1.0 -0.1655898627
O  O41  1  0.24930000  0.39330000  0.75070000  1.0 -0.1655898627
O  O42  1  0.24930000  0.60670000  0.24930000  1.0 -0.1655898627
O  O43  1  0.75070000  0.60670000  0.75070000  1.0 -0.164008446
O  O44  1  0.75070000  0.39330000  0.24930000  1.0 -0.164008446
O  O45  1  0.75070000  0.24930000  0.39330000  1.0 -0.164008446
O  O46  1  0.24930000  0.24930000  0.60670000  1.0 -0.1655898627
O  O47  1  0.75070000  0.75070000  0.60670000  1.0 -0.164008446
O  O48  1  0.24930000  0.75070000  0.39330000  1.0 -0.1655898627
O  O49  1  0.75070000  0.39330000  0.75070000  1.0 -0.164008446
O  O50  1  0.24930000  0.60670000  0.75070000  1.0 -0.1655898627
O  O51  1  0.75070000  0.60670000  0.24930000  1.0 -0.164008446
O  O52  1  0.24930000  0.39330000  0.24930000  1.0 -0.164008446
O  O53  1  0.39330000  0.24930000  0.24930000  1.0 -0.1655898627
O  O54  1  0.60670000  0.24930000  0.75070000  1.0 -0.164008446
O  O55  1  0.60670000  0.75070000  0.24930000  1.0 -0.164008446
O  O56  1  0.39330000  0.75070000  0.75070000  1.0 -0.1655898627
O  O57  1  0.24930000  0.75070000  0.60670000  1.0 -0.1655898627
O  O58  1  0.24930000  0.24930000  0.39330000  1.0 -0.1655898627
O  O59  1  0.75070000  0.75070000  0.39330000  1.0 -0.164008446
O  O60  1  0.75070000  0.24930000  0.60670000  1.0 -0.164008446
O  O61  1  0.40610000  0.78030000  0.13540000  1.0 -0.1468502447
O  O62  1  0.59390000  0.21970000  0.13540000  1.0 -0.1468502447
O  O63  1  0.59390000  0.78030000  0.86460000  1.0 -0.1468502447
O  O64  1  0.40610000  0.21970000  0.86460000  1.0 -0.1468502447
O  O65  1  0.13540000  0.40610000  0.78030000  1.0 -0.1468502447
O  O66  1  0.13540000  0.59390000  0.21970000  1.0 -0.1468502447
O  O67  1  0.86460000  0.59390000  0.78030000  1.0 -0.1468502447
O  O68  1  0.86460000  0.40610000  0.21970000  1.0 -0.1468502447
O  O69  1  0.78030000  0.13540000  0.40610000  1.0 -0.1468502447
O  O70  1  0.21970000  0.13540000  0.59390000  1.0 -0.1468502447
O  O71  1  0.78030000  0.86460000  0.59390000  1.0 -0.1468502447
O  O72  1  0.21970000  0.86460000  0.40610000  1.0 -0.1468502447
O  O73  1  0.78030000  0.40610000  0.86460000  1.0 -0.1468502447
O  O74  1  0.21970000  0.59390000  0.86460000  1.0 -0.1468502447
O  O75  1  0.78030000  0.59390000  0.13540000  1.0 -0.1468502447
O  O76  1  0.21970000  0.40610000  0.13540000  1.0 -0.1468502447
O  O77  1  0.40610000  0.13540000  0.21970000  1.0 -0.1468502447
O  O78  1  0.59390000  0.13540000  0.78030000  1.0 -0.1468502447
O  O79  1  0.59390000  0.86460000  0.21970000  1.0 -0.1468502447
O  O80  1  0.40610000  0.86460000  0.78030000  1.0 -0.1468502447
O  O81  1  0.13540000  0.78030000  0.59390000  1.0 -0.1468502447
O  O82  1  0.13540000  0.21970000  0.40610000  1.0 -0.1468502447
O  O83  1  0.86460000  0.78030000  0.40610000  1.0 -0.1468502447
O  O84  1  0.86460000  0.21970000  0.59390000  1.0 -0.1468502447
O  O85  1  0.59390000  0.21970000  0.86460000  1.0 -0.1468502447
O  O86  1  0.40610000  0.78030000  0.86460000  1.0 -0.1468502447
O  O87  1  0.40610000  0.21970000  0.13540000  1.0 -0.1468502447
O  O88  1  0.59390000  0.78030000  0.13540000  1.0 -0.1468502447
O  O89  1  0.86460000  0.59390000  0.21970000  1.0 -0.1468502447
O  O90  1  0.86460000  0.40610000  0.78030000  1.0 -0.1468502447
O  O91  1  0.13540000  0.40610000  0.21970000  1.0 -0.1468502447
O  O92  1  0.13540000  0.59390000  0.78030000  1.0 -0.1468502447
O  O93  1  0.21970000  0.86460000  0.59390000  1.0 -0.1468502447
O  O94  1  0.78030000  0.86460000  0.40610000  1.0 -0.1468502447
O  O95  1  0.21970000  0.13540000  0.40610000  1.0 -0.1468502447
O  O96  1  0.78030000  0.13540000  0.59390000  1.0 -0.1468502447
O  O97  1  0.21970000  0.59390000  0.13540000  1.0 -0.1468502447
O  O98  1  0.78030000  0.40610000  0.13540000  1.0 -0.1468502447
O  O99  1  0.21970000  0.40610000  0.86460000  1.0 -0.1468502447
O  O100  1  0.78030000  0.59390000  0.86460000  1.0 -0.1468502447
O  O101  1  0.59390000  0.86460000  0.78030000  1.0 -0.1468502447
O  O102  1  0.40610000  0.86460000  0.21970000  1.0 -0.1468502447
O  O103  1  0.40610000  0.13540000  0.78030000  1.0 -0.1468502447
O  O104  1  0.59390000  0.13540000  0.21970000  1.0 -0.1468502447
O  O105  1  0.86460000  0.21970000  0.40610000  1.0 -0.1468502447
O  O106  1  0.86460000  0.78030000  0.59390000  1.0 -0.1468502447
O  O107  1  0.13540000  0.21970000  0.59390000  1.0 -0.1468502447
O  O108  1  0.13540000  0.78030000  0.40610000  1.0 -0.1468502447
O  O109  1  0.35720000  0.70000000  0.08770000  1.0 -0.0946313479
O  O110  1  0.64280000  0.30000000  0.08770000  1.0 -0.0946313479
O  O111  1  0.64280000  0.70000000  0.91230000  1.0 -0.0946313479
O  O112  1  0.35720000  0.30000000  0.91230000  1.0 -0.0946313479
O  O113  1  0.08770000  0.35720000  0.70000000  1.0 -0.0946313479
O  O114  1  0.08770000  0.64280000  0.30000000  1.0 -0.0946313479
O  O115  1  0.91230000  0.64280000  0.70000000  1.0 -0.0946313479
O  O116  1  0.91230000  0.35720000  0.30000000  1.0 -0.0946313479
O  O117  1  0.70000000  0.08770000  0.35720000  1.0 -0.0946313479
O  O118  1  0.30000000  0.08770000  0.64280000  1.0 -0.0946313479
O  O119  1  0.70000000  0.91230000  0.64280000  1.0 -0.0946313479
O  O120  1  0.30000000  0.91230000  0.35720000  1.0 -0.0946313479
O  O121  1  0.70000000  0.35720000  0.91230000  1.0 -0.0946313479
O  O122  1  0.30000000  0.64280000  0.91230000  1.0 -0.0946313479
O  O123  1  0.70000000  0.64280000  0.08770000  1.0 -0.0946313479
O  O124  1  0.30000000  0.35720000  0.08770000  1.0 -0.0946313479
O  O125  1  0.35720000  0.08770000  0.30000000  1.0 -0.0946313479
O  O126  1  0.64280000  0.08770000  0.70000000  1.0 -0.0946313479
O  O127  1  0.64280000  0.91230000  0.30000000  1.0 -0.0946313479
O  O128  1  0.35720000  0.91230000  0.70000000  1.0 -0.0946313479
O  O129  1  0.08770000  0.70000000  0.64280000  1.0 -0.0946313479
O  O130  1  0.08770000  0.30000000  0.35720000  1.0 -0.0946313479
O  O131  1  0.91230000  0.70000000  0.35720000  1.0 -0.0946313479
O  O132  1  0.91230000  0.30000000  0.64280000  1.0 -0.0946313479
O  O133  1  0.64280000  0.30000000  0.91230000  1.0 -0.0946313479
O  O134  1  0.35720000  0.70000000  0.91230000  1.0 -0.0946313479
O  O135  1  0.35720000  0.30000000  0.08770000  1.0 -0.0946313479
O  O136  1  0.64280000  0.70000000  0.08770000  1.0 -0.0946313479
O  O137  1  0.91230000  0.64280000  0.30000000  1.0 -0.0946313479
O  O138  1  0.91230000  0.35720000  0.70000000  1.0 -0.0946313479
O  O139  1  0.08770000  0.35720000  0.30000000  1.0 -0.0946313479
O  O140  1  0.08770000  0.64280000  0.70000000  1.0 -0.0946313479
O  O141  1  0.30000000  0.91230000  0.64280000  1.0 -0.0946313479
O  O142  1  0.70000000  0.91230000  0.35720000  1.0 -0.0946313479
O  O143  1  0.30000000  0.08770000  0.35720000  1.0 -0.0946313479
O  O144  1  0.70000000  0.08770000  0.64280000  1.0 -0.0946313479
O  O145  1  0.30000000  0.64280000  0.08770000  1.0 -0.0946313479
O  O146  1  0.70000000  0.35720000  0.08770000  1.0 -0.0946313479
O  O147  1  0.30000000  0.35720000  0.91230000  1.0 -0.0946313479
O  O148  1  0.70000000  0.64280000  0.91230000  1.0 -0.0946313479
O  O149  1  0.64280000  0.91230000  0.70000000  1.0 -0.0946313479
O  O150  1  0.35720000  0.91230000  0.30000000  1.0 -0.1033256149
O  O151  1  0.35720000  0.08770000  0.70000000  1.0 -0.0946313479
O  O152  1  0.64280000  0.08770000  0.30000000  1.0 -0.0946313479
O  O153  1  0.91230000  0.30000000  0.35720000  1.0 -0.0946313479
O  O154  1  0.91230000  0.70000000  0.64280000  1.0 -0.0946313479
O  O155  1  0.08770000  0.30000000  0.64280000  1.0 -0.0946313479
O  O156  1  0.08770000  0.70000000  0.35720000  1.0 -0.0946313479
O  O157  1  0.50000000  0.50000000  0.10660000  1.0 -0.2939739721
O  O158  1  0.50000000  0.50000000  0.89340000  1.0 -0.2939739721
O  O159  1  0.10660000  0.50000000  0.50000000  1.0 -0.2939739721
O  O160  1  0.89340000  0.50000000  0.50000000  1.0 -0.2939739721
O  O161  1  0.50000000  0.10660000  0.50000000  1.0 -0.2939739721
O  O162  1  0.50000000  0.89340000  0.50000000  1.0 -0.2939739721
O  O163  1  0.50000000  0.61160000  0.00000000  1.0 0.071771772
O  O164  1  0.50000000  0.38840000  0.00000000  1.0 0.071771772
O  O165  1  0.00000000  0.50000000  0.61160000  1.0 0.071771772
O  O166  1  0.00000000  0.50000000  0.38840000  1.0 0.071771772
O  O167  1  0.61160000  0.00000000  0.50000000  1.0 0.071771772
O  O168  1  0.38840000  0.00000000  0.50000000  1.0 0.071771772
O  O169  1  0.61160000  0.50000000  0.00000000  1.0 0.071771772
O  O170  1  0.38840000  0.50000000  0.00000000  1.0 0.071771772
O  O171  1  0.50000000  0.00000000  0.38840000  1.0 0.071771772
O  O172  1  0.50000000  0.00000000  0.61160000  1.0 0.071771772
O  O173  1  0.00000000  0.61160000  0.50000000  1.0 0.071771772
O  O174  1  0.00000000  0.38840000  0.50000000  1.0 0.071771772
O  O175  1  0.46100000  0.74570000  0.89030000  1.0 -0.2539701958
O  O176  1  0.53900000  0.25430000  0.89030000  1.0 -0.2539701958
O  O177  1  0.53900000  0.74570000  0.10970000  1.0 -0.2539701958
O  O178  1  0.46100000  0.25430000  0.10970000  1.0 -0.2539701958
O  O179  1  0.89030000  0.46100000  0.74570000  1.0 -0.2539701958
O  O180  1  0.89030000  0.53900000  0.25430000  1.0 -0.2539701958
O  O181  1  0.10970000  0.53900000  0.74570000  1.0 -0.2539701958
O  O182  1  0.10970000  0.46100000  0.25430000  1.0 -0.2539701958
O  O183  1  0.74570000  0.89030000  0.46100000  1.0 -0.2539701958
O  O184  1  0.25430000  0.89030000  0.53900000  1.0 -0.2539701958
O  O185  1  0.74570000  0.10970000  0.53900000  1.0 -0.2539701958
O  O186  1  0.25430000  0.10970000  0.46100000  1.0 -0.2539701958
O  O187  1  0.74570000  0.46100000  0.10970000  1.0 -0.2539701958
O  O188  1  0.25430000  0.53900000  0.10970000  1.0 -0.2539701958
O  O189  1  0.74570000  0.53900000  0.89030000  1.0 -0.2539701958
O  O190  1  0.25430000  0.46100000  0.89030000  1.0 -0.2539701958
O  O191  1  0.46100000  0.89030000  0.25430000  1.0 -0.2539701958
O  O192  1  0.53900000  0.89030000  0.74570000  1.0 -0.2539701958
O  O193  1  0.53900000  0.10970000  0.25430000  1.0 -0.2539701958
O  O194  1  0.46100000  0.10970000  0.74570000  1.0 -0.2539701958
O  O195  1  0.89030000  0.74570000  0.53900000  1.0 -0.2539701958
O  O196  1  0.89030000  0.25430000  0.46100000  1.0 -0.2539701958
O  O197  1  0.10970000  0.74570000  0.46100000  1.0 -0.2539701958
O  O198  1  0.10970000  0.25430000  0.53900000  1.0 -0.2539701958
O  O199  1  0.53900000  0.25430000  0.10970000  1.0 -0.2539701958
O  O200  1  0.46100000  0.74570000  0.10970000  1.0 -0.2539701958
O  O201  1  0.46100000  0.25430000  0.89030000  1.0 -0.2539701958
O  O202  1  0.53900000  0.74570000  0.89030000  1.0 -0.2539701958
O  O203  1  0.10970000  0.53900000  0.25430000  1.0 -0.2539701958
O  O204  1  0.10970000  0.46100000  0.74570000  1.0 -0.2539701958
O  O205  1  0.89030000  0.46100000  0.25430000  1.0 -0.2539701958
O  O206  1  0.89030000  0.53900000  0.74570000  1.0 -0.2539701958
O  O207  1  0.25430000  0.10970000  0.53900000  1.0 -0.2539701958
O  O208  1  0.74570000  0.10970000  0.46100000  1.0 -0.2539701958
O  O209  1  0.25430000  0.89030000  0.46100000  1.0 -0.2539701958
O  O210  1  0.74570000  0.89030000  0.53900000  1.0 -0.2539701958
O  O211  1  0.25430000  0.53900000  0.89030000  1.0 -0.2539701958
O  O212  1  0.74570000  0.46100000  0.89030000  1.0 -0.2539701958
O  O213  1  0.25430000  0.46100000  0.10970000  1.0 -0.2539701958
O  O214  1  0.74570000  0.53900000  0.10970000  1.0 -0.2539701958
O  O215  1  0.53900000  0.10970000  0.74570000  1.0 -0.2539701958
O  O216  1  0.46100000  0.10970000  0.25430000  1.0 -0.2539701958
O  O217  1  0.46100000  0.89030000  0.74570000  1.0 -0.2539701958
O  O218  1  0.53900000  0.89030000  0.25430000  1.0 -0.2539701958
O  O219  1  0.10970000  0.25430000  0.46100000  1.0 -0.2539701958
O  O220  1  0.10970000  0.74570000  0.53900000  1.0 -0.2539701958
O  O221  1  0.89030000  0.25430000  0.53900000  1.0 -0.2539701958
O  O222  1  0.89030000  0.74570000  0.46100000  1.0 -0.2539701958
O  O223  1  0.41490000  0.68760000  0.96330000  1.0 -0.1913039075
O  O224  1  0.58510000  0.31240000  0.96330000  1.0 -0.1913039075
O  O225  1  0.58510000  0.68760000  0.03670000  1.0 -0.1913039075
O  O226  1  0.41490000  0.31240000  0.03670000  1.0 -0.1913039075
O  O227  1  0.96330000  0.41490000  0.68760000  1.0 -0.1913039075
O  O228  1  0.96330000  0.58510000  0.31240000  1.0 -0.1913039075
O  O229  1  0.03670000  0.58510000  0.68760000  1.0 -0.1913039075
O  O230  1  0.03670000  0.41490000  0.31240000  1.0 -0.1913039075
O  O231  1  0.68760000  0.96330000  0.41490000  1.0 -0.1913039075
O  O232  1  0.31240000  0.96330000  0.58510000  1.0 -0.1913039075
O  O233  1  0.68760000  0.03670000  0.58510000  1.0 -0.1913039075
O  O234  1  0.31240000  0.03670000  0.41490000  1.0 -0.1913039075
O  O235  1  0.68760000  0.41490000  0.03670000  1.0 -0.1913039075
O  O236  1  0.31240000  0.58510000  0.03670000  1.0 -0.1913039075
O  O237  1  0.68760000  0.58510000  0.96330000  1.0 -0.1913039075
O  O238  1  0.31240000  0.41490000  0.96330000  1.0 -0.1913039075
O  O239  1  0.41490000  0.96330000  0.31240000  1.0 -0.1913039075
O  O240  1  0.58510000  0.96330000  0.68760000  1.0 -0.1913039075
O  O241  1  0.58510000  0.03670000  0.31240000  1.0 -0.1913039075
O  O242  1  0.41490000  0.03670000  0.68760000  1.0 -0.1913039075
O  O243  1  0.96330000  0.68760000  0.58510000  1.0 -0.1913039075
O  O244  1  0.96330000  0.31240000  0.41490000  1.0 -0.1913039075
O  O245  1  0.03670000  0.68760000  0.41490000  1.0 -0.1913039075
O  O246  1  0.03670000  0.31240000  0.58510000  1.0 -0.1913039075
O  O247  1  0.58510000  0.31240000  0.03670000  1.0 -0.1913039075
O  O248  1  0.41490000  0.68760000  0.03670000  1.0 -0.1913039075
O  O249  1  0.41490000  0.31240000  0.96330000  1.0 -0.1913039075
O  O250  1  0.58510000  0.68760000  0.96330000  1.0 -0.1913039075
O  O251  1  0.03670000  0.58510000  0.31240000  1.0 -0.1913039075
O  O252  1  0.03670000  0.41490000  0.68760000  1.0 -0.1913039075
O  O253  1  0.96330000  0.41490000  0.31240000  1.0 -0.1913039075
O  O254  1  0.96330000  0.58510000  0.68760000  1.0 -0.1913039075
O  O255  1  0.31240000  0.03670000  0.58510000  1.0 -0.1913039075
O  O256  1  0.68760000  0.03670000  0.41490000  1.0 -0.1913039075
O  O257  1  0.31240000  0.96330000  0.41490000  1.0 -0.1913039075
O  O258  1  0.68760000  0.96330000  0.58510000  1.0 -0.1913039075
O  O259  1  0.31240000  0.58510000  0.96330000  1.0 -0.1913039075
O  O260  1  0.68760000  0.41490000  0.96330000  1.0 -0.1913039075
O  O261  1  0.31240000  0.41490000  0.03670000  1.0 -0.1913039075
O  O262  1  0.68760000  0.58510000  0.03670000  1.0 -0.1913039075
O  O263  1  0.58510000  0.03670000  0.68760000  1.0 -0.1913039075
O  O264  1  0.41490000  0.03670000  0.31240000  1.0 -0.1913039075
O  O265  1  0.41490000  0.96330000  0.68760000  1.0 -0.1913039075
O  O266  1  0.58510000  0.96330000  0.31240000  1.0 -0.1913039075
O  O267  1  0.03670000  0.31240000  0.41490000  1.0 -0.1913039075
O  O268  1  0.03670000  0.68760000  0.58510000  1.0 -0.1913039075
O  O269  1  0.96330000  0.31240000  0.58510000  1.0 -0.1913039075
O  O270  1  0.96330000  0.68760000  0.41490000  1.0 -0.1913039075
O  O271  1  0.50000000  0.39770000  0.06350000  1.0 -0.1033256149
O  O272  1  0.50000000  0.60230000  0.06350000  1.0 -0.11111634
O  O273  1  0.50000000  0.39770000  0.93650000  1.0 -0.1033256149
O  O274  1  0.50000000  0.60230000  0.93650000  1.0 -0.1033256149
O  O275  1  0.06350000  0.50000000  0.39770000  1.0 -0.11111634
O  O276  1  0.06350000  0.50000000  0.60230000  1.0 -0.11111634
O  O277  1  0.93650000  0.50000000  0.39770000  1.0 -0.1033256149
O  O278  1  0.93650000  0.50000000  0.60230000  1.0 -0.1033256149
O  O279  1  0.39770000  0.06350000  0.50000000  1.0 -0.1033256149
O  O280  1  0.60230000  0.06350000  0.50000000  1.0 -0.1033256149
O  O281  1  0.39770000  0.93650000  0.50000000  1.0 -0.11111634
O  O282  1  0.60230000  0.93650000  0.50000000  1.0 -0.1033256149
O  O283  1  0.39770000  0.50000000  0.93650000  1.0 -0.1033256149
O  O284  1  0.60230000  0.50000000  0.93650000  1.0 -0.1033256149
O  O285  1  0.39770000  0.50000000  0.06350000  1.0 -0.11111634
O  O286  1  0.60230000  0.50000000  0.06350000  1.0 -0.1033256149
O  O287  1  0.50000000  0.06350000  0.60230000  1.0 -0.1033256149
O  O288  1  0.50000000  0.06350000  0.39770000  1.0 -0.1033256149
O  O289  1  0.50000000  0.93650000  0.60230000  1.0 -0.11111634
O  O290  1  0.50000000  0.93650000  0.39770000  1.0 -0.11111634
O  O291  1  0.06350000  0.39770000  0.50000000  1.0 -0.11111634
O  O292  1  0.06350000  0.60230000  0.50000000  1.0 -0.11111634
O  O293  1  0.93650000  0.39770000  0.50000000  1.0 -0.1033256149
O  O294  1  0.93650000  0.60230000  0.50000000  1.0 -0.1033256149
O  O295  1  0.82110000  0.17890000  0.25480000  1.0 -0.4901075598
O  O296  1  0.82110000  0.25480000  0.17890000  1.0 -0.4901075598
O  O297  1  0.74520000  0.17890000  0.17890000  1.0 -0.4901075598
O  O298  1  0.74570000  0.25430000  0.25430000  1.0 -0.4014969331
O  O299  1  0.17890000  0.82110000  0.25480000  1.0 -0.4901075598
O  O300  1  0.17890000  0.74520000  0.17890000  1.0 -0.4901075598
O  O301  1  0.25480000  0.82110000  0.17890000  1.0 -0.4901075598
O  O302  1  0.25430000  0.74570000  0.25430000  1.0 -0.4014969331
O  O303  1  0.82110000  0.82110000  0.74520000  1.0 -0.4901075598
O  O304  1  0.82110000  0.74520000  0.82110000  1.0 -0.4901075598
O  O305  1  0.74520000  0.82110000  0.82110000  1.0 -0.4901075598
O  O306  1  0.74570000  0.74570000  0.74570000  1.0 -0.4014969331
O  O307  1  0.17890000  0.17890000  0.74520000  1.0 -0.4901075598
O  O308  1  0.17890000  0.25480000  0.82110000  1.0 -0.4901075598
O  O309  1  0.25480000  0.17890000  0.82110000  1.0 -0.4901075598
O  O310  1  0.25430000  0.25430000  0.74570000  1.0 -0.4014969331
O  O311  1  0.17890000  0.82110000  0.74520000  1.0 -0.4901075598
O  O312  1  0.25480000  0.82110000  0.82110000  1.0 -0.4901075598
O  O313  1  0.17890000  0.74520000  0.82110000  1.0 -0.4901075598
O  O314  1  0.25430000  0.74570000  0.74570000  1.0 -0.4014969331
O  O315  1  0.82110000  0.17890000  0.74520000  1.0 -0.4901075598
O  O316  1  0.74520000  0.17890000  0.82110000  1.0 -0.4901075598
O  O317  1  0.82110000  0.25480000  0.82110000  1.0 -0.4901075598
O  O318  1  0.74570000  0.25430000  0.74570000  1.0 -0.4014969331
O  O319  1  0.82110000  0.82110000  0.25480000  1.0 -0.4901075598
O  O320  1  0.74520000  0.82110000  0.17890000  1.0 -0.4901075598
O  O321  1  0.82110000  0.74520000  0.17890000  1.0 -0.4901075598
O  O322  1  0.74570000  0.74570000  0.25430000  1.0 -0.4014969331
O  O323  1  0.17890000  0.17890000  0.25480000  1.0 -0.4901075598
O  O324  1  0.25480000  0.17890000  0.17890000  1.0 -0.4901075598
O  O325  1  0.17890000  0.25480000  0.17890000  1.0 -0.4901075598
O  O326  1  0.25430000  0.25430000  0.25430000  1.0 -0.4014969331
