# DDEC6 charges by PACMAN v1.1 (https://github.com/mtap-research/PACMAN-charge/)
data_TUVDIX_ASR_pacman
_symmetry_space_group_name_H-M   'P 1'
_cell_length_a   15.51200000
_cell_length_b   15.51200000
_cell_length_c   15.64500000
_cell_angle_alpha   90.00000000
_cell_angle_beta   90.00000000
_cell_angle_gamma   120.00000000
_symmetry_Int_Tables_number   1
_chemical_formula_structural   Pr2Mn3H18C42(NO4)6
_chemical_formula_sum   'Pr4 Mn6 H36 C84 N12 O48'
_cell_volume   3260.18159493
_cell_formula_units_Z   2
loop_
 _symmetry_equiv_pos_site_id
 _symmetry_equiv_pos_as_xyz
  1  'x, y, z'
loop_
 _atom_site_type_symbol
 _atom_site_label
 _atom_site_symmetry_multiplicity
 _atom_site_fract_x
 _atom_site_fract_y
 _atom_site_fract_z
 _atom_site_occupancy
 _atom_site_charge
Pr  Pr1  1  0.66666667  0.33333333  0.25000000  1.0 1.8627305015
Pr  Pr2  1  0.33333333  0.66666667  0.25000000  1.0 1.8627305015
Pr  Pr3  1  0.66666667  0.33333333  0.75000000  1.0 1.8627305015
Pr  Pr4  1  0.33333333  0.66666667  0.75000000  1.0 1.8627305015
Mn  Mn1  1  0.50000000  0.00000000  0.00000000  1.0 1.059021531
Mn  Mn2  1  0.00000000  0.50000000  0.00000000  1.0 1.059021531
Mn  Mn3  1  0.50000000  0.50000000  0.00000000  1.0 1.059021531
Mn  Mn4  1  0.00000000  0.50000000  0.50000000  1.0 1.059021531
Mn  Mn5  1  0.50000000  0.00000000  0.50000000  1.0 1.059021531
Mn  Mn6  1  0.50000000  0.50000000  0.50000000  1.0 1.059021531
H  H1  1  0.76720000  0.05350000  0.15860000  1.0 0.1379383265
H  H2  1  0.94650000  0.71370000  0.15860000  1.0 0.1379383265
H  H3  1  0.28630000  0.23280000  0.15860000  1.0 0.1379383265
H  H4  1  0.05350000  0.28630000  0.15860000  1.0 0.1379383265
H  H5  1  0.71370000  0.76720000  0.15860000  1.0 0.1379383265
H  H6  1  0.05350000  0.76720000  0.34140000  1.0 0.1379383265
H  H7  1  0.28630000  0.05350000  0.34140000  1.0 0.1379383265
H  H8  1  0.76720000  0.71370000  0.34140000  1.0 0.1379383265
H  H9  1  0.76720000  0.05350000  0.84140000  1.0 0.1379383265
H  H10  1  0.28630000  0.05350000  0.65860000  1.0 0.1379383265
H  H11  1  0.76720000  0.71370000  0.65860000  1.0 0.1379383265
H  H12  1  0.05350000  0.76720000  0.65860000  1.0 0.1379383265
H  H13  1  0.23280000  0.94650000  0.84140000  1.0 0.1379383265
H  H14  1  0.05350000  0.28630000  0.84140000  1.0 0.1379383265
H  H15  1  0.71370000  0.76720000  0.84140000  1.0 0.1379383265
H  H16  1  0.94650000  0.71370000  0.84140000  1.0 0.1379383265
H  H17  1  0.28630000  0.23280000  0.84140000  1.0 0.1379383265
H  H18  1  0.94650000  0.23280000  0.65860000  1.0 0.1379383265
H  H19  1  0.71370000  0.94650000  0.65860000  1.0 0.1379383265
H  H20  1  0.23280000  0.28630000  0.65860000  1.0 0.1379383265
H  H21  1  0.23280000  0.94650000  0.15860000  1.0 0.1379383265
H  H22  1  0.71370000  0.94650000  0.34140000  1.0 0.1379383265
H  H23  1  0.23280000  0.28630000  0.34140000  1.0 0.1379383265
H  H24  1  0.94650000  0.23280000  0.34140000  1.0 0.1379383265
H  H25  1  0.89965000  0.10035000  0.25000000  1.0 0.1080319121
H  H26  1  0.89965000  0.79930000  0.25000000  1.0 0.1080319121
H  H27  1  0.20070000  0.10035000  0.25000000  1.0 0.1080319121
H  H28  1  0.10035000  0.20070000  0.25000000  1.0 0.1080319121
H  H29  1  0.79930000  0.89965000  0.25000000  1.0 0.1080319121
H  H30  1  0.10035000  0.89965000  0.25000000  1.0 0.1080319121
H  H31  1  0.89965000  0.10035000  0.75000000  1.0 0.1080319121
H  H32  1  0.20070000  0.10035000  0.75000000  1.0 0.1080319121
H  H33  1  0.89965000  0.79930000  0.75000000  1.0 0.1080319121
H  H34  1  0.10035000  0.89965000  0.75000000  1.0 0.1080319121
H  H35  1  0.10035000  0.20070000  0.75000000  1.0 0.1080319121
H  H36  1  0.79930000  0.89965000  0.75000000  1.0 0.1080319121
C  C1  1  0.73670000  0.16030000  0.19660000  1.0 0.1379383265
C  C2  1  0.83970000  0.57640000  0.19660000  1.0 0.1379383265
C  C3  1  0.42360000  0.26330000  0.19660000  1.0 0.1379383265
C  C4  1  0.16030000  0.42360000  0.19660000  1.0 0.1379383265
C  C5  1  0.57640000  0.73670000  0.19660000  1.0 0.1379383265
C  C6  1  0.16030000  0.73670000  0.30340000  1.0 0.1379383265
C  C7  1  0.42360000  0.16030000  0.30340000  1.0 0.1379383265
C  C8  1  0.73670000  0.57640000  0.30340000  1.0 0.1379383265
C  C9  1  0.73670000  0.16030000  0.80340000  1.0 0.1379383265
C  C10  1  0.42360000  0.16030000  0.69660000  1.0 0.1379383265
C  C11  1  0.73670000  0.57640000  0.69660000  1.0 0.1379383265
C  C12  1  0.16030000  0.73670000  0.69660000  1.0 0.1379383265
C  C13  1  0.26330000  0.83970000  0.80340000  1.0 0.1379383265
C  C14  1  0.16030000  0.42360000  0.80340000  1.0 0.1379383265
C  C15  1  0.57640000  0.73670000  0.80340000  1.0 0.1379383265
C  C16  1  0.83970000  0.57640000  0.80340000  1.0 0.1379383265
C  C17  1  0.42360000  0.26330000  0.80340000  1.0 0.1379383265
C  C18  1  0.83970000  0.26330000  0.69660000  1.0 0.1379383265
C  C19  1  0.57640000  0.83970000  0.69660000  1.0 0.1379383265
C  C20  1  0.26330000  0.42360000  0.69660000  1.0 0.1379383265
C  C21  1  0.26330000  0.83970000  0.19660000  1.0 0.1379383265
C  C22  1  0.57640000  0.83970000  0.30340000  1.0 0.1379383265
C  C23  1  0.26330000  0.42360000  0.30340000  1.0 0.1379383265
C  C24  1  0.83970000  0.26330000  0.30340000  1.0 0.1379383265
C  C25  1  0.64880000  0.13630000  0.13940000  1.0 0.5665566807
C  C26  1  0.86370000  0.51250000  0.13940000  1.0 0.5665566807
C  C27  1  0.48750000  0.35120000  0.13940000  1.0 0.5665566807
C  C28  1  0.13630000  0.48750000  0.13940000  1.0 0.5665566807
C  C29  1  0.51250000  0.64880000  0.13940000  1.0 0.5665566807
C  C30  1  0.13630000  0.64880000  0.36060000  1.0 0.5665566807
C  C31  1  0.48750000  0.13630000  0.36060000  1.0 0.5665566807
C  C32  1  0.64880000  0.51250000  0.36060000  1.0 0.5665566807
C  C33  1  0.64880000  0.13630000  0.86060000  1.0 0.5665566807
C  C34  1  0.48750000  0.13630000  0.63940000  1.0 0.5665566807
C  C35  1  0.64880000  0.51250000  0.63940000  1.0 0.5665566807
C  C36  1  0.13630000  0.64880000  0.63940000  1.0 0.5665566807
C  C37  1  0.35120000  0.86370000  0.86060000  1.0 0.5665566807
C  C38  1  0.13630000  0.48750000  0.86060000  1.0 0.5665566807
C  C39  1  0.51250000  0.64880000  0.86060000  1.0 0.5665566807
C  C40  1  0.86370000  0.51250000  0.86060000  1.0 0.5665566807
C  C41  1  0.48750000  0.35120000  0.86060000  1.0 0.5665566807
C  C42  1  0.86370000  0.35120000  0.63940000  1.0 0.5665566807
C  C43  1  0.51250000  0.86370000  0.63940000  1.0 0.5665566807
C  C44  1  0.35120000  0.48750000  0.63940000  1.0 0.5665566807
C  C45  1  0.35120000  0.86370000  0.13940000  1.0 0.5665566807
C  C46  1  0.51250000  0.86370000  0.36060000  1.0 0.5665566807
C  C47  1  0.35120000  0.48750000  0.36060000  1.0 0.5665566807
C  C48  1  0.86370000  0.35120000  0.36060000  1.0 0.5665566807
C  C49  1  0.78670000  0.10710000  0.19560000  1.0 -0.1367798103
C  C50  1  0.89290000  0.67960000  0.19560000  1.0 -0.1367798103
C  C51  1  0.32040000  0.21330000  0.19560000  1.0 -0.1367798103
C  C52  1  0.10710000  0.32040000  0.19560000  1.0 -0.1367798103
C  C53  1  0.67960000  0.78670000  0.19560000  1.0 -0.1367798103
C  C54  1  0.10710000  0.78670000  0.30440000  1.0 -0.1367798103
C  C55  1  0.32040000  0.10710000  0.30440000  1.0 -0.1367798103
C  C56  1  0.78670000  0.67960000  0.30440000  1.0 -0.1367798103
C  C57  1  0.78670000  0.10710000  0.80440000  1.0 -0.1367798103
C  C58  1  0.32040000  0.10710000  0.69560000  1.0 -0.1367798103
C  C59  1  0.78670000  0.67960000  0.69560000  1.0 -0.1367798103
C  C60  1  0.10710000  0.78670000  0.69560000  1.0 -0.1367798103
C  C61  1  0.21330000  0.89290000  0.80440000  1.0 -0.1367798103
C  C62  1  0.10710000  0.32040000  0.80440000  1.0 -0.1367798103
C  C63  1  0.67960000  0.78670000  0.80440000  1.0 -0.1367798103
C  C64  1  0.89290000  0.67960000  0.80440000  1.0 -0.1367798103
C  C65  1  0.32040000  0.21330000  0.80440000  1.0 -0.1367798103
C  C66  1  0.89290000  0.21330000  0.69560000  1.0 -0.1367798103
C  C67  1  0.67960000  0.89290000  0.69560000  1.0 -0.1367798103
C  C68  1  0.21330000  0.32040000  0.69560000  1.0 -0.1367798103
C  C69  1  0.21330000  0.89290000  0.19560000  1.0 -0.1367798103
C  C70  1  0.67960000  0.89290000  0.30440000  1.0 -0.1367798103
C  C71  1  0.21330000  0.32040000  0.30440000  1.0 -0.1367798103
C  C72  1  0.89290000  0.21330000  0.30440000  1.0 -0.1367798103
C  C73  1  0.86505000  0.13495000  0.25000000  1.0 -0.0575952872
C  C74  1  0.86505000  0.73010000  0.25000000  1.0 -0.0575952872
C  C75  1  0.26990000  0.13495000  0.25000000  1.0 -0.0575952872
C  C76  1  0.13495000  0.26990000  0.25000000  1.0 -0.0575952872
C  C77  1  0.73010000  0.86505000  0.25000000  1.0 -0.0575952872
C  C78  1  0.13495000  0.86505000  0.25000000  1.0 -0.0575952872
C  C79  1  0.86505000  0.13495000  0.75000000  1.0 -0.0575952872
C  C80  1  0.26990000  0.13495000  0.75000000  1.0 -0.0575952872
C  C81  1  0.86505000  0.73010000  0.75000000  1.0 -0.0575952872
C  C82  1  0.13495000  0.86505000  0.75000000  1.0 -0.0575952872
C  C83  1  0.13495000  0.26990000  0.75000000  1.0 -0.0575952872
C  C84  1  0.73010000  0.86505000  0.75000000  1.0 -0.0575952872
N  N1  1  0.76280000  0.23720000  0.25000000  1.0 -0.3315588698
N  N2  1  0.76280000  0.52560000  0.25000000  1.0 -0.3315588698
N  N3  1  0.47440000  0.23720000  0.25000000  1.0 -0.3315588698
N  N4  1  0.23720000  0.47440000  0.25000000  1.0 -0.3315588698
N  N5  1  0.52560000  0.76280000  0.25000000  1.0 -0.3315588698
N  N6  1  0.23720000  0.76280000  0.25000000  1.0 -0.3315588698
N  N7  1  0.76280000  0.23720000  0.75000000  1.0 -0.3315588698
N  N8  1  0.47440000  0.23720000  0.75000000  1.0 -0.3315588698
N  N9  1  0.76280000  0.52560000  0.75000000  1.0 -0.3315588698
N  N10  1  0.23720000  0.76280000  0.75000000  1.0 -0.3315588698
N  N11  1  0.23720000  0.47440000  0.75000000  1.0 -0.3315588698
N  N12  1  0.52560000  0.76280000  0.75000000  1.0 -0.3315588698
O  O1  1  0.61680000  0.06090000  0.09510000  1.0 -0.5360224387
O  O2  1  0.93910000  0.55590000  0.09510000  1.0 -0.5360224387
O  O3  1  0.44410000  0.38320000  0.09510000  1.0 -0.5360224387
O  O4  1  0.06090000  0.44410000  0.09510000  1.0 -0.5360224387
O  O5  1  0.55590000  0.61680000  0.09510000  1.0 -0.5360224387
O  O6  1  0.06090000  0.61680000  0.40490000  1.0 -0.5360224387
O  O7  1  0.44410000  0.06090000  0.40490000  1.0 -0.5360224387
O  O8  1  0.61680000  0.55590000  0.40490000  1.0 -0.5360224387
O  O9  1  0.61680000  0.06090000  0.90490000  1.0 -0.5360224387
O  O10  1  0.44410000  0.06090000  0.59510000  1.0 -0.5360224387
O  O11  1  0.61680000  0.55590000  0.59510000  1.0 -0.5360224387
O  O12  1  0.06090000  0.61680000  0.59510000  1.0 -0.5360224387
O  O13  1  0.38320000  0.93910000  0.90490000  1.0 -0.5360224387
O  O14  1  0.06090000  0.44410000  0.90490000  1.0 -0.5360224387
O  O15  1  0.55590000  0.61680000  0.90490000  1.0 -0.5360224387
O  O16  1  0.93910000  0.55590000  0.90490000  1.0 -0.5360224387
O  O17  1  0.44410000  0.38320000  0.90490000  1.0 -0.5360224387
O  O18  1  0.93910000  0.38320000  0.59510000  1.0 -0.5360224387
O  O19  1  0.55590000  0.93910000  0.59510000  1.0 -0.5360224387
O  O20  1  0.38320000  0.44410000  0.59510000  1.0 -0.5360224387
O  O21  1  0.38320000  0.93910000  0.09510000  1.0 -0.5360224387
O  O22  1  0.55590000  0.93910000  0.40490000  1.0 -0.5360224387
O  O23  1  0.38320000  0.44410000  0.40490000  1.0 -0.5360224387
O  O24  1  0.93910000  0.38320000  0.40490000  1.0 -0.5360224387
O  O25  1  0.61610000  0.19680000  0.14270000  1.0 -0.6042804287
O  O26  1  0.80320000  0.41930000  0.14270000  1.0 -0.6042804287
O  O27  1  0.58070000  0.38390000  0.14270000  1.0 -0.6042804287
O  O28  1  0.19680000  0.58070000  0.14270000  1.0 -0.6042804287
O  O29  1  0.41930000  0.61610000  0.14270000  1.0 -0.6042804287
O  O30  1  0.19680000  0.61610000  0.35730000  1.0 -0.6042804287
O  O31  1  0.58070000  0.19680000  0.35730000  1.0 -0.6042804287
O  O32  1  0.61610000  0.41930000  0.35730000  1.0 -0.6042804287
O  O33  1  0.61610000  0.19680000  0.85730000  1.0 -0.6042804287
O  O34  1  0.58070000  0.19680000  0.64270000  1.0 -0.6042804287
O  O35  1  0.61610000  0.41930000  0.64270000  1.0 -0.6042804287
O  O36  1  0.19680000  0.61610000  0.64270000  1.0 -0.6042804287
O  O37  1  0.38390000  0.80320000  0.85730000  1.0 -0.6042804287
O  O38  1  0.19680000  0.58070000  0.85730000  1.0 -0.6042804287
O  O39  1  0.41930000  0.61610000  0.85730000  1.0 -0.6042804287
O  O40  1  0.80320000  0.41930000  0.85730000  1.0 -0.6042804287
O  O41  1  0.58070000  0.38390000  0.85730000  1.0 -0.6042804287
O  O42  1  0.80320000  0.38390000  0.64270000  1.0 -0.6042804287
O  O43  1  0.41930000  0.80320000  0.64270000  1.0 -0.6042804287
O  O44  1  0.38390000  0.58070000  0.64270000  1.0 -0.6042804287
O  O45  1  0.38390000  0.80320000  0.14270000  1.0 -0.6042804287
O  O46  1  0.41930000  0.80320000  0.35730000  1.0 -0.6042804287
O  O47  1  0.38390000  0.58070000  0.35730000  1.0 -0.6042804287
O  O48  1  0.80320000  0.38390000  0.35730000  1.0 -0.6042804287
