# DDEC6 charges by PACMAN v1.1 (https://github.com/mtap-research/PACMAN-charge/)
data_TUVDUJ_ASR_pacman
_symmetry_space_group_name_H-M   'P 1'
_cell_length_a   15.22900000
_cell_length_b   15.22900000
_cell_length_c   15.85200000
_cell_angle_alpha   90.00000000
_cell_angle_beta   90.00000000
_cell_angle_gamma   120.00000000
_symmetry_Int_Tables_number   1
_chemical_formula_structural   Er2Mn3H18C42(NO4)6
_chemical_formula_sum   'Er4 Mn6 H36 C84 N12 O48'
_cell_volume   3183.88570243
_cell_formula_units_Z   2
loop_
 _symmetry_equiv_pos_site_id
 _symmetry_equiv_pos_as_xyz
  1  'x, y, z'
loop_
 _atom_site_type_symbol
 _atom_site_label
 _atom_site_symmetry_multiplicity
 _atom_site_fract_x
 _atom_site_fract_y
 _atom_site_fract_z
 _atom_site_occupancy
 _atom_site_charge
Er  Er1  1  0.66666667  0.33333333  0.25000000  1.0 1.8201060481
Er  Er2  1  0.33333333  0.66666667  0.25000000  1.0 1.8201060481
Er  Er3  1  0.66666667  0.33333333  0.75000000  1.0 1.8201060481
Er  Er4  1  0.33333333  0.66666667  0.75000000  1.0 1.8201060481
Mn  Mn1  1  0.50000000  0.50000000  0.00000000  1.0 1.0922241198
Mn  Mn2  1  0.50000000  0.00000000  0.00000000  1.0 1.0922241198
Mn  Mn3  1  0.00000000  0.50000000  0.00000000  1.0 1.0922241198
Mn  Mn4  1  0.50000000  0.50000000  0.50000000  1.0 1.0922241198
Mn  Mn5  1  0.00000000  0.50000000  0.50000000  1.0 1.0922241198
Mn  Mn6  1  0.50000000  0.00000000  0.50000000  1.0 1.0922241198
H  H1  1  0.29140000  0.23310000  0.15670000  1.0 0.1383592672
H  H2  1  0.76690000  0.05830000  0.15670000  1.0 0.1383592672
H  H3  1  0.94170000  0.70860000  0.15670000  1.0 0.1383592672
H  H4  1  0.23310000  0.94170000  0.15670000  1.0 0.1383592672
H  H5  1  0.05830000  0.29140000  0.15670000  1.0 0.1383592672
H  H6  1  0.23310000  0.29140000  0.34330000  1.0 0.1383592672
H  H7  1  0.94170000  0.23310000  0.34330000  1.0 0.1383592672
H  H8  1  0.29140000  0.05830000  0.34330000  1.0 0.1383592672
H  H9  1  0.29140000  0.23310000  0.84330000  1.0 0.1383592672
H  H10  1  0.94170000  0.23310000  0.65670000  1.0 0.1383592672
H  H11  1  0.29140000  0.05830000  0.65670000  1.0 0.1383592672
H  H12  1  0.23310000  0.29140000  0.65670000  1.0 0.1383592672
H  H13  1  0.70860000  0.76690000  0.84330000  1.0 0.1383592672
H  H14  1  0.23310000  0.94170000  0.84330000  1.0 0.1383592672
H  H15  1  0.05830000  0.29140000  0.84330000  1.0 0.1383592672
H  H16  1  0.76690000  0.05830000  0.84330000  1.0 0.1383592672
H  H17  1  0.94170000  0.70860000  0.84330000  1.0 0.1383592672
H  H18  1  0.76690000  0.70860000  0.65670000  1.0 0.1383592672
H  H19  1  0.05830000  0.76690000  0.65670000  1.0 0.1383592672
H  H20  1  0.70860000  0.94170000  0.65670000  1.0 0.1383592672
H  H21  1  0.70860000  0.76690000  0.15670000  1.0 0.1383592672
H  H22  1  0.05830000  0.76690000  0.34330000  1.0 0.1383592672
H  H23  1  0.70860000  0.94170000  0.34330000  1.0 0.1383592672
H  H24  1  0.76690000  0.70860000  0.34330000  1.0 0.1383592672
H  H25  1  0.20220000  0.10110000  0.25000000  1.0 0.1108704085
H  H26  1  0.89890000  0.10110000  0.25000000  1.0 0.1108704085
H  H27  1  0.89890000  0.79780000  0.25000000  1.0 0.1108704085
H  H28  1  0.10110000  0.89890000  0.25000000  1.0 0.1108704085
H  H29  1  0.10110000  0.20220000  0.25000000  1.0 0.1108704085
H  H30  1  0.20220000  0.10110000  0.75000000  1.0 0.1108704085
H  H31  1  0.89890000  0.10110000  0.75000000  1.0 0.1108704085
H  H32  1  0.10110000  0.20220000  0.75000000  1.0 0.1108704085
H  H33  1  0.79780000  0.89890000  0.75000000  1.0 0.1108704085
H  H34  1  0.10110000  0.89890000  0.75000000  1.0 0.1108704085
H  H35  1  0.89890000  0.79780000  0.75000000  1.0 0.1108704085
H  H36  1  0.79780000  0.89890000  0.25000000  1.0 0.1108704085
C  C1  1  0.49510000  0.35320000  0.14090000  1.0 0.5732048489
C  C2  1  0.64680000  0.14190000  0.14090000  1.0 0.5732048489
C  C3  1  0.85810000  0.50490000  0.14090000  1.0 0.5732048489
C  C4  1  0.35320000  0.85810000  0.14090000  1.0 0.5732048489
C  C5  1  0.14190000  0.49510000  0.14090000  1.0 0.5732048489
C  C6  1  0.35320000  0.49510000  0.35910000  1.0 0.5732048489
C  C7  1  0.85810000  0.35320000  0.35910000  1.0 0.5732048489
C  C8  1  0.49510000  0.14190000  0.35910000  1.0 0.5732048489
C  C9  1  0.49510000  0.35320000  0.85910000  1.0 0.5732048489
C  C10  1  0.85810000  0.35320000  0.64090000  1.0 0.5732048489
C  C11  1  0.49510000  0.14190000  0.64090000  1.0 0.5732048489
C  C12  1  0.35320000  0.49510000  0.64090000  1.0 0.5732048489
C  C13  1  0.50490000  0.64680000  0.85910000  1.0 0.5732048489
C  C14  1  0.35320000  0.85810000  0.85910000  1.0 0.5732048489
C  C15  1  0.14190000  0.49510000  0.85910000  1.0 0.5732048489
C  C16  1  0.64680000  0.14190000  0.85910000  1.0 0.5732048489
C  C17  1  0.85810000  0.50490000  0.85910000  1.0 0.5732048489
C  C18  1  0.64680000  0.50490000  0.64090000  1.0 0.5732048489
C  C19  1  0.14190000  0.64680000  0.64090000  1.0 0.5732048489
C  C20  1  0.50490000  0.85810000  0.64090000  1.0 0.5732048489
C  C21  1  0.50490000  0.64680000  0.14090000  1.0 0.5732048489
C  C22  1  0.14190000  0.64680000  0.35910000  1.0 0.5732048489
C  C23  1  0.50490000  0.85810000  0.35910000  1.0 0.5732048489
C  C24  1  0.64680000  0.50490000  0.35910000  1.0 0.5732048489
C  C25  1  0.42880000  0.26630000  0.19710000  1.0 0.1151988469
C  C26  1  0.73370000  0.16250000  0.19710000  1.0 0.1151988469
C  C27  1  0.83750000  0.57120000  0.19710000  1.0 0.1151988469
C  C28  1  0.26630000  0.83750000  0.19710000  1.0 0.1151988469
C  C29  1  0.16250000  0.42880000  0.19710000  1.0 0.1151988469
C  C30  1  0.26630000  0.42880000  0.30290000  1.0 0.1151988469
C  C31  1  0.83750000  0.26630000  0.30290000  1.0 0.1151988469
C  C32  1  0.42880000  0.16250000  0.30290000  1.0 0.1151988469
C  C33  1  0.42880000  0.26630000  0.80290000  1.0 0.1151988469
C  C34  1  0.83750000  0.26630000  0.69710000  1.0 0.1151988469
C  C35  1  0.42880000  0.16250000  0.69710000  1.0 0.1151988469
C  C36  1  0.26630000  0.42880000  0.69710000  1.0 0.1151988469
C  C37  1  0.57120000  0.73370000  0.80290000  1.0 0.1151988469
C  C38  1  0.26630000  0.83750000  0.80290000  1.0 0.1151988469
C  C39  1  0.16250000  0.42880000  0.80290000  1.0 0.1151988469
C  C40  1  0.73370000  0.16250000  0.80290000  1.0 0.1151988469
C  C41  1  0.83750000  0.57120000  0.80290000  1.0 0.1151988469
C  C42  1  0.73370000  0.57120000  0.69710000  1.0 0.1151988469
C  C43  1  0.16250000  0.73370000  0.69710000  1.0 0.1151988469
C  C44  1  0.57120000  0.83750000  0.69710000  1.0 0.1151988469
C  C45  1  0.57120000  0.73370000  0.19710000  1.0 0.1151988469
C  C46  1  0.16250000  0.73370000  0.30290000  1.0 0.1151988469
C  C47  1  0.57120000  0.83750000  0.30290000  1.0 0.1151988469
C  C48  1  0.73370000  0.57120000  0.30290000  1.0 0.1151988469
C  C49  1  0.32570000  0.21490000  0.19510000  1.0 -0.1299410159
C  C50  1  0.78510000  0.11080000  0.19510000  1.0 -0.1299410159
C  C51  1  0.88920000  0.67430000  0.19510000  1.0 -0.1299410159
C  C52  1  0.21490000  0.88920000  0.19510000  1.0 -0.1299410159
C  C53  1  0.11080000  0.32570000  0.19510000  1.0 -0.1299410159
C  C54  1  0.21490000  0.32570000  0.30490000  1.0 -0.1299410159
C  C55  1  0.88920000  0.21490000  0.30490000  1.0 -0.1299410159
C  C56  1  0.32570000  0.11080000  0.30490000  1.0 -0.1299410159
C  C57  1  0.32570000  0.21490000  0.80490000  1.0 -0.1299410159
C  C58  1  0.88920000  0.21490000  0.69510000  1.0 -0.1299410159
C  C59  1  0.32570000  0.11080000  0.69510000  1.0 -0.1299410159
C  C60  1  0.21490000  0.32570000  0.69510000  1.0 -0.1299410159
C  C61  1  0.67430000  0.78510000  0.80490000  1.0 -0.1299410159
C  C62  1  0.21490000  0.88920000  0.80490000  1.0 -0.1299410159
C  C63  1  0.11080000  0.32570000  0.80490000  1.0 -0.1299410159
C  C64  1  0.78510000  0.11080000  0.80490000  1.0 -0.1299410159
C  C65  1  0.88920000  0.67430000  0.80490000  1.0 -0.1299410159
C  C66  1  0.78510000  0.67430000  0.69510000  1.0 -0.1299410159
C  C67  1  0.11080000  0.78510000  0.69510000  1.0 -0.1299410159
C  C68  1  0.67430000  0.88920000  0.69510000  1.0 -0.1299410159
C  C69  1  0.67430000  0.78510000  0.19510000  1.0 -0.1299410159
C  C70  1  0.11080000  0.78510000  0.30490000  1.0 -0.1299410159
C  C71  1  0.67430000  0.88920000  0.30490000  1.0 -0.1299410159
C  C72  1  0.78510000  0.67430000  0.30490000  1.0 -0.1299410159
C  C73  1  0.27270000  0.13635000  0.25000000  1.0 -0.0574019999
C  C74  1  0.86365000  0.13635000  0.25000000  1.0 -0.0574019999
C  C75  1  0.86365000  0.72730000  0.25000000  1.0 -0.0574019999
C  C76  1  0.13635000  0.86365000  0.25000000  1.0 -0.0574019999
C  C77  1  0.13635000  0.27270000  0.25000000  1.0 -0.0574019999
C  C78  1  0.27270000  0.13635000  0.75000000  1.0 -0.0574019999
C  C79  1  0.86365000  0.13635000  0.75000000  1.0 -0.0574019999
C  C80  1  0.13635000  0.27270000  0.75000000  1.0 -0.0574019999
C  C81  1  0.72730000  0.86365000  0.75000000  1.0 -0.0574019999
C  C82  1  0.13635000  0.86365000  0.75000000  1.0 -0.0574019999
C  C83  1  0.86365000  0.72730000  0.75000000  1.0 -0.0574019999
C  C84  1  0.72730000  0.86365000  0.25000000  1.0 -0.0574019999
N  N1  1  0.48100000  0.24050000  0.25000000  1.0 -0.336372953
N  N2  1  0.75950000  0.24050000  0.25000000  1.0 -0.3348864429
N  N3  1  0.75950000  0.51900000  0.25000000  1.0 -0.3348864429
N  N4  1  0.24050000  0.75950000  0.25000000  1.0 -0.336372953
N  N5  1  0.24050000  0.48100000  0.25000000  1.0 -0.336372953
N  N6  1  0.48100000  0.24050000  0.75000000  1.0 -0.336372953
N  N7  1  0.75950000  0.24050000  0.75000000  1.0 -0.3348864429
N  N8  1  0.24050000  0.48100000  0.75000000  1.0 -0.336372953
N  N9  1  0.51900000  0.75950000  0.75000000  1.0 -0.336372953
N  N10  1  0.24050000  0.75950000  0.75000000  1.0 -0.336372953
N  N11  1  0.75950000  0.51900000  0.75000000  1.0 -0.3348864429
N  N12  1  0.51900000  0.75950000  0.25000000  1.0 -0.336372953
O  O1  1  0.45070000  0.38480000  0.09320000  1.0 -0.5555459448
O  O2  1  0.61520000  0.06590000  0.09320000  1.0 -0.5555459448
O  O3  1  0.93410000  0.54930000  0.09320000  1.0 -0.5555459448
O  O4  1  0.38480000  0.93410000  0.09320000  1.0 -0.5555459448
O  O5  1  0.06590000  0.45070000  0.09320000  1.0 -0.5555459448
O  O6  1  0.38480000  0.45070000  0.40680000  1.0 -0.5555459448
O  O7  1  0.93410000  0.38480000  0.40680000  1.0 -0.5555459448
O  O8  1  0.45070000  0.06590000  0.40680000  1.0 -0.5555459448
O  O9  1  0.45070000  0.38480000  0.90680000  1.0 -0.5555459448
O  O10  1  0.93410000  0.38480000  0.59320000  1.0 -0.5555459448
O  O11  1  0.45070000  0.06590000  0.59320000  1.0 -0.5555459448
O  O12  1  0.38480000  0.45070000  0.59320000  1.0 -0.5555459448
O  O13  1  0.54930000  0.61520000  0.90680000  1.0 -0.5555459448
O  O14  1  0.38480000  0.93410000  0.90680000  1.0 -0.5555459448
O  O15  1  0.06590000  0.45070000  0.90680000  1.0 -0.5555459448
O  O16  1  0.61520000  0.06590000  0.90680000  1.0 -0.5555459448
O  O17  1  0.93410000  0.54930000  0.90680000  1.0 -0.5555459448
O  O18  1  0.61520000  0.54930000  0.59320000  1.0 -0.5555459448
O  O19  1  0.06590000  0.61520000  0.59320000  1.0 -0.5555459448
O  O20  1  0.54930000  0.93410000  0.59320000  1.0 -0.5555459448
O  O21  1  0.54930000  0.61520000  0.09320000  1.0 -0.5555459448
O  O22  1  0.06590000  0.61520000  0.40680000  1.0 -0.5555459448
O  O23  1  0.54930000  0.93410000  0.40680000  1.0 -0.5555459448
O  O24  1  0.61520000  0.54930000  0.40680000  1.0 -0.5555459448
O  O25  1  0.58920000  0.38790000  0.14533000  1.0 -0.5764785198
O  O26  1  0.61210000  0.20130000  0.14533000  1.0 -0.5764785198
O  O27  1  0.79870000  0.41080000  0.14533000  1.0 -0.5764785198
O  O28  1  0.38790000  0.79870000  0.14533000  1.0 -0.5764785198
O  O29  1  0.20130000  0.58920000  0.14533000  1.0 -0.5764785198
O  O30  1  0.38790000  0.58920000  0.35467000  1.0 -0.5764785198
O  O31  1  0.79870000  0.38790000  0.35467000  1.0 -0.5764785198
O  O32  1  0.58920000  0.20130000  0.35467000  1.0 -0.5764785198
O  O33  1  0.58920000  0.38790000  0.85467000  1.0 -0.5764785198
O  O34  1  0.79870000  0.38790000  0.64533000  1.0 -0.5764785198
O  O35  1  0.58920000  0.20130000  0.64533000  1.0 -0.5764785198
O  O36  1  0.38790000  0.58920000  0.64533000  1.0 -0.5764785198
O  O37  1  0.41080000  0.61210000  0.85467000  1.0 -0.5764785198
O  O38  1  0.38790000  0.79870000  0.85467000  1.0 -0.5764785198
O  O39  1  0.20130000  0.58920000  0.85467000  1.0 -0.5764785198
O  O40  1  0.61210000  0.20130000  0.85467000  1.0 -0.5764785198
O  O41  1  0.79870000  0.41080000  0.85467000  1.0 -0.5764785198
O  O42  1  0.61210000  0.41080000  0.64533000  1.0 -0.5764785198
O  O43  1  0.20130000  0.61210000  0.64533000  1.0 -0.5764785198
O  O44  1  0.41080000  0.79870000  0.64533000  1.0 -0.5764785198
O  O45  1  0.41080000  0.61210000  0.14533000  1.0 -0.5764785198
O  O46  1  0.20130000  0.61210000  0.35467000  1.0 -0.5764785198
O  O47  1  0.41080000  0.79870000  0.35467000  1.0 -0.5764785198
O  O48  1  0.61210000  0.41080000  0.35467000  1.0 -0.5764785198
