# DDEC6 charges by PACMAN v1.1 (https://github.com/mtap-research/PACMAN-charge/)
data_TUWFOJ_ASR_pacman
_symmetry_space_group_name_H-M   'P 1'
_cell_length_a   24.17760000
_cell_length_b   24.17760000
_cell_length_c   48.91450000
_cell_angle_alpha   90.00000000
_cell_angle_beta   90.00000000
_cell_angle_gamma   120.00000000
_symmetry_Int_Tables_number   1
_chemical_formula_structural   Ca2PH41(C24O5)2
_chemical_formula_sum   'Ca24 P12 H492 C576 O120'
_cell_volume   24762.50787858
_cell_formula_units_Z   12
loop_
 _symmetry_equiv_pos_site_id
 _symmetry_equiv_pos_as_xyz
  1  'x, y, z'
loop_
 _atom_site_type_symbol
 _atom_site_label
 _atom_site_symmetry_multiplicity
 _atom_site_fract_x
 _atom_site_fract_y
 _atom_site_fract_z
 _atom_site_occupancy
 _atom_site_charge
Ca  Ca1  1  0.53083000  0.34600000  0.68890000  1.0 1.369240186
Ca  Ca2  1  0.67515000  0.48403000  0.72830000  1.0 1.3956597958
Ca  Ca3  1  0.81517000  0.46917000  0.02224000  1.0 1.369240186
Ca  Ca4  1  0.80888000  0.32485000  0.06164000  1.0 1.3956597958
Ca  Ca5  1  0.65400000  0.18483000  0.35557000  1.0 1.369240186
Ca  Ca6  1  0.51597000  0.19112000  0.39497000  1.0 1.3956597958
Ca  Ca7  1  0.46917000  0.65400000  0.18890000  1.0 1.369240186
Ca  Ca8  1  0.32485000  0.51597000  0.22830000  1.0 1.39487671
Ca  Ca9  1  0.18483000  0.53083000  0.52224000  1.0 1.369240186
Ca  Ca10  1  0.19112000  0.67515000  0.56164000  1.0 1.39487671
Ca  Ca11  1  0.34600000  0.81517000  0.85557000  1.0 1.369240186
Ca  Ca12  1  0.48403000  0.80888000  0.89497000  1.0 1.39487671
Ca  Ca13  1  0.18483000  0.65400000  0.31110000  1.0 1.369240186
Ca  Ca14  1  0.19112000  0.51597000  0.27170000  1.0 1.39487671
Ca  Ca15  1  0.34600000  0.53083000  0.97776000  1.0 1.369240186
Ca  Ca16  1  0.48403000  0.67515000  0.93836000  1.0 1.39487671
Ca  Ca17  1  0.46917000  0.81517000  0.64443000  1.0 1.369240186
Ca  Ca18  1  0.32485000  0.80888000  0.60503000  1.0 1.39487671
Ca  Ca19  1  0.81517000  0.34600000  0.81110000  1.0 1.369240186
Ca  Ca20  1  0.80888000  0.48403000  0.77170000  1.0 1.3956597958
Ca  Ca21  1  0.65400000  0.46917000  0.47776000  1.0 1.369240186
Ca  Ca22  1  0.51597000  0.32485000  0.43836000  1.0 1.39487671
Ca  Ca23  1  0.53083000  0.18483000  0.14443000  1.0 1.369240186
Ca  Ca24  1  0.67515000  0.19112000  0.10503000  1.0 1.3956597958
P  P1  1  0.52575000  0.46119000  0.71185000  1.0 1.4111957465
P  P2  1  0.93544000  0.47425000  0.04519000  1.0 1.4111957465
P  P3  1  0.53881000  0.06456000  0.37852000  1.0 1.4111957465
P  P4  1  0.47425000  0.53881000  0.21185000  1.0 1.4111957465
P  P5  1  0.06456000  0.52575000  0.54519000  1.0 1.4111957465
P  P6  1  0.46119000  0.93544000  0.87852000  1.0 1.4111957465
P  P7  1  0.06456000  0.53881000  0.28815000  1.0 1.4111957465
P  P8  1  0.46119000  0.52575000  0.95481000  1.0 1.4111957465
P  P9  1  0.47425000  0.93544000  0.62148000  1.0 1.4111957465
P  P10  1  0.93544000  0.46119000  0.78815000  1.0 1.4111957465
P  P11  1  0.53881000  0.47425000  0.45481000  1.0 1.4111957465
P  P12  1  0.52575000  0.06456000  0.12148000  1.0 1.4111957465
H  H1  1  0.68610000  0.68890000  0.65483000  1.0 0.1220777056
H  H2  1  0.62780000  0.64960000  0.67433000  1.0 0.1294429941
H  H3  1  0.61780000  0.67500000  0.64633000  1.0 0.1220777056
H  H4  1  0.50010000  0.28500000  0.82623000  1.0 0.1294429941
H  H5  1  0.43000000  0.23710000  0.81683000  1.0 0.139682229
H  H6  1  0.44230000  0.27360000  0.84473000  1.0 0.139682229
H  H7  1  0.43650000  0.52790000  0.80173000  1.0 0.1220777056
H  H8  1  0.37050000  0.62940000  0.65123000  1.0 0.1220777056
H  H9  1  0.30280000  0.63970000  0.62063000  1.0 0.1294429941
H  H10  1  0.28960000  0.49310000  0.57663000  1.0 0.1220777056
H  H11  1  0.35730000  0.48290000  0.60723000  1.0 0.1220777056
H  H12  1  0.47850000  0.71410000  0.84003000  1.0 0.1220777056
H  H13  1  0.33990000  0.69120000  0.78803000  1.0 0.1294429941
H  H14  1  0.35830000  0.62190000  0.76193000  1.0 0.1220777056
H  H15  1  0.49700000  0.64490000  0.81383000  1.0 0.1220777056
H  H16  1  0.56420000  0.53110000  0.78083000  1.0 0.139682229
H  H17  1  0.60360000  0.50110000  0.79253000  1.0 0.139682229
H  H18  1  0.57000000  0.52580000  0.81253000  1.0 0.1294429941
H  H19  1  0.54710000  0.39760000  0.81643000  1.0 0.1220777056
H  H20  1  0.36000000  0.28270000  0.80153000  1.0 0.1294429941
H  H21  1  0.33380000  0.50180000  0.70663000  1.0 0.139682229
H  H22  1  0.31340000  0.51760000  0.67863000  1.0 0.1220777056
H  H23  1  0.35250000  0.57230000  0.69973000  1.0 0.1294429941
H  H24  1  0.47410000  0.55460000  0.61973000  1.0 0.1220777056
H  H25  1  0.42070000  0.64730000  0.72533000  1.0 0.1220777056
H  H26  1  0.47570000  0.64730000  0.70833000  1.0 0.139682229
H  H27  1  0.49070000  0.68190000  0.73673000  1.0 0.139682229
H  H28  1  0.47360000  0.42890000  0.61023000  1.0 0.139682229
H  H29  1  0.47440000  0.41930000  0.64193000  1.0 0.1485682781
H  H30  1  0.50530000  0.39120000  0.62213000  1.0 0.139682229
H  H31  1  0.72050000  0.63240000  0.62963000  1.0 0.1220777056
H  H32  1  0.60650000  0.45070000  0.60583000  1.0 0.1220777056
H  H33  1  0.76140000  0.65110000  0.79473000  1.0 0.1576578531
H  H34  1  0.79660000  0.61540000  0.80513000  1.0 0.1485682781
H  H35  1  0.72660000  0.59290000  0.81473000  1.0 0.139682229
H  H36  1  0.32520000  0.39350000  0.77853000  1.0 0.1220777056
H  H37  1  0.29970000  0.31980000  0.77773000  1.0 0.1220777056
H  H38  1  0.33950000  0.36300000  0.75313000  1.0 0.139682229
H  H39  1  0.73040000  0.54640000  0.58273000  1.0 0.139682229
H  H40  1  0.74130000  0.51470000  0.60863000  1.0 0.1294429941
H  H41  1  0.77070000  0.58900000  0.60743000  1.0 0.1294429941
H  H42  1  0.00280000  0.31390000  0.98817000  1.0 0.1220777056
H  H43  1  0.02180000  0.37220000  0.00767000  1.0 0.1294429941
H  H44  1  0.05720000  0.38220000  0.97967000  1.0 0.1220777056
H  H45  1  0.78490000  0.49990000  0.15957000  1.0 0.1294429941
H  H46  1  0.80710000  0.57000000  0.15017000  1.0 0.139682229
H  H47  1  0.83130000  0.55770000  0.17807000  1.0 0.139682229
H  H48  1  0.09140000  0.56350000  0.13507000  1.0 0.1220777056
H  H49  1  0.25890000  0.62950000  0.98457000  1.0 0.1220777056
H  H50  1  0.33690000  0.69720000  0.95397000  1.0 0.1294429941
H  H51  1  0.20350000  0.71040000  0.90997000  1.0 0.1220777056
H  H52  1  0.12560000  0.64270000  0.94057000  1.0 0.1220777056
H  H53  1  0.23560000  0.52150000  0.17337000  1.0 0.1220777056
H  H54  1  0.35130000  0.66010000  0.12137000  1.0 0.1294429941
H  H55  1  0.26360000  0.64170000  0.09527000  1.0 0.1220777056
H  H56  1  0.14790000  0.50300000  0.14717000  1.0 0.1220777056
H  H57  1  0.96690000  0.43580000  0.11417000  1.0 0.139682229
H  H58  1  0.89750000  0.39640000  0.12587000  1.0 0.139682229
H  H59  1  0.95580000  0.43000000  0.14587000  1.0 0.1294429941
H  H60  1  0.85050000  0.45290000  0.14977000  1.0 0.1220777056
H  H61  1  0.92270000  0.64000000  0.13487000  1.0 0.1294429941
H  H62  1  0.16800000  0.66620000  0.03997000  1.0 0.139682229
H  H63  1  0.20420000  0.68660000  0.01197000  1.0 0.1220777056
H  H64  1  0.21980000  0.64750000  0.03307000  1.0 0.1294429941
H  H65  1  0.08050000  0.52590000  0.95307000  1.0 0.1220777056
H  H66  1  0.22660000  0.57930000  0.05867000  1.0 0.1220777056
H  H67  1  0.17160000  0.52430000  0.04167000  1.0 0.139682229
H  H68  1  0.19120000  0.50930000  0.07007000  1.0 0.139682229
H  H69  1  0.95530000  0.52640000  0.94357000  1.0 0.139682229
H  H70  1  0.94490000  0.52560000  0.97527000  1.0 0.1485682781
H  H71  1  0.88590000  0.49470000  0.95547000  1.0 0.139682229
H  H72  1  0.91190000  0.27950000  0.96297000  1.0 0.1220777056
H  H73  1  0.84420000  0.39350000  0.93917000  1.0 0.1220777056
H  H74  1  0.88970000  0.23860000  0.12807000  1.0 0.1576578531
H  H75  1  0.81880000  0.20340000  0.13847000  1.0 0.1485682781
H  H76  1  0.86630000  0.27340000  0.14807000  1.0 0.139682229
H  H77  1  0.06830000  0.67480000  0.11187000  1.0 0.1220777056
H  H78  1  0.02010000  0.70030000  0.11107000  1.0 0.1220777056
H  H79  1  0.02350000  0.66050000  0.08647000  1.0 0.139682229
H  H80  1  0.81600000  0.26960000  0.91607000  1.0 0.139682229
H  H81  1  0.77340000  0.25870000  0.94197000  1.0 0.1294429941
H  H82  1  0.81830000  0.22930000  0.94077000  1.0 0.1294429941
H  H83  1  0.31110000  0.99720000  0.32150000  1.0 0.1220777056
H  H84  1  0.35040000  0.97820000  0.34100000  1.0 0.1294429941
H  H85  1  0.32500000  0.94280000  0.31300000  1.0 0.1220777056
H  H86  1  0.71500000  0.21510000  0.49290000  1.0 0.1294429941
H  H87  1  0.76290000  0.19290000  0.48350000  1.0 0.139682229
H  H88  1  0.72640000  0.16870000  0.51140000  1.0 0.139682229
H  H89  1  0.47210000  0.90860000  0.46840000  1.0 0.1220777056
H  H90  1  0.37060000  0.74110000  0.31790000  1.0 0.1220777056
H  H91  1  0.36030000  0.66310000  0.28730000  1.0 0.1294429941
H  H92  1  0.50690000  0.79650000  0.24330000  1.0 0.1220777056
H  H93  1  0.51710000  0.87440000  0.27390000  1.0 0.1220777056
H  H94  1  0.28590000  0.76440000  0.50670000  1.0 0.1220777056
H  H95  1  0.30880000  0.64870000  0.45470000  1.0 0.1294429941
H  H96  1  0.37810000  0.73640000  0.42860000  1.0 0.1220777056
H  H97  1  0.35510000  0.85210000  0.48050000  1.0 0.1220777056
H  H98  1  0.46890000  0.03310000  0.44750000  1.0 0.139682229
H  H99  1  0.49890000  0.10250000  0.45920000  1.0 0.139682229
H  H100  1  0.47420000  0.04420000  0.47920000  1.0 0.1294429941
H  H101  1  0.60240000  0.14950000  0.48310000  1.0 0.1220777056
H  H102  1  0.71730000  0.07730000  0.46820000  1.0 0.1294429941
H  H103  1  0.49820000  0.83200000  0.37330000  1.0 0.139682229
H  H104  1  0.48240000  0.79580000  0.34530000  1.0 0.1220777056
H  H105  1  0.42770000  0.78020000  0.36640000  1.0 0.1294429941
H  H106  1  0.44540000  0.91950000  0.28640000  1.0 0.1220777056
H  H107  1  0.35270000  0.77340000  0.39200000  1.0 0.1220777056
H  H108  1  0.35270000  0.82840000  0.37500000  1.0 0.139682229
H  H109  1  0.31810000  0.80880000  0.40340000  1.0 0.139682229
H  H110  1  0.57110000  0.04470000  0.27690000  1.0 0.139682229
H  H111  1  0.58070000  0.05510000  0.30860000  1.0 0.1485682781
H  H112  1  0.60880000  0.11410000  0.28880000  1.0 0.139682229
H  H113  1  0.36760000  0.08810000  0.29630000  1.0 0.1220777056
H  H114  1  0.54930000  0.15580000  0.27250000  1.0 0.1220777056
H  H115  1  0.34890000  0.11030000  0.46140000  1.0 0.1576578531
H  H116  1  0.38460000  0.18120000  0.47180000  1.0 0.1485682781
H  H117  1  0.40710000  0.13370000  0.48140000  1.0 0.139682229
H  H118  1  0.60650000  0.93170000  0.44520000  1.0 0.1220777056
H  H119  1  0.68020000  0.97990000  0.44440000  1.0 0.1294429941
H  H120  1  0.63700000  0.97650000  0.41980000  1.0 0.139682229
H  H121  1  0.45360000  0.18400000  0.24940000  1.0 0.139682229
H  H122  1  0.48530000  0.22660000  0.27530000  1.0 0.1294429941
H  H123  1  0.41100000  0.18170000  0.27410000  1.0 0.1294429941
H  H124  1  0.31390000  0.31110000  0.15483000  1.0 0.1220777056
H  H125  1  0.37220000  0.35040000  0.17433000  1.0 0.1294429941
H  H126  1  0.38220000  0.32500000  0.14633000  1.0 0.1220777056
H  H127  1  0.49990000  0.71500000  0.32623000  1.0 0.1294429941
H  H128  1  0.57000000  0.76290000  0.31683000  1.0 0.139682229
H  H129  1  0.55770000  0.72640000  0.34473000  1.0 0.139682229
H  H130  1  0.56350000  0.47210000  0.30173000  1.0 0.1220777056
H  H131  1  0.62950000  0.37060000  0.15123000  1.0 0.1220777056
H  H132  1  0.69720000  0.36030000  0.12063000  1.0 0.1294429941
H  H133  1  0.71040000  0.50690000  0.07663000  1.0 0.1220777056
H  H134  1  0.64270000  0.51710000  0.10723000  1.0 0.1220777056
H  H135  1  0.52150000  0.28590000  0.34003000  1.0 0.1220777056
H  H136  1  0.66010000  0.30880000  0.28803000  1.0 0.1294429941
H  H137  1  0.64170000  0.37810000  0.26193000  1.0 0.1220777056
H  H138  1  0.50300000  0.35510000  0.31383000  1.0 0.1220777056
H  H139  1  0.43580000  0.46890000  0.28083000  1.0 0.139682229
H  H140  1  0.39640000  0.49890000  0.29253000  1.0 0.139682229
H  H141  1  0.43000000  0.47420000  0.31253000  1.0 0.1294429941
H  H142  1  0.45290000  0.60240000  0.31643000  1.0 0.1220777056
H  H143  1  0.64000000  0.71730000  0.30153000  1.0 0.1294429941
H  H144  1  0.66620000  0.49820000  0.20663000  1.0 0.139682229
H  H145  1  0.68660000  0.48240000  0.17863000  1.0 0.1220777056
H  H146  1  0.64750000  0.42770000  0.19973000  1.0 0.1294429941
H  H147  1  0.52590000  0.44540000  0.11973000  1.0 0.1220777056
H  H148  1  0.57930000  0.35270000  0.22533000  1.0 0.1220777056
H  H149  1  0.52430000  0.35270000  0.20833000  1.0 0.139682229
H  H150  1  0.50930000  0.31810000  0.23673000  1.0 0.139682229
H  H151  1  0.52640000  0.57110000  0.11023000  1.0 0.139682229
H  H152  1  0.52560000  0.58070000  0.14193000  1.0 0.1485682781
H  H153  1  0.49470000  0.60880000  0.12213000  1.0 0.139682229
H  H154  1  0.27950000  0.36760000  0.12963000  1.0 0.1220777056
H  H155  1  0.39350000  0.54930000  0.10583000  1.0 0.1220777056
H  H156  1  0.23860000  0.34890000  0.29473000  1.0 0.1576578531
H  H157  1  0.20340000  0.38460000  0.30513000  1.0 0.1485682781
H  H158  1  0.27340000  0.40710000  0.31473000  1.0 0.139682229
H  H159  1  0.67480000  0.60650000  0.27853000  1.0 0.1220777056
H  H160  1  0.70030000  0.68020000  0.27773000  1.0 0.1220777056
H  H161  1  0.66050000  0.63700000  0.25313000  1.0 0.139682229
H  H162  1  0.26960000  0.45360000  0.08273000  1.0 0.139682229
H  H163  1  0.25870000  0.48530000  0.10863000  1.0 0.1294429941
H  H164  1  0.22930000  0.41100000  0.10743000  1.0 0.1294429941
H  H165  1  0.99720000  0.68610000  0.48817000  1.0 0.1220777056
H  H166  1  0.97820000  0.62780000  0.50767000  1.0 0.1294429941
H  H167  1  0.94280000  0.61780000  0.47967000  1.0 0.1220777056
H  H168  1  0.21510000  0.50010000  0.65957000  1.0 0.1294429941
H  H169  1  0.19290000  0.43000000  0.65017000  1.0 0.139682229
H  H170  1  0.16870000  0.44230000  0.67807000  1.0 0.139682229
H  H171  1  0.90860000  0.43650000  0.63507000  1.0 0.1220777056
H  H172  1  0.74110000  0.37050000  0.48457000  1.0 0.1220777056
H  H173  1  0.66310000  0.30280000  0.45397000  1.0 0.1294429941
H  H174  1  0.79650000  0.28960000  0.40997000  1.0 0.1220777056
H  H175  1  0.87440000  0.35730000  0.44057000  1.0 0.1220777056
H  H176  1  0.76440000  0.47850000  0.67337000  1.0 0.1220777056
H  H177  1  0.64870000  0.33990000  0.62137000  1.0 0.1294429941
H  H178  1  0.73640000  0.35830000  0.59527000  1.0 0.1220777056
H  H179  1  0.85210000  0.49700000  0.64717000  1.0 0.1220777056
H  H180  1  0.03310000  0.56420000  0.61417000  1.0 0.139682229
H  H181  1  0.10250000  0.60360000  0.62587000  1.0 0.139682229
H  H182  1  0.04420000  0.57000000  0.64587000  1.0 0.1294429941
H  H183  1  0.14950000  0.54710000  0.64977000  1.0 0.1220777056
H  H184  1  0.07730000  0.36000000  0.63487000  1.0 0.1294429941
H  H185  1  0.83200000  0.33380000  0.53997000  1.0 0.139682229
H  H186  1  0.79580000  0.31340000  0.51197000  1.0 0.1220777056
H  H187  1  0.78020000  0.35250000  0.53307000  1.0 0.1294429941
H  H188  1  0.91950000  0.47410000  0.45307000  1.0 0.1220777056
H  H189  1  0.77340000  0.42070000  0.55867000  1.0 0.1220777056
H  H190  1  0.82840000  0.47570000  0.54167000  1.0 0.139682229
H  H191  1  0.80880000  0.49070000  0.57007000  1.0 0.139682229
H  H192  1  0.04470000  0.47360000  0.44357000  1.0 0.139682229
H  H193  1  0.05510000  0.47440000  0.47527000  1.0 0.1485682781
H  H194  1  0.11410000  0.50530000  0.45547000  1.0 0.139682229
H  H195  1  0.08810000  0.72050000  0.46297000  1.0 0.1220777056
H  H196  1  0.15580000  0.60650000  0.43917000  1.0 0.1220777056
H  H197  1  0.11030000  0.76140000  0.62807000  1.0 0.1576578531
H  H198  1  0.18120000  0.79660000  0.63847000  1.0 0.1485682781
H  H199  1  0.13370000  0.72660000  0.64807000  1.0 0.139682229
H  H200  1  0.93170000  0.32520000  0.61187000  1.0 0.1220777056
H  H201  1  0.97990000  0.29970000  0.61107000  1.0 0.1294429941
H  H202  1  0.97650000  0.33950000  0.58647000  1.0 0.139682229
H  H203  1  0.18400000  0.73040000  0.41607000  1.0 0.139682229
H  H204  1  0.22660000  0.74130000  0.44197000  1.0 0.1294429941
H  H205  1  0.18170000  0.77070000  0.44077000  1.0 0.1294429941
H  H206  1  0.68890000  0.00280000  0.82150000  1.0 0.1220777056
H  H207  1  0.64960000  0.02180000  0.84100000  1.0 0.1294429941
H  H208  1  0.67500000  0.05720000  0.81300000  1.0 0.1220777056
H  H209  1  0.28500000  0.78490000  0.99290000  1.0 0.1294429941
H  H210  1  0.23710000  0.80710000  0.98350000  1.0 0.139682229
H  H211  1  0.27360000  0.83130000  0.01140000  1.0 0.139682229
H  H212  1  0.52790000  0.09140000  0.96840000  1.0 0.1220777056
H  H213  1  0.62940000  0.25890000  0.81790000  1.0 0.1220777056
H  H214  1  0.63970000  0.33690000  0.78730000  1.0 0.1294429941
H  H215  1  0.49310000  0.20350000  0.74330000  1.0 0.1220777056
H  H216  1  0.48290000  0.12560000  0.77390000  1.0 0.1220777056
H  H217  1  0.71410000  0.23560000  0.00670000  1.0 0.1220777056
H  H218  1  0.69120000  0.35130000  0.95470000  1.0 0.1220777056
H  H219  1  0.62190000  0.26360000  0.92860000  1.0 0.1220777056
H  H220  1  0.64490000  0.14790000  0.98050000  1.0 0.1220777056
H  H221  1  0.53110000  0.96690000  0.94750000  1.0 0.139682229
H  H222  1  0.50110000  0.89750000  0.95920000  1.0 0.139682229
H  H223  1  0.52580000  0.95580000  0.97920000  1.0 0.1294429941
H  H224  1  0.39760000  0.85050000  0.98310000  1.0 0.1220777056
H  H225  1  0.28270000  0.92270000  0.96820000  1.0 0.1294429941
H  H226  1  0.50180000  0.16800000  0.87330000  1.0 0.139682229
H  H227  1  0.51760000  0.20420000  0.84530000  1.0 0.1220777056
H  H228  1  0.57230000  0.21980000  0.86640000  1.0 0.1294429941
H  H229  1  0.55460000  0.08050000  0.78640000  1.0 0.1220777056
H  H230  1  0.64730000  0.22660000  0.89200000  1.0 0.1220777056
H  H231  1  0.64730000  0.17160000  0.87500000  1.0 0.139682229
H  H232  1  0.68190000  0.19120000  0.90340000  1.0 0.139682229
H  H233  1  0.42890000  0.95530000  0.77690000  1.0 0.139682229
H  H234  1  0.41930000  0.94490000  0.80860000  1.0 0.1485682781
H  H235  1  0.39120000  0.88590000  0.78880000  1.0 0.139682229
H  H236  1  0.63240000  0.91190000  0.79630000  1.0 0.1220777056
H  H237  1  0.45070000  0.84420000  0.77250000  1.0 0.1220777056
H  H238  1  0.65110000  0.88970000  0.96140000  1.0 0.1576578531
H  H239  1  0.61540000  0.81880000  0.97180000  1.0 0.1485682781
H  H240  1  0.59290000  0.86630000  0.98140000  1.0 0.139682229
H  H241  1  0.39350000  0.06830000  0.94520000  1.0 0.1220777056
H  H242  1  0.31980000  0.02010000  0.94440000  1.0 0.1220777056
H  H243  1  0.36300000  0.02350000  0.91980000  1.0 0.139682229
H  H244  1  0.54640000  0.81600000  0.74940000  1.0 0.139682229
H  H245  1  0.51470000  0.77340000  0.77530000  1.0 0.1294429941
H  H246  1  0.58900000  0.81830000  0.77410000  1.0 0.1294429941
H  H247  1  0.99720000  0.31110000  0.34517000  1.0 0.1220777056
H  H248  1  0.97820000  0.35040000  0.32567000  1.0 0.1294429941
H  H249  1  0.94280000  0.32500000  0.35367000  1.0 0.1220777056
H  H250  1  0.21510000  0.71500000  0.17377000  1.0 0.1294429941
H  H251  1  0.19290000  0.76290000  0.18317000  1.0 0.139682229
H  H252  1  0.16870000  0.72640000  0.15527000  1.0 0.139682229
H  H253  1  0.90860000  0.47210000  0.19827000  1.0 0.1220777056
H  H254  1  0.74110000  0.37060000  0.34877000  1.0 0.1220777056
H  H255  1  0.66310000  0.36030000  0.37937000  1.0 0.1294429941
H  H256  1  0.79650000  0.50690000  0.42337000  1.0 0.1220777056
H  H257  1  0.87440000  0.51710000  0.39277000  1.0 0.1220777056
H  H258  1  0.76440000  0.28590000  0.15997000  1.0 0.1220777056
H  H259  1  0.64870000  0.30880000  0.21197000  1.0 0.1220777056
H  H260  1  0.73640000  0.37810000  0.23807000  1.0 0.1220777056
H  H261  1  0.85210000  0.35510000  0.18617000  1.0 0.1220777056
H  H262  1  0.03310000  0.46890000  0.21917000  1.0 0.139682229
H  H263  1  0.10250000  0.49890000  0.20747000  1.0 0.139682229
H  H264  1  0.04420000  0.47420000  0.18747000  1.0 0.1294429941
H  H265  1  0.14950000  0.60240000  0.18357000  1.0 0.1220777056
H  H266  1  0.07730000  0.71730000  0.19847000  1.0 0.1294429941
H  H267  1  0.83200000  0.49820000  0.29337000  1.0 0.139682229
H  H268  1  0.79580000  0.48240000  0.32137000  1.0 0.1220777056
H  H269  1  0.78020000  0.42770000  0.30027000  1.0 0.1294429941
H  H270  1  0.91950000  0.44540000  0.38027000  1.0 0.1220777056
H  H271  1  0.77340000  0.35270000  0.27467000  1.0 0.1220777056
H  H272  1  0.82840000  0.35270000  0.29167000  1.0 0.139682229
H  H273  1  0.80880000  0.31810000  0.26327000  1.0 0.139682229
H  H274  1  0.04470000  0.57110000  0.38977000  1.0 0.139682229
H  H275  1  0.05510000  0.58070000  0.35807000  1.0 0.1485682781
H  H276  1  0.11410000  0.60880000  0.37787000  1.0 0.139682229
H  H277  1  0.08810000  0.36760000  0.37037000  1.0 0.1220777056
H  H278  1  0.15580000  0.54930000  0.39417000  1.0 0.1220777056
H  H279  1  0.11030000  0.34890000  0.20527000  1.0 0.1576578531
H  H280  1  0.18120000  0.38460000  0.19487000  1.0 0.1485682781
H  H281  1  0.13370000  0.40710000  0.18527000  1.0 0.139682229
H  H282  1  0.93170000  0.60650000  0.22147000  1.0 0.1220777056
H  H283  1  0.97990000  0.68020000  0.22227000  1.0 0.1220777056
H  H284  1  0.97650000  0.63700000  0.24687000  1.0 0.139682229
H  H285  1  0.18400000  0.45360000  0.41727000  1.0 0.139682229
H  H286  1  0.22660000  0.48530000  0.39137000  1.0 0.1294429941
H  H287  1  0.18170000  0.41100000  0.39257000  1.0 0.1294429941
H  H288  1  0.68890000  0.68610000  0.01183000  1.0 0.1220777056
H  H289  1  0.64960000  0.62780000  0.99233000  1.0 0.1294429941
H  H290  1  0.67500000  0.61780000  0.02033000  1.0 0.1220777056
H  H291  1  0.28500000  0.50010000  0.84043000  1.0 0.1294429941
H  H292  1  0.23710000  0.43000000  0.84983000  1.0 0.139682229
H  H293  1  0.27360000  0.44230000  0.82193000  1.0 0.139682229
H  H294  1  0.52790000  0.43650000  0.86493000  1.0 0.1220777056
H  H295  1  0.62940000  0.37050000  0.01543000  1.0 0.1220777056
H  H296  1  0.63970000  0.30280000  0.04603000  1.0 0.1294429941
H  H297  1  0.49310000  0.28960000  0.09003000  1.0 0.1220777056
H  H298  1  0.48290000  0.35730000  0.05943000  1.0 0.1220777056
H  H299  1  0.71410000  0.47850000  0.82663000  1.0 0.1220777056
H  H300  1  0.69120000  0.33990000  0.87863000  1.0 0.1294429941
H  H301  1  0.62190000  0.35830000  0.90473000  1.0 0.1220777056
H  H302  1  0.64490000  0.49700000  0.85283000  1.0 0.1220777056
H  H303  1  0.53110000  0.56420000  0.88583000  1.0 0.139682229
H  H304  1  0.50110000  0.60360000  0.87413000  1.0 0.139682229
H  H305  1  0.52580000  0.57000000  0.85413000  1.0 0.1294429941
H  H306  1  0.39760000  0.54710000  0.85023000  1.0 0.1220777056
H  H307  1  0.28270000  0.36000000  0.86513000  1.0 0.1294429941
H  H308  1  0.50180000  0.33380000  0.96003000  1.0 0.139682229
H  H309  1  0.51760000  0.31340000  0.98803000  1.0 0.1220777056
H  H310  1  0.57230000  0.35250000  0.96693000  1.0 0.1294429941
H  H311  1  0.55460000  0.47410000  0.04693000  1.0 0.1220777056
H  H312  1  0.64730000  0.42070000  0.94133000  1.0 0.1220777056
H  H313  1  0.64730000  0.47570000  0.95833000  1.0 0.139682229
H  H314  1  0.68190000  0.49070000  0.92993000  1.0 0.139682229
H  H315  1  0.42890000  0.47360000  0.05643000  1.0 0.139682229
H  H316  1  0.41930000  0.47440000  0.02473000  1.0 0.1485682781
H  H317  1  0.39120000  0.50530000  0.04453000  1.0 0.139682229
H  H318  1  0.63240000  0.72050000  0.03703000  1.0 0.1220777056
H  H319  1  0.45070000  0.60650000  0.06083000  1.0 0.1220777056
H  H320  1  0.65110000  0.76140000  0.87193000  1.0 0.1576578531
H  H321  1  0.61540000  0.79660000  0.86153000  1.0 0.1485682781
H  H322  1  0.59290000  0.72660000  0.85193000  1.0 0.139682229
H  H323  1  0.39350000  0.32520000  0.88813000  1.0 0.1220777056
H  H324  1  0.31980000  0.29970000  0.88893000  1.0 0.1220777056
H  H325  1  0.36300000  0.33950000  0.91353000  1.0 0.139682229
H  H326  1  0.54640000  0.73040000  0.08393000  1.0 0.139682229
H  H327  1  0.51470000  0.74130000  0.05803000  1.0 0.1294429941
H  H328  1  0.58900000  0.77070000  0.05923000  1.0 0.1294429941
H  H329  1  0.31390000  0.00280000  0.67850000  1.0 0.1220777056
H  H330  1  0.37220000  0.02180000  0.65900000  1.0 0.1294429941
H  H331  1  0.38220000  0.05720000  0.68700000  1.0 0.1220777056
H  H332  1  0.49990000  0.78490000  0.50710000  1.0 0.1294429941
H  H333  1  0.57000000  0.80710000  0.51650000  1.0 0.139682229
H  H334  1  0.55770000  0.83130000  0.48860000  1.0 0.139682229
H  H335  1  0.56350000  0.09140000  0.53160000  1.0 0.1220777056
H  H336  1  0.62950000  0.25890000  0.68210000  1.0 0.1220777056
H  H337  1  0.69720000  0.33690000  0.71270000  1.0 0.1294429941
H  H338  1  0.71040000  0.20350000  0.75670000  1.0 0.1220777056
H  H339  1  0.64270000  0.12560000  0.72610000  1.0 0.1220777056
H  H340  1  0.52150000  0.23560000  0.49330000  1.0 0.1220777056
H  H341  1  0.66010000  0.35130000  0.54530000  1.0 0.1294429941
H  H342  1  0.64170000  0.26360000  0.57140000  1.0 0.1220777056
H  H343  1  0.50300000  0.14790000  0.51950000  1.0 0.1220777056
H  H344  1  0.43580000  0.96690000  0.55250000  1.0 0.139682229
H  H345  1  0.39640000  0.89750000  0.54080000  1.0 0.139682229
H  H346  1  0.43000000  0.95580000  0.52080000  1.0 0.1294429941
H  H347  1  0.45290000  0.85050000  0.51690000  1.0 0.1220777056
H  H348  1  0.64000000  0.92270000  0.53180000  1.0 0.1294429941
H  H349  1  0.66620000  0.16800000  0.62670000  1.0 0.139682229
H  H350  1  0.68660000  0.20420000  0.65470000  1.0 0.1220777056
H  H351  1  0.64750000  0.21980000  0.63360000  1.0 0.1294429941
H  H352  1  0.52590000  0.08050000  0.71360000  1.0 0.1220777056
H  H353  1  0.57930000  0.22660000  0.60800000  1.0 0.1220777056
H  H354  1  0.52430000  0.17160000  0.62500000  1.0 0.139682229
H  H355  1  0.50930000  0.19120000  0.59660000  1.0 0.139682229
H  H356  1  0.52640000  0.95530000  0.72310000  1.0 0.139682229
H  H357  1  0.52560000  0.94490000  0.69140000  1.0 0.1485682781
H  H358  1  0.49470000  0.88590000  0.71120000  1.0 0.139682229
H  H359  1  0.27950000  0.91190000  0.70370000  1.0 0.1220777056
H  H360  1  0.39350000  0.84420000  0.72750000  1.0 0.1220777056
H  H361  1  0.23860000  0.88970000  0.53860000  1.0 0.1576578531
H  H362  1  0.20340000  0.81880000  0.52820000  1.0 0.1485682781
H  H363  1  0.27340000  0.86630000  0.51860000  1.0 0.139682229
H  H364  1  0.67480000  0.06830000  0.55480000  1.0 0.1220777056
H  H365  1  0.70030000  0.02010000  0.55560000  1.0 0.1294429941
H  H366  1  0.66050000  0.02350000  0.58020000  1.0 0.139682229
H  H367  1  0.26960000  0.81600000  0.75060000  1.0 0.139682229
H  H368  1  0.25870000  0.77340000  0.72470000  1.0 0.1294429941
H  H369  1  0.22930000  0.81830000  0.72590000  1.0 0.1294429941
H  H370  1  0.00280000  0.68890000  0.84517000  1.0 0.1220777056
H  H371  1  0.02180000  0.64960000  0.82567000  1.0 0.1294429941
H  H372  1  0.05720000  0.67500000  0.85367000  1.0 0.1220777056
H  H373  1  0.78490000  0.28500000  0.67377000  1.0 0.1294429941
H  H374  1  0.80710000  0.23710000  0.68317000  1.0 0.139682229
H  H375  1  0.83130000  0.27360000  0.65527000  1.0 0.139682229
H  H376  1  0.09140000  0.52790000  0.69827000  1.0 0.1220777056
H  H377  1  0.25890000  0.62940000  0.84877000  1.0 0.1220777056
H  H378  1  0.33690000  0.63970000  0.87937000  1.0 0.1294429941
H  H379  1  0.20350000  0.49310000  0.92337000  1.0 0.1220777056
H  H380  1  0.12560000  0.48290000  0.89277000  1.0 0.1220777056
H  H381  1  0.23560000  0.71410000  0.65997000  1.0 0.1220777056
H  H382  1  0.35130000  0.69120000  0.71197000  1.0 0.1294429941
H  H383  1  0.26360000  0.62190000  0.73807000  1.0 0.1220777056
H  H384  1  0.14790000  0.64490000  0.68617000  1.0 0.1220777056
H  H385  1  0.96690000  0.53110000  0.71917000  1.0 0.139682229
H  H386  1  0.89750000  0.50110000  0.70747000  1.0 0.139682229
H  H387  1  0.95580000  0.52580000  0.68747000  1.0 0.1294429941
H  H388  1  0.85050000  0.39760000  0.68357000  1.0 0.1220777056
H  H389  1  0.92270000  0.28270000  0.69847000  1.0 0.1294429941
H  H390  1  0.16800000  0.50180000  0.79337000  1.0 0.139682229
H  H391  1  0.20420000  0.51760000  0.82137000  1.0 0.1220777056
H  H392  1  0.21980000  0.57230000  0.80027000  1.0 0.1294429941
H  H393  1  0.08050000  0.55460000  0.88027000  1.0 0.1220777056
H  H394  1  0.22660000  0.64730000  0.77467000  1.0 0.1220777056
H  H395  1  0.17160000  0.64730000  0.79167000  1.0 0.139682229
H  H396  1  0.19120000  0.68190000  0.76327000  1.0 0.139682229
H  H397  1  0.95530000  0.42890000  0.88977000  1.0 0.139682229
H  H398  1  0.94490000  0.41930000  0.85807000  1.0 0.1485682781
H  H399  1  0.88590000  0.39120000  0.87787000  1.0 0.139682229
H  H400  1  0.91190000  0.63240000  0.87037000  1.0 0.1220777056
H  H401  1  0.84420000  0.45070000  0.89417000  1.0 0.1220777056
H  H402  1  0.88970000  0.65110000  0.70527000  1.0 0.1576578531
H  H403  1  0.81880000  0.61540000  0.69487000  1.0 0.1485682781
H  H404  1  0.86630000  0.59290000  0.68527000  1.0 0.139682229
H  H405  1  0.06830000  0.39350000  0.72147000  1.0 0.1220777056
H  H406  1  0.02010000  0.31980000  0.72227000  1.0 0.1294429941
H  H407  1  0.02350000  0.36300000  0.74687000  1.0 0.139682229
H  H408  1  0.81600000  0.54640000  0.91727000  1.0 0.139682229
H  H409  1  0.77340000  0.51470000  0.89137000  1.0 0.1294429941
H  H410  1  0.81830000  0.58900000  0.89257000  1.0 0.1294429941
H  H411  1  0.31110000  0.31390000  0.51183000  1.0 0.1220777056
H  H412  1  0.35040000  0.37220000  0.49233000  1.0 0.1294429941
H  H413  1  0.32500000  0.38220000  0.52033000  1.0 0.1220777056
H  H414  1  0.71500000  0.49990000  0.34043000  1.0 0.1294429941
H  H415  1  0.76290000  0.57000000  0.34983000  1.0 0.139682229
H  H416  1  0.72640000  0.55770000  0.32193000  1.0 0.139682229
H  H417  1  0.47210000  0.56350000  0.36493000  1.0 0.1220777056
H  H418  1  0.37060000  0.62950000  0.51543000  1.0 0.1220777056
H  H419  1  0.36030000  0.69720000  0.54603000  1.0 0.1294429941
H  H420  1  0.50690000  0.71040000  0.59003000  1.0 0.1220777056
H  H421  1  0.51710000  0.64270000  0.55943000  1.0 0.1220777056
H  H422  1  0.28590000  0.52150000  0.32663000  1.0 0.1220777056
H  H423  1  0.30880000  0.66010000  0.37863000  1.0 0.1294429941
H  H424  1  0.37810000  0.64170000  0.40473000  1.0 0.1220777056
H  H425  1  0.35510000  0.50300000  0.35283000  1.0 0.1220777056
H  H426  1  0.46890000  0.43580000  0.38583000  1.0 0.139682229
H  H427  1  0.49890000  0.39640000  0.37413000  1.0 0.139682229
H  H428  1  0.47420000  0.43000000  0.35413000  1.0 0.1294429941
H  H429  1  0.60240000  0.45290000  0.35023000  1.0 0.1220777056
H  H430  1  0.71730000  0.64000000  0.36513000  1.0 0.1294429941
H  H431  1  0.49820000  0.66620000  0.46003000  1.0 0.139682229
H  H432  1  0.48240000  0.68660000  0.48803000  1.0 0.1220777056
H  H433  1  0.42770000  0.64750000  0.46693000  1.0 0.1294429941
H  H434  1  0.44540000  0.52590000  0.54693000  1.0 0.1220777056
H  H435  1  0.35270000  0.57930000  0.44133000  1.0 0.1220777056
H  H436  1  0.35270000  0.52430000  0.45833000  1.0 0.139682229
H  H437  1  0.31810000  0.50930000  0.42993000  1.0 0.139682229
H  H438  1  0.57110000  0.52640000  0.55643000  1.0 0.139682229
H  H439  1  0.58070000  0.52560000  0.52473000  1.0 0.1485682781
H  H440  1  0.60880000  0.49470000  0.54453000  1.0 0.139682229
H  H441  1  0.36760000  0.27950000  0.53703000  1.0 0.1220777056
H  H442  1  0.54930000  0.39350000  0.56083000  1.0 0.1220777056
H  H443  1  0.34890000  0.23860000  0.37193000  1.0 0.1576578531
H  H444  1  0.38460000  0.20340000  0.36153000  1.0 0.1485682781
H  H445  1  0.40710000  0.27340000  0.35193000  1.0 0.139682229
H  H446  1  0.60650000  0.67480000  0.38813000  1.0 0.1220777056
H  H447  1  0.68020000  0.70030000  0.38893000  1.0 0.1220777056
H  H448  1  0.63700000  0.66050000  0.41353000  1.0 0.139682229
H  H449  1  0.45360000  0.26960000  0.58393000  1.0 0.139682229
H  H450  1  0.48530000  0.25870000  0.55803000  1.0 0.1294429941
H  H451  1  0.41100000  0.22930000  0.55923000  1.0 0.1294429941
H  H452  1  0.68610000  0.99720000  0.17850000  1.0 0.1220777056
H  H453  1  0.62780000  0.97820000  0.15900000  1.0 0.1294429941
H  H454  1  0.61780000  0.94280000  0.18700000  1.0 0.1220777056
H  H455  1  0.50010000  0.21510000  0.00710000  1.0 0.1294429941
H  H456  1  0.43000000  0.19290000  0.01650000  1.0 0.139682229
H  H457  1  0.44230000  0.16870000  0.98860000  1.0 0.139682229
H  H458  1  0.43650000  0.90860000  0.03160000  1.0 0.1220777056
H  H459  1  0.37050000  0.74110000  0.18210000  1.0 0.1220777056
H  H460  1  0.30280000  0.66310000  0.21270000  1.0 0.1294429941
H  H461  1  0.28960000  0.79650000  0.25670000  1.0 0.1220777056
H  H462  1  0.35730000  0.87440000  0.22610000  1.0 0.1220777056
H  H463  1  0.47850000  0.76440000  0.99330000  1.0 0.1220777056
H  H464  1  0.33990000  0.64870000  0.04530000  1.0 0.1294429941
H  H465  1  0.35830000  0.73640000  0.07140000  1.0 0.1220777056
H  H466  1  0.49700000  0.85210000  0.01950000  1.0 0.1220777056
H  H467  1  0.56420000  0.03310000  0.05250000  1.0 0.139682229
H  H468  1  0.60360000  0.10250000  0.04080000  1.0 0.139682229
H  H469  1  0.57000000  0.04420000  0.02080000  1.0 0.1294429941
H  H470  1  0.54710000  0.14950000  0.01690000  1.0 0.1220777056
H  H471  1  0.36000000  0.07730000  0.03180000  1.0 0.1294429941
H  H472  1  0.33380000  0.83200000  0.12670000  1.0 0.139682229
H  H473  1  0.31340000  0.79580000  0.15470000  1.0 0.1220777056
H  H474  1  0.35250000  0.78020000  0.13360000  1.0 0.1294429941
H  H475  1  0.47410000  0.91950000  0.21360000  1.0 0.1220777056
H  H476  1  0.42070000  0.77340000  0.10800000  1.0 0.1220777056
H  H477  1  0.47570000  0.82840000  0.12500000  1.0 0.139682229
H  H478  1  0.49070000  0.80880000  0.09660000  1.0 0.139682229
H  H479  1  0.47360000  0.04470000  0.22310000  1.0 0.139682229
H  H480  1  0.47440000  0.05510000  0.19140000  1.0 0.1485682781
H  H481  1  0.50530000  0.11410000  0.21120000  1.0 0.139682229
H  H482  1  0.72050000  0.08810000  0.20370000  1.0 0.1220777056
H  H483  1  0.60650000  0.15580000  0.22750000  1.0 0.1220777056
H  H484  1  0.76140000  0.11030000  0.03860000  1.0 0.1576578531
H  H485  1  0.79660000  0.18120000  0.02820000  1.0 0.1485682781
H  H486  1  0.72660000  0.13370000  0.01860000  1.0 0.139682229
H  H487  1  0.32520000  0.93170000  0.05480000  1.0 0.1220777056
H  H488  1  0.29970000  0.97990000  0.05560000  1.0 0.1220777056
H  H489  1  0.33950000  0.97650000  0.08020000  1.0 0.139682229
H  H490  1  0.73040000  0.18400000  0.25060000  1.0 0.139682229
H  H491  1  0.74130000  0.22660000  0.22470000  1.0 0.1294429941
H  H492  1  0.77070000  0.18170000  0.22590000  1.0 0.1294429941
C  C1  1  0.64130000  0.65830000  0.65553000  1.0 -0.4104449603
C  C2  1  0.39380000  0.75200000  0.83335000  1.0 0.5565247848
C  C3  1  0.45680000  0.27660000  0.82623000  1.0 -0.4491644471
C  C4  1  0.44030000  0.58040000  0.76882000  1.0 -0.0060595286
C  C5  1  0.44650000  0.58429000  0.74054000  1.0 0.0889973546
C  C6  1  0.45310000  0.53832000  0.72619000  1.0 -0.064376888
C  C7  1  0.45340000  0.48838000  0.74013000  1.0 0.1876944326
C  C8  1  0.44710000  0.48439000  0.76842000  1.0 -0.0025990265
C  C9  1  0.44060000  0.53046000  0.78277000  1.0 -0.1709737863
C  C10  1  0.35430000  0.60213000  0.63625000  1.0 -0.1492937237
C  C11  1  0.31370000  0.60824000  0.61793000  1.0 -0.0918214658
C  C12  1  0.28950000  0.56744000  0.59560000  1.0 -0.049430759
C  C13  1  0.30580000  0.52040000  0.59158000  1.0 -0.0985608075
C  C14  1  0.34640000  0.51434000  0.60990000  1.0 -0.1492937237
C  C15  1  0.37060000  0.55513000  0.63223000  1.0 0.0889973546
C  C16  1  0.24880000  0.57500000  0.57485000  1.0 0.6170913293
C  C17  1  0.45450000  0.69570000  0.82435000  1.0 -0.0828218869
C  C18  1  0.40740000  0.70954000  0.81662000  1.0 -0.049430759
C  C19  1  0.37140000  0.68194000  0.79322000  1.0 -0.0918214658
C  C20  1  0.38240000  0.64040000  0.77756000  1.0 -0.1492937237
C  C21  1  0.42950000  0.62658000  0.78529000  1.0 0.0889973546
C  C22  1  0.46550000  0.65417000  0.80868000  1.0 -0.1492937237
C  C23  1  0.56670000  0.50550000  0.79527000  1.0 -0.461014714
C  C24  1  0.45050000  0.43081000  0.78369000  1.0 -0.049430759
C  C25  1  0.50740000  0.44050000  0.79503000  1.0 0.1485682781
C  C26  1  0.50910000  0.39120000  0.80882000  1.0 -0.2564738266
C  C27  1  0.45380000  0.33200000  0.81127000  1.0 0.1876944326
C  C28  1  0.39700000  0.32230000  0.79992000  1.0 -0.2663540777
C  C29  1  0.39530000  0.37170000  0.78613000  1.0 0.139682229
C  C30  1  0.34620000  0.53280000  0.69228000  1.0 -0.4436506714
C  C31  1  0.45360000  0.53721000  0.69503000  1.0 -0.0695529703
C  C32  1  0.40960000  0.54392000  0.67917000  1.0 0.0993685275
C  C33  1  0.41730000  0.55044000  0.65098000  1.0 -0.018439797
C  C34  1  0.46900000  0.55030000  0.63864000  1.0 -0.1785315212
C  C35  1  0.51300000  0.54355000  0.65450000  1.0 -0.0025990265
C  C36  1  0.50530000  0.53703000  0.68269000  1.0 0.1876944326
C  C37  1  0.45960000  0.64590000  0.72645000  1.0 -0.4491644471
C  C38  1  0.72980000  0.56440000  0.77510000  1.0 0.6805685276
C  C39  1  0.49780000  0.42610000  0.62518000  1.0 -0.461014714
C  C40  1  0.62860000  0.59580000  0.64148000  1.0 0.139682229
C  C41  1  0.68030000  0.59590000  0.62905000  1.0 -0.2564738266
C  C42  1  0.67200000  0.54150000  0.61570000  1.0 0.1828581159
C  C43  1  0.61200000  0.48700000  0.61478000  1.0 -0.2564738266
C  C44  1  0.56030000  0.48690000  0.62721000  1.0 0.139682229
C  C45  1  0.56850000  0.54125000  0.64056000  1.0 -0.049430759
C  C46  1  0.75610000  0.61030000  0.79974000  1.0 -0.5692043688
C  C47  1  0.33440000  0.36110000  0.77263000  1.0 -0.416693097
C  C48  1  0.73480000  0.54860000  0.60233000  1.0 -0.4491644471
C  C49  1  0.01700000  0.35870000  0.98887000  1.0 -0.4104449603
C  C50  1  0.35820000  0.60620000  0.16669000  1.0 0.5565247848
C  C51  1  0.81980000  0.54320000  0.15957000  1.0 -0.4491644471
C  C52  1  0.14010000  0.55970000  0.10216000  1.0 -0.0060595286
C  C53  1  0.13779000  0.55350000  0.07388000  1.0 0.0889973546
C  C54  1  0.08522000  0.54690000  0.05953000  1.0 -0.064376888
C  C55  1  0.03498000  0.54660000  0.07347000  1.0 0.1876944326
C  C56  1  0.03729000  0.55290000  0.10176000  1.0 -0.0060595286
C  C57  1  0.08986000  0.55940000  0.11611000  1.0 -0.1709737863
C  C58  1  0.24783000  0.64570000  0.96959000  1.0 -0.1492937237
C  C59  1  0.29454000  0.68630000  0.95127000  1.0 -0.0918214658
C  C60  1  0.27794000  0.71050000  0.92894000  1.0 -0.049430759
C  C61  1  0.21460000  0.69420000  0.92492000  1.0 -0.0985608075
C  C62  1  0.16794000  0.65360000  0.94324000  1.0 -0.1492937237
C  C63  1  0.18453000  0.62940000  0.96557000  1.0 0.0889973546
C  C64  1  0.32620000  0.75120000  0.90819000  1.0 0.6170913293
C  C65  1  0.24120000  0.54550000  0.15769000  1.0 -0.0828218869
C  C66  1  0.30214000  0.59260000  0.14996000  1.0 -0.049430759
C  C67  1  0.31054000  0.62860000  0.12656000  1.0 -0.0918214658
C  C68  1  0.25800000  0.61760000  0.11090000  1.0 -0.1492937237
C  C69  1  0.19708000  0.57050000  0.11863000  1.0 0.0889973546
C  C70  1  0.18867000  0.53450000  0.14202000  1.0 -0.1492937237
C  C71  1  0.93880000  0.43330000  0.12861000  1.0 -0.461014714
C  C72  1  0.98031000  0.54950000  0.11703000  1.0 -0.049430759
C  C73  1  0.93310000  0.49260000  0.12837000  1.0 0.1485682781
C  C74  1  0.88210000  0.49090000  0.14216000  1.0 -0.2564738266
C  C75  1  0.87820000  0.54620000  0.14461000  1.0 0.1876944326
C  C76  1  0.92530000  0.60300000  0.13326000  1.0 -0.2663540777
C  C77  1  0.97640000  0.60470000  0.11947000  1.0 0.139682229
C  C78  1  0.18660000  0.65380000  0.02562000  1.0 -0.4436506714
C  C79  1  0.08361000  0.54640000  0.02837000  1.0 -0.0695529703
C  C80  1  0.13432000  0.59040000  0.01251000  1.0 0.0993685275
C  C81  1  0.13314000  0.58270000  0.98432000  1.0 -0.018439797
C  C82  1  0.08130000  0.53100000  0.97198000  1.0 -0.1785315212
C  C83  1  0.03055000  0.48700000  0.98784000  1.0 -0.0025990265
C  C84  1  0.03173000  0.49470000  0.01603000  1.0 0.1876944326
C  C85  1  0.18630000  0.54040000  0.05979000  1.0 -0.4491644471
C  C86  1  0.83460000  0.27020000  0.10844000  1.0 0.6805685276
C  C87  1  0.92830000  0.50220000  0.95852000  1.0 -0.461014714
C  C88  1  0.96720000  0.37140000  0.97482000  1.0 0.139682229
C  C89  1  0.91560000  0.31970000  0.96239000  1.0 -0.2564738266
C  C90  1  0.86950000  0.32800000  0.94904000  1.0 0.1828581159
C  C91  1  0.87500000  0.38800000  0.94812000  1.0 -0.2564738266
C  C92  1  0.92660000  0.43970000  0.96055000  1.0 0.139682229
C  C93  1  0.97275000  0.43150000  0.97390000  1.0 -0.049430759
C  C94  1  0.85420000  0.24390000  0.13308000  1.0 -0.5692043688
C  C95  1  0.02670000  0.66560000  0.10597000  1.0 -0.416693097
C  C96  1  0.81380000  0.26520000  0.93567000  1.0 -0.4491644471
C  C97  1  0.34170000  0.98300000  0.32220000  1.0 -0.4104449603
C  C98  1  0.24800000  0.64180000  0.50002000  1.0 0.5565247848
C  C99  1  0.72340000  0.18020000  0.49290000  1.0 -0.4491644471
C  C100  1  0.41960000  0.85990000  0.43549000  1.0 -0.0060595286
C  C101  1  0.41571000  0.86221000  0.40721000  1.0 0.0889973546
C  C102  1  0.46168000  0.91478000  0.39286000  1.0 -0.0695529703
C  C103  1  0.51162000  0.96502000  0.40680000  1.0 0.1876944326
C  C104  1  0.51561000  0.96271000  0.43509000  1.0 -0.0025990265
C  C105  1  0.46954000  0.91014000  0.44944000  1.0 -0.1709737863
C  C106  1  0.39787000  0.75217000  0.30292000  1.0 -0.1492937237
C  C107  1  0.39176000  0.70546000  0.28460000  1.0 -0.0918214658
C  C108  1  0.43256000  0.72206000  0.26227000  1.0 -0.049430759
C  C109  1  0.47960000  0.78540000  0.25825000  1.0 -0.0985608075
C  C110  1  0.48566000  0.83206000  0.27657000  1.0 -0.1492937237
C  C111  1  0.44487000  0.81547000  0.29890000  1.0 0.0889973546
C  C112  1  0.42500000  0.67380000  0.24152000  1.0 0.6170913293
C  C113  1  0.30430000  0.75880000  0.49102000  1.0 -0.0828218869
C  C114  1  0.29046000  0.69786000  0.48329000  1.0 -0.049430759
C  C115  1  0.31806000  0.68946000  0.45989000  1.0 -0.0918214658
C  C116  1  0.35960000  0.74200000  0.44423000  1.0 -0.1492937237
C  C117  1  0.37342000  0.80292000  0.45196000  1.0 0.0889973546
C  C118  1  0.34583000  0.81133000  0.47535000  1.0 -0.1492937237
C  C119  1  0.49450000  0.06120000  0.46194000  1.0 -0.461014714
C  C120  1  0.56919000  0.01969000  0.45036000  1.0 -0.049430759
C  C121  1  0.55950000  0.06690000  0.46170000  1.0 0.1485682781
C  C122  1  0.60880000  0.11790000  0.47549000  1.0 -0.2564738266
C  C123  1  0.66800000  0.12180000  0.47794000  1.0 0.1876944326
C  C124  1  0.67770000  0.07470000  0.46659000  1.0 -0.2663540777
C  C125  1  0.62830000  0.02360000  0.45280000  1.0 0.139682229
C  C126  1  0.46720000  0.81340000  0.35895000  1.0 -0.4436506714
C  C127  1  0.46279000  0.91639000  0.36170000  1.0 -0.0695529703
C  C128  1  0.45608000  0.86568000  0.34584000  1.0 0.0993685275
C  C129  1  0.44956000  0.86686000  0.31765000  1.0 -0.018439797
C  C130  1  0.44970000  0.91870000  0.30531000  1.0 -0.1785315212
C  C131  1  0.45645000  0.96945000  0.32117000  1.0 -0.0025990265
C  C132  1  0.46297000  0.96827000  0.34936000  1.0 0.1876944326
C  C133  1  0.35410000  0.81370000  0.39312000  1.0 -0.4491644471
C  C134  1  0.43560000  0.16540000  0.44177000  1.0 0.6805685276
C  C135  1  0.57390000  0.07170000  0.29185000  1.0 -0.461014714
C  C136  1  0.40420000  0.03280000  0.30815000  1.0 0.139682229
C  C137  1  0.40410000  0.08440000  0.29572000  1.0 -0.2564738266
C  C138  1  0.45850000  0.13050000  0.28237000  1.0 0.1828581159
C  C139  1  0.51300000  0.12500000  0.28145000  1.0 -0.2564738266
C  C140  1  0.51310000  0.07340000  0.29388000  1.0 0.139682229
C  C141  1  0.45875000  0.02725000  0.30723000  1.0 -0.049430759
C  C142  1  0.38970000  0.14580000  0.46641000  1.0 -0.5692043688
C  C143  1  0.63890000  0.97330000  0.43930000  1.0 -0.416693097
C  C144  1  0.45140000  0.18620000  0.26900000  1.0 -0.4491644471
C  C145  1  0.35870000  0.34170000  0.15553000  1.0 -0.4104449603
C  C146  1  0.60620000  0.24800000  0.33333333  1.0 0.5565247848
C  C147  1  0.54320000  0.72340000  0.32623000  1.0 -0.4491644471
C  C148  1  0.55970000  0.41960000  0.26882000  1.0 -0.0060595286
C  C149  1  0.55350000  0.41571000  0.24054000  1.0 0.0889973546
C  C150  1  0.54690000  0.46168000  0.22619000  1.0 -0.064376888
C  C151  1  0.54660000  0.51162000  0.24013000  1.0 0.1876944326
C  C152  1  0.55290000  0.51561000  0.26842000  1.0 -0.0060595286
C  C153  1  0.55940000  0.46954000  0.28277000  1.0 -0.1709737863
C  C154  1  0.64570000  0.39787000  0.13625000  1.0 -0.1492937237
C  C155  1  0.68630000  0.39176000  0.11793000  1.0 -0.0918214658
C  C156  1  0.71050000  0.43256000  0.09560000  1.0 -0.049430759
C  C157  1  0.69420000  0.47960000  0.09158000  1.0 -0.0985608075
C  C158  1  0.65360000  0.48566000  0.10990000  1.0 -0.1492937237
C  C159  1  0.62940000  0.44487000  0.13223000  1.0 0.0889973546
C  C160  1  0.75120000  0.42500000  0.07485000  1.0 0.6170913293
C  C161  1  0.54550000  0.30430000  0.32435000  1.0 -0.0828218869
C  C162  1  0.59260000  0.29046000  0.31662000  1.0 -0.049430759
C  C163  1  0.62860000  0.31806000  0.29322000  1.0 -0.0918214658
C  C164  1  0.61760000  0.35960000  0.27756000  1.0 -0.1492937237
C  C165  1  0.57050000  0.37342000  0.28529000  1.0 0.0889973546
C  C166  1  0.53450000  0.34583000  0.30868000  1.0 -0.1492937237
C  C167  1  0.43330000  0.49450000  0.29527000  1.0 -0.461014714
C  C168  1  0.54950000  0.56919000  0.28369000  1.0 -0.049430759
C  C169  1  0.49260000  0.55950000  0.29503000  1.0 0.1485682781
C  C170  1  0.49090000  0.60880000  0.30882000  1.0 -0.2564738266
C  C171  1  0.54620000  0.66800000  0.31127000  1.0 0.1876944326
C  C172  1  0.60300000  0.67770000  0.29992000  1.0 -0.2663540777
C  C173  1  0.60470000  0.62830000  0.28613000  1.0 0.139682229
C  C174  1  0.65380000  0.46720000  0.19228000  1.0 -0.4436506714
C  C175  1  0.54640000  0.46279000  0.19503000  1.0 -0.0695529703
C  C176  1  0.59040000  0.45608000  0.17917000  1.0 0.0993685275
C  C177  1  0.58270000  0.44956000  0.15098000  1.0 -0.018439797
C  C178  1  0.53100000  0.44970000  0.13864000  1.0 -0.1785315212
C  C179  1  0.48700000  0.45645000  0.15450000  1.0 -0.0025990265
C  C180  1  0.49470000  0.46297000  0.18269000  1.0 0.1876944326
C  C181  1  0.54040000  0.35410000  0.22645000  1.0 -0.4491644471
C  C182  1  0.27020000  0.43560000  0.27510000  1.0 0.6805685276
C  C183  1  0.50220000  0.57390000  0.12518000  1.0 -0.461014714
C  C184  1  0.37140000  0.40420000  0.14148000  1.0 0.139682229
C  C185  1  0.31970000  0.40410000  0.12905000  1.0 -0.2564738266
C  C186  1  0.32800000  0.45850000  0.11570000  1.0 0.1828581159
C  C187  1  0.38800000  0.51300000  0.11478000  1.0 -0.2564738266
C  C188  1  0.43970000  0.51310000  0.12721000  1.0 0.139682229
C  C189  1  0.43150000  0.45875000  0.14056000  1.0 -0.049430759
C  C190  1  0.24390000  0.38970000  0.29974000  1.0 -0.5692043688
C  C191  1  0.66560000  0.63890000  0.27263000  1.0 -0.416693097
C  C192  1  0.26520000  0.45140000  0.10233000  1.0 -0.4491644471
C  C193  1  0.98300000  0.64130000  0.48887000  1.0 -0.4104449603
C  C194  1  0.64180000  0.39380000  0.66666667  1.0 0.5565247848
C  C195  1  0.18020000  0.45680000  0.65957000  1.0 -0.4491644471
C  C196  1  0.85990000  0.44030000  0.60216000  1.0 -0.0060595286
C  C197  1  0.86221000  0.44650000  0.57388000  1.0 0.0889973546
C  C198  1  0.91478000  0.45310000  0.55953000  1.0 -0.0695529703
C  C199  1  0.96502000  0.45340000  0.57347000  1.0 0.1876944326
C  C200  1  0.96271000  0.44710000  0.60176000  1.0 -0.0060595286
C  C201  1  0.91014000  0.44060000  0.61611000  1.0 -0.1709737863
C  C202  1  0.75217000  0.35430000  0.46959000  1.0 -0.1492937237
C  C203  1  0.70546000  0.31370000  0.45127000  1.0 -0.0918214658
C  C204  1  0.72206000  0.28950000  0.42894000  1.0 -0.049430759
C  C205  1  0.78540000  0.30580000  0.42492000  1.0 -0.0985608075
C  C206  1  0.83206000  0.34640000  0.44324000  1.0 -0.1492937237
C  C207  1  0.81547000  0.37060000  0.46557000  1.0 0.0889973546
C  C208  1  0.67380000  0.24880000  0.40819000  1.0 0.6170913293
C  C209  1  0.75880000  0.45450000  0.65769000  1.0 -0.0828218869
C  C210  1  0.69786000  0.40740000  0.64996000  1.0 -0.049430759
C  C211  1  0.68946000  0.37140000  0.62656000  1.0 -0.0918214658
C  C212  1  0.74200000  0.38240000  0.61090000  1.0 -0.1492937237
C  C213  1  0.80292000  0.42950000  0.61863000  1.0 0.0889973546
C  C214  1  0.81133000  0.46550000  0.64202000  1.0 -0.1492937237
C  C215  1  0.06120000  0.56670000  0.62861000  1.0 -0.461014714
C  C216  1  0.01969000  0.45050000  0.61703000  1.0 -0.049430759
C  C217  1  0.06690000  0.50740000  0.62837000  1.0 0.1485682781
C  C218  1  0.11790000  0.50910000  0.64216000  1.0 -0.2564738266
C  C219  1  0.12180000  0.45380000  0.64461000  1.0 0.1876944326
C  C220  1  0.07470000  0.39700000  0.63326000  1.0 -0.2663540777
C  C221  1  0.02360000  0.39530000  0.61947000  1.0 0.139682229
C  C222  1  0.81340000  0.34620000  0.52562000  1.0 -0.4436506714
C  C223  1  0.91639000  0.45360000  0.52837000  1.0 -0.0695529703
C  C224  1  0.86568000  0.40960000  0.51251000  1.0 0.0993685275
C  C225  1  0.86686000  0.41730000  0.48432000  1.0 -0.018439797
C  C226  1  0.91870000  0.46900000  0.47198000  1.0 -0.1785315212
C  C227  1  0.96945000  0.51300000  0.48784000  1.0 -0.0025990265
C  C228  1  0.96827000  0.50530000  0.51603000  1.0 0.1876944326
C  C229  1  0.81370000  0.45960000  0.55979000  1.0 -0.4491644471
C  C230  1  0.16540000  0.72980000  0.60844000  1.0 0.6805685276
C  C231  1  0.07170000  0.49780000  0.45852000  1.0 -0.461014714
C  C232  1  0.03280000  0.62860000  0.47482000  1.0 0.139682229
C  C233  1  0.08440000  0.68030000  0.46239000  1.0 -0.2564738266
C  C234  1  0.13050000  0.67200000  0.44904000  1.0 0.1828581159
C  C235  1  0.12500000  0.61200000  0.44812000  1.0 -0.2564738266
C  C236  1  0.07340000  0.56030000  0.46055000  1.0 0.139682229
C  C237  1  0.02725000  0.56850000  0.47390000  1.0 -0.049430759
C  C238  1  0.14580000  0.75610000  0.63308000  1.0 -0.5692043688
C  C239  1  0.97330000  0.33440000  0.60597000  1.0 -0.416693097
C  C240  1  0.18620000  0.73480000  0.43567000  1.0 -0.4491644471
C  C241  1  0.65830000  0.01700000  0.82220000  1.0 -0.4104449603
C  C242  1  0.75200000  0.35820000  0.00002000  1.0 0.5565247848
C  C243  1  0.27660000  0.81980000  0.99290000  1.0 -0.4491644471
C  C244  1  0.58040000  0.14010000  0.93549000  1.0 -0.0060595286
C  C245  1  0.58429000  0.13779000  0.90721000  1.0 0.0889973546
C  C246  1  0.53832000  0.08522000  0.89286000  1.0 -0.064376888
C  C247  1  0.48838000  0.03498000  0.90680000  1.0 0.1876944326
C  C248  1  0.48439000  0.03729000  0.93509000  1.0 -0.0060595286
C  C249  1  0.53046000  0.08986000  0.94944000  1.0 -0.1709737863
C  C250  1  0.60213000  0.24783000  0.80292000  1.0 -0.1492937237
C  C251  1  0.60824000  0.29454000  0.78460000  1.0 -0.0918214658
C  C252  1  0.56744000  0.27794000  0.76227000  1.0 -0.049430759
C  C253  1  0.52040000  0.21460000  0.75825000  1.0 -0.0985608075
C  C254  1  0.51434000  0.16794000  0.77657000  1.0 -0.1492937237
C  C255  1  0.55513000  0.18453000  0.79890000  1.0 0.0889973546
C  C256  1  0.57500000  0.32620000  0.74152000  1.0 0.6170913293
C  C257  1  0.69570000  0.24120000  0.99102000  1.0 -0.0828218869
C  C258  1  0.70954000  0.30214000  0.98329000  1.0 -0.049430759
C  C259  1  0.68194000  0.31054000  0.95989000  1.0 -0.0918214658
C  C260  1  0.64040000  0.25800000  0.94423000  1.0 -0.1492937237
C  C261  1  0.62658000  0.19708000  0.95196000  1.0 0.0889973546
C  C262  1  0.65417000  0.18867000  0.97535000  1.0 -0.1492937237
C  C263  1  0.50550000  0.93880000  0.96194000  1.0 -0.461014714
C  C264  1  0.43081000  0.98031000  0.95036000  1.0 -0.049430759
C  C265  1  0.44050000  0.93310000  0.96170000  1.0 0.1485682781
C  C266  1  0.39120000  0.88210000  0.97549000  1.0 -0.2564738266
C  C267  1  0.33200000  0.87820000  0.97794000  1.0 0.1876944326
C  C268  1  0.32230000  0.92530000  0.96659000  1.0 -0.2663540777
C  C269  1  0.37170000  0.97640000  0.95280000  1.0 0.139682229
C  C270  1  0.53280000  0.18660000  0.85895000  1.0 -0.4436506714
C  C271  1  0.53721000  0.08361000  0.86170000  1.0 -0.0695529703
C  C272  1  0.54392000  0.13432000  0.84584000  1.0 0.0993685275
C  C273  1  0.55044000  0.13314000  0.81765000  1.0 -0.018439797
C  C274  1  0.55030000  0.08130000  0.80531000  1.0 -0.1785315212
C  C275  1  0.54355000  0.03055000  0.82117000  1.0 -0.0025990265
C  C276  1  0.53703000  0.03173000  0.84936000  1.0 0.1876944326
C  C277  1  0.64590000  0.18630000  0.89312000  1.0 -0.4491644471
C  C278  1  0.56440000  0.83460000  0.94177000  1.0 0.6805685276
C  C279  1  0.42610000  0.92830000  0.79185000  1.0 -0.461014714
C  C280  1  0.59580000  0.96720000  0.80815000  1.0 0.139682229
C  C281  1  0.59590000  0.91560000  0.79572000  1.0 -0.2564738266
C  C282  1  0.54150000  0.86950000  0.78237000  1.0 0.1828581159
C  C283  1  0.48700000  0.87500000  0.78145000  1.0 -0.2564738266
C  C284  1  0.48690000  0.92660000  0.79388000  1.0 0.139682229
C  C285  1  0.54125000  0.97275000  0.80723000  1.0 -0.049430759
C  C286  1  0.61030000  0.85420000  0.96641000  1.0 -0.5692043688
C  C287  1  0.36110000  0.02670000  0.93930000  1.0 -0.416693097
C  C288  1  0.54860000  0.81380000  0.76900000  1.0 -0.4491644471
C  C289  1  0.98300000  0.34170000  0.34447000  1.0 -0.4104449603
C  C290  1  0.64180000  0.24800000  0.16665000  1.0 0.5565247848
C  C291  1  0.18020000  0.72340000  0.17377000  1.0 -0.4491644471
C  C292  1  0.85990000  0.41960000  0.23118000  1.0 -0.0060595286
C  C293  1  0.86221000  0.41571000  0.25946000  1.0 0.0993685275
C  C294  1  0.91478000  0.46168000  0.27381000  1.0 -0.0695529703
C  C295  1  0.96502000  0.51162000  0.25987000  1.0 0.1876944326
C  C296  1  0.96271000  0.51561000  0.23158000  1.0 -0.0060595286
C  C297  1  0.91014000  0.46954000  0.21723000  1.0 -0.1709737863
C  C298  1  0.75217000  0.39787000  0.36375000  1.0 -0.1492937237
C  C299  1  0.70546000  0.39176000  0.38207000  1.0 -0.0918214658
C  C300  1  0.72206000  0.43256000  0.40440000  1.0 -0.049430759
C  C301  1  0.78540000  0.47960000  0.40842000  1.0 -0.0985608075
C  C302  1  0.83206000  0.48566000  0.39010000  1.0 -0.1492937237
C  C303  1  0.81547000  0.44487000  0.36777000  1.0 0.0889973546
C  C304  1  0.67380000  0.42500000  0.42515000  1.0 0.6170913293
C  C305  1  0.75880000  0.30430000  0.17565000  1.0 -0.0828218869
C  C306  1  0.69786000  0.29046000  0.18338000  1.0 -0.049430759
C  C307  1  0.68946000  0.31806000  0.20678000  1.0 -0.0918214658
C  C308  1  0.74200000  0.35960000  0.22244000  1.0 -0.1492937237
C  C309  1  0.80292000  0.37342000  0.21471000  1.0 0.0889973546
C  C310  1  0.81133000  0.34583000  0.19132000  1.0 -0.1492937237
C  C311  1  0.06120000  0.49450000  0.20473000  1.0 -0.461014714
C  C312  1  0.01969000  0.56919000  0.21631000  1.0 -0.049430759
C  C313  1  0.06690000  0.55950000  0.20497000  1.0 0.1485682781
C  C314  1  0.11790000  0.60880000  0.19118000  1.0 -0.2564738266
C  C315  1  0.12180000  0.66800000  0.18873000  1.0 0.1876944326
C  C316  1  0.07470000  0.67770000  0.20008000  1.0 -0.2663540777
C  C317  1  0.02360000  0.62830000  0.21387000  1.0 0.139682229
C  C318  1  0.81340000  0.46720000  0.30772000  1.0 -0.4436506714
C  C319  1  0.91639000  0.46279000  0.30497000  1.0 -0.0695529703
C  C320  1  0.86568000  0.45608000  0.32083000  1.0 0.0993685275
C  C321  1  0.86686000  0.44956000  0.34902000  1.0 -0.018439797
C  C322  1  0.91870000  0.44970000  0.36136000  1.0 -0.1785315212
C  C323  1  0.96945000  0.45645000  0.34550000  1.0 -0.0025990265
C  C324  1  0.96827000  0.46297000  0.31731000  1.0 0.1876944326
C  C325  1  0.81370000  0.35410000  0.27355000  1.0 -0.4491644471
C  C326  1  0.16540000  0.43560000  0.22490000  1.0 0.6805685276
C  C327  1  0.07170000  0.57390000  0.37482000  1.0 -0.461014714
C  C328  1  0.03280000  0.40420000  0.35852000  1.0 0.139682229
C  C329  1  0.08440000  0.40410000  0.37095000  1.0 -0.2547237959
C  C330  1  0.13050000  0.45850000  0.38430000  1.0 0.1828581159
C  C331  1  0.12500000  0.51300000  0.38522000  1.0 -0.2564738266
C  C332  1  0.07340000  0.51310000  0.37279000  1.0 0.139682229
C  C333  1  0.02725000  0.45875000  0.35944000  1.0 -0.049430759
C  C334  1  0.14580000  0.38970000  0.20026000  1.0 -0.5692043688
C  C335  1  0.97330000  0.63890000  0.22737000  1.0 -0.416693097
C  C336  1  0.18620000  0.45140000  0.39767000  1.0 -0.4491644471
C  C337  1  0.65830000  0.64130000  0.01113000  1.0 -0.4104449603
C  C338  1  0.75200000  0.39380000  0.83331000  1.0 0.5565247848
C  C339  1  0.27660000  0.45680000  0.84043000  1.0 -0.4491644471
C  C340  1  0.58040000  0.44030000  0.89784000  1.0 -0.0060595286
C  C341  1  0.58429000  0.44650000  0.92612000  1.0 0.0889973546
C  C342  1  0.53832000  0.45310000  0.94047000  1.0 -0.064376888
C  C343  1  0.48838000  0.45340000  0.92653000  1.0 0.1876944326
C  C344  1  0.48439000  0.44710000  0.89824000  1.0 -0.0025990265
C  C345  1  0.53046000  0.44060000  0.88389000  1.0 -0.1709737863
C  C346  1  0.60213000  0.35430000  0.03041000  1.0 -0.1492937237
C  C347  1  0.60824000  0.31370000  0.04873000  1.0 -0.0918214658
C  C348  1  0.56744000  0.28950000  0.07106000  1.0 -0.049430759
C  C349  1  0.52040000  0.30580000  0.07508000  1.0 -0.0985608075
C  C350  1  0.51434000  0.34640000  0.05676000  1.0 -0.1492937237
C  C351  1  0.55513000  0.37060000  0.03443000  1.0 0.0889973546
C  C352  1  0.57500000  0.24880000  0.09181000  1.0 0.6170913293
C  C353  1  0.69570000  0.45450000  0.84231000  1.0 -0.0828218869
C  C354  1  0.70954000  0.40740000  0.85004000  1.0 -0.049430759
C  C355  1  0.68194000  0.37140000  0.87344000  1.0 -0.0918214658
C  C356  1  0.64040000  0.38240000  0.88910000  1.0 -0.1492937237
C  C357  1  0.62658000  0.42950000  0.88137000  1.0 0.0889973546
C  C358  1  0.65417000  0.46550000  0.85798000  1.0 -0.1492937237
C  C359  1  0.50550000  0.56670000  0.87139000  1.0 -0.461014714
C  C360  1  0.43081000  0.45050000  0.88297000  1.0 -0.049430759
C  C361  1  0.44050000  0.50740000  0.87163000  1.0 0.1485682781
C  C362  1  0.39120000  0.50910000  0.85784000  1.0 -0.2564738266
C  C363  1  0.33200000  0.45380000  0.85539000  1.0 0.1876944326
C  C364  1  0.32230000  0.39700000  0.86674000  1.0 -0.2663540777
C  C365  1  0.37170000  0.39530000  0.88053000  1.0 0.139682229
C  C366  1  0.53280000  0.34620000  0.97438000  1.0 -0.4436506714
C  C367  1  0.53721000  0.45360000  0.97163000  1.0 -0.0695529703
C  C368  1  0.54392000  0.40960000  0.98749000  1.0 0.0993685275
C  C369  1  0.55044000  0.41730000  0.01568000  1.0 -0.018439797
C  C370  1  0.55030000  0.46900000  0.02802000  1.0 -0.1785315212
C  C371  1  0.54355000  0.51300000  0.01216000  1.0 -0.0025990265
C  C372  1  0.53703000  0.50530000  0.98397000  1.0 0.1876944326
C  C373  1  0.64590000  0.45960000  0.94021000  1.0 -0.4491644471
C  C374  1  0.56440000  0.72980000  0.89156000  1.0 0.6805685276
C  C375  1  0.42610000  0.49780000  0.04148000  1.0 -0.461014714
C  C376  1  0.59580000  0.62860000  0.02518000  1.0 0.139682229
C  C377  1  0.59590000  0.68030000  0.03761000  1.0 -0.2564738266
C  C378  1  0.54150000  0.67200000  0.05096000  1.0 0.1828581159
C  C379  1  0.48700000  0.61200000  0.05188000  1.0 -0.2564738266
C  C380  1  0.48690000  0.56030000  0.03945000  1.0 0.139682229
C  C381  1  0.54125000  0.56850000  0.02610000  1.0 -0.049430759
C  C382  1  0.61030000  0.75610000  0.86692000  1.0 -0.5692043688
C  C383  1  0.36110000  0.33440000  0.89403000  1.0 -0.416693097
C  C384  1  0.54860000  0.73480000  0.06433000  1.0 -0.4491644471
C  C385  1  0.35870000  0.01700000  0.67780000  1.0 -0.4104449603
C  C386  1  0.60620000  0.35820000  0.49998000  1.0 0.5565247848
C  C387  1  0.54320000  0.81980000  0.50710000  1.0 -0.4491644471
C  C388  1  0.55970000  0.14010000  0.56451000  1.0 -0.0060595286
C  C389  1  0.55350000  0.13779000  0.59279000  1.0 0.0993685275
C  C390  1  0.54690000  0.08522000  0.60714000  1.0 -0.0695529703
C  C391  1  0.54660000  0.03498000  0.59320000  1.0 0.1876944326
C  C392  1  0.55290000  0.03729000  0.56491000  1.0 -0.0060595286
C  C393  1  0.55940000  0.08986000  0.55056000  1.0 -0.1709737863
C  C394  1  0.64570000  0.24783000  0.69708000  1.0 -0.1492937237
C  C395  1  0.68630000  0.29454000  0.71540000  1.0 -0.0918214658
C  C396  1  0.71050000  0.27794000  0.73773000  1.0 -0.049430759
C  C397  1  0.69420000  0.21460000  0.74175000  1.0 -0.0985608075
C  C398  1  0.65360000  0.16794000  0.72343000  1.0 -0.1492937237
C  C399  1  0.62940000  0.18453000  0.70110000  1.0 0.0889973546
C  C400  1  0.75120000  0.32620000  0.75848000  1.0 0.6170913293
C  C401  1  0.54550000  0.24120000  0.50898000  1.0 -0.0828218869
C  C402  1  0.59260000  0.30214000  0.51671000  1.0 -0.049430759
C  C403  1  0.62860000  0.31054000  0.54011000  1.0 -0.0918214658
C  C404  1  0.61760000  0.25800000  0.55577000  1.0 -0.1492937237
C  C405  1  0.57050000  0.19708000  0.54804000  1.0 0.0889973546
C  C406  1  0.53450000  0.18867000  0.52465000  1.0 -0.1492937237
C  C407  1  0.43330000  0.93880000  0.53806000  1.0 -0.461014714
C  C408  1  0.54950000  0.98031000  0.54964000  1.0 -0.049430759
C  C409  1  0.49260000  0.93310000  0.53830000  1.0 0.1485682781
C  C410  1  0.49090000  0.88210000  0.52451000  1.0 -0.2564738266
C  C411  1  0.54620000  0.87820000  0.52206000  1.0 0.1876944326
C  C412  1  0.60300000  0.92530000  0.53341000  1.0 -0.2663540777
C  C413  1  0.60470000  0.97640000  0.54720000  1.0 0.139682229
C  C414  1  0.65380000  0.18660000  0.64105000  1.0 -0.4436506714
C  C415  1  0.54640000  0.08361000  0.63830000  1.0 -0.0695529703
C  C416  1  0.59040000  0.13432000  0.65416000  1.0 0.0993685275
C  C417  1  0.58270000  0.13314000  0.68235000  1.0 -0.018439797
C  C418  1  0.53100000  0.08130000  0.69469000  1.0 -0.1785315212
C  C419  1  0.48700000  0.03055000  0.67883000  1.0 -0.0025990265
C  C420  1  0.49470000  0.03173000  0.65064000  1.0 0.1876944326
C  C421  1  0.54040000  0.18630000  0.60688000  1.0 -0.4491644471
C  C422  1  0.27020000  0.83460000  0.55823000  1.0 0.6805685276
C  C423  1  0.50220000  0.92830000  0.70815000  1.0 -0.461014714
C  C424  1  0.37140000  0.96720000  0.69185000  1.0 0.139682229
C  C425  1  0.31970000  0.91560000  0.70428000  1.0 -0.2564738266
C  C426  1  0.32800000  0.86950000  0.71763000  1.0 0.1828581159
C  C427  1  0.38800000  0.87500000  0.71855000  1.0 -0.2564738266
C  C428  1  0.43970000  0.92660000  0.70612000  1.0 0.139682229
C  C429  1  0.43150000  0.97275000  0.69277000  1.0 -0.049430759
C  C430  1  0.24390000  0.85420000  0.53359000  1.0 -0.5692043688
C  C431  1  0.66560000  0.02670000  0.56070000  1.0 -0.416693097
C  C432  1  0.26520000  0.81380000  0.73100000  1.0 -0.4491644471
C  C433  1  0.01700000  0.65830000  0.84447000  1.0 -0.4104449603
C  C434  1  0.35820000  0.75200000  0.66666667  1.0 0.5565247848
C  C435  1  0.81980000  0.27660000  0.67377000  1.0 -0.4491644471
C  C436  1  0.14010000  0.58040000  0.73118000  1.0 -0.0060595286
C  C437  1  0.13779000  0.58429000  0.75946000  1.0 0.0889973546
C  C438  1  0.08522000  0.53832000  0.77381000  1.0 -0.064376888
C  C439  1  0.03498000  0.48838000  0.75987000  1.0 0.1876944326
C  C440  1  0.03729000  0.48439000  0.73158000  1.0 -0.0060595286
C  C441  1  0.08986000  0.53046000  0.71723000  1.0 -0.1709737863
C  C442  1  0.24783000  0.60213000  0.86375000  1.0 -0.1492937237
C  C443  1  0.29454000  0.60824000  0.88207000  1.0 -0.0918214658
C  C444  1  0.27794000  0.56744000  0.90440000  1.0 -0.049430759
C  C445  1  0.21460000  0.52040000  0.90842000  1.0 -0.0985608075
C  C446  1  0.16794000  0.51434000  0.89010000  1.0 -0.1492937237
C  C447  1  0.18453000  0.55513000  0.86777000  1.0 0.0889973546
C  C448  1  0.32620000  0.57500000  0.92515000  1.0 0.6170913293
C  C449  1  0.24120000  0.69570000  0.67565000  1.0 -0.0828218869
C  C450  1  0.30214000  0.70954000  0.68338000  1.0 -0.049430759
C  C451  1  0.31054000  0.68194000  0.70678000  1.0 -0.0918214658
C  C452  1  0.25800000  0.64040000  0.72244000  1.0 -0.1492937237
C  C453  1  0.19708000  0.62658000  0.71471000  1.0 0.0889973546
C  C454  1  0.18867000  0.65417000  0.69132000  1.0 -0.1492937237
C  C455  1  0.93880000  0.50550000  0.70473000  1.0 -0.461014714
C  C456  1  0.98031000  0.43081000  0.71631000  1.0 -0.049430759
C  C457  1  0.93310000  0.44050000  0.70497000  1.0 0.1485682781
C  C458  1  0.88210000  0.39120000  0.69118000  1.0 -0.2564738266
C  C459  1  0.87820000  0.33200000  0.68873000  1.0 0.1876944326
C  C460  1  0.92530000  0.32230000  0.70008000  1.0 -0.2663540777
C  C461  1  0.97640000  0.37170000  0.71387000  1.0 0.139682229
C  C462  1  0.18660000  0.53280000  0.80772000  1.0 -0.4436506714
C  C463  1  0.08361000  0.53721000  0.80497000  1.0 -0.0695529703
C  C464  1  0.13432000  0.54392000  0.82083000  1.0 0.0993685275
C  C465  1  0.13314000  0.55044000  0.84902000  1.0 -0.018439797
C  C466  1  0.08130000  0.55030000  0.86136000  1.0 -0.1785315212
C  C467  1  0.03055000  0.54355000  0.84550000  1.0 -0.0025990265
C  C468  1  0.03173000  0.53703000  0.81731000  1.0 0.1876944326
C  C469  1  0.18630000  0.64590000  0.77355000  1.0 -0.4491644471
C  C470  1  0.83460000  0.56440000  0.72490000  1.0 0.6805685276
C  C471  1  0.92830000  0.42610000  0.87482000  1.0 -0.461014714
C  C472  1  0.96720000  0.59580000  0.85852000  1.0 0.139682229
C  C473  1  0.91560000  0.59590000  0.87095000  1.0 -0.2564738266
C  C474  1  0.86950000  0.54150000  0.88430000  1.0 0.1828581159
C  C475  1  0.87500000  0.48700000  0.88522000  1.0 -0.2564738266
C  C476  1  0.92660000  0.48690000  0.87279000  1.0 0.139682229
C  C477  1  0.97275000  0.54125000  0.85944000  1.0 -0.049430759
C  C478  1  0.85420000  0.61030000  0.70026000  1.0 -0.5692043688
C  C479  1  0.02670000  0.36110000  0.72737000  1.0 -0.416693097
C  C480  1  0.81380000  0.54860000  0.89767000  1.0 -0.4491644471
C  C481  1  0.34170000  0.35870000  0.51113000  1.0 -0.4104449603
C  C482  1  0.24800000  0.60620000  0.33333333  1.0 0.5565247848
C  C483  1  0.72340000  0.54320000  0.34043000  1.0 -0.4491644471
C  C484  1  0.41960000  0.55970000  0.39784000  1.0 -0.0060595286
C  C485  1  0.41571000  0.55350000  0.42612000  1.0 0.0889973546
C  C486  1  0.46168000  0.54690000  0.44047000  1.0 -0.0695529703
C  C487  1  0.51162000  0.54660000  0.42653000  1.0 0.1876944326
C  C488  1  0.51561000  0.55290000  0.39824000  1.0 -0.0060595286
C  C489  1  0.46954000  0.55940000  0.38389000  1.0 -0.1709737863
C  C490  1  0.39787000  0.64570000  0.53041000  1.0 -0.1492937237
C  C491  1  0.39176000  0.68630000  0.54873000  1.0 -0.0918214658
C  C492  1  0.43256000  0.71050000  0.57106000  1.0 -0.049430759
C  C493  1  0.47960000  0.69420000  0.57508000  1.0 -0.0985608075
C  C494  1  0.48566000  0.65360000  0.55676000  1.0 -0.1492937237
C  C495  1  0.44487000  0.62940000  0.53443000  1.0 0.0889973546
C  C496  1  0.42500000  0.75120000  0.59181000  1.0 0.6170913293
C  C497  1  0.30430000  0.54550000  0.34231000  1.0 -0.0828218869
C  C498  1  0.29046000  0.59260000  0.35004000  1.0 -0.049430759
C  C499  1  0.31806000  0.62860000  0.37344000  1.0 -0.0918214658
C  C500  1  0.35960000  0.61760000  0.38910000  1.0 -0.1492937237
C  C501  1  0.37342000  0.57050000  0.38137000  1.0 0.0889973546
C  C502  1  0.34583000  0.53450000  0.35798000  1.0 -0.1492937237
C  C503  1  0.49450000  0.43330000  0.37139000  1.0 -0.461014714
C  C504  1  0.56919000  0.54950000  0.38297000  1.0 -0.049430759
C  C505  1  0.55950000  0.49260000  0.37163000  1.0 0.1485682781
C  C506  1  0.60880000  0.49090000  0.35784000  1.0 -0.2564738266
C  C507  1  0.66800000  0.54620000  0.35539000  1.0 0.1876944326
C  C508  1  0.67770000  0.60300000  0.36674000  1.0 -0.2663540777
C  C509  1  0.62830000  0.60470000  0.38053000  1.0 0.139682229
C  C510  1  0.46720000  0.65380000  0.47438000  1.0 -0.4436506714
C  C511  1  0.46279000  0.54640000  0.47163000  1.0 -0.0695529703
C  C512  1  0.45608000  0.59040000  0.48749000  1.0 0.0993685275
C  C513  1  0.44956000  0.58270000  0.51568000  1.0 -0.018439797
C  C514  1  0.44970000  0.53100000  0.52802000  1.0 -0.1785315212
C  C515  1  0.45645000  0.48700000  0.51216000  1.0 -0.0025990265
C  C516  1  0.46297000  0.49470000  0.48397000  1.0 0.1876944326
C  C517  1  0.35410000  0.54040000  0.44021000  1.0 -0.4491644471
C  C518  1  0.43560000  0.27020000  0.39156000  1.0 0.6805685276
C  C519  1  0.57390000  0.50220000  0.54148000  1.0 -0.461014714
C  C520  1  0.40420000  0.37140000  0.52518000  1.0 0.139682229
C  C521  1  0.40410000  0.31970000  0.53761000  1.0 -0.2564738266
C  C522  1  0.45850000  0.32800000  0.55096000  1.0 0.1828581159
C  C523  1  0.51300000  0.38800000  0.55188000  1.0 -0.2564738266
C  C524  1  0.51310000  0.43970000  0.53945000  1.0 0.139682229
C  C525  1  0.45875000  0.43150000  0.52610000  1.0 -0.049430759
C  C526  1  0.38970000  0.24390000  0.36692000  1.0 -0.5692043688
C  C527  1  0.63890000  0.66560000  0.39403000  1.0 -0.416693097
C  C528  1  0.45140000  0.26520000  0.56433000  1.0 -0.4491644471
C  C529  1  0.64130000  0.98300000  0.17780000  1.0 -0.4104449603
C  C530  1  0.39380000  0.64180000  0.99998000  1.0 0.5565247848
C  C531  1  0.45680000  0.18020000  0.00710000  1.0 -0.4491644471
C  C532  1  0.44030000  0.85990000  0.06451000  1.0 -0.0060595286
C  C533  1  0.44650000  0.86221000  0.09279000  1.0 0.0889973546
C  C534  1  0.45310000  0.91478000  0.10714000  1.0 -0.0695529703
C  C535  1  0.45340000  0.96502000  0.09320000  1.0 0.1876944326
C  C536  1  0.44710000  0.96271000  0.06491000  1.0 -0.0025990265
C  C537  1  0.44060000  0.91014000  0.05056000  1.0 -0.1709737863
C  C538  1  0.35430000  0.75217000  0.19708000  1.0 -0.1492937237
C  C539  1  0.31370000  0.70546000  0.21540000  1.0 -0.0918214658
C  C540  1  0.28950000  0.72206000  0.23773000  1.0 -0.049430759
C  C541  1  0.30580000  0.78540000  0.24175000  1.0 -0.0985608075
C  C542  1  0.34640000  0.83206000  0.22343000  1.0 -0.1492937237
C  C543  1  0.37060000  0.81547000  0.20110000  1.0 0.0889973546
C  C544  1  0.24880000  0.67380000  0.25848000  1.0 0.6170913293
C  C545  1  0.45450000  0.75880000  0.00898000  1.0 -0.0828218869
C  C546  1  0.40740000  0.69786000  0.01671000  1.0 -0.049430759
C  C547  1  0.37140000  0.68946000  0.04011000  1.0 -0.0918214658
C  C548  1  0.38240000  0.74200000  0.05577000  1.0 -0.1492937237
C  C549  1  0.42950000  0.80292000  0.04804000  1.0 0.0889973546
C  C550  1  0.46550000  0.81133000  0.02465000  1.0 -0.1492937237
C  C551  1  0.56670000  0.06120000  0.03806000  1.0 -0.461014714
C  C552  1  0.45050000  0.01969000  0.04964000  1.0 -0.049430759
C  C553  1  0.50740000  0.06690000  0.03830000  1.0 0.1485682781
C  C554  1  0.50910000  0.11790000  0.02451000  1.0 -0.2564738266
C  C555  1  0.45380000  0.12180000  0.02206000  1.0 0.1876944326
C  C556  1  0.39700000  0.07470000  0.03341000  1.0 -0.2663540777
C  C557  1  0.39530000  0.02360000  0.04720000  1.0 0.139682229
C  C558  1  0.34620000  0.81340000  0.14105000  1.0 -0.4436506714
C  C559  1  0.45360000  0.91639000  0.13830000  1.0 -0.0695529703
C  C560  1  0.40960000  0.86568000  0.15416000  1.0 0.0993685275
C  C561  1  0.41730000  0.86686000  0.18235000  1.0 -0.018439797
C  C562  1  0.46900000  0.91870000  0.19469000  1.0 -0.1785315212
C  C563  1  0.51300000  0.96945000  0.17883000  1.0 -0.0025990265
C  C564  1  0.50530000  0.96827000  0.15064000  1.0 0.1876944326
C  C565  1  0.45960000  0.81370000  0.10688000  1.0 -0.4491644471
C  C566  1  0.72980000  0.16540000  0.05823000  1.0 0.6805685276
C  C567  1  0.49780000  0.07170000  0.20815000  1.0 -0.461014714
C  C568  1  0.62860000  0.03280000  0.19185000  1.0 0.139682229
C  C569  1  0.68030000  0.08440000  0.20428000  1.0 -0.2564738266
C  C570  1  0.67200000  0.13050000  0.21763000  1.0 0.1828581159
C  C571  1  0.61200000  0.12500000  0.21855000  1.0 -0.2564738266
C  C572  1  0.56030000  0.07340000  0.20612000  1.0 0.139682229
C  C573  1  0.56850000  0.02725000  0.19277000  1.0 -0.049430759
C  C574  1  0.75610000  0.14580000  0.03359000  1.0 -0.5692043688
C  C575  1  0.33440000  0.97330000  0.06070000  1.0 -0.416693097
C  C576  1  0.73480000  0.18620000  0.23100000  1.0 -0.4491644471
O  O1  1  0.45860000  0.44240000  0.72569000  1.0 -0.4104449603
O  O2  1  0.57430000  0.47150000  0.73168000  1.0 -0.7817841009
O  O3  1  0.54750000  0.52860000  0.69802000  1.0 -0.416693097
O  O4  1  0.24110000  0.62340000  0.57745000  1.0 -0.6295324873
O  O5  1  0.34840000  0.76090000  0.82628000  1.0 -0.6228085295
O  O6  1  0.42970000  0.78080000  0.85337000  1.0 -0.6295324873
O  O7  1  0.50710000  0.41050000  0.69055000  1.0 -0.8418649124
O  O8  1  0.22740000  0.53440000  0.55592000  1.0 -0.6466875162
O  O9  1  0.72670000  0.51090000  0.77637000  1.0 -0.6972901012
O  O10  1  0.71370000  0.58190000  0.75445000  1.0 -0.5811267233
O  O11  1  0.98380000  0.54140000  0.05903000  1.0 -0.4104449603
O  O12  1  0.89720000  0.42570000  0.06502000  1.0 -0.7817841009
O  O13  1  0.98110000  0.45250000  0.03136000  1.0 -0.416693097
O  O14  1  0.38230000  0.75890000  0.91079000  1.0 -0.6295324873
O  O15  1  0.41250000  0.65160000  0.15962000  1.0 -0.6228085295
O  O16  1  0.35110000  0.57030000  0.18671000  1.0 -0.6295324873
O  O17  1  0.90340000  0.49290000  0.02389000  1.0 -0.8418649124
O  O18  1  0.30700000  0.77260000  0.88926000  1.0 -0.6466875162
O  O19  1  0.78420000  0.27330000  0.10971000  1.0 -0.6972901012
O  O20  1  0.86820000  0.28630000  0.08779000  1.0 -0.5811267233
O  O21  1  0.55760000  0.01620000  0.39236000  1.0 -0.4104449603
O  O22  1  0.52850000  0.10280000  0.39835000  1.0 -0.7817841009
O  O23  1  0.47140000  0.01890000  0.36469000  1.0 -0.416693097
O  O24  1  0.37660000  0.61770000  0.24412000  1.0 -0.6295324873
O  O25  1  0.23910000  0.58750000  0.49295000  1.0 -0.6228085295
O  O26  1  0.21920000  0.64890000  0.52004000  1.0 -0.6295324873
O  O27  1  0.58950000  0.09660000  0.35722000  1.0 -0.8418649124
O  O28  1  0.46560000  0.69300000  0.22259000  1.0 -0.6466875162
O  O29  1  0.48910000  0.21580000  0.44304000  1.0 -0.6972901012
O  O30  1  0.41810000  0.13180000  0.42112000  1.0 -0.5811267233
O  O31  1  0.54140000  0.55760000  0.22569000  1.0 -0.416693097
O  O32  1  0.42570000  0.52850000  0.23168000  1.0 -0.7817841009
O  O33  1  0.45250000  0.47140000  0.19802000  1.0 -0.416693097
O  O34  1  0.75890000  0.37660000  0.07745000  1.0 -0.6295324873
O  O35  1  0.65160000  0.23910000  0.32628000  1.0 -0.6228085295
O  O36  1  0.57030000  0.21920000  0.35337000  1.0 -0.6295324873
O  O37  1  0.49290000  0.58950000  0.19055000  1.0 -0.8418649124
O  O38  1  0.77260000  0.46560000  0.05592000  1.0 -0.6466875162
O  O39  1  0.27330000  0.48910000  0.27637000  1.0 -0.6972901012
O  O40  1  0.28630000  0.41810000  0.25445000  1.0 -0.5811267233
O  O41  1  0.01620000  0.45860000  0.55903000  1.0 -0.416693097
O  O42  1  0.10280000  0.57430000  0.56502000  1.0 -0.7817841009
O  O43  1  0.01890000  0.54750000  0.53136000  1.0 -0.416693097
O  O44  1  0.61770000  0.24110000  0.41079000  1.0 -0.6295324873
O  O45  1  0.58750000  0.34840000  0.65962000  1.0 -0.6228085295
O  O46  1  0.64890000  0.42970000  0.68671000  1.0 -0.6295324873
O  O47  1  0.09660000  0.50710000  0.52389000  1.0 -0.8418649124
O  O48  1  0.69300000  0.22740000  0.38926000  1.0 -0.6466875162
O  O49  1  0.21580000  0.72670000  0.60971000  1.0 -0.6972901012
O  O50  1  0.13180000  0.71370000  0.58779000  1.0 -0.5811267233
O  O51  1  0.44240000  0.98380000  0.89236000  1.0 -0.416693097
O  O52  1  0.47150000  0.89720000  0.89835000  1.0 -0.7817841009
O  O53  1  0.52860000  0.98110000  0.86469000  1.0 -0.416693097
O  O54  1  0.62340000  0.38230000  0.74412000  1.0 -0.6295324873
O  O55  1  0.76090000  0.41250000  0.99295000  1.0 -0.6228085295
O  O56  1  0.78080000  0.35110000  0.02004000  1.0 -0.6295324873
O  O57  1  0.41050000  0.90340000  0.85722000  1.0 -0.8418649124
O  O58  1  0.53440000  0.30700000  0.72259000  1.0 -0.6466875162
O  O59  1  0.51090000  0.78420000  0.94304000  1.0 -0.6972901012
O  O60  1  0.58190000  0.86820000  0.92112000  1.0 -0.5811267233
O  O61  1  0.01620000  0.55760000  0.27431000  1.0 -0.416693097
O  O62  1  0.10280000  0.52850000  0.26832000  1.0 -0.7817841009
O  O63  1  0.01890000  0.47140000  0.30198000  1.0 -0.416693097
O  O64  1  0.61770000  0.37660000  0.42255000  1.0 -0.6295324873
O  O65  1  0.58750000  0.23910000  0.17372000  1.0 -0.6228085295
O  O66  1  0.64890000  0.21920000  0.14663000  1.0 -0.6295324873
O  O67  1  0.09660000  0.58950000  0.30945000  1.0 -0.8418649124
O  O68  1  0.69300000  0.46560000  0.44408000  1.0 -0.6466875162
O  O69  1  0.21580000  0.48910000  0.22363000  1.0 -0.6972901012
O  O70  1  0.13180000  0.41810000  0.24555000  1.0 -0.5811267233
O  O71  1  0.44240000  0.45860000  0.94097000  1.0 -0.4104449603
O  O72  1  0.47150000  0.57430000  0.93498000  1.0 -0.7817841009
O  O73  1  0.52860000  0.54750000  0.96864000  1.0 -0.416693097
O  O74  1  0.62340000  0.24110000  0.08921000  1.0 -0.6295324873
O  O75  1  0.76090000  0.34840000  0.84038000  1.0 -0.6228085295
O  O76  1  0.78080000  0.42970000  0.81329000  1.0 -0.6295324873
O  O77  1  0.41050000  0.50710000  0.97611000  1.0 -0.8418649124
O  O78  1  0.53440000  0.22740000  0.11074000  1.0 -0.6466875162
O  O79  1  0.51090000  0.72670000  0.89029000  1.0 -0.6972901012
O  O80  1  0.58190000  0.71370000  0.91221000  1.0 -0.5811267233
O  O81  1  0.54140000  0.98380000  0.60764000  1.0 -0.416693097
O  O82  1  0.42570000  0.89720000  0.60165000  1.0 -0.7817841009
O  O83  1  0.45250000  0.98110000  0.63531000  1.0 -0.416693097
O  O84  1  0.75890000  0.38230000  0.75588000  1.0 -0.6295324873
O  O85  1  0.65160000  0.41250000  0.50705000  1.0 -0.6228085295
O  O86  1  0.57030000  0.35110000  0.47996000  1.0 -0.6295324873
O  O87  1  0.49290000  0.90340000  0.64278000  1.0 -0.8418649124
O  O88  1  0.77260000  0.30700000  0.77741000  1.0 -0.6466875162
O  O89  1  0.27330000  0.78420000  0.55696000  1.0 -0.6972901012
O  O90  1  0.28630000  0.86820000  0.57888000  1.0 -0.5811267233
O  O91  1  0.98380000  0.44240000  0.77431000  1.0 -0.4104449603
O  O92  1  0.89720000  0.47150000  0.76832000  1.0 -0.7817841009
O  O93  1  0.98110000  0.52860000  0.80198000  1.0 -0.416693097
O  O94  1  0.38230000  0.62340000  0.92255000  1.0 -0.6295324873
O  O95  1  0.41250000  0.76090000  0.67372000  1.0 -0.6228085295
O  O96  1  0.35110000  0.78080000  0.64663000  1.0 -0.6295324873
O  O97  1  0.90340000  0.41050000  0.80945000  1.0 -0.8418649124
O  O98  1  0.30700000  0.53440000  0.94408000  1.0 -0.6466875162
O  O99  1  0.78420000  0.51090000  0.72363000  1.0 -0.6972901012
O  O100  1  0.86820000  0.58190000  0.74555000  1.0 -0.5811267233
O  O101  1  0.55760000  0.54140000  0.44097000  1.0 -0.416693097
O  O102  1  0.52850000  0.42570000  0.43498000  1.0 -0.7817841009
O  O103  1  0.47140000  0.45250000  0.46864000  1.0 -0.416693097
O  O104  1  0.37660000  0.75890000  0.58921000  1.0 -0.6295324873
O  O105  1  0.23910000  0.65160000  0.34038000  1.0 -0.6228085295
O  O106  1  0.21920000  0.57030000  0.31329000  1.0 -0.6295324873
O  O107  1  0.58950000  0.49290000  0.47611000  1.0 -0.8418649124
O  O108  1  0.46560000  0.77260000  0.61074000  1.0 -0.6466875162
O  O109  1  0.48910000  0.27330000  0.39029000  1.0 -0.6972901012
O  O110  1  0.41810000  0.28630000  0.41221000  1.0 -0.5811267233
O  O111  1  0.45860000  0.01620000  0.10764000  1.0 -0.4104449603
O  O112  1  0.57430000  0.10280000  0.10165000  1.0 -0.7817841009
O  O113  1  0.54750000  0.01890000  0.13531000  1.0 -0.416693097
O  O114  1  0.24110000  0.61770000  0.25588000  1.0 -0.6295324873
O  O115  1  0.34840000  0.58750000  0.00705000  1.0 -0.6228085295
O  O116  1  0.42970000  0.64890000  0.97996000  1.0 -0.6295324873
O  O117  1  0.50710000  0.09660000  0.14278000  1.0 -0.8418649124
O  O118  1  0.22740000  0.69300000  0.27741000  1.0 -0.6466875162
O  O119  1  0.72670000  0.21580000  0.05696000  1.0 -0.6972901012
O  O120  1  0.71370000  0.13180000  0.07888000  1.0 -0.5811267233
