# DDEC6 charges by PACMAN v1.1 (https://github.com/mtap-research/PACMAN-charge/)
data_TUWFUP_ASR_pacman
_symmetry_space_group_name_H-M   'P 1'
_cell_length_a   24.07310000
_cell_length_b   24.07310000
_cell_length_c   48.84450000
_cell_angle_alpha   90.00000000
_cell_angle_beta   90.00000000
_cell_angle_gamma   120.00000000
_symmetry_Int_Tables_number   1
_chemical_formula_structural   Zn2PH38(C23O4)2
_chemical_formula_sum   'Zn24 P12 H456 C552 O96'
_cell_volume   24513.78313834
_cell_formula_units_Z   12
loop_
 _symmetry_equiv_pos_site_id
 _symmetry_equiv_pos_as_xyz
  1  'x, y, z'
loop_
 _atom_site_type_symbol
 _atom_site_label
 _atom_site_symmetry_multiplicity
 _atom_site_fract_x
 _atom_site_fract_y
 _atom_site_fract_z
 _atom_site_occupancy
 _atom_site_charge
Zn  Zn1  1  0.66226000  0.19002000  0.60301000  1.0 0.9581829097
Zn  Zn2  1  0.52835000  0.18464000  0.64405000  1.0 0.979122389
Zn  Zn3  1  0.80998000  0.47224000  0.26967000  1.0 0.9581829097
Zn  Zn4  1  0.81536000  0.34371000  0.31071000  1.0 0.979122389
Zn  Zn5  1  0.52776000  0.33774000  0.93634000  1.0 0.9581829097
Zn  Zn6  1  0.65629000  0.47165000  0.97738000  1.0 0.979122389
Zn  Zn7  1  0.33774000  0.80998000  0.10301000  1.0 0.9581829097
Zn  Zn8  1  0.47165000  0.81536000  0.14405000  1.0 0.979122389
Zn  Zn9  1  0.19002000  0.52776000  0.76967000  1.0 0.9581829097
Zn  Zn10  1  0.18464000  0.65629000  0.81071000  1.0 0.979122389
Zn  Zn11  1  0.47224000  0.66226000  0.43634000  1.0 0.9581829097
Zn  Zn12  1  0.34371000  0.52835000  0.47738000  1.0 0.979122389
Zn  Zn13  1  0.47224000  0.80998000  0.39699000  1.0 0.9581829097
Zn  Zn14  1  0.34371000  0.81536000  0.35595000  1.0 0.979122389
Zn  Zn15  1  0.33774000  0.52776000  0.73033000  1.0 0.9581829097
Zn  Zn16  1  0.47165000  0.65629000  0.68929000  1.0 0.979122389
Zn  Zn17  1  0.19002000  0.66226000  0.06366000  1.0 0.9581829097
Zn  Zn18  1  0.18464000  0.52835000  0.02262000  1.0 0.979122389
Zn  Zn19  1  0.52776000  0.19002000  0.89699000  1.0 0.9581829097
Zn  Zn20  1  0.65629000  0.18464000  0.85595000  1.0 0.979122389
Zn  Zn21  1  0.66226000  0.47224000  0.23033000  1.0 0.9581829097
Zn  Zn22  1  0.52835000  0.34371000  0.18929000  1.0 0.979122389
Zn  Zn23  1  0.80998000  0.33774000  0.56366000  1.0 0.9581829097
Zn  Zn24  1  0.81536000  0.47165000  0.52262000  1.0 0.979122389
P  P1  1  0.52820000  0.06450000  0.62166000  1.0 1.4554466262
P  P2  1  0.93550000  0.46370000  0.28832000  1.0 1.4554466262
P  P3  1  0.53630000  0.47180000  0.95499000  1.0 1.4554466262
P  P4  1  0.47180000  0.93550000  0.12166000  1.0 1.4543402231
P  P5  1  0.06450000  0.53630000  0.78832000  1.0 1.4554466262
P  P6  1  0.46370000  0.52820000  0.45499000  1.0 1.4554466262
P  P7  1  0.46370000  0.93550000  0.37834000  1.0 1.4554466262
P  P8  1  0.47180000  0.53630000  0.71168000  1.0 1.4554466262
P  P9  1  0.06450000  0.52820000  0.04501000  1.0 1.4554466262
P  P10  1  0.53630000  0.06450000  0.87834000  1.0 1.4554466262
P  P11  1  0.52820000  0.46370000  0.21168000  1.0 1.4554466262
P  P12  1  0.93550000  0.47180000  0.54501000  1.0 1.4554466262
H  H1  1  0.36480000  0.08050000  0.53167000  1.0 0.1193176724
H  H2  1  0.55260000  0.15230000  0.51667000  1.0 0.1193176724
H  H3  1  0.59500000  0.07680000  0.55377000  1.0 0.1512761574
H  H4  1  0.59920000  0.08900000  0.52207000  1.0 0.129096953
H  H5  1  0.55980000  0.01890000  0.53347000  1.0 0.129096953
H  H6  1  0.44640000  0.91310000  0.53067000  1.0 0.1193176724
H  H7  1  0.60630000  0.15660000  0.72737000  1.0 0.1193176724
H  H8  1  0.72410000  0.09340000  0.70247000  1.0 0.1193176724
H  H9  1  0.30540000  0.66490000  0.71227000  1.0 0.1193176724
H  H10  1  0.37620000  0.74490000  0.68307000  1.0 0.1193176724
H  H11  1  0.35260000  0.87510000  0.72507000  1.0 0.1193176724
H  H12  1  0.28170000  0.79500000  0.75437000  1.0 0.129096953
H  H13  1  0.34230000  0.77250000  0.64267000  1.0 0.1193176724
H  H14  1  0.34640000  0.82420000  0.62197000  1.0 0.129096953
H  H15  1  0.31230000  0.81520000  0.65027000  1.0 0.1377225257
H  H16  1  0.48710000  0.07980000  0.69257000  1.0 0.1512761574
H  H17  1  0.50050000  0.09520000  0.72387000  1.0 0.129096953
H  H18  1  0.46780000  0.02400000  0.71367000  1.0 0.129096953
H  H19  1  0.34780000  0.65320000  0.54207000  1.0 0.129096953
H  H20  1  0.47340000  0.92130000  0.71367000  1.0 0.1101888653
H  H21  1  0.50630000  0.85470000  0.52117000  1.0 0.1193176724
H  H22  1  0.49020000  0.80230000  0.59427000  1.0 0.1377225257
H  H23  1  0.42150000  0.76850000  0.60737000  1.0 0.129096953
H  H24  1  0.47990000  0.82250000  0.62347000  1.0 0.1377225257
H  H25  1  0.33870000  0.94400000  0.56747000  1.0 0.1193176724
H  H26  1  0.30440000  0.96090000  0.54427000  1.0 0.1193176724
H  H27  1  0.32260000  0.99890000  0.57197000  1.0 0.1377225257
H  H28  1  0.42170000  0.17240000  0.49577000  1.0 0.1377225257
H  H29  1  0.49680000  0.20760000  0.49447000  1.0 0.129096953
H  H30  1  0.46270000  0.21730000  0.51987000  1.0 0.1377225257
H  H31  1  0.61340000  0.94070000  0.68197000  1.0 0.1193176724
H  H32  1  0.68690000  0.99090000  0.68087000  1.0 0.1101888653
H  H33  1  0.64200000  0.98650000  0.65667000  1.0 0.129096953
H  H34  1  0.72660000  0.22590000  0.72867000  1.0 0.1193176724
H  H35  1  0.76760000  0.19250000  0.72447000  1.0 0.129096953
H  H36  1  0.72480000  0.17760000  0.75067000  1.0 0.1377225257
H  H37  1  0.49210000  0.76740000  0.49327000  1.0 0.1193176724
H  H38  1  0.36550000  0.74110000  0.56737000  1.0 0.1193176724
H  H39  1  0.91950000  0.28430000  0.19833000  1.0 0.1193176724
H  H40  1  0.84770000  0.40030000  0.18333000  1.0 0.1193176724
H  H41  1  0.92320000  0.51820000  0.22043000  1.0 0.1512761574
H  H42  1  0.91100000  0.51020000  0.18873000  1.0 0.129096953
H  H43  1  0.98110000  0.54090000  0.20013000  1.0 0.129096953
H  H44  1  0.08690000  0.53330000  0.19733000  1.0 0.1193176724
H  H45  1  0.84340000  0.44970000  0.39403000  1.0 0.1193176724
H  H46  1  0.90660000  0.63070000  0.36913000  1.0 0.1193176724
H  H47  1  0.33510000  0.64050000  0.37893000  1.0 0.1193176724
H  H48  1  0.25510000  0.63130000  0.34973000  1.0 0.1193176724
H  H49  1  0.12490000  0.47750000  0.39173000  1.0 0.1193176724
H  H50  1  0.20500000  0.48670000  0.42103000  1.0 0.129096953
H  H51  1  0.22750000  0.56980000  0.30933000  1.0 0.1193176724
H  H52  1  0.17580000  0.52220000  0.28863000  1.0 0.129096953
H  H53  1  0.18480000  0.49710000  0.31693000  1.0 0.1377225257
H  H54  1  0.92020000  0.40730000  0.35923000  1.0 0.1512761574
H  H55  1  0.90480000  0.40530000  0.39053000  1.0 0.129096953
H  H56  1  0.97600000  0.44380000  0.38033000  1.0 0.129096953
H  H57  1  0.34680000  0.69460000  0.20873000  1.0 0.129096953
H  H58  1  0.07870000  0.55210000  0.38033000  1.0 0.1101888653
H  H59  1  0.14530000  0.65160000  0.18783000  1.0 0.1193176724
H  H60  1  0.19770000  0.68790000  0.26093000  1.0 0.1377225257
H  H61  1  0.23150000  0.65300000  0.27403000  1.0 0.129096953
H  H62  1  0.17750000  0.65740000  0.29013000  1.0 0.1377225257
H  H63  1  0.05600000  0.39470000  0.23413000  1.0 0.1193176724
H  H64  1  0.03910000  0.34350000  0.21093000  1.0 0.1193176724
H  H65  1  0.00110000  0.32370000  0.23863000  1.0 0.1377225257
H  H66  1  0.82760000  0.24930000  0.16243000  1.0 0.1377225257
H  H67  1  0.79240000  0.28920000  0.16113000  1.0 0.129096953
H  H68  1  0.78270000  0.24540000  0.18653000  1.0 0.1377225257
H  H69  1  0.05930000  0.67270000  0.34863000  1.0 0.1193176724
H  H70  1  0.00910000  0.69600000  0.34753000  1.0 0.1101888653
H  H71  1  0.01350000  0.65550000  0.32333000  1.0 0.129096953
H  H72  1  0.77410000  0.50070000  0.39533000  1.0 0.1193176724
H  H73  1  0.80750000  0.57510000  0.39113000  1.0 0.129096953
H  H74  1  0.82240000  0.54720000  0.41733000  1.0 0.1377225257
H  H75  1  0.23260000  0.72470000  0.15993000  1.0 0.1193176724
H  H76  1  0.25890000  0.62440000  0.23403000  1.0 0.1193176724
H  H77  1  0.71570000  0.63520000  0.86500000  1.0 0.1193176724
H  H78  1  0.59970000  0.44740000  0.85000000  1.0 0.1193176724
H  H79  1  0.48180000  0.40500000  0.88710000  1.0 0.1512761574
H  H80  1  0.48980000  0.40080000  0.85540000  1.0 0.129096953
H  H81  1  0.45910000  0.44020000  0.86680000  1.0 0.129096953
H  H82  1  0.46670000  0.55360000  0.86400000  1.0 0.1193176724
H  H83  1  0.55030000  0.39370000  0.06070000  1.0 0.1193176724
H  H84  1  0.36930000  0.27590000  0.03580000  1.0 0.1193176724
H  H85  1  0.35950000  0.69460000  0.04560000  1.0 0.1193176724
H  H86  1  0.36870000  0.62380000  0.01640000  1.0 0.1193176724
H  H87  1  0.52250000  0.64740000  0.05840000  1.0 0.1193176724
H  H88  1  0.51330000  0.71830000  0.08770000  1.0 0.129096953
H  H89  1  0.43020000  0.65770000  0.97600000  1.0 0.1193176724
H  H90  1  0.47780000  0.65360000  0.95530000  1.0 0.129096953
H  H91  1  0.50290000  0.68770000  0.98360000  1.0 0.1377225257
H  H92  1  0.59270000  0.51290000  0.02590000  1.0 0.1512761574
H  H93  1  0.59470000  0.49950000  0.05720000  1.0 0.129096953
H  H94  1  0.55620000  0.53220000  0.04700000  1.0 0.129096953
H  H95  1  0.30540000  0.65220000  0.87540000  1.0 0.129096953
H  H96  1  0.44790000  0.52660000  0.04700000  1.0 0.1101888653
H  H97  1  0.34840000  0.49370000  0.85450000  1.0 0.1193176724
H  H98  1  0.31210000  0.50980000  0.92760000  1.0 0.1377225257
H  H99  1  0.34700000  0.57850000  0.94070000  1.0 0.129096953
H  H100  1  0.34260000  0.52010000  0.95680000  1.0 0.1377225257
H  H101  1  0.60530000  0.66130000  0.90080000  1.0 0.1193176724
H  H102  1  0.65650000  0.69560000  0.87760000  1.0 0.1193176724
H  H103  1  0.67630000  0.67740000  0.90530000  1.0 0.1377225257
H  H104  1  0.75070000  0.57830000  0.82910000  1.0 0.1377225257
H  H105  1  0.71080000  0.50320000  0.82780000  1.0 0.129096953
H  H106  1  0.75460000  0.53730000  0.85320000  1.0 0.1377225257
H  H107  1  0.32730000  0.38660000  0.01530000  1.0 0.1193176724
H  H108  1  0.30400000  0.31310000  0.01420000  1.0 0.1101888653
H  H109  1  0.34450000  0.35800000  0.99000000  1.0 0.129096953
H  H110  1  0.49930000  0.27340000  0.06200000  1.0 0.1193176724
H  H111  1  0.42490000  0.23240000  0.05780000  1.0 0.129096953
H  H112  1  0.45280000  0.27520000  0.08400000  1.0 0.1377225257
H  H113  1  0.27530000  0.50790000  0.82660000  1.0 0.1193176724
H  H114  1  0.37560000  0.63450000  0.90070000  1.0 0.1193176724
H  H115  1  0.63520000  0.91950000  0.03167000  1.0 0.1193176724
H  H116  1  0.44740000  0.84770000  0.01667000  1.0 0.1193176724
H  H117  1  0.40500000  0.92320000  0.05377000  1.0 0.1512761574
H  H118  1  0.40080000  0.91100000  0.02207000  1.0 0.129096953
H  H119  1  0.44020000  0.98110000  0.03347000  1.0 0.129096953
H  H120  1  0.55360000  0.08690000  0.03067000  1.0 0.1193176724
H  H121  1  0.39370000  0.84340000  0.22737000  1.0 0.1193176724
H  H122  1  0.27590000  0.90660000  0.20247000  1.0 0.1193176724
H  H123  1  0.69460000  0.33510000  0.21227000  1.0 0.1193176724
H  H124  1  0.62380000  0.25510000  0.18307000  1.0 0.1193176724
H  H125  1  0.64740000  0.12490000  0.22507000  1.0 0.1193176724
H  H126  1  0.71830000  0.20500000  0.25437000  1.0 0.129096953
H  H127  1  0.65770000  0.22750000  0.14267000  1.0 0.1193176724
H  H128  1  0.65360000  0.17580000  0.12197000  1.0 0.129096953
H  H129  1  0.68770000  0.18480000  0.15027000  1.0 0.1377225257
H  H130  1  0.51290000  0.92020000  0.19257000  1.0 0.1512761574
H  H131  1  0.49950000  0.90480000  0.22387000  1.0 0.129096953
H  H132  1  0.53220000  0.97600000  0.21367000  1.0 0.129096953
H  H133  1  0.65220000  0.34680000  0.04207000  1.0 0.129096953
H  H134  1  0.52660000  0.07870000  0.21367000  1.0 0.1101888653
H  H135  1  0.49370000  0.14530000  0.02117000  1.0 0.1193176724
H  H136  1  0.50980000  0.19770000  0.09427000  1.0 0.1377225257
H  H137  1  0.57850000  0.23150000  0.10737000  1.0 0.129096953
H  H138  1  0.52010000  0.17750000  0.12347000  1.0 0.1377225257
H  H139  1  0.66130000  0.05600000  0.06747000  1.0 0.1193176724
H  H140  1  0.69560000  0.03910000  0.04427000  1.0 0.1193176724
H  H141  1  0.67740000  0.00110000  0.07197000  1.0 0.1377225257
H  H142  1  0.57830000  0.82760000  0.99577000  1.0 0.1377225257
H  H143  1  0.50320000  0.79240000  0.99447000  1.0 0.129096953
H  H144  1  0.53730000  0.78270000  0.01987000  1.0 0.1377225257
H  H145  1  0.38660000  0.05930000  0.18197000  1.0 0.1193176724
H  H146  1  0.31310000  0.00910000  0.18087000  1.0 0.1101888653
H  H147  1  0.35800000  0.01350000  0.15667000  1.0 0.129096953
H  H148  1  0.27340000  0.77410000  0.22867000  1.0 0.1193176724
H  H149  1  0.23240000  0.80750000  0.22447000  1.0 0.129096953
H  H150  1  0.27520000  0.82240000  0.25067000  1.0 0.1377225257
H  H151  1  0.50790000  0.23260000  0.99327000  1.0 0.1193176724
H  H152  1  0.63450000  0.25890000  0.06737000  1.0 0.1193176724
H  H153  1  0.08050000  0.71570000  0.69833000  1.0 0.1193176724
H  H154  1  0.15230000  0.59970000  0.68333000  1.0 0.1193176724
H  H155  1  0.07680000  0.48180000  0.72043000  1.0 0.1512761574
H  H156  1  0.08900000  0.48980000  0.68873000  1.0 0.129096953
H  H157  1  0.01890000  0.45910000  0.70013000  1.0 0.129096953
H  H158  1  0.91310000  0.46670000  0.69733000  1.0 0.1193176724
H  H159  1  0.15660000  0.55030000  0.89403000  1.0 0.1193176724
H  H160  1  0.09340000  0.36930000  0.86913000  1.0 0.1193176724
H  H161  1  0.66490000  0.35950000  0.87893000  1.0 0.1193176724
H  H162  1  0.74490000  0.36870000  0.84973000  1.0 0.1193176724
H  H163  1  0.87510000  0.52250000  0.89173000  1.0 0.1193176724
H  H164  1  0.79500000  0.51330000  0.92103000  1.0 0.129096953
H  H165  1  0.77250000  0.43020000  0.80933000  1.0 0.1193176724
H  H166  1  0.82420000  0.47780000  0.78863000  1.0 0.129096953
H  H167  1  0.81520000  0.50290000  0.81693000  1.0 0.1377225257
H  H168  1  0.07980000  0.59270000  0.85923000  1.0 0.1512761574
H  H169  1  0.09520000  0.59470000  0.89053000  1.0 0.129096953
H  H170  1  0.02400000  0.55620000  0.88033000  1.0 0.129096953
H  H171  1  0.65320000  0.30540000  0.70873000  1.0 0.129096953
H  H172  1  0.92130000  0.44790000  0.88033000  1.0 0.1101888653
H  H173  1  0.85470000  0.34840000  0.68783000  1.0 0.1193176724
H  H174  1  0.80230000  0.31210000  0.76093000  1.0 0.1377225257
H  H175  1  0.76850000  0.34700000  0.77403000  1.0 0.129096953
H  H176  1  0.82250000  0.34260000  0.79013000  1.0 0.1377225257
H  H177  1  0.94400000  0.60530000  0.73413000  1.0 0.1193176724
H  H178  1  0.96090000  0.65650000  0.71093000  1.0 0.1193176724
H  H179  1  0.99890000  0.67630000  0.73863000  1.0 0.1377225257
H  H180  1  0.17240000  0.75070000  0.66243000  1.0 0.1377225257
H  H181  1  0.20760000  0.71080000  0.66113000  1.0 0.129096953
H  H182  1  0.21730000  0.75460000  0.68653000  1.0 0.1377225257
H  H183  1  0.94070000  0.32730000  0.84863000  1.0 0.1193176724
H  H184  1  0.99090000  0.30400000  0.84753000  1.0 0.1101888653
H  H185  1  0.98650000  0.34450000  0.82333000  1.0 0.129096953
H  H186  1  0.22590000  0.49930000  0.89533000  1.0 0.1193176724
H  H187  1  0.19250000  0.42490000  0.89113000  1.0 0.129096953
H  H188  1  0.17760000  0.45280000  0.91733000  1.0 0.1377225257
H  H189  1  0.76740000  0.27530000  0.65993000  1.0 0.1193176724
H  H190  1  0.74110000  0.37560000  0.73403000  1.0 0.1193176724
H  H191  1  0.28430000  0.36480000  0.36500000  1.0 0.1193176724
H  H192  1  0.40030000  0.55260000  0.35000000  1.0 0.1193176724
H  H193  1  0.51820000  0.59500000  0.38710000  1.0 0.1512761574
H  H194  1  0.51020000  0.59920000  0.35540000  1.0 0.129096953
H  H195  1  0.54090000  0.55980000  0.36680000  1.0 0.129096953
H  H196  1  0.53330000  0.44640000  0.36400000  1.0 0.1193176724
H  H197  1  0.44970000  0.60630000  0.56070000  1.0 0.1193176724
H  H198  1  0.63070000  0.72410000  0.53580000  1.0 0.1193176724
H  H199  1  0.64050000  0.30540000  0.54560000  1.0 0.1193176724
H  H200  1  0.63130000  0.37620000  0.51640000  1.0 0.1193176724
H  H201  1  0.47750000  0.35260000  0.55840000  1.0 0.1193176724
H  H202  1  0.48670000  0.28170000  0.58770000  1.0 0.129096953
H  H203  1  0.56980000  0.34230000  0.47600000  1.0 0.1193176724
H  H204  1  0.52220000  0.34640000  0.45530000  1.0 0.129096953
H  H205  1  0.49710000  0.31230000  0.48360000  1.0 0.1377225257
H  H206  1  0.40730000  0.48710000  0.52590000  1.0 0.1512761574
H  H207  1  0.40530000  0.50050000  0.55720000  1.0 0.129096953
H  H208  1  0.44380000  0.46780000  0.54700000  1.0 0.129096953
H  H209  1  0.69460000  0.34780000  0.37540000  1.0 0.129096953
H  H210  1  0.55210000  0.47340000  0.54700000  1.0 0.1101888653
H  H211  1  0.65160000  0.50630000  0.35450000  1.0 0.1193176724
H  H212  1  0.68790000  0.49020000  0.42760000  1.0 0.1377225257
H  H213  1  0.65300000  0.42150000  0.44070000  1.0 0.129096953
H  H214  1  0.65740000  0.47990000  0.45680000  1.0 0.1377225257
H  H215  1  0.39470000  0.33870000  0.40080000  1.0 0.1193176724
H  H216  1  0.34350000  0.30440000  0.37760000  1.0 0.1193176724
H  H217  1  0.32370000  0.32260000  0.40530000  1.0 0.1377225257
H  H218  1  0.24930000  0.42170000  0.32910000  1.0 0.1377225257
H  H219  1  0.28920000  0.49680000  0.32780000  1.0 0.129096953
H  H220  1  0.24540000  0.46270000  0.35320000  1.0 0.1377225257
H  H221  1  0.67270000  0.61340000  0.51530000  1.0 0.1193176724
H  H222  1  0.69600000  0.68690000  0.51420000  1.0 0.1101888653
H  H223  1  0.65550000  0.64200000  0.49000000  1.0 0.129096953
H  H224  1  0.50070000  0.72660000  0.56200000  1.0 0.1193176724
H  H225  1  0.57510000  0.76760000  0.55780000  1.0 0.129096953
H  H226  1  0.54720000  0.72480000  0.58400000  1.0 0.1377225257
H  H227  1  0.72470000  0.49210000  0.32660000  1.0 0.1193176724
H  H228  1  0.62440000  0.36550000  0.40070000  1.0 0.1193176724
H  H229  1  0.28430000  0.91950000  0.46833000  1.0 0.1193176724
H  H230  1  0.40030000  0.84770000  0.48333000  1.0 0.1193176724
H  H231  1  0.51820000  0.92320000  0.44623000  1.0 0.1512761574
H  H232  1  0.51020000  0.91100000  0.47793000  1.0 0.129096953
H  H233  1  0.54090000  0.98110000  0.46653000  1.0 0.129096953
H  H234  1  0.53330000  0.08690000  0.46933000  1.0 0.1193176724
H  H235  1  0.44970000  0.84340000  0.27263000  1.0 0.1193176724
H  H236  1  0.63070000  0.90660000  0.29753000  1.0 0.1193176724
H  H237  1  0.64050000  0.33510000  0.28773000  1.0 0.1193176724
H  H238  1  0.63130000  0.25510000  0.31693000  1.0 0.1193176724
H  H239  1  0.47750000  0.12490000  0.27493000  1.0 0.1193176724
H  H240  1  0.48670000  0.20500000  0.24563000  1.0 0.129096953
H  H241  1  0.56980000  0.22750000  0.35733000  1.0 0.1193176724
H  H242  1  0.52220000  0.17580000  0.37803000  1.0 0.129096953
H  H243  1  0.49710000  0.18480000  0.34973000  1.0 0.1377225257
H  H244  1  0.40730000  0.92020000  0.30743000  1.0 0.1512761574
H  H245  1  0.40530000  0.90480000  0.27613000  1.0 0.129096953
H  H246  1  0.44380000  0.97600000  0.28633000  1.0 0.129096953
H  H247  1  0.69460000  0.34680000  0.45793000  1.0 0.129096953
H  H248  1  0.55210000  0.07870000  0.28633000  1.0 0.1101888653
H  H249  1  0.65160000  0.14530000  0.47883000  1.0 0.1193176724
H  H250  1  0.68790000  0.19770000  0.40573000  1.0 0.1377225257
H  H251  1  0.65300000  0.23150000  0.39263000  1.0 0.129096953
H  H252  1  0.65740000  0.17750000  0.37653000  1.0 0.1377225257
H  H253  1  0.39470000  0.05600000  0.43253000  1.0 0.1193176724
H  H254  1  0.34350000  0.03910000  0.45573000  1.0 0.1193176724
H  H255  1  0.32370000  0.00110000  0.42803000  1.0 0.1377225257
H  H256  1  0.24930000  0.82760000  0.50423000  1.0 0.1377225257
H  H257  1  0.28920000  0.79240000  0.50553000  1.0 0.129096953
H  H258  1  0.24540000  0.78270000  0.48013000  1.0 0.1377225257
H  H259  1  0.67270000  0.05930000  0.31803000  1.0 0.1193176724
H  H260  1  0.69600000  0.00910000  0.31913000  1.0 0.1101888653
H  H261  1  0.65550000  0.01350000  0.34333000  1.0 0.129096953
H  H262  1  0.50070000  0.77410000  0.27133000  1.0 0.1193176724
H  H263  1  0.57510000  0.80750000  0.27553000  1.0 0.129096953
H  H264  1  0.54720000  0.82240000  0.24933000  1.0 0.1377225257
H  H265  1  0.72470000  0.23260000  0.50673000  1.0 0.1193176724
H  H266  1  0.62440000  0.25890000  0.43263000  1.0 0.1193176724
H  H267  1  0.63520000  0.71570000  0.80167000  1.0 0.1193176724
H  H268  1  0.44740000  0.59970000  0.81667000  1.0 0.1193176724
H  H269  1  0.40500000  0.48180000  0.77957000  1.0 0.1512761574
H  H270  1  0.40080000  0.48980000  0.81127000  1.0 0.129096953
H  H271  1  0.44020000  0.45910000  0.79987000  1.0 0.129096953
H  H272  1  0.55360000  0.46670000  0.80267000  1.0 0.1193176724
H  H273  1  0.39370000  0.55030000  0.60597000  1.0 0.1193176724
H  H274  1  0.27590000  0.36930000  0.63087000  1.0 0.1193176724
H  H275  1  0.69460000  0.35950000  0.62107000  1.0 0.1193176724
H  H276  1  0.62380000  0.36870000  0.65027000  1.0 0.1193176724
H  H277  1  0.64740000  0.52250000  0.60827000  1.0 0.1193176724
H  H278  1  0.71830000  0.51330000  0.57897000  1.0 0.129096953
H  H279  1  0.65770000  0.43020000  0.69067000  1.0 0.1193176724
H  H280  1  0.65360000  0.47780000  0.71137000  1.0 0.129096953
H  H281  1  0.68770000  0.50290000  0.68307000  1.0 0.1377225257
H  H282  1  0.51290000  0.59270000  0.64077000  1.0 0.1512761574
H  H283  1  0.49950000  0.59470000  0.60947000  1.0 0.129096953
H  H284  1  0.53220000  0.55620000  0.61967000  1.0 0.129096953
H  H285  1  0.65220000  0.30540000  0.79127000  1.0 0.129096953
H  H286  1  0.52660000  0.44790000  0.61967000  1.0 0.1101888653
H  H287  1  0.49370000  0.34840000  0.81217000  1.0 0.1193176724
H  H288  1  0.50980000  0.31210000  0.73907000  1.0 0.1377225257
H  H289  1  0.57850000  0.34700000  0.72597000  1.0 0.129096953
H  H290  1  0.52010000  0.34260000  0.70987000  1.0 0.1377225257
H  H291  1  0.66130000  0.60530000  0.76587000  1.0 0.1193176724
H  H292  1  0.69560000  0.65650000  0.78907000  1.0 0.1193176724
H  H293  1  0.67740000  0.67630000  0.76137000  1.0 0.1377225257
H  H294  1  0.57830000  0.75070000  0.83757000  1.0 0.1377225257
H  H295  1  0.50320000  0.71080000  0.83887000  1.0 0.129096953
H  H296  1  0.53730000  0.75460000  0.81347000  1.0 0.1377225257
H  H297  1  0.38660000  0.32730000  0.65137000  1.0 0.1193176724
H  H298  1  0.31310000  0.30400000  0.65247000  1.0 0.1101888653
H  H299  1  0.35800000  0.34450000  0.67667000  1.0 0.129096953
H  H300  1  0.27340000  0.49930000  0.60467000  1.0 0.1193176724
H  H301  1  0.23240000  0.42490000  0.60887000  1.0 0.129096953
H  H302  1  0.27520000  0.45280000  0.58267000  1.0 0.1377225257
H  H303  1  0.50790000  0.27530000  0.84007000  1.0 0.1193176724
H  H304  1  0.63450000  0.37560000  0.76597000  1.0 0.1193176724
H  H305  1  0.08050000  0.36480000  0.13500000  1.0 0.1193176724
H  H306  1  0.15230000  0.55260000  0.15000000  1.0 0.1193176724
H  H307  1  0.07680000  0.59500000  0.11290000  1.0 0.1512761574
H  H308  1  0.08900000  0.59920000  0.14460000  1.0 0.129096953
H  H309  1  0.01890000  0.55980000  0.13320000  1.0 0.129096953
H  H310  1  0.91310000  0.44640000  0.13600000  1.0 0.1193176724
H  H311  1  0.15660000  0.60630000  0.93930000  1.0 0.1193176724
H  H312  1  0.09340000  0.72410000  0.96420000  1.0 0.1193176724
H  H313  1  0.66490000  0.30540000  0.95440000  1.0 0.1193176724
H  H314  1  0.74490000  0.37620000  0.98360000  1.0 0.1193176724
H  H315  1  0.87510000  0.35260000  0.94160000  1.0 0.1193176724
H  H316  1  0.79500000  0.28170000  0.91230000  1.0 0.129096953
H  H317  1  0.77250000  0.34230000  0.02400000  1.0 0.1193176724
H  H318  1  0.82420000  0.34640000  0.04470000  1.0 0.129096953
H  H319  1  0.81520000  0.31230000  0.01640000  1.0 0.1377225257
H  H320  1  0.07980000  0.48710000  0.97410000  1.0 0.1512761574
H  H321  1  0.09520000  0.50050000  0.94280000  1.0 0.129096953
H  H322  1  0.02400000  0.46780000  0.95300000  1.0 0.129096953
H  H323  1  0.65320000  0.34780000  0.12460000  1.0 0.129096953
H  H324  1  0.92130000  0.47340000  0.95300000  1.0 0.1101888653
H  H325  1  0.85470000  0.50630000  0.14550000  1.0 0.1193176724
H  H326  1  0.80230000  0.49020000  0.07240000  1.0 0.1377225257
H  H327  1  0.76850000  0.42150000  0.05930000  1.0 0.129096953
H  H328  1  0.82250000  0.47990000  0.04320000  1.0 0.1377225257
H  H329  1  0.94400000  0.33870000  0.09920000  1.0 0.1193176724
H  H330  1  0.96090000  0.30440000  0.12240000  1.0 0.1193176724
H  H331  1  0.99890000  0.32260000  0.09470000  1.0 0.1377225257
H  H332  1  0.17240000  0.42170000  0.17090000  1.0 0.1377225257
H  H333  1  0.20760000  0.49680000  0.17220000  1.0 0.129096953
H  H334  1  0.21730000  0.46270000  0.14680000  1.0 0.1377225257
H  H335  1  0.94070000  0.61340000  0.98470000  1.0 0.1193176724
H  H336  1  0.99090000  0.68690000  0.98580000  1.0 0.1101888653
H  H337  1  0.98650000  0.64200000  0.01000000  1.0 0.129096953
H  H338  1  0.22590000  0.72660000  0.93800000  1.0 0.1193176724
H  H339  1  0.19250000  0.76760000  0.94220000  1.0 0.129096953
H  H340  1  0.17760000  0.72480000  0.91600000  1.0 0.1377225257
H  H341  1  0.76740000  0.49210000  0.17340000  1.0 0.1193176724
H  H342  1  0.74110000  0.36550000  0.09930000  1.0 0.1193176724
H  H343  1  0.71570000  0.08050000  0.96833000  1.0 0.1193176724
H  H344  1  0.59970000  0.15230000  0.98333000  1.0 0.1193176724
H  H345  1  0.48180000  0.07680000  0.94623000  1.0 0.1512761574
H  H346  1  0.48980000  0.08900000  0.97793000  1.0 0.129096953
H  H347  1  0.45910000  0.01890000  0.96653000  1.0 0.129096953
H  H348  1  0.46670000  0.91310000  0.96933000  1.0 0.1193176724
H  H349  1  0.55030000  0.15660000  0.77263000  1.0 0.1193176724
H  H350  1  0.36930000  0.09340000  0.79753000  1.0 0.1193176724
H  H351  1  0.35950000  0.66490000  0.78773000  1.0 0.1193176724
H  H352  1  0.36870000  0.74490000  0.81693000  1.0 0.1193176724
H  H353  1  0.52250000  0.87510000  0.77493000  1.0 0.1193176724
H  H354  1  0.51330000  0.79500000  0.74563000  1.0 0.129096953
H  H355  1  0.43020000  0.77250000  0.85733000  1.0 0.1193176724
H  H356  1  0.47780000  0.82420000  0.87803000  1.0 0.129096953
H  H357  1  0.50290000  0.81520000  0.84973000  1.0 0.1377225257
H  H358  1  0.59270000  0.07980000  0.80743000  1.0 0.1512761574
H  H359  1  0.59470000  0.09520000  0.77613000  1.0 0.129096953
H  H360  1  0.55620000  0.02400000  0.78633000  1.0 0.129096953
H  H361  1  0.30540000  0.65320000  0.95793000  1.0 0.129096953
H  H362  1  0.44790000  0.92130000  0.78633000  1.0 0.1193176724
H  H363  1  0.34840000  0.85470000  0.97883000  1.0 0.1193176724
H  H364  1  0.31210000  0.80230000  0.90573000  1.0 0.1377225257
H  H365  1  0.34700000  0.76850000  0.89263000  1.0 0.129096953
H  H366  1  0.34260000  0.82250000  0.87653000  1.0 0.1377225257
H  H367  1  0.60530000  0.94400000  0.93253000  1.0 0.1193176724
H  H368  1  0.65650000  0.96090000  0.95573000  1.0 0.1193176724
H  H369  1  0.67630000  0.99890000  0.92803000  1.0 0.1377225257
H  H370  1  0.75070000  0.17240000  0.00423000  1.0 0.1377225257
H  H371  1  0.71080000  0.20760000  0.00553000  1.0 0.129096953
H  H372  1  0.75460000  0.21730000  0.98013000  1.0 0.1377225257
H  H373  1  0.32730000  0.94070000  0.81803000  1.0 0.1193176724
H  H374  1  0.30400000  0.99090000  0.81913000  1.0 0.1101888653
H  H375  1  0.34450000  0.98650000  0.84333000  1.0 0.129096953
H  H376  1  0.49930000  0.22590000  0.77133000  1.0 0.1193176724
H  H377  1  0.42490000  0.19250000  0.77553000  1.0 0.129096953
H  H378  1  0.45280000  0.17760000  0.74933000  1.0 0.1377225257
H  H379  1  0.27530000  0.76740000  0.00673000  1.0 0.1193176724
H  H380  1  0.37560000  0.74110000  0.93263000  1.0 0.1193176724
H  H381  1  0.36480000  0.28430000  0.30167000  1.0 0.1193176724
H  H382  1  0.55260000  0.40030000  0.31667000  1.0 0.1193176724
H  H383  1  0.59500000  0.51820000  0.27957000  1.0 0.1512761574
H  H384  1  0.59920000  0.51020000  0.31127000  1.0 0.129096953
H  H385  1  0.55980000  0.54090000  0.29987000  1.0 0.129096953
H  H386  1  0.44640000  0.53330000  0.30267000  1.0 0.1193176724
H  H387  1  0.60630000  0.44970000  0.10597000  1.0 0.1193176724
H  H388  1  0.72410000  0.63070000  0.13087000  1.0 0.1193176724
H  H389  1  0.30540000  0.64050000  0.12107000  1.0 0.1193176724
H  H390  1  0.37620000  0.63130000  0.15027000  1.0 0.1193176724
H  H391  1  0.35260000  0.47750000  0.10827000  1.0 0.1193176724
H  H392  1  0.28170000  0.48670000  0.07897000  1.0 0.129096953
H  H393  1  0.34230000  0.56980000  0.19067000  1.0 0.1193176724
H  H394  1  0.34640000  0.52220000  0.21137000  1.0 0.129096953
H  H395  1  0.31230000  0.49710000  0.18307000  1.0 0.1377225257
H  H396  1  0.48710000  0.40730000  0.14077000  1.0 0.1512761574
H  H397  1  0.50050000  0.40530000  0.10947000  1.0 0.129096953
H  H398  1  0.46780000  0.44380000  0.11967000  1.0 0.129096953
H  H399  1  0.34780000  0.69460000  0.29127000  1.0 0.129096953
H  H400  1  0.47340000  0.55210000  0.11967000  1.0 0.1193176724
H  H401  1  0.50630000  0.65160000  0.31217000  1.0 0.1193176724
H  H402  1  0.49020000  0.68790000  0.23907000  1.0 0.1377225257
H  H403  1  0.42150000  0.65300000  0.22597000  1.0 0.129096953
H  H404  1  0.47990000  0.65740000  0.20987000  1.0 0.1377225257
H  H405  1  0.33870000  0.39470000  0.26587000  1.0 0.1193176724
H  H406  1  0.30440000  0.34350000  0.28907000  1.0 0.1193176724
H  H407  1  0.32260000  0.32370000  0.26137000  1.0 0.1377225257
H  H408  1  0.42170000  0.24930000  0.33757000  1.0 0.1377225257
H  H409  1  0.49680000  0.28920000  0.33887000  1.0 0.129096953
H  H410  1  0.46270000  0.24540000  0.31347000  1.0 0.1377225257
H  H411  1  0.61340000  0.67270000  0.15137000  1.0 0.1193176724
H  H412  1  0.68690000  0.69600000  0.15247000  1.0 0.1101888653
H  H413  1  0.64200000  0.65550000  0.17667000  1.0 0.129096953
H  H414  1  0.72660000  0.50070000  0.10467000  1.0 0.1193176724
H  H415  1  0.76760000  0.57510000  0.10887000  1.0 0.129096953
H  H416  1  0.72480000  0.54720000  0.08267000  1.0 0.1377225257
H  H417  1  0.49210000  0.72470000  0.34007000  1.0 0.1193176724
H  H418  1  0.36550000  0.62440000  0.26597000  1.0 0.1193176724
H  H419  1  0.91950000  0.63520000  0.63500000  1.0 0.1193176724
H  H420  1  0.84770000  0.44740000  0.65000000  1.0 0.1193176724
H  H421  1  0.92320000  0.40500000  0.61290000  1.0 0.1512761574
H  H422  1  0.91100000  0.40080000  0.64460000  1.0 0.129096953
H  H423  1  0.98110000  0.44020000  0.63320000  1.0 0.129096953
H  H424  1  0.08690000  0.55360000  0.63600000  1.0 0.1193176724
H  H425  1  0.84340000  0.39370000  0.43930000  1.0 0.1193176724
H  H426  1  0.90660000  0.27590000  0.46420000  1.0 0.1193176724
H  H427  1  0.33510000  0.69460000  0.45440000  1.0 0.1193176724
H  H428  1  0.25510000  0.62380000  0.48360000  1.0 0.1193176724
H  H429  1  0.12490000  0.64740000  0.44160000  1.0 0.1193176724
H  H430  1  0.20500000  0.71830000  0.41230000  1.0 0.129096953
H  H431  1  0.22750000  0.65770000  0.52400000  1.0 0.1193176724
H  H432  1  0.17580000  0.65360000  0.54470000  1.0 0.129096953
H  H433  1  0.18480000  0.68770000  0.51640000  1.0 0.1377225257
H  H434  1  0.92020000  0.51290000  0.47410000  1.0 0.1512761574
H  H435  1  0.90480000  0.49950000  0.44280000  1.0 0.129096953
H  H436  1  0.97600000  0.53220000  0.45300000  1.0 0.129096953
H  H437  1  0.34680000  0.65220000  0.62460000  1.0 0.129096953
H  H438  1  0.07870000  0.52660000  0.45300000  1.0 0.1193176724
H  H439  1  0.14530000  0.49370000  0.64550000  1.0 0.1193176724
H  H440  1  0.19770000  0.50980000  0.57240000  1.0 0.1377225257
H  H441  1  0.23150000  0.57850000  0.55930000  1.0 0.129096953
H  H442  1  0.17750000  0.52010000  0.54320000  1.0 0.1377225257
H  H443  1  0.05600000  0.66130000  0.59920000  1.0 0.1193176724
H  H444  1  0.03910000  0.69560000  0.62240000  1.0 0.1193176724
H  H445  1  0.00110000  0.67740000  0.59470000  1.0 0.1377225257
H  H446  1  0.82760000  0.57830000  0.67090000  1.0 0.1377225257
H  H447  1  0.79240000  0.50320000  0.67220000  1.0 0.129096953
H  H448  1  0.78270000  0.53730000  0.64680000  1.0 0.1377225257
H  H449  1  0.05930000  0.38660000  0.48470000  1.0 0.1193176724
H  H450  1  0.00910000  0.31310000  0.48580000  1.0 0.1101888653
H  H451  1  0.01350000  0.35800000  0.51000000  1.0 0.129096953
H  H452  1  0.77410000  0.27340000  0.43800000  1.0 0.1193176724
H  H453  1  0.80750000  0.23240000  0.44220000  1.0 0.129096953
H  H454  1  0.82240000  0.27520000  0.41600000  1.0 0.1377225257
H  H455  1  0.23260000  0.50790000  0.67340000  1.0 0.1193176724
H  H456  1  0.25890000  0.63450000  0.59930000  1.0 0.1193176724
C  C1  1  0.24510000  0.66750000  0.75667000  1.0 0.5890904701
C  C2  1  0.45520000  0.02200000  0.54947000  1.0 -0.0495669601
C  C3  1  0.39990000  0.02620000  0.54707000  1.0 0.1377225257
C  C4  1  0.40180000  0.07770000  0.53327000  1.0 -0.2604938775
C  C5  1  0.45900000  0.12490000  0.52190000  1.0 0.1693401621
C  C6  1  0.51430000  0.12070000  0.52427000  1.0 -0.2604938775
C  C7  1  0.51240000  0.06920000  0.53807000  1.0 0.1512761574
C  C8  1  0.57210000  0.06290000  0.53667000  1.0 -0.4498097696
C  C9  1  0.45340000  0.91410000  0.60660000  1.0 -0.0680947793
C  C10  1  0.44760000  0.86180000  0.59206000  1.0 0.0963252819
C  C11  1  0.44500000  0.86150000  0.56363000  1.0 -0.0141391799
C  C12  1  0.44820000  0.91340000  0.54974000  1.0 -0.1795910015
C  C13  1  0.45400000  0.96570000  0.56428000  1.0 0.0002266842
C  C14  1  0.45660000  0.96600000  0.59271000  1.0 0.178729503
C  C15  1  0.57060000  0.02780000  0.69267000  1.0 -0.0495669601
C  C16  1  0.56110000  0.07320000  0.70617000  1.0 0.129096953
C  C17  1  0.61270000  0.12620000  0.71827000  1.0 -0.2398068447
C  C18  1  0.67370000  0.13370000  0.71687000  1.0 0.1592517072
C  C19  1  0.68330000  0.08840000  0.70337000  1.0 -0.2541279385
C  C20  1  0.63170000  0.03540000  0.69127000  1.0 0.1377225257
C  C21  1  0.28650000  0.72200000  0.73627000  1.0 -0.0280072039
C  C22  1  0.31480000  0.70700000  0.71487000  1.0 -0.1077459095
C  C23  1  0.35730000  0.75500000  0.69733000  1.0 -0.1401864353
C  C24  1  0.37140000  0.81790000  0.70116000  1.0 0.0776543728
C  C25  1  0.34310000  0.83300000  0.72257000  1.0 -0.1573399829
C  C26  1  0.30060000  0.78500000  0.74009000  1.0 -0.0981312815
C  C27  1  0.34700000  0.81440000  0.64097000  1.0 -0.4424903309
C  C28  1  0.49890000  0.06760000  0.70937000  1.0 -0.4498097696
C  C29  1  0.37890000  0.69410000  0.53667000  1.0 -0.0981312815
C  C30  1  0.46940000  0.91960000  0.69469000  1.0 -0.1861145212
C  C31  1  0.41770000  0.86750000  0.68228000  1.0 -0.0141391799
C  C32  1  0.41170000  0.86490000  0.65394000  1.0 0.0963252819
C  C33  1  0.45760000  0.91450000  0.63800000  1.0 -0.0630664501
C  C34  1  0.50940000  0.96670000  0.65041000  1.0 0.1693401621
C  C35  1  0.51530000  0.96920000  0.67877000  1.0 0.0002266842
C  C36  1  0.47300000  0.81370000  0.52507000  1.0 -0.1980919653
C  C37  1  0.46120000  0.80830000  0.60567000  1.0 -0.4424903309
C  C38  1  0.33560000  0.97820000  0.55877000  1.0 -0.4144015251
C  C39  1  0.46020000  0.18720000  0.50637000  1.0 -0.4727445209
C  C40  1  0.64480000  0.98300000  0.67617000  1.0 -0.4022162595
C  C41  1  0.72800000  0.18720000  0.73147000  1.0 -0.4498097696
C  C42  1  0.46470000  0.76180000  0.50777000  1.0 -0.0854028427
C  C43  1  0.41340000  0.70370000  0.51417000  1.0 -0.0223851984
C  C44  1  0.39140000  0.74850000  0.55207000  1.0 -0.1544932575
C  C45  1  0.43340000  0.80580000  0.54767000  1.0 0.0776543728
C  C46  1  0.39820000  0.64600000  0.49407000  1.0 0.5839959022
C  C47  1  0.33250000  0.57760000  0.42333000  1.0 0.5890904701
C  C48  1  0.97800000  0.43320000  0.21613000  1.0 -0.0495669601
C  C49  1  0.97380000  0.37370000  0.21373000  1.0 0.1377225257
C  C50  1  0.92230000  0.32410000  0.19993000  1.0 -0.2604938775
C  C51  1  0.87510000  0.33410000  0.18856000  1.0 0.1693401621
C  C52  1  0.87930000  0.39360000  0.19093000  1.0 -0.2604938775
C  C53  1  0.93080000  0.44320000  0.20473000  1.0 0.1512761574
C  C54  1  0.93710000  0.50920000  0.20333000  1.0 -0.4498097696
C  C55  1  0.08590000  0.53930000  0.27326000  1.0 -0.0680947793
C  C56  1  0.13820000  0.58580000  0.25872000  1.0 0.0963252819
C  C57  1  0.13850000  0.58350000  0.23029000  1.0 -0.0141391799
C  C58  1  0.08660000  0.53480000  0.21640000  1.0 -0.1795910015
C  C59  1  0.03430000  0.48830000  0.23094000  1.0 0.0002266842
C  C60  1  0.03400000  0.49060000  0.25937000  1.0 0.178729503
C  C61  1  0.97220000  0.54280000  0.35933000  1.0 -0.0495669601
C  C62  1  0.92680000  0.48790000  0.37283000  1.0 0.129096953
C  C63  1  0.87380000  0.48650000  0.38493000  1.0 -0.2398068447
C  C64  1  0.86630000  0.54000000  0.38353000  1.0 0.1592517072
C  C65  1  0.91160000  0.59490000  0.37003000  1.0 -0.2541279385
C  C66  1  0.96460000  0.59630000  0.35793000  1.0 0.1377225257
C  C67  1  0.27800000  0.56450000  0.40293000  1.0 -0.0280072039
C  C68  1  0.29300000  0.60780000  0.38153000  1.0 -0.1077459095
C  C69  1  0.24500000  0.60230000  0.36399000  1.0 -0.1401864353
C  C70  1  0.18210000  0.55350000  0.36782000  1.0 0.0776543728
C  C71  1  0.16700000  0.51010000  0.38923000  1.0 -0.1573399829
C  C72  1  0.21500000  0.51560000  0.40675000  1.0 -0.0981312815
C  C73  1  0.18560000  0.53260000  0.30763000  1.0 -0.4424903309
C  C74  1  0.93240000  0.43130000  0.37603000  1.0 -0.4498097696
C  C75  1  0.30590000  0.68480000  0.20333000  1.0 -0.0981312815
C  C76  1  0.08040000  0.54980000  0.36135000  1.0 -0.1861145212
C  C77  1  0.13250000  0.55020000  0.34894000  1.0 -0.0141391799
C  C78  1  0.13510000  0.54680000  0.32060000  1.0 0.0963252819
C  C79  1  0.08550000  0.54310000  0.30466000  1.0 -0.0630664501
C  C80  1  0.03330000  0.54270000  0.31707000  1.0 0.1693401621
C  C81  1  0.03080000  0.54610000  0.34543000  1.0 0.0002266842
C  C82  1  0.18630000  0.65930000  0.19173000  1.0 -0.1980919653
C  C83  1  0.19170000  0.65290000  0.27233000  1.0 -0.4424903309
C  C84  1  0.02180000  0.35740000  0.22543000  1.0 -0.4144015251
C  C85  1  0.81280000  0.27300000  0.17303000  1.0 -0.4727445209
C  C86  1  0.01700000  0.66180000  0.34283000  1.0 -0.4022162595
C  C87  1  0.81280000  0.54080000  0.39813000  1.0 -0.4498097696
C  C88  1  0.23820000  0.70290000  0.17443000  1.0 -0.0854028427
C  C89  1  0.29630000  0.70970000  0.18083000  1.0 -0.0223851984
C  C90  1  0.25150000  0.64290000  0.21873000  1.0 -0.1544932575
C  C91  1  0.19420000  0.62760000  0.21433000  1.0 0.0776543728
C  C92  1  0.35400000  0.75220000  0.16073000  1.0 0.5890904701
C  C93  1  0.42240000  0.75490000  0.09000000  1.0 0.5890904701
C  C94  1  0.56680000  0.54480000  0.88280000  1.0 -0.0495669601
C  C95  1  0.62630000  0.60010000  0.88040000  1.0 0.1377225257
C  C96  1  0.67590000  0.59820000  0.86660000  1.0 -0.2604938775
C  C97  1  0.66590000  0.54100000  0.85523000  1.0 0.1693401621
C  C98  1  0.60640000  0.48570000  0.85760000  1.0 -0.2604938775
C  C99  1  0.55680000  0.48760000  0.87140000  1.0 0.1512761574
C  C100  1  0.49080000  0.42790000  0.87000000  1.0 -0.4498097696
C  C101  1  0.46070000  0.54660000  0.93993000  1.0 -0.0680947793
C  C102  1  0.41420000  0.55240000  0.92539000  1.0 0.0963252819
C  C103  1  0.41650000  0.55500000  0.89696000  1.0 -0.0141391799
C  C104  1  0.46520000  0.55180000  0.88307000  1.0 -0.1795910015
C  C105  1  0.51170000  0.54600000  0.89761000  1.0 0.0002266842
C  C106  1  0.50940000  0.54340000  0.92604000  1.0 0.178729503
C  C107  1  0.45720000  0.42940000  0.02600000  1.0 -0.0495669601
C  C108  1  0.51210000  0.43890000  0.03950000  1.0 0.129096953
C  C109  1  0.51350000  0.38730000  0.05160000  1.0 -0.2398068447
C  C110  1  0.46000000  0.32630000  0.05020000  1.0 0.1592517072
C  C111  1  0.40510000  0.31670000  0.03670000  1.0 -0.2541279385
C  C112  1  0.40370000  0.36830000  0.02460000  1.0 0.1377225257
C  C113  1  0.43550000  0.71350000  0.06960000  1.0 -0.0280072039
C  C114  1  0.39220000  0.68520000  0.04820000  1.0 -0.1077459095
C  C115  1  0.39770000  0.64270000  0.03066000  1.0 -0.1401864353
C  C116  1  0.44650000  0.62860000  0.03449000  1.0 0.0776543728
C  C117  1  0.48990000  0.65690000  0.05590000  1.0 -0.1573399829
C  C118  1  0.48440000  0.69940000  0.07342000  1.0 -0.0981312815
C  C119  1  0.46740000  0.65300000  0.97430000  1.0 -0.4424903309
C  C120  1  0.56870000  0.50110000  0.04270000  1.0 -0.4498097696
C  C121  1  0.31520000  0.62110000  0.87000000  1.0 -0.0981312815
C  C122  1  0.45020000  0.53060000  0.02802000  1.0 -0.1861145212
C  C123  1  0.44980000  0.58230000  0.01561000  1.0 -0.0141391799
C  C124  1  0.45320000  0.58830000  0.98727000  1.0 0.0963252819
C  C125  1  0.45690000  0.54240000  0.97133000  1.0 -0.0630664501
C  C126  1  0.45730000  0.49060000  0.98374000  1.0 0.1693401621
C  C127  1  0.45390000  0.48470000  0.01210000  1.0 0.0002266842
C  C128  1  0.34070000  0.52700000  0.85840000  1.0 -0.1980919653
C  C129  1  0.34710000  0.53880000  0.93900000  1.0 -0.4424903309
C  C130  1  0.64260000  0.66440000  0.89210000  1.0 -0.4144015251
C  C131  1  0.72700000  0.53980000  0.83970000  1.0 -0.4727445209
C  C132  1  0.33820000  0.35520000  0.00950000  1.0 -0.4022162595
C  C133  1  0.45920000  0.27200000  0.06480000  1.0 -0.4498097696
C  C134  1  0.29710000  0.53530000  0.84110000  1.0 -0.0854028427
C  C135  1  0.29030000  0.58660000  0.84750000  1.0 -0.0223851984
C  C136  1  0.35710000  0.60860000  0.88540000  1.0 -0.1544932575
C  C137  1  0.37240000  0.56660000  0.88100000  1.0 0.0776543728
C  C138  1  0.24780000  0.60180000  0.82740000  1.0 0.5890904701
C  C139  1  0.75490000  0.33250000  0.25667000  1.0 0.5890904701
C  C140  1  0.54480000  0.97800000  0.04947000  1.0 -0.0495669601
C  C141  1  0.60010000  0.97380000  0.04707000  1.0 0.1377225257
C  C142  1  0.59820000  0.92230000  0.03327000  1.0 -0.2604938775
C  C143  1  0.54100000  0.87510000  0.02190000  1.0 0.1693401621
C  C144  1  0.48570000  0.87930000  0.02427000  1.0 -0.2604938775
C  C145  1  0.48760000  0.93080000  0.03807000  1.0 0.1512761574
C  C146  1  0.42790000  0.93710000  0.03667000  1.0 -0.4498097696
C  C147  1  0.54660000  0.08590000  0.10660000  1.0 -0.0680947793
C  C148  1  0.55240000  0.13820000  0.09206000  1.0 0.0963252819
C  C149  1  0.55500000  0.13850000  0.06363000  1.0 -0.0141391799
C  C150  1  0.55180000  0.08660000  0.04974000  1.0 -0.1795910015
C  C151  1  0.54600000  0.03430000  0.06428000  1.0 0.0002266842
C  C152  1  0.54340000  0.03400000  0.09271000  1.0 0.178729503
C  C153  1  0.42940000  0.97220000  0.19267000  1.0 -0.0495669601
C  C154  1  0.43890000  0.92680000  0.20617000  1.0 0.129096953
C  C155  1  0.38730000  0.87380000  0.21827000  1.0 -0.2398068447
C  C156  1  0.32630000  0.86630000  0.21687000  1.0 0.1592517072
C  C157  1  0.31670000  0.91160000  0.20337000  1.0 -0.2541279385
C  C158  1  0.36830000  0.96460000  0.19127000  1.0 0.1377225257
C  C159  1  0.71350000  0.27800000  0.23627000  1.0 -0.0280072039
C  C160  1  0.68520000  0.29300000  0.21487000  1.0 -0.1077459095
C  C161  1  0.64270000  0.24500000  0.19733000  1.0 -0.1401864353
C  C162  1  0.62860000  0.18210000  0.20116000  1.0 0.0776543728
C  C163  1  0.65690000  0.16700000  0.22257000  1.0 -0.1573399829
C  C164  1  0.69940000  0.21500000  0.24009000  1.0 -0.0981312815
C  C165  1  0.65300000  0.18560000  0.14097000  1.0 -0.4424903309
C  C166  1  0.50110000  0.93240000  0.20937000  1.0 -0.4498097696
C  C167  1  0.62110000  0.30590000  0.03667000  1.0 -0.0981312815
C  C168  1  0.53060000  0.08040000  0.19469000  1.0 -0.1861145212
C  C169  1  0.58230000  0.13250000  0.18228000  1.0 -0.0223851984
C  C170  1  0.58830000  0.13510000  0.15394000  1.0 0.0963252819
C  C171  1  0.54240000  0.08550000  0.13800000  1.0 -0.0630664501
C  C172  1  0.49060000  0.03330000  0.15041000  1.0 0.1693401621
C  C173  1  0.48470000  0.03080000  0.17877000  1.0 0.0002266842
C  C174  1  0.52700000  0.18630000  0.02507000  1.0 -0.1980919653
C  C175  1  0.53880000  0.19170000  0.10567000  1.0 -0.4424903309
C  C176  1  0.66440000  0.02180000  0.05877000  1.0 -0.4144015251
C  C177  1  0.53980000  0.81280000  0.00637000  1.0 -0.4727445209
C  C178  1  0.35520000  0.01700000  0.17617000  1.0 -0.4022162595
C  C179  1  0.27200000  0.81280000  0.23147000  1.0 -0.4498097696
C  C180  1  0.53530000  0.23820000  0.00777000  1.0 -0.0854028427
C  C181  1  0.58660000  0.29630000  0.01417000  1.0 -0.0223851984
C  C182  1  0.60860000  0.25150000  0.05207000  1.0 -0.1544932575
C  C183  1  0.56660000  0.19420000  0.04767000  1.0 0.0776543728
C  C184  1  0.60180000  0.35400000  0.99407000  1.0 0.5890904701
C  C185  1  0.66750000  0.42240000  0.92333000  1.0 0.5890904701
C  C186  1  0.02200000  0.56680000  0.71613000  1.0 -0.0495669601
C  C187  1  0.02620000  0.62630000  0.71373000  1.0 0.1377225257
C  C188  1  0.07770000  0.67590000  0.69993000  1.0 -0.2604938775
C  C189  1  0.12490000  0.66590000  0.68856000  1.0 0.1693401621
C  C190  1  0.12070000  0.60640000  0.69093000  1.0 -0.2655738854
C  C191  1  0.06920000  0.55680000  0.70473000  1.0 0.1512761574
C  C192  1  0.06290000  0.49080000  0.70333000  1.0 -0.4498097696
C  C193  1  0.91410000  0.46070000  0.77326000  1.0 -0.0680947793
C  C194  1  0.86180000  0.41420000  0.75872000  1.0 0.0963252819
C  C195  1  0.86150000  0.41650000  0.73029000  1.0 -0.0141391799
C  C196  1  0.91340000  0.46520000  0.71640000  1.0 -0.1795910015
C  C197  1  0.96570000  0.51170000  0.73094000  1.0 0.0002266842
C  C198  1  0.96600000  0.50940000  0.75937000  1.0 0.178729503
C  C199  1  0.02780000  0.45720000  0.85933000  1.0 -0.0495669601
C  C200  1  0.07320000  0.51210000  0.87283000  1.0 0.129096953
C  C201  1  0.12620000  0.51350000  0.88493000  1.0 -0.2398068447
C  C202  1  0.13370000  0.46000000  0.88353000  1.0 0.1592517072
C  C203  1  0.08840000  0.40510000  0.87003000  1.0 -0.2541279385
C  C204  1  0.03540000  0.40370000  0.85793000  1.0 0.1377225257
C  C205  1  0.72200000  0.43550000  0.90293000  1.0 -0.0280072039
C  C206  1  0.70700000  0.39220000  0.88153000  1.0 -0.1077459095
C  C207  1  0.75500000  0.39770000  0.86399000  1.0 -0.1401864353
C  C208  1  0.81790000  0.44650000  0.86782000  1.0 0.0776543728
C  C209  1  0.83300000  0.48990000  0.88923000  1.0 -0.1573399829
C  C210  1  0.78500000  0.48440000  0.90675000  1.0 -0.0981312815
C  C211  1  0.81440000  0.46740000  0.80763000  1.0 -0.4424903309
C  C212  1  0.06760000  0.56870000  0.87603000  1.0 -0.4498097696
C  C213  1  0.69410000  0.31520000  0.70333000  1.0 -0.0981312815
C  C214  1  0.91960000  0.45020000  0.86135000  1.0 -0.1861145212
C  C215  1  0.86750000  0.44980000  0.84894000  1.0 -0.0141391799
C  C216  1  0.86490000  0.45320000  0.82060000  1.0 0.0963252819
C  C217  1  0.91450000  0.45690000  0.80466000  1.0 -0.0630664501
C  C218  1  0.96670000  0.45730000  0.81707000  1.0 0.1693401621
C  C219  1  0.96920000  0.45390000  0.84543000  1.0 0.0002266842
C  C220  1  0.81370000  0.34070000  0.69173000  1.0 -0.1980919653
C  C221  1  0.80830000  0.34710000  0.77233000  1.0 -0.4424903309
C  C222  1  0.97820000  0.64260000  0.72543000  1.0 -0.4144015251
C  C223  1  0.18720000  0.72700000  0.67303000  1.0 -0.4727445209
C  C224  1  0.98300000  0.33820000  0.84283000  1.0 -0.4022162595
C  C225  1  0.18720000  0.45920000  0.89813000  1.0 -0.4498097696
C  C226  1  0.76180000  0.29710000  0.67443000  1.0 -0.0854028427
C  C227  1  0.70370000  0.29030000  0.68083000  1.0 -0.0223851984
C  C228  1  0.74850000  0.35710000  0.71873000  1.0 -0.1544932575
C  C229  1  0.80580000  0.37240000  0.71433000  1.0 0.0776543728
C  C230  1  0.64600000  0.24780000  0.66073000  1.0 0.5839959022
C  C231  1  0.57760000  0.24510000  0.59000000  1.0 0.5890904701
C  C232  1  0.43320000  0.45520000  0.38280000  1.0 -0.0495669601
C  C233  1  0.37370000  0.39990000  0.38040000  1.0 0.1377225257
C  C234  1  0.32410000  0.40180000  0.36660000  1.0 -0.2604938775
C  C235  1  0.33410000  0.45900000  0.35523000  1.0 0.1693401621
C  C236  1  0.39360000  0.51430000  0.35760000  1.0 -0.2604938775
C  C237  1  0.44320000  0.51240000  0.37140000  1.0 0.1512761574
C  C238  1  0.50920000  0.57210000  0.37000000  1.0 -0.4498097696
C  C239  1  0.53930000  0.45340000  0.43993000  1.0 -0.0680947793
C  C240  1  0.58580000  0.44760000  0.42539000  1.0 0.0963252819
C  C241  1  0.58350000  0.44500000  0.39696000  1.0 -0.0141391799
C  C242  1  0.53480000  0.44820000  0.38307000  1.0 -0.1795910015
C  C243  1  0.48830000  0.45400000  0.39761000  1.0 0.0002266842
C  C244  1  0.49060000  0.45660000  0.42604000  1.0 0.178729503
C  C245  1  0.54280000  0.57060000  0.52600000  1.0 -0.0495669601
C  C246  1  0.48790000  0.56110000  0.53950000  1.0 0.129096953
C  C247  1  0.48650000  0.61270000  0.55160000  1.0 -0.2398068447
C  C248  1  0.54000000  0.67370000  0.55020000  1.0 0.1592517072
C  C249  1  0.59490000  0.68330000  0.53670000  1.0 -0.2541279385
C  C250  1  0.59630000  0.63170000  0.52460000  1.0 0.1377225257
C  C251  1  0.56450000  0.28650000  0.56960000  1.0 -0.0280072039
C  C252  1  0.60780000  0.31480000  0.54820000  1.0 -0.1077459095
C  C253  1  0.60230000  0.35730000  0.53066000  1.0 -0.1401864353
C  C254  1  0.55350000  0.37140000  0.53449000  1.0 0.0776543728
C  C255  1  0.51010000  0.34310000  0.55590000  1.0 -0.1573399829
C  C256  1  0.51560000  0.30060000  0.57342000  1.0 -0.0981312815
C  C257  1  0.53260000  0.34700000  0.47430000  1.0 -0.4424903309
C  C258  1  0.43130000  0.49890000  0.54270000  1.0 -0.4498097696
C  C259  1  0.68480000  0.37890000  0.37000000  1.0 -0.0981312815
C  C260  1  0.54980000  0.46940000  0.52802000  1.0 -0.1861145212
C  C261  1  0.55020000  0.41770000  0.51561000  1.0 -0.0141391799
C  C262  1  0.54680000  0.41170000  0.48727000  1.0 0.0963252819
C  C263  1  0.54310000  0.45760000  0.47133000  1.0 -0.0630664501
C  C264  1  0.54270000  0.50940000  0.48374000  1.0 0.1693401621
C  C265  1  0.54610000  0.51530000  0.51210000  1.0 0.0002266842
C  C266  1  0.65930000  0.47300000  0.35840000  1.0 -0.1980919653
C  C267  1  0.65290000  0.46120000  0.43900000  1.0 -0.4424903309
C  C268  1  0.35740000  0.33560000  0.39210000  1.0 -0.4144015251
C  C269  1  0.27300000  0.46020000  0.33970000  1.0 -0.4727445209
C  C270  1  0.66180000  0.64480000  0.50950000  1.0 -0.4022162595
C  C271  1  0.54080000  0.72800000  0.56480000  1.0 -0.4498097696
C  C272  1  0.70290000  0.46470000  0.34110000  1.0 -0.0854028427
C  C273  1  0.70970000  0.41340000  0.34750000  1.0 -0.0223851984
C  C274  1  0.64290000  0.39140000  0.38540000  1.0 -0.1544932575
C  C275  1  0.62760000  0.43340000  0.38100000  1.0 0.0776543728
C  C276  1  0.75220000  0.39820000  0.32740000  1.0 0.5839959022
C  C277  1  0.57760000  0.33250000  0.24333000  1.0 0.5890904701
C  C278  1  0.43320000  0.97800000  0.45053000  1.0 -0.0495669601
C  C279  1  0.37370000  0.97380000  0.45293000  1.0 0.129096953
C  C280  1  0.32410000  0.92230000  0.46673000  1.0 -0.2604938775
C  C281  1  0.33410000  0.87510000  0.47810000  1.0 0.1693401621
C  C282  1  0.39360000  0.87930000  0.47573000  1.0 -0.2604938775
C  C283  1  0.44320000  0.93080000  0.46193000  1.0 0.1512761574
C  C284  1  0.50920000  0.93710000  0.46333000  1.0 -0.4498097696
C  C285  1  0.53930000  0.08590000  0.39340000  1.0 -0.0680947793
C  C286  1  0.58580000  0.13820000  0.40794000  1.0 0.0963252819
C  C287  1  0.58350000  0.13850000  0.43637000  1.0 -0.0141391799
C  C288  1  0.53480000  0.08660000  0.45026000  1.0 -0.1795910015
C  C289  1  0.48830000  0.03430000  0.43572000  1.0 -0.0005276167
C  C290  1  0.49060000  0.03400000  0.40729000  1.0 0.178729503
C  C291  1  0.54280000  0.97220000  0.30733000  1.0 -0.0495669601
C  C292  1  0.48790000  0.92680000  0.29383000  1.0 0.129096953
C  C293  1  0.48650000  0.87380000  0.28173000  1.0 -0.2398068447
C  C294  1  0.54000000  0.86630000  0.28313000  1.0 0.1592517072
C  C295  1  0.59490000  0.91160000  0.29663000  1.0 -0.2541279385
C  C296  1  0.59630000  0.96460000  0.30873000  1.0 0.1377225257
C  C297  1  0.56450000  0.27800000  0.26373000  1.0 -0.0280072039
C  C298  1  0.60780000  0.29300000  0.28513000  1.0 -0.1077459095
C  C299  1  0.60230000  0.24500000  0.30267000  1.0 -0.1401864353
C  C300  1  0.55350000  0.18210000  0.29884000  1.0 0.0776543728
C  C301  1  0.51010000  0.16700000  0.27743000  1.0 -0.1573399829
C  C302  1  0.51560000  0.21500000  0.25991000  1.0 -0.0981312815
C  C303  1  0.53260000  0.18560000  0.35903000  1.0 -0.4424903309
C  C304  1  0.43130000  0.93240000  0.29063000  1.0 -0.4498097696
C  C305  1  0.68480000  0.30590000  0.46333000  1.0 -0.0981312815
C  C306  1  0.54980000  0.08040000  0.30531000  1.0 -0.1861145212
C  C307  1  0.55020000  0.13250000  0.31772000  1.0 -0.0141391799
C  C308  1  0.54680000  0.13510000  0.34606000  1.0 0.0963252819
C  C309  1  0.54310000  0.08550000  0.36200000  1.0 -0.0630664501
C  C310  1  0.54270000  0.03330000  0.34959000  1.0 0.1693401621
C  C311  1  0.54610000  0.03080000  0.32123000  1.0 -0.0005276167
C  C312  1  0.65930000  0.18630000  0.47493000  1.0 -0.1980919653
C  C313  1  0.65290000  0.19170000  0.39433000  1.0 -0.4424903309
C  C314  1  0.35740000  0.02180000  0.44123000  1.0 -0.4144015251
C  C315  1  0.27300000  0.81280000  0.49363000  1.0 -0.4727445209
C  C316  1  0.66180000  0.01700000  0.32383000  1.0 -0.4022162595
C  C317  1  0.54080000  0.81280000  0.26853000  1.0 -0.4498097696
C  C318  1  0.70290000  0.23820000  0.49223000  1.0 -0.0854028427
C  C319  1  0.70970000  0.29630000  0.48583000  1.0 -0.0223851984
C  C320  1  0.64290000  0.25150000  0.44793000  1.0 -0.1544932575
C  C321  1  0.62760000  0.19420000  0.45233000  1.0 0.0776543728
C  C322  1  0.75220000  0.35400000  0.50593000  1.0 0.5839959022
C  C323  1  0.75490000  0.42240000  0.57667000  1.0 0.5890904701
C  C324  1  0.54480000  0.56680000  0.78387000  1.0 -0.0495669601
C  C325  1  0.60010000  0.62630000  0.78627000  1.0 0.129096953
C  C326  1  0.59820000  0.67590000  0.80007000  1.0 -0.2604938775
C  C327  1  0.54100000  0.66590000  0.81144000  1.0 0.1693401621
C  C328  1  0.48570000  0.60640000  0.80907000  1.0 -0.2604938775
C  C329  1  0.48760000  0.55680000  0.79527000  1.0 0.1512761574
C  C330  1  0.42790000  0.49080000  0.79667000  1.0 -0.4498097696
C  C331  1  0.54660000  0.46070000  0.72674000  1.0 -0.0680947793
C  C332  1  0.55240000  0.41420000  0.74128000  1.0 0.0963252819
C  C333  1  0.55500000  0.41650000  0.76971000  1.0 -0.0141391799
C  C334  1  0.55180000  0.46520000  0.78360000  1.0 -0.1795910015
C  C335  1  0.54600000  0.51170000  0.76906000  1.0 0.0002266842
C  C336  1  0.54340000  0.50940000  0.74063000  1.0 0.178729503
C  C337  1  0.42940000  0.45720000  0.64067000  1.0 -0.0495669601
C  C338  1  0.43890000  0.51210000  0.62717000  1.0 0.129096953
C  C339  1  0.38730000  0.51350000  0.61507000  1.0 -0.2398068447
C  C340  1  0.32630000  0.46000000  0.61647000  1.0 0.1592517072
C  C341  1  0.31670000  0.40510000  0.62997000  1.0 -0.2541279385
C  C342  1  0.36830000  0.40370000  0.64207000  1.0 0.1377225257
C  C343  1  0.71350000  0.43550000  0.59707000  1.0 -0.0280072039
C  C344  1  0.68520000  0.39220000  0.61847000  1.0 -0.1077459095
C  C345  1  0.64270000  0.39770000  0.63601000  1.0 -0.1401864353
C  C346  1  0.62860000  0.44650000  0.63218000  1.0 0.0776543728
C  C347  1  0.65690000  0.48990000  0.61077000  1.0 -0.1573399829
C  C348  1  0.69940000  0.48440000  0.59325000  1.0 -0.0981312815
C  C349  1  0.65300000  0.46740000  0.69237000  1.0 -0.4424903309
C  C350  1  0.50110000  0.56870000  0.62397000  1.0 -0.4498097696
C  C351  1  0.62110000  0.31520000  0.79667000  1.0 -0.0981312815
C  C352  1  0.53060000  0.45020000  0.63865000  1.0 -0.1861145212
C  C353  1  0.58230000  0.44980000  0.65106000  1.0 -0.0141391799
C  C354  1  0.58830000  0.45320000  0.67940000  1.0 0.0963252819
C  C355  1  0.54240000  0.45690000  0.69534000  1.0 -0.0630664501
C  C356  1  0.49060000  0.45730000  0.68293000  1.0 0.1693401621
C  C357  1  0.48470000  0.45390000  0.65457000  1.0 0.0002266842
C  C358  1  0.52700000  0.34070000  0.80827000  1.0 -0.1980919653
C  C359  1  0.53880000  0.34710000  0.72767000  1.0 -0.4424903309
C  C360  1  0.66440000  0.64260000  0.77457000  1.0 -0.4144015251
C  C361  1  0.53980000  0.72700000  0.82697000  1.0 -0.4727445209
C  C362  1  0.35520000  0.33820000  0.65717000  1.0 -0.4022162595
C  C363  1  0.27200000  0.45920000  0.60187000  1.0 -0.4498097696
C  C364  1  0.53530000  0.29710000  0.82557000  1.0 -0.0854028427
C  C365  1  0.58660000  0.29030000  0.81917000  1.0 -0.0223851984
C  C366  1  0.60860000  0.35710000  0.78127000  1.0 -0.1544932575
C  C367  1  0.56660000  0.37240000  0.78567000  1.0 0.0776543728
C  C368  1  0.60180000  0.24780000  0.83927000  1.0 0.5839959022
C  C369  1  0.66750000  0.24510000  0.91000000  1.0 0.5890904701
C  C370  1  0.02200000  0.45520000  0.11720000  1.0 -0.0495669601
C  C371  1  0.02620000  0.39990000  0.11960000  1.0 0.1377225257
C  C372  1  0.07770000  0.40180000  0.13340000  1.0 -0.2604938775
C  C373  1  0.12490000  0.45900000  0.14477000  1.0 0.1693401621
C  C374  1  0.12070000  0.51430000  0.14240000  1.0 -0.2604938775
C  C375  1  0.06920000  0.51240000  0.12860000  1.0 0.1512761574
C  C376  1  0.06290000  0.57210000  0.13000000  1.0 -0.4498097696
C  C377  1  0.91410000  0.45340000  0.06007000  1.0 -0.0680947793
C  C378  1  0.86180000  0.44760000  0.07461000  1.0 0.0963252819
C  C379  1  0.86150000  0.44500000  0.10304000  1.0 -0.0141391799
C  C380  1  0.91340000  0.44820000  0.11693000  1.0 -0.1795910015
C  C381  1  0.96570000  0.45400000  0.10239000  1.0 0.0002266842
C  C382  1  0.96600000  0.45660000  0.07396000  1.0 0.178729503
C  C383  1  0.02780000  0.57060000  0.97400000  1.0 -0.0495669601
C  C384  1  0.07320000  0.56110000  0.96050000  1.0 0.129096953
C  C385  1  0.12620000  0.61270000  0.94840000  1.0 -0.2398068447
C  C386  1  0.13370000  0.67370000  0.94980000  1.0 0.1592517072
C  C387  1  0.08840000  0.68330000  0.96330000  1.0 -0.2541279385
C  C388  1  0.03540000  0.63170000  0.97540000  1.0 0.1377225257
C  C389  1  0.72200000  0.28650000  0.93040000  1.0 -0.0280072039
C  C390  1  0.70700000  0.31480000  0.95180000  1.0 -0.1077459095
C  C391  1  0.75500000  0.35730000  0.96934000  1.0 -0.1401864353
C  C392  1  0.81790000  0.37140000  0.96551000  1.0 0.0776543728
C  C393  1  0.83300000  0.34310000  0.94410000  1.0 -0.1573399829
C  C394  1  0.78500000  0.30060000  0.92658000  1.0 -0.0981312815
C  C395  1  0.81440000  0.34700000  0.02570000  1.0 -0.4424903309
C  C396  1  0.06760000  0.49890000  0.95730000  1.0 -0.4498097696
C  C397  1  0.69410000  0.37890000  0.13000000  1.0 -0.0981312815
C  C398  1  0.91960000  0.46940000  0.97198000  1.0 -0.1861145212
C  C399  1  0.86750000  0.41770000  0.98439000  1.0 -0.0141391799
C  C400  1  0.86490000  0.41170000  0.01273000  1.0 0.0963252819
C  C401  1  0.91450000  0.45760000  0.02867000  1.0 -0.0630664501
C  C402  1  0.96670000  0.50940000  0.01626000  1.0 0.1693401621
C  C403  1  0.96920000  0.51530000  0.98790000  1.0 0.0002266842
C  C404  1  0.81370000  0.47300000  0.14160000  1.0 -0.1980919653
C  C405  1  0.80830000  0.46120000  0.06100000  1.0 -0.4424903309
C  C406  1  0.97820000  0.33560000  0.10790000  1.0 -0.4144015251
C  C407  1  0.18720000  0.46020000  0.16030000  1.0 -0.4727445209
C  C408  1  0.98300000  0.64480000  0.99050000  1.0 -0.4022162595
C  C409  1  0.18720000  0.72800000  0.93520000  1.0 -0.4498097696
C  C410  1  0.76180000  0.46470000  0.15890000  1.0 -0.0854028427
C  C411  1  0.70370000  0.41340000  0.15250000  1.0 -0.0223851984
C  C412  1  0.74850000  0.39140000  0.11460000  1.0 -0.1544932575
C  C413  1  0.80580000  0.43340000  0.11900000  1.0 0.0776543728
C  C414  1  0.64600000  0.39820000  0.17260000  1.0 0.5839959022
C  C415  1  0.42240000  0.66750000  0.74333000  1.0 0.5890904701
C  C416  1  0.56680000  0.02200000  0.95053000  1.0 -0.0495669601
C  C417  1  0.62630000  0.02620000  0.95293000  1.0 0.1377225257
C  C418  1  0.67590000  0.07770000  0.96673000  1.0 -0.2604938775
C  C419  1  0.66590000  0.12490000  0.97810000  1.0 0.1693401621
C  C420  1  0.60640000  0.12070000  0.97573000  1.0 -0.2604938775
C  C421  1  0.55680000  0.06920000  0.96193000  1.0 0.1512761574
C  C422  1  0.49080000  0.06290000  0.96333000  1.0 -0.4498097696
C  C423  1  0.46070000  0.91410000  0.89340000  1.0 -0.0680947793
C  C424  1  0.41420000  0.86180000  0.90794000  1.0 0.0963252819
C  C425  1  0.41650000  0.86150000  0.93637000  1.0 -0.0141391799
C  C426  1  0.46520000  0.91340000  0.95026000  1.0 -0.1795910015
C  C427  1  0.51170000  0.96570000  0.93572000  1.0 0.0002266842
C  C428  1  0.50940000  0.96600000  0.90729000  1.0 0.178729503
C  C429  1  0.45720000  0.02780000  0.80733000  1.0 -0.0495669601
C  C430  1  0.51210000  0.07320000  0.79383000  1.0 0.129096953
C  C431  1  0.51350000  0.12620000  0.78173000  1.0 -0.2398068447
C  C432  1  0.46000000  0.13370000  0.78313000  1.0 0.1592517072
C  C433  1  0.40510000  0.08840000  0.79663000  1.0 -0.2541279385
C  C434  1  0.40370000  0.03540000  0.80873000  1.0 0.1377225257
C  C435  1  0.43550000  0.72200000  0.76373000  1.0 -0.0280072039
C  C436  1  0.39220000  0.70700000  0.78513000  1.0 -0.1077459095
C  C437  1  0.39770000  0.75500000  0.80267000  1.0 -0.1401864353
C  C438  1  0.44650000  0.81790000  0.79884000  1.0 0.0776543728
C  C439  1  0.48990000  0.83300000  0.77743000  1.0 -0.1573399829
C  C440  1  0.48440000  0.78500000  0.75991000  1.0 -0.0981312815
C  C441  1  0.46740000  0.81440000  0.85903000  1.0 -0.4424903309
C  C442  1  0.56870000  0.06760000  0.79063000  1.0 -0.4498097696
C  C443  1  0.31520000  0.69410000  0.96333000  1.0 -0.0981312815
C  C444  1  0.45020000  0.91960000  0.80531000  1.0 -0.1861145212
C  C445  1  0.44980000  0.86750000  0.81772000  1.0 -0.0141391799
C  C446  1  0.45320000  0.86490000  0.84606000  1.0 0.0963252819
C  C447  1  0.45690000  0.91450000  0.86200000  1.0 -0.0630664501
C  C448  1  0.45730000  0.96670000  0.84959000  1.0 0.1693401621
C  C449  1  0.45390000  0.96920000  0.82123000  1.0 0.0002266842
C  C450  1  0.34070000  0.81370000  0.97493000  1.0 -0.1980919653
C  C451  1  0.34710000  0.80830000  0.89433000  1.0 -0.4424903309
C  C452  1  0.64260000  0.97820000  0.94123000  1.0 -0.4144015251
C  C453  1  0.72700000  0.18720000  0.99363000  1.0 -0.4727445209
C  C454  1  0.33820000  0.98300000  0.82383000  1.0 -0.4022162595
C  C455  1  0.45920000  0.18720000  0.76853000  1.0 -0.4498097696
C  C456  1  0.29710000  0.76180000  0.99223000  1.0 -0.0854028427
C  C457  1  0.29030000  0.70370000  0.98583000  1.0 -0.0223851984
C  C458  1  0.35710000  0.74850000  0.94793000  1.0 -0.1544932575
C  C459  1  0.37240000  0.80580000  0.95233000  1.0 0.0776543728
C  C460  1  0.24780000  0.64600000  0.00593000  1.0 0.5890904701
C  C461  1  0.24510000  0.57760000  0.07667000  1.0 0.5890904701
C  C462  1  0.45520000  0.43320000  0.28387000  1.0 -0.0495669601
C  C463  1  0.39990000  0.37370000  0.28627000  1.0 0.1377225257
C  C464  1  0.40180000  0.32410000  0.30007000  1.0 -0.2604938775
C  C465  1  0.45900000  0.33410000  0.31144000  1.0 0.1693401621
C  C466  1  0.51430000  0.39360000  0.30907000  1.0 -0.2604938775
C  C467  1  0.51240000  0.44320000  0.29527000  1.0 0.1512761574
C  C468  1  0.57210000  0.50920000  0.29667000  1.0 -0.4498097696
C  C469  1  0.45340000  0.53930000  0.22674000  1.0 -0.0680947793
C  C470  1  0.44760000  0.58580000  0.24128000  1.0 0.0963252819
C  C471  1  0.44500000  0.58350000  0.26971000  1.0 -0.0141391799
C  C472  1  0.44820000  0.53480000  0.28360000  1.0 -0.1795910015
C  C473  1  0.45400000  0.48830000  0.26906000  1.0 0.0002266842
C  C474  1  0.45660000  0.49060000  0.24063000  1.0 0.178729503
C  C475  1  0.57060000  0.54280000  0.14067000  1.0 -0.0495669601
C  C476  1  0.56110000  0.48790000  0.12717000  1.0 0.129096953
C  C477  1  0.61270000  0.48650000  0.11507000  1.0 -0.2398068447
C  C478  1  0.67370000  0.54000000  0.11647000  1.0 0.1592517072
C  C479  1  0.68330000  0.59490000  0.12997000  1.0 -0.2541279385
C  C480  1  0.63170000  0.59630000  0.14207000  1.0 0.1377225257
C  C481  1  0.28650000  0.56450000  0.09707000  1.0 -0.0280072039
C  C482  1  0.31480000  0.60780000  0.11847000  1.0 -0.1077459095
C  C483  1  0.35730000  0.60230000  0.13601000  1.0 -0.1401864353
C  C484  1  0.37140000  0.55350000  0.13218000  1.0 0.0776543728
C  C485  1  0.34310000  0.51010000  0.11077000  1.0 -0.1573399829
C  C486  1  0.30060000  0.51560000  0.09325000  1.0 -0.0981312815
C  C487  1  0.34700000  0.53260000  0.19237000  1.0 -0.4424903309
C  C488  1  0.49890000  0.43130000  0.12397000  1.0 -0.4498097696
C  C489  1  0.37890000  0.68480000  0.29667000  1.0 -0.0981312815
C  C490  1  0.46940000  0.54980000  0.13865000  1.0 -0.1861145212
C  C491  1  0.41770000  0.55020000  0.15106000  1.0 -0.0141391799
C  C492  1  0.41170000  0.54680000  0.17940000  1.0 0.0963252819
C  C493  1  0.45760000  0.54310000  0.19534000  1.0 -0.0630664501
C  C494  1  0.50940000  0.54270000  0.18293000  1.0 0.1693401621
C  C495  1  0.51530000  0.54610000  0.15457000  1.0 0.0002266842
C  C496  1  0.47300000  0.65930000  0.30827000  1.0 -0.1980919653
C  C497  1  0.46120000  0.65290000  0.22767000  1.0 -0.4424903309
C  C498  1  0.33560000  0.35740000  0.27457000  1.0 -0.4144015251
C  C499  1  0.46020000  0.27300000  0.32697000  1.0 -0.4727445209
C  C500  1  0.64480000  0.66180000  0.15717000  1.0 -0.4022162595
C  C501  1  0.72800000  0.54080000  0.10187000  1.0 -0.4498097696
C  C502  1  0.46470000  0.70290000  0.32557000  1.0 -0.0854028427
C  C503  1  0.41340000  0.70970000  0.31917000  1.0 -0.0223851984
C  C504  1  0.39140000  0.64290000  0.28127000  1.0 -0.1544932575
C  C505  1  0.43340000  0.62760000  0.28567000  1.0 0.0776543728
C  C506  1  0.39820000  0.75220000  0.33927000  1.0 0.5890904701
C  C507  1  0.33250000  0.75490000  0.41000000  1.0 0.5890904701
C  C508  1  0.97800000  0.54480000  0.61720000  1.0 -0.0495669601
C  C509  1  0.97380000  0.60010000  0.61960000  1.0 0.129096953
C  C510  1  0.92230000  0.59820000  0.63340000  1.0 -0.2604938775
C  C511  1  0.87510000  0.54100000  0.64477000  1.0 0.1693401621
C  C512  1  0.87930000  0.48570000  0.64240000  1.0 -0.2604938775
C  C513  1  0.93080000  0.48760000  0.62860000  1.0 0.1512761574
C  C514  1  0.93710000  0.42790000  0.63000000  1.0 -0.4498097696
C  C515  1  0.08590000  0.54660000  0.56007000  1.0 -0.0680947793
C  C516  1  0.13820000  0.55240000  0.57461000  1.0 0.0963252819
C  C517  1  0.13850000  0.55500000  0.60304000  1.0 -0.0141391799
C  C518  1  0.08660000  0.55180000  0.61693000  1.0 -0.1795910015
C  C519  1  0.03430000  0.54600000  0.60239000  1.0 0.0002266842
C  C520  1  0.03400000  0.54340000  0.57396000  1.0 0.178729503
C  C521  1  0.97220000  0.42940000  0.47400000  1.0 -0.0495669601
C  C522  1  0.92680000  0.43890000  0.46050000  1.0 0.129096953
C  C523  1  0.87380000  0.38730000  0.44840000  1.0 -0.2398068447
C  C524  1  0.86630000  0.32630000  0.44980000  1.0 0.1592517072
C  C525  1  0.91160000  0.31670000  0.46330000  1.0 -0.2541279385
C  C526  1  0.96460000  0.36830000  0.47540000  1.0 0.1377225257
C  C527  1  0.27800000  0.71350000  0.43040000  1.0 -0.0280072039
C  C528  1  0.29300000  0.68520000  0.45180000  1.0 -0.1077459095
C  C529  1  0.24500000  0.64270000  0.46934000  1.0 -0.1401864353
C  C530  1  0.18210000  0.62860000  0.46551000  1.0 0.0776543728
C  C531  1  0.16700000  0.65690000  0.44410000  1.0 -0.1573399829
C  C532  1  0.21500000  0.69940000  0.42658000  1.0 -0.0981312815
C  C533  1  0.18560000  0.65300000  0.52570000  1.0 -0.4424903309
C  C534  1  0.93240000  0.50110000  0.45730000  1.0 -0.4498097696
C  C535  1  0.30590000  0.62110000  0.63000000  1.0 -0.0981312815
C  C536  1  0.08040000  0.53060000  0.47198000  1.0 -0.1861145212
C  C537  1  0.13250000  0.58230000  0.48439000  1.0 -0.0141391799
C  C538  1  0.13510000  0.58830000  0.51273000  1.0 0.0963252819
C  C539  1  0.08550000  0.54240000  0.52867000  1.0 -0.0630664501
C  C540  1  0.03330000  0.49060000  0.51626000  1.0 0.1693401621
C  C541  1  0.03080000  0.48470000  0.48790000  1.0 0.0002266842
C  C542  1  0.18630000  0.52700000  0.64160000  1.0 -0.1980919653
C  C543  1  0.19170000  0.53880000  0.56100000  1.0 -0.4424903309
C  C544  1  0.02180000  0.66440000  0.60790000  1.0 -0.4144015251
C  C545  1  0.81280000  0.53980000  0.66030000  1.0 -0.4727445209
C  C546  1  0.01700000  0.35520000  0.49050000  1.0 -0.4022162595
C  C547  1  0.81280000  0.27200000  0.43520000  1.0 -0.4498097696
C  C548  1  0.23820000  0.53530000  0.65890000  1.0 -0.0854028427
C  C549  1  0.29630000  0.58660000  0.65250000  1.0 -0.0223851984
C  C550  1  0.25150000  0.60860000  0.61460000  1.0 -0.1544932575
C  C551  1  0.19420000  0.56660000  0.61900000  1.0 0.0776543728
C  C552  1  0.35400000  0.60180000  0.67260000  1.0 0.5890904701
O  O1  1  0.57870000  0.10570000  0.60068000  1.0 -0.7868329176
O  O2  1  0.55240000  0.01890000  0.63410000  1.0 -0.4498097696
O  O3  1  0.51160000  0.10150000  0.64268000  1.0 -0.7868329176
O  O4  1  0.23800000  0.61460000  0.75487000  1.0 -0.4772319758
O  O5  1  0.46110000  0.01770000  0.60768000  1.0 -0.4328925201
O  O6  1  0.22850000  0.69580000  0.77667000  1.0 -0.6288241311
O  O7  1  0.35340000  0.59090000  0.50297000  1.0 -0.5726886058
O  O8  1  0.43990000  0.65810000  0.47617000  1.0 -0.5768202209
O  O9  1  0.89430000  0.47300000  0.26734000  1.0 -0.7868329176
O  O10  1  0.98110000  0.53350000  0.30076000  1.0 -0.4498097696
O  O11  1  0.89850000  0.41010000  0.30934000  1.0 -0.7868329176
O  O12  1  0.38540000  0.62340000  0.42153000  1.0 -0.4772319758
O  O13  1  0.98230000  0.44340000  0.27434000  1.0 -0.4328925201
O  O14  1  0.30420000  0.53270000  0.44333000  1.0 -0.6288241311
O  O15  1  0.40910000  0.76250000  0.16963000  1.0 -0.5726886058
O  O16  1  0.34190000  0.78180000  0.14283000  1.0 -0.5768202209
O  O17  1  0.52700000  0.42130000  0.93401000  1.0 -0.7868329176
O  O18  1  0.46650000  0.44760000  0.96743000  1.0 -0.4498097696
O  O19  1  0.58990000  0.48840000  0.97601000  1.0 -0.7868329176
O  O20  1  0.37660000  0.76200000  0.08820000  1.0 -0.4772319758
O  O21  1  0.55660000  0.53890000  0.94101000  1.0 -0.4328925201
O  O22  1  0.46730000  0.77150000  0.11000000  1.0 -0.6288241311
O  O23  1  0.23750000  0.64660000  0.83630000  1.0 -0.5726886058
O  O24  1  0.21820000  0.56010000  0.80950000  1.0 -0.5768202209
O  O25  1  0.42130000  0.89430000  0.10068000  1.0 -0.7868329176
O  O26  1  0.44760000  0.98110000  0.13410000  1.0 -0.4498097696
O  O27  1  0.48840000  0.89850000  0.14268000  1.0 -0.7868329176
O  O28  1  0.76200000  0.38540000  0.25487000  1.0 -0.4772319758
O  O29  1  0.53890000  0.98230000  0.10768000  1.0 -0.4328925201
O  O30  1  0.77150000  0.30420000  0.27667000  1.0 -0.6288241311
O  O31  1  0.64660000  0.40910000  0.00297000  1.0 -0.5726886058
O  O32  1  0.56010000  0.34190000  0.97617000  1.0 -0.5768202209
O  O33  1  0.10570000  0.52700000  0.76734000  1.0 -0.7868329176
O  O34  1  0.01890000  0.46650000  0.80076000  1.0 -0.4498097696
O  O35  1  0.10150000  0.58990000  0.80934000  1.0 -0.7868329176
O  O36  1  0.61460000  0.37660000  0.92153000  1.0 -0.4772319758
O  O37  1  0.01770000  0.55660000  0.77434000  1.0 -0.4328925201
O  O38  1  0.69580000  0.46730000  0.94333000  1.0 -0.6288241311
O  O39  1  0.59090000  0.23750000  0.66963000  1.0 -0.5726886058
O  O40  1  0.65810000  0.21820000  0.64283000  1.0 -0.5768202209
O  O41  1  0.47300000  0.57870000  0.43401000  1.0 -0.7868329176
O  O42  1  0.53350000  0.55240000  0.46743000  1.0 -0.4498097696
O  O43  1  0.41010000  0.51160000  0.47601000  1.0 -0.7868329176
O  O44  1  0.62340000  0.23800000  0.58820000  1.0 -0.4772319758
O  O45  1  0.44340000  0.46110000  0.44101000  1.0 -0.4328925201
O  O46  1  0.53270000  0.22850000  0.61000000  1.0 -0.6288241311
O  O47  1  0.76250000  0.35340000  0.33630000  1.0 -0.5726886058
O  O48  1  0.78180000  0.43990000  0.30950000  1.0 -0.5768202209
O  O49  1  0.47300000  0.89430000  0.39932000  1.0 -0.7868329176
O  O50  1  0.53350000  0.98110000  0.36590000  1.0 -0.4498097696
O  O51  1  0.41010000  0.89850000  0.35732000  1.0 -0.7868329176
O  O52  1  0.62340000  0.38540000  0.24513000  1.0 -0.4772319758
O  O53  1  0.44340000  0.98230000  0.39232000  1.0 -0.4328925201
O  O54  1  0.53270000  0.30420000  0.22333000  1.0 -0.6288241311
O  O55  1  0.76250000  0.40910000  0.49703000  1.0 -0.5726886058
O  O56  1  0.78180000  0.34190000  0.52383000  1.0 -0.5768202209
O  O57  1  0.42130000  0.52700000  0.73266000  1.0 -0.7868329176
O  O58  1  0.44760000  0.46650000  0.69924000  1.0 -0.4498097696
O  O59  1  0.48840000  0.58990000  0.69066000  1.0 -0.7868329176
O  O60  1  0.76200000  0.37660000  0.57847000  1.0 -0.4772319758
O  O61  1  0.53890000  0.55660000  0.72566000  1.0 -0.4328925201
O  O62  1  0.77150000  0.46730000  0.55667000  1.0 -0.6288241311
O  O63  1  0.64660000  0.23750000  0.83037000  1.0 -0.5726886058
O  O64  1  0.56010000  0.21820000  0.85717000  1.0 -0.5768202209
O  O65  1  0.10570000  0.57870000  0.06599000  1.0 -0.7868329176
O  O66  1  0.01890000  0.55240000  0.03257000  1.0 -0.4424903309
O  O67  1  0.10150000  0.51160000  0.02399000  1.0 -0.7868329176
O  O68  1  0.61460000  0.23800000  0.91180000  1.0 -0.4772319758
O  O69  1  0.01770000  0.46110000  0.05899000  1.0 -0.4328925201
O  O70  1  0.69580000  0.22850000  0.89000000  1.0 -0.6288241311
O  O71  1  0.59090000  0.35340000  0.16370000  1.0 -0.5726886058
O  O72  1  0.65810000  0.43990000  0.19050000  1.0 -0.5768202209
O  O73  1  0.52700000  0.10570000  0.89932000  1.0 -0.7868329176
O  O74  1  0.46650000  0.01890000  0.86590000  1.0 -0.4498097696
O  O75  1  0.58990000  0.10150000  0.85732000  1.0 -0.7868329176
O  O76  1  0.37660000  0.61460000  0.74513000  1.0 -0.4772319758
O  O77  1  0.55660000  0.01770000  0.89232000  1.0 -0.4328925201
O  O78  1  0.46730000  0.69580000  0.72333000  1.0 -0.6288241311
O  O79  1  0.23750000  0.59090000  0.99703000  1.0 -0.5726886058
O  O80  1  0.21820000  0.65810000  0.02383000  1.0 -0.5768202209
O  O81  1  0.57870000  0.47300000  0.23266000  1.0 -0.7868329176
O  O82  1  0.55240000  0.53350000  0.19924000  1.0 -0.4498097696
O  O83  1  0.51160000  0.41010000  0.19066000  1.0 -0.7868329176
O  O84  1  0.23800000  0.62340000  0.07847000  1.0 -0.4772319758
O  O85  1  0.46110000  0.44340000  0.22566000  1.0 -0.4328925201
O  O86  1  0.22850000  0.53270000  0.05667000  1.0 -0.6288241311
O  O87  1  0.35340000  0.76250000  0.33037000  1.0 -0.5726886058
O  O88  1  0.43990000  0.78180000  0.35717000  1.0 -0.5768202209
O  O89  1  0.89430000  0.42130000  0.56599000  1.0 -0.7868329176
O  O90  1  0.98110000  0.44760000  0.53257000  1.0 -0.4498097696
O  O91  1  0.89850000  0.48840000  0.52399000  1.0 -0.7868329176
O  O92  1  0.38540000  0.76200000  0.41180000  1.0 -0.4772319758
O  O93  1  0.98230000  0.53890000  0.55899000  1.0 -0.4328925201
O  O94  1  0.30420000  0.77150000  0.39000000  1.0 -0.6288241311
O  O95  1  0.40910000  0.64660000  0.66370000  1.0 -0.5726886058
O  O96  1  0.34190000  0.56010000  0.69050000  1.0 -0.5768202209
