# DDEC6 charges by PACMAN v1.1 (https://github.com/mtap-research/PACMAN-charge/)
data_TUWFID_ASR_pacman
_symmetry_space_group_name_H-M   'P 1'
_cell_length_a   24.20830000
_cell_length_b   24.20830000
_cell_length_c   48.99720000
_cell_angle_alpha   90.00000000
_cell_angle_beta   90.00000000
_cell_angle_gamma   120.00000000
_symmetry_Int_Tables_number   1
_chemical_formula_structural   Sr2PH41C49O11
_chemical_formula_sum   'Sr24 P12 H492 C588 O132'
_cell_volume   24867.40569023
_cell_formula_units_Z   12
loop_
 _symmetry_equiv_pos_site_id
 _symmetry_equiv_pos_as_xyz
  1  'x, y, z'
loop_
 _atom_site_type_symbol
 _atom_site_label
 _atom_site_symmetry_multiplicity
 _atom_site_fract_x
 _atom_site_fract_y
 _atom_site_fract_z
 _atom_site_occupancy
 _atom_site_charge
Sr  Sr1  1  0.19226000  0.67523000  0.56157000  1.0 1.4806220887
Sr  Sr2  1  0.18450000  0.52992000  0.52222000  1.0 1.3738155324
Sr  Sr3  1  0.48297000  0.80774000  0.89491000  1.0 1.4806220887
Sr  Sr4  1  0.34542000  0.81550000  0.85556000  1.0 1.3738155324
Sr  Sr5  1  0.32477000  0.51703000  0.22824000  1.0 1.4806220887
Sr  Sr6  1  0.47008000  0.65458000  0.18889000  1.0 1.3738155324
Sr  Sr7  1  0.80774000  0.32477000  0.06157000  1.0 1.4806220887
Sr  Sr8  1  0.81550000  0.47008000  0.02222000  1.0 1.3738155324
Sr  Sr9  1  0.51703000  0.19226000  0.39491000  1.0 1.4806220887
Sr  Sr10  1  0.65458000  0.18450000  0.35556000  1.0 1.3738155324
Sr  Sr11  1  0.67523000  0.48297000  0.72824000  1.0 1.4806220887
Sr  Sr12  1  0.52992000  0.34542000  0.68889000  1.0 1.3738155324
Sr  Sr13  1  0.51703000  0.32477000  0.43843000  1.0 1.4806220887
Sr  Sr14  1  0.65458000  0.47008000  0.47778000  1.0 1.3738155324
Sr  Sr15  1  0.67523000  0.19226000  0.10509000  1.0 1.4806220887
Sr  Sr16  1  0.52992000  0.18450000  0.14444000  1.0 1.3738155324
Sr  Sr17  1  0.80774000  0.48297000  0.77176000  1.0 1.4806220887
Sr  Sr18  1  0.81550000  0.34542000  0.81111000  1.0 1.3738155324
Sr  Sr19  1  0.48297000  0.67523000  0.93843000  1.0 1.4806220887
Sr  Sr20  1  0.34542000  0.52992000  0.97778000  1.0 1.3738155324
Sr  Sr21  1  0.32477000  0.80774000  0.60509000  1.0 1.4806220887
Sr  Sr22  1  0.47008000  0.81550000  0.64444000  1.0 1.3738155324
Sr  Sr23  1  0.19226000  0.51703000  0.27176000  1.0 1.4806220887
Sr  Sr24  1  0.18450000  0.65458000  0.31111000  1.0 1.3738155324
P  P1  1  0.06437000  0.52504000  0.54566000  1.0 1.3869148749
P  P2  1  0.46067000  0.93563000  0.87900000  1.0 1.3869148749
P  P3  1  0.47496000  0.53933000  0.21233000  1.0 1.3869148749
P  P4  1  0.93563000  0.47496000  0.04566000  1.0 1.3869148749
P  P5  1  0.53933000  0.06437000  0.37900000  1.0 1.3869148749
P  P6  1  0.52504000  0.46067000  0.71233000  1.0 1.3869148749
P  P7  1  0.53933000  0.47496000  0.45434000  1.0 1.3869148749
P  P8  1  0.52504000  0.06437000  0.12100000  1.0 1.3869148749
P  P9  1  0.93563000  0.46067000  0.78767000  1.0 1.3869148749
P  P10  1  0.46067000  0.52504000  0.95434000  1.0 1.3869148749
P  P11  1  0.47496000  0.93563000  0.62100000  1.0 1.3869148749
P  P12  1  0.06437000  0.53933000  0.28767000  1.0 1.3869148749
H  H1  1  0.90790000  0.43590000  0.63523000  1.0 0.1218787986
H  H2  1  0.73630000  0.35600000  0.59553000  1.0 0.1218787986
H  H3  1  0.64860000  0.33740000  0.62153000  1.0 0.1288256436
H  H4  1  0.76360000  0.47710000  0.67303000  1.0 0.1218787986
H  H5  1  0.85130000  0.49570000  0.64703000  1.0 0.1288256436
H  H6  1  0.74120000  0.36760000  0.48503000  1.0 0.1218787986
H  H7  1  0.87590000  0.35910000  0.44033000  1.0 0.1218787986
H  H8  1  0.79880000  0.29290000  0.40933000  1.0 0.1288256436
H  H9  1  0.66410000  0.30130000  0.45403000  1.0 0.1288256436
H  H10  1  0.14860000  0.54540000  0.65023000  1.0 0.1288256436
H  H11  1  0.07590000  0.35850000  0.63523000  1.0 0.1288256436
H  H12  1  0.77230000  0.34170000  0.52113000  1.0 0.1288256436
H  H13  1  0.81860000  0.34820000  0.54493000  1.0 0.1288256436
H  H14  1  0.81550000  0.31070000  0.51833000  1.0 0.1396983067
H  H15  1  0.82820000  0.47530000  0.54183000  1.0 0.1396983067
H  H16  1  0.80700000  0.48870000  0.57013000  1.0 0.1396983067
H  H17  1  0.77310000  0.41930000  0.55823000  1.0 0.1288256436
H  H18  1  0.92140000  0.47200000  0.45323000  1.0 0.1218787986
H  H19  1  0.05210000  0.57250000  0.61023000  1.0 0.1560058354
H  H20  1  0.10170000  0.60070000  0.63413000  1.0 0.1396983067
H  H21  1  0.02860000  0.56090000  0.64063000  1.0 0.1288256436
H  H22  1  0.03930000  0.46910000  0.44483000  1.0 0.1396983067
H  H23  1  0.05580000  0.47210000  0.47593000  1.0 0.1492331379
H  H24  1  0.11060000  0.49940000  0.45413000  1.0 0.1492331379
H  H25  1  0.15710000  0.60660000  0.43983000  1.0 0.1288256436
H  H26  1  0.08850000  0.71970000  0.46343000  1.0 0.1396983067
H  H27  1  0.94280000  0.61340000  0.47953000  1.0 0.1218787986
H  H28  1  0.99550000  0.68290000  0.48743000  1.0 0.1288256436
H  H29  1  0.97880000  0.62610000  0.50743000  1.0 0.1396983067
H  H30  1  0.25600000  0.83670000  0.51703000  1.0 0.1396983067
H  H31  1  0.26940000  0.89940000  0.53193000  1.0 0.1650589017
H  H32  1  0.20220000  0.83780000  0.53433000  1.0 0.1650589017
H  H33  1  0.92930000  0.33310000  0.60843000  1.0 0.1218787986
H  H34  1  0.96140000  0.29670000  0.62123000  1.0 0.1288256436
H  H35  1  0.97830000  0.32300000  0.59133000  1.0 0.1492331379
H  H36  1  0.21420000  0.47630000  0.64973000  1.0 0.1396983067
H  H37  1  0.16690000  0.41050000  0.66313000  1.0 0.1396983067
H  H38  1  0.18120000  0.47420000  0.67753000  1.0 0.1396983067
H  H39  1  0.22480000  0.72600000  0.43743000  1.0 0.1288256436
H  H40  1  0.19390000  0.76770000  0.44473000  1.0 0.1396983067
H  H41  1  0.17740000  0.73040000  0.41703000  1.0 0.1492331379
H  H42  1  0.52800000  0.09210000  0.96857000  1.0 0.1218787986
H  H43  1  0.61970000  0.26370000  0.92887000  1.0 0.1218787986
H  H44  1  0.68880000  0.35140000  0.95487000  1.0 0.1288256436
H  H45  1  0.71350000  0.23640000  0.00637000  1.0 0.1218787986
H  H46  1  0.64440000  0.14870000  0.98037000  1.0 0.1288256436
H  H47  1  0.62640000  0.25880000  0.81837000  1.0 0.1218787986
H  H48  1  0.48320000  0.12410000  0.77367000  1.0 0.1218787986
H  H49  1  0.49410000  0.20120000  0.74267000  1.0 0.1288256436
H  H50  1  0.63720000  0.33590000  0.78737000  1.0 0.1288256436
H  H51  1  0.39680000  0.85140000  0.98357000  1.0 0.1288256436
H  H52  1  0.28260000  0.92410000  0.96857000  1.0 0.1288256436
H  H53  1  0.56940000  0.22770000  0.85447000  1.0 0.1288256436
H  H54  1  0.52960000  0.18140000  0.87827000  1.0 0.1288256436
H  H55  1  0.49520000  0.18450000  0.85167000  1.0 0.1396983067
H  H56  1  0.64710000  0.17180000  0.87517000  1.0 0.1396983067
H  H57  1  0.68170000  0.19300000  0.90347000  1.0 0.1396983067
H  H58  1  0.64620000  0.22690000  0.89157000  1.0 0.1288256436
H  H59  1  0.55060000  0.07860000  0.78657000  1.0 0.1218787986
H  H60  1  0.52040000  0.94790000  0.94357000  1.0 0.1560058354
H  H61  1  0.49900000  0.89830000  0.96747000  1.0 0.1396983067
H  H62  1  0.53230000  0.97140000  0.97397000  1.0 0.1288256436
H  H63  1  0.42980000  0.96070000  0.77817000  1.0 0.1396983067
H  H64  1  0.41630000  0.94420000  0.80927000  1.0 0.1492331379
H  H65  1  0.38880000  0.88940000  0.78747000  1.0 0.1492331379
H  H66  1  0.44950000  0.84290000  0.77317000  1.0 0.1288256436
H  H67  1  0.63120000  0.91150000  0.79677000  1.0 0.1396983067
H  H68  1  0.67060000  0.05720000  0.81287000  1.0 0.1218787986
H  H69  1  0.68740000  0.00450000  0.82077000  1.0 0.1288256436
H  H70  1  0.64730000  0.02120000  0.84077000  1.0 0.1396983067
H  H71  1  0.58070000  0.74400000  0.85037000  1.0 0.1396983067
H  H72  1  0.63000000  0.73060000  0.86527000  1.0 0.1650589017
H  H73  1  0.63560000  0.79780000  0.86767000  1.0 0.1650589017
H  H74  1  0.40380000  0.07070000  0.94177000  1.0 0.1218787986
H  H75  1  0.33530000  0.03860000  0.95457000  1.0 0.1288256436
H  H76  1  0.34470000  0.02170000  0.92467000  1.0 0.1492331379
H  H77  1  0.26210000  0.78580000  0.98307000  1.0 0.1396983067
H  H78  1  0.24360000  0.83310000  0.99647000  1.0 0.1396983067
H  H79  1  0.29300000  0.81880000  0.01087000  1.0 0.1396983067
H  H80  1  0.50120000  0.77520000  0.77077000  1.0 0.1288256436
H  H81  1  0.57380000  0.80610000  0.77807000  1.0 0.1396983067
H  H82  1  0.55300000  0.82260000  0.75037000  1.0 0.1492331379
H  H83  1  0.56410000  0.47200000  0.30190000  1.0 0.1218787986
H  H84  1  0.64400000  0.38030000  0.26220000  1.0 0.1218787986
H  H85  1  0.66260000  0.31120000  0.28820000  1.0 0.1288256436
H  H86  1  0.52290000  0.28650000  0.33970000  1.0 0.1218787986
H  H87  1  0.50430000  0.35560000  0.31370000  1.0 0.1288256436
H  H88  1  0.63240000  0.37360000  0.15170000  1.0 0.1218787986
H  H89  1  0.64090000  0.51680000  0.10700000  1.0 0.1218787986
H  H90  1  0.70710000  0.50590000  0.07600000  1.0 0.1288256436
H  H91  1  0.69870000  0.36280000  0.12070000  1.0 0.1288256436
H  H92  1  0.45460000  0.60320000  0.31690000  1.0 0.1288256436
H  H93  1  0.64150000  0.71740000  0.30190000  1.0 0.1288256436
H  H94  1  0.65830000  0.43060000  0.18780000  1.0 0.1288256436
H  H95  1  0.65180000  0.47040000  0.21160000  1.0 0.1288256436
H  H96  1  0.68930000  0.50480000  0.18500000  1.0 0.1396983067
H  H97  1  0.52470000  0.35290000  0.20850000  1.0 0.1396983067
H  H98  1  0.51130000  0.31830000  0.23680000  1.0 0.1396983067
H  H99  1  0.58070000  0.35380000  0.22490000  1.0 0.1288256436
H  H100  1  0.52800000  0.44940000  0.11990000  1.0 0.1218787986
H  H101  1  0.42750000  0.47960000  0.27690000  1.0 0.1560058354
H  H102  1  0.39930000  0.50100000  0.30080000  1.0 0.1396983067
H  H103  1  0.43910000  0.46770000  0.30730000  1.0 0.1288256436
H  H104  1  0.53090000  0.57020000  0.11150000  1.0 0.1396983067
H  H105  1  0.52790000  0.58370000  0.14260000  1.0 0.1492331379
H  H106  1  0.50060000  0.61120000  0.12080000  1.0 0.1492331379
H  H107  1  0.39340000  0.55050000  0.10650000  1.0 0.1288256436
H  H108  1  0.28030000  0.36880000  0.13010000  1.0 0.1396983067
H  H109  1  0.38660000  0.32940000  0.14620000  1.0 0.1218787986
H  H110  1  0.31710000  0.31260000  0.15410000  1.0 0.1288256436
H  H111  1  0.37390000  0.35270000  0.17410000  1.0 0.1396983067
H  H112  1  0.16330000  0.41930000  0.18370000  1.0 0.1396983067
H  H113  1  0.10060000  0.37000000  0.19860000  1.0 0.1650589017
H  H114  1  0.16220000  0.36440000  0.20100000  1.0 0.1650589017
H  H115  1  0.66690000  0.59620000  0.27510000  1.0 0.1218787986
H  H116  1  0.70330000  0.66470000  0.28790000  1.0 0.1288256436
H  H117  1  0.67700000  0.65530000  0.25800000  1.0 0.1492331379
H  H118  1  0.52370000  0.73790000  0.31640000  1.0 0.1396983067
H  H119  1  0.58950000  0.75640000  0.32980000  1.0 0.1396983067
H  H120  1  0.52580000  0.70700000  0.34420000  1.0 0.1396983067
H  H121  1  0.27400000  0.49880000  0.10410000  1.0 0.1288256436
H  H122  1  0.23230000  0.42620000  0.11140000  1.0 0.1396983067
H  H123  1  0.26960000  0.44700000  0.08370000  1.0 0.1492331379
H  H124  1  0.09210000  0.56410000  0.13523000  1.0 0.1218787986
H  H125  1  0.26370000  0.64400000  0.09553000  1.0 0.1218787986
H  H126  1  0.35140000  0.66260000  0.12153000  1.0 0.1288256436
H  H127  1  0.23640000  0.52290000  0.17303000  1.0 0.1218787986
H  H128  1  0.14870000  0.50430000  0.14703000  1.0 0.1288256436
H  H129  1  0.25880000  0.63240000  0.98503000  1.0 0.1218787986
H  H130  1  0.12410000  0.64090000  0.94033000  1.0 0.1218787986
H  H131  1  0.20120000  0.70710000  0.90933000  1.0 0.1288256436
H  H132  1  0.33590000  0.69870000  0.95403000  1.0 0.1288256436
H  H133  1  0.85140000  0.45460000  0.15023000  1.0 0.1288256436
H  H134  1  0.92410000  0.64150000  0.13523000  1.0 0.1288256436
H  H135  1  0.22770000  0.65830000  0.02113000  1.0 0.1288256436
H  H136  1  0.18140000  0.65180000  0.04493000  1.0 0.1288256436
H  H137  1  0.18450000  0.68930000  0.01833000  1.0 0.1396983067
H  H138  1  0.17180000  0.52470000  0.04183000  1.0 0.1396983067
H  H139  1  0.19300000  0.51130000  0.07013000  1.0 0.1396983067
H  H140  1  0.22690000  0.58070000  0.05823000  1.0 0.1288256436
H  H141  1  0.07860000  0.52800000  0.95323000  1.0 0.1218787986
H  H142  1  0.94790000  0.42750000  0.11023000  1.0 0.1560058354
H  H143  1  0.89830000  0.39930000  0.13413000  1.0 0.1396983067
H  H144  1  0.97140000  0.43910000  0.14063000  1.0 0.1288256436
H  H145  1  0.96070000  0.53090000  0.94483000  1.0 0.1396983067
H  H146  1  0.94420000  0.52790000  0.97593000  1.0 0.1492331379
H  H147  1  0.88940000  0.50060000  0.95413000  1.0 0.1492331379
H  H148  1  0.84290000  0.39340000  0.93983000  1.0 0.1288256436
H  H149  1  0.91150000  0.28030000  0.96343000  1.0 0.1396983067
H  H150  1  0.05720000  0.38660000  0.97953000  1.0 0.1218787986
H  H151  1  0.00450000  0.31710000  0.98743000  1.0 0.1288256436
H  H152  1  0.02120000  0.37390000  0.00743000  1.0 0.1396983067
H  H153  1  0.74400000  0.16330000  0.01703000  1.0 0.1396983067
H  H154  1  0.73060000  0.10060000  0.03193000  1.0 0.1650589017
H  H155  1  0.79780000  0.16220000  0.03433000  1.0 0.1650589017
H  H156  1  0.07070000  0.66690000  0.10843000  1.0 0.1218787986
H  H157  1  0.03860000  0.70330000  0.12123000  1.0 0.1288256436
H  H158  1  0.02170000  0.67700000  0.09133000  1.0 0.1492331379
H  H159  1  0.78580000  0.52370000  0.14973000  1.0 0.1396983067
H  H160  1  0.83310000  0.58950000  0.16313000  1.0 0.1396983067
H  H161  1  0.81880000  0.52580000  0.17753000  1.0 0.1396983067
H  H162  1  0.77520000  0.27400000  0.93743000  1.0 0.1288256436
H  H163  1  0.80610000  0.23230000  0.94473000  1.0 0.1396983067
H  H164  1  0.82260000  0.26960000  0.91703000  1.0 0.1492331379
H  H165  1  0.47200000  0.90790000  0.46857000  1.0 0.1218787986
H  H166  1  0.38030000  0.73630000  0.42887000  1.0 0.1218787986
H  H167  1  0.31120000  0.64860000  0.45487000  1.0 0.1288256436
H  H168  1  0.28650000  0.76360000  0.50637000  1.0 0.1218787986
H  H169  1  0.35560000  0.85130000  0.48037000  1.0 0.1288256436
H  H170  1  0.37360000  0.74120000  0.31837000  1.0 0.1218787986
H  H171  1  0.51680000  0.87590000  0.27367000  1.0 0.1218787986
H  H172  1  0.50590000  0.79880000  0.24267000  1.0 0.1288256436
H  H173  1  0.36280000  0.66410000  0.28737000  1.0 0.1288256436
H  H174  1  0.60320000  0.14860000  0.48357000  1.0 0.1288256436
H  H175  1  0.71740000  0.07590000  0.46857000  1.0 0.1288256436
H  H176  1  0.43060000  0.77230000  0.35447000  1.0 0.1288256436
H  H177  1  0.47040000  0.81860000  0.37827000  1.0 0.1288256436
H  H178  1  0.50480000  0.81550000  0.35167000  1.0 0.1396983067
H  H179  1  0.35290000  0.82820000  0.37517000  1.0 0.1396983067
H  H180  1  0.31830000  0.80700000  0.40347000  1.0 0.1396983067
H  H181  1  0.35380000  0.77310000  0.39157000  1.0 0.1288256436
H  H182  1  0.44940000  0.92140000  0.28657000  1.0 0.1218787986
H  H183  1  0.47960000  0.05210000  0.44357000  1.0 0.1560058354
H  H184  1  0.50100000  0.10170000  0.46747000  1.0 0.1396983067
H  H185  1  0.46770000  0.02860000  0.47397000  1.0 0.1288256436
H  H186  1  0.57020000  0.03930000  0.27817000  1.0 0.1396983067
H  H187  1  0.58370000  0.05580000  0.30927000  1.0 0.1492331379
H  H188  1  0.61120000  0.11060000  0.28747000  1.0 0.1492331379
H  H189  1  0.55050000  0.15710000  0.27317000  1.0 0.1288256436
H  H190  1  0.36880000  0.08850000  0.29677000  1.0 0.1396983067
H  H191  1  0.32940000  0.94280000  0.31287000  1.0 0.1218787986
H  H192  1  0.31260000  0.99550000  0.32077000  1.0 0.1288256436
H  H193  1  0.35270000  0.97880000  0.34077000  1.0 0.1396983067
H  H194  1  0.41930000  0.25600000  0.35037000  1.0 0.1396983067
H  H195  1  0.37000000  0.26940000  0.36527000  1.0 0.1650589017
H  H196  1  0.36440000  0.20220000  0.36767000  1.0 0.1650589017
H  H197  1  0.59620000  0.92930000  0.44177000  1.0 0.1218787986
H  H198  1  0.66470000  0.96140000  0.45457000  1.0 0.1288256436
H  H199  1  0.65530000  0.97830000  0.42467000  1.0 0.1492331379
H  H200  1  0.73790000  0.21420000  0.48307000  1.0 0.1396983067
H  H201  1  0.75640000  0.16690000  0.49647000  1.0 0.1396983067
H  H202  1  0.70700000  0.18120000  0.51087000  1.0 0.1396983067
H  H203  1  0.49880000  0.22480000  0.27077000  1.0 0.1288256436
H  H204  1  0.42620000  0.19390000  0.27807000  1.0 0.1396983067
H  H205  1  0.44700000  0.17740000  0.25037000  1.0 0.1492331379
H  H206  1  0.43590000  0.52800000  0.80190000  1.0 0.1218787986
H  H207  1  0.35600000  0.61970000  0.76220000  1.0 0.1218787986
H  H208  1  0.33740000  0.68880000  0.78820000  1.0 0.1288256436
H  H209  1  0.47710000  0.71350000  0.83970000  1.0 0.1218787986
H  H210  1  0.49570000  0.64440000  0.81370000  1.0 0.1288256436
H  H211  1  0.36760000  0.62640000  0.65170000  1.0 0.1218787986
H  H212  1  0.35910000  0.48320000  0.60700000  1.0 0.1218787986
H  H213  1  0.29290000  0.49410000  0.57600000  1.0 0.1288256436
H  H214  1  0.30130000  0.63720000  0.62070000  1.0 0.1288256436
H  H215  1  0.54540000  0.39680000  0.81690000  1.0 0.1288256436
H  H216  1  0.35850000  0.28260000  0.80190000  1.0 0.1288256436
H  H217  1  0.34170000  0.56940000  0.68780000  1.0 0.1288256436
H  H218  1  0.34820000  0.52960000  0.71160000  1.0 0.1288256436
H  H219  1  0.31070000  0.49520000  0.68500000  1.0 0.1396983067
H  H220  1  0.47530000  0.64710000  0.70850000  1.0 0.1396983067
H  H221  1  0.48870000  0.68170000  0.73680000  1.0 0.1396983067
H  H222  1  0.41930000  0.64620000  0.72490000  1.0 0.1288256436
H  H223  1  0.47200000  0.55060000  0.61990000  1.0 0.1218787986
H  H224  1  0.57250000  0.52040000  0.77690000  1.0 0.1560058354
H  H225  1  0.60070000  0.49900000  0.80080000  1.0 0.1396983067
H  H226  1  0.56090000  0.53230000  0.80730000  1.0 0.1288256436
H  H227  1  0.46910000  0.42980000  0.61150000  1.0 0.1396983067
H  H228  1  0.47210000  0.41630000  0.64260000  1.0 0.1492331379
H  H229  1  0.49940000  0.38880000  0.62080000  1.0 0.1492331379
H  H230  1  0.60660000  0.44950000  0.60650000  1.0 0.1288256436
H  H231  1  0.71970000  0.63120000  0.63010000  1.0 0.1396983067
H  H232  1  0.61340000  0.67060000  0.64620000  1.0 0.1218787986
H  H233  1  0.68290000  0.68740000  0.65410000  1.0 0.1288256436
H  H234  1  0.62610000  0.64730000  0.67410000  1.0 0.1396983067
H  H235  1  0.83670000  0.58070000  0.68370000  1.0 0.1396983067
H  H236  1  0.89940000  0.63000000  0.69860000  1.0 0.1650589017
H  H237  1  0.83780000  0.63560000  0.70100000  1.0 0.1650589017
H  H238  1  0.33310000  0.40380000  0.77510000  1.0 0.1218787986
H  H239  1  0.29670000  0.33530000  0.78790000  1.0 0.1288256436
H  H240  1  0.32300000  0.34470000  0.75800000  1.0 0.1492331379
H  H241  1  0.47630000  0.26210000  0.81640000  1.0 0.1396983067
H  H242  1  0.41050000  0.24360000  0.82980000  1.0 0.1396983067
H  H243  1  0.47420000  0.29300000  0.84420000  1.0 0.1396983067
H  H244  1  0.72600000  0.50120000  0.60410000  1.0 0.1288256436
H  H245  1  0.76770000  0.57380000  0.61140000  1.0 0.1396983067
H  H246  1  0.73040000  0.55300000  0.58370000  1.0 0.1492331379
H  H247  1  0.47200000  0.56410000  0.36477000  1.0 0.1218787986
H  H248  1  0.38030000  0.64400000  0.40447000  1.0 0.1218787986
H  H249  1  0.31120000  0.66260000  0.37847000  1.0 0.1288256436
H  H250  1  0.28650000  0.52290000  0.32697000  1.0 0.1218787986
H  H251  1  0.35560000  0.50430000  0.35297000  1.0 0.1288256436
H  H252  1  0.37360000  0.63240000  0.51497000  1.0 0.1218787986
H  H253  1  0.51680000  0.64090000  0.55967000  1.0 0.1218787986
H  H254  1  0.50590000  0.70710000  0.59067000  1.0 0.1288256436
H  H255  1  0.36280000  0.69870000  0.54597000  1.0 0.1288256436
H  H256  1  0.60320000  0.45460000  0.34977000  1.0 0.1288256436
H  H257  1  0.71740000  0.64150000  0.36477000  1.0 0.1288256436
H  H258  1  0.43060000  0.65830000  0.47887000  1.0 0.1288256436
H  H259  1  0.47040000  0.65180000  0.45507000  1.0 0.1288256436
H  H260  1  0.50480000  0.68930000  0.48167000  1.0 0.1396983067
H  H261  1  0.35290000  0.52470000  0.45817000  1.0 0.1396983067
H  H262  1  0.31830000  0.51130000  0.42987000  1.0 0.1396983067
H  H263  1  0.35380000  0.58070000  0.44177000  1.0 0.1288256436
H  H264  1  0.44940000  0.52800000  0.54677000  1.0 0.1218787986
H  H265  1  0.47960000  0.42750000  0.38977000  1.0 0.1560058354
H  H266  1  0.50100000  0.39930000  0.36587000  1.0 0.1396983067
H  H267  1  0.46770000  0.43910000  0.35937000  1.0 0.1288256436
H  H268  1  0.57020000  0.53090000  0.55517000  1.0 0.1396983067
H  H269  1  0.58370000  0.52790000  0.52407000  1.0 0.1492331379
H  H270  1  0.61120000  0.50060000  0.54587000  1.0 0.1492331379
H  H271  1  0.55050000  0.39340000  0.56017000  1.0 0.1288256436
H  H272  1  0.36880000  0.28030000  0.53657000  1.0 0.1396983067
H  H273  1  0.32940000  0.38660000  0.52047000  1.0 0.1218787986
H  H274  1  0.31260000  0.31710000  0.51257000  1.0 0.1288256436
H  H275  1  0.35270000  0.37390000  0.49257000  1.0 0.1396983067
H  H276  1  0.41930000  0.16330000  0.48297000  1.0 0.1396983067
H  H277  1  0.37000000  0.10060000  0.46807000  1.0 0.1650589017
H  H278  1  0.36440000  0.16220000  0.46567000  1.0 0.1650589017
H  H279  1  0.59620000  0.66690000  0.39157000  1.0 0.1218787986
H  H280  1  0.66470000  0.70330000  0.37877000  1.0 0.1288256436
H  H281  1  0.65530000  0.67700000  0.40867000  1.0 0.1492331379
H  H282  1  0.73790000  0.52370000  0.35027000  1.0 0.1396983067
H  H283  1  0.75640000  0.58950000  0.33687000  1.0 0.1396983067
H  H284  1  0.70700000  0.52580000  0.32247000  1.0 0.1396983067
H  H285  1  0.49880000  0.27400000  0.56257000  1.0 0.1288256436
H  H286  1  0.42620000  0.23230000  0.55527000  1.0 0.1396983067
H  H287  1  0.44700000  0.26960000  0.58297000  1.0 0.1492331379
H  H288  1  0.43590000  0.90790000  0.03143000  1.0 0.1218787986
H  H289  1  0.35600000  0.73630000  0.07113000  1.0 0.1218787986
H  H290  1  0.33740000  0.64860000  0.04513000  1.0 0.1288256436
H  H291  1  0.47710000  0.76360000  0.99363000  1.0 0.1218787986
H  H292  1  0.49570000  0.85130000  0.01963000  1.0 0.1288256436
H  H293  1  0.36760000  0.74120000  0.18163000  1.0 0.1218787986
H  H294  1  0.35910000  0.87590000  0.22633000  1.0 0.1218787986
H  H295  1  0.29290000  0.79880000  0.25733000  1.0 0.1288256436
H  H296  1  0.30130000  0.66410000  0.21263000  1.0 0.1288256436
H  H297  1  0.54540000  0.14860000  0.01643000  1.0 0.1288256436
H  H298  1  0.35850000  0.07590000  0.03143000  1.0 0.1288256436
H  H299  1  0.34170000  0.77230000  0.14553000  1.0 0.1288256436
H  H300  1  0.34820000  0.81860000  0.12173000  1.0 0.1288256436
H  H301  1  0.31070000  0.81550000  0.14833000  1.0 0.1396983067
H  H302  1  0.47530000  0.82820000  0.12483000  1.0 0.1396983067
H  H303  1  0.48870000  0.80700000  0.09653000  1.0 0.1396983067
H  H304  1  0.41930000  0.77310000  0.10843000  1.0 0.1288256436
H  H305  1  0.47200000  0.92140000  0.21343000  1.0 0.1218787986
H  H306  1  0.57250000  0.05210000  0.05643000  1.0 0.1560058354
H  H307  1  0.60070000  0.10170000  0.03253000  1.0 0.1396983067
H  H308  1  0.56090000  0.02860000  0.02603000  1.0 0.1288256436
H  H309  1  0.46910000  0.03930000  0.22183000  1.0 0.1396983067
H  H310  1  0.47210000  0.05580000  0.19073000  1.0 0.1492331379
H  H311  1  0.49940000  0.11060000  0.21253000  1.0 0.1492331379
H  H312  1  0.60660000  0.15710000  0.22683000  1.0 0.1288256436
H  H313  1  0.71970000  0.08850000  0.20323000  1.0 0.1396983067
H  H314  1  0.61340000  0.94280000  0.18713000  1.0 0.1218787986
H  H315  1  0.68290000  0.99550000  0.17923000  1.0 0.1288256436
H  H316  1  0.62610000  0.97880000  0.15923000  1.0 0.1396983067
H  H317  1  0.83670000  0.25600000  0.14963000  1.0 0.1396983067
H  H318  1  0.89940000  0.26940000  0.13473000  1.0 0.1650589017
H  H319  1  0.83780000  0.20220000  0.13233000  1.0 0.1650589017
H  H320  1  0.33310000  0.92930000  0.05823000  1.0 0.1218787986
H  H321  1  0.29670000  0.96140000  0.04543000  1.0 0.1288256436
H  H322  1  0.32300000  0.97830000  0.07533000  1.0 0.1492331379
H  H323  1  0.47630000  0.21420000  0.01693000  1.0 0.1396983067
H  H324  1  0.41050000  0.16690000  0.00353000  1.0 0.1396983067
H  H325  1  0.47420000  0.18120000  0.98913000  1.0 0.1396983067
H  H326  1  0.72600000  0.22480000  0.22923000  1.0 0.1288256436
H  H327  1  0.76770000  0.19390000  0.22193000  1.0 0.1396983067
H  H328  1  0.73040000  0.17740000  0.24963000  1.0 0.1492331379
H  H329  1  0.09210000  0.52800000  0.69810000  1.0 0.1218787986
H  H330  1  0.26370000  0.61970000  0.73780000  1.0 0.1218787986
H  H331  1  0.35140000  0.68880000  0.71180000  1.0 0.1288256436
H  H332  1  0.23640000  0.71350000  0.66030000  1.0 0.1218787986
H  H333  1  0.14870000  0.64440000  0.68630000  1.0 0.1288256436
H  H334  1  0.25880000  0.62640000  0.84830000  1.0 0.1218787986
H  H335  1  0.12410000  0.48320000  0.89300000  1.0 0.1218787986
H  H336  1  0.20120000  0.49410000  0.92400000  1.0 0.1288256436
H  H337  1  0.33590000  0.63720000  0.87930000  1.0 0.1288256436
H  H338  1  0.85140000  0.39680000  0.68310000  1.0 0.1288256436
H  H339  1  0.92410000  0.28260000  0.69810000  1.0 0.1288256436
H  H340  1  0.22770000  0.56940000  0.81220000  1.0 0.1288256436
H  H341  1  0.18140000  0.52960000  0.78840000  1.0 0.1288256436
H  H342  1  0.18450000  0.49520000  0.81500000  1.0 0.1396983067
H  H343  1  0.17180000  0.64710000  0.79150000  1.0 0.1396983067
H  H344  1  0.19300000  0.68170000  0.76320000  1.0 0.1396983067
H  H345  1  0.22690000  0.64620000  0.77510000  1.0 0.1288256436
H  H346  1  0.07860000  0.55060000  0.88010000  1.0 0.1218787986
H  H347  1  0.94790000  0.52040000  0.72310000  1.0 0.1560058354
H  H348  1  0.89830000  0.49900000  0.69920000  1.0 0.1396983067
H  H349  1  0.97140000  0.53230000  0.69270000  1.0 0.1288256436
H  H350  1  0.96070000  0.42980000  0.88850000  1.0 0.1396983067
H  H351  1  0.94420000  0.41630000  0.85740000  1.0 0.1492331379
H  H352  1  0.88940000  0.38880000  0.87920000  1.0 0.1492331379
H  H353  1  0.84290000  0.44950000  0.89350000  1.0 0.1288256436
H  H354  1  0.91150000  0.63120000  0.86990000  1.0 0.1396983067
H  H355  1  0.05720000  0.67060000  0.85380000  1.0 0.1218787986
H  H356  1  0.00450000  0.68740000  0.84590000  1.0 0.1288256436
H  H357  1  0.02120000  0.64730000  0.82590000  1.0 0.1396983067
H  H358  1  0.74400000  0.58070000  0.81630000  1.0 0.1396983067
H  H359  1  0.73060000  0.63000000  0.80140000  1.0 0.1650589017
H  H360  1  0.79780000  0.63560000  0.79900000  1.0 0.1650589017
H  H361  1  0.07070000  0.40380000  0.72490000  1.0 0.1218787986
H  H362  1  0.03860000  0.33530000  0.71210000  1.0 0.1288256436
H  H363  1  0.02170000  0.34470000  0.74200000  1.0 0.1492331379
H  H364  1  0.78580000  0.26210000  0.68360000  1.0 0.1396983067
H  H365  1  0.83310000  0.24360000  0.67020000  1.0 0.1396983067
H  H366  1  0.81880000  0.29300000  0.65580000  1.0 0.1396983067
H  H367  1  0.77520000  0.50120000  0.89590000  1.0 0.1288256436
H  H368  1  0.80610000  0.57380000  0.88860000  1.0 0.1396983067
H  H369  1  0.82260000  0.55300000  0.91630000  1.0 0.1492331379
H  H370  1  0.52800000  0.43590000  0.86477000  1.0 0.1218787986
H  H371  1  0.61970000  0.35600000  0.90447000  1.0 0.1218787986
H  H372  1  0.68880000  0.33740000  0.87847000  1.0 0.1288256436
H  H373  1  0.71350000  0.47710000  0.82697000  1.0 0.1218787986
H  H374  1  0.64440000  0.49570000  0.85297000  1.0 0.1288256436
H  H375  1  0.62640000  0.36760000  0.01497000  1.0 0.1218787986
H  H376  1  0.48320000  0.35910000  0.05967000  1.0 0.1218787986
H  H377  1  0.49410000  0.29290000  0.09067000  1.0 0.1288256436
H  H378  1  0.63720000  0.30130000  0.04597000  1.0 0.1288256436
H  H379  1  0.39680000  0.54540000  0.84977000  1.0 0.1288256436
H  H380  1  0.28260000  0.35850000  0.86477000  1.0 0.1288256436
H  H381  1  0.56940000  0.34170000  0.97887000  1.0 0.1288256436
H  H382  1  0.52960000  0.34820000  0.95507000  1.0 0.1288256436
H  H383  1  0.49520000  0.31070000  0.98167000  1.0 0.1396983067
H  H384  1  0.64710000  0.47530000  0.95817000  1.0 0.1396983067
H  H385  1  0.68170000  0.48870000  0.92987000  1.0 0.1396983067
H  H386  1  0.64620000  0.41930000  0.94177000  1.0 0.1288256436
H  H387  1  0.55060000  0.47200000  0.04677000  1.0 0.1218787986
H  H388  1  0.52040000  0.57250000  0.88977000  1.0 0.1560058354
H  H389  1  0.49900000  0.60070000  0.86587000  1.0 0.1396983067
H  H390  1  0.53230000  0.56090000  0.85937000  1.0 0.1288256436
H  H391  1  0.42980000  0.46910000  0.05517000  1.0 0.1396983067
H  H392  1  0.41630000  0.47210000  0.02407000  1.0 0.1492331379
H  H393  1  0.38880000  0.49940000  0.04587000  1.0 0.1492331379
H  H394  1  0.44950000  0.60660000  0.06017000  1.0 0.1288256436
H  H395  1  0.63120000  0.71970000  0.03657000  1.0 0.1396983067
H  H396  1  0.67060000  0.61340000  0.02047000  1.0 0.1218787986
H  H397  1  0.68740000  0.68290000  0.01257000  1.0 0.1288256436
H  H398  1  0.64730000  0.62610000  0.99257000  1.0 0.1396983067
H  H399  1  0.58070000  0.83670000  0.98297000  1.0 0.1396983067
H  H400  1  0.63000000  0.89940000  0.96807000  1.0 0.1650589017
H  H401  1  0.63560000  0.83780000  0.96567000  1.0 0.1650589017
H  H402  1  0.40380000  0.33310000  0.89157000  1.0 0.1218787986
H  H403  1  0.33530000  0.29670000  0.87877000  1.0 0.1288256436
H  H404  1  0.34470000  0.32300000  0.90867000  1.0 0.1492331379
H  H405  1  0.26210000  0.47630000  0.85027000  1.0 0.1396983067
H  H406  1  0.24360000  0.41050000  0.83687000  1.0 0.1396983067
H  H407  1  0.29300000  0.47420000  0.82247000  1.0 0.1396983067
H  H408  1  0.50120000  0.72600000  0.06257000  1.0 0.1288256436
H  H409  1  0.57380000  0.76770000  0.05527000  1.0 0.1396983067
H  H410  1  0.55300000  0.73040000  0.08297000  1.0 0.1492331379
H  H411  1  0.56410000  0.09210000  0.53143000  1.0 0.1218787986
H  H412  1  0.64400000  0.26370000  0.57113000  1.0 0.1218787986
H  H413  1  0.66260000  0.35140000  0.54513000  1.0 0.1288256436
H  H414  1  0.52290000  0.23640000  0.49363000  1.0 0.1218787986
H  H415  1  0.50430000  0.14870000  0.51963000  1.0 0.1288256436
H  H416  1  0.63240000  0.25880000  0.68163000  1.0 0.1218787986
H  H417  1  0.64090000  0.12410000  0.72633000  1.0 0.1218787986
H  H418  1  0.70710000  0.20120000  0.75733000  1.0 0.1288256436
H  H419  1  0.69870000  0.33590000  0.71263000  1.0 0.1288256436
H  H420  1  0.45460000  0.85140000  0.51643000  1.0 0.1288256436
H  H421  1  0.64150000  0.92410000  0.53143000  1.0 0.1288256436
H  H422  1  0.65830000  0.22770000  0.64553000  1.0 0.1288256436
H  H423  1  0.65180000  0.18140000  0.62173000  1.0 0.1288256436
H  H424  1  0.68930000  0.18450000  0.64833000  1.0 0.1396983067
H  H425  1  0.52470000  0.17180000  0.62483000  1.0 0.1396983067
H  H426  1  0.51130000  0.19300000  0.59653000  1.0 0.1396983067
H  H427  1  0.58070000  0.22690000  0.60843000  1.0 0.1288256436
H  H428  1  0.52800000  0.07860000  0.71343000  1.0 0.1218787986
H  H429  1  0.42750000  0.94790000  0.55643000  1.0 0.1560058354
H  H430  1  0.39930000  0.89830000  0.53253000  1.0 0.1396983067
H  H431  1  0.43910000  0.97140000  0.52603000  1.0 0.1288256436
H  H432  1  0.53090000  0.96070000  0.72183000  1.0 0.1396983067
H  H433  1  0.52790000  0.94420000  0.69073000  1.0 0.1492331379
H  H434  1  0.50060000  0.88940000  0.71253000  1.0 0.1492331379
H  H435  1  0.39340000  0.84290000  0.72683000  1.0 0.1288256436
H  H436  1  0.28030000  0.91150000  0.70323000  1.0 0.1396983067
H  H437  1  0.38660000  0.05720000  0.68713000  1.0 0.1218787986
H  H438  1  0.31710000  0.00450000  0.67923000  1.0 0.1288256436
H  H439  1  0.37390000  0.02120000  0.65923000  1.0 0.1396983067
H  H440  1  0.16330000  0.74400000  0.64963000  1.0 0.1396983067
H  H441  1  0.10060000  0.73060000  0.63473000  1.0 0.1650589017
H  H442  1  0.16220000  0.79780000  0.63233000  1.0 0.1650589017
H  H443  1  0.66690000  0.07070000  0.55823000  1.0 0.1218787986
H  H444  1  0.70330000  0.03860000  0.54543000  1.0 0.1288256436
H  H445  1  0.67700000  0.02170000  0.57533000  1.0 0.1492331379
H  H446  1  0.52370000  0.78580000  0.51693000  1.0 0.1396983067
H  H447  1  0.58950000  0.83310000  0.50353000  1.0 0.1396983067
H  H448  1  0.52580000  0.81880000  0.48913000  1.0 0.1396983067
H  H449  1  0.27400000  0.77520000  0.72923000  1.0 0.1288256436
H  H450  1  0.23230000  0.80610000  0.72193000  1.0 0.1396983067
H  H451  1  0.26960000  0.82260000  0.74963000  1.0 0.1492331379
H  H452  1  0.90790000  0.47200000  0.19810000  1.0 0.1218787986
H  H453  1  0.73630000  0.38030000  0.23780000  1.0 0.1218787986
H  H454  1  0.64860000  0.31120000  0.21180000  1.0 0.1288256436
H  H455  1  0.76360000  0.28650000  0.16030000  1.0 0.1218787986
H  H456  1  0.85130000  0.35560000  0.18630000  1.0 0.1288256436
H  H457  1  0.74120000  0.37360000  0.34830000  1.0 0.1218787986
H  H458  1  0.87590000  0.51680000  0.39300000  1.0 0.1218787986
H  H459  1  0.79880000  0.50590000  0.42400000  1.0 0.1288256436
H  H460  1  0.66410000  0.36280000  0.37930000  1.0 0.1288256436
H  H461  1  0.14860000  0.60320000  0.18310000  1.0 0.1288256436
H  H462  1  0.07590000  0.71740000  0.19810000  1.0 0.1288256436
H  H463  1  0.77230000  0.43060000  0.31220000  1.0 0.1288256436
H  H464  1  0.81860000  0.47040000  0.28840000  1.0 0.1288256436
H  H465  1  0.81550000  0.50480000  0.31500000  1.0 0.1396983067
H  H466  1  0.82820000  0.35290000  0.29150000  1.0 0.1396983067
H  H467  1  0.80700000  0.31830000  0.26320000  1.0 0.1396983067
H  H468  1  0.77310000  0.35380000  0.27510000  1.0 0.1288256436
H  H469  1  0.92140000  0.44940000  0.38010000  1.0 0.1218787986
H  H470  1  0.05210000  0.47960000  0.22310000  1.0 0.1560058354
H  H471  1  0.10170000  0.50100000  0.19920000  1.0 0.1396983067
H  H472  1  0.02860000  0.46770000  0.19270000  1.0 0.1288256436
H  H473  1  0.03930000  0.57020000  0.38850000  1.0 0.1396983067
H  H474  1  0.05580000  0.58370000  0.35740000  1.0 0.1492331379
H  H475  1  0.11060000  0.61120000  0.37920000  1.0 0.1492331379
H  H476  1  0.15710000  0.55050000  0.39350000  1.0 0.1288256436
H  H477  1  0.08850000  0.36880000  0.36990000  1.0 0.1396983067
H  H478  1  0.94280000  0.32940000  0.35380000  1.0 0.1218787986
H  H479  1  0.99550000  0.31260000  0.34590000  1.0 0.1288256436
H  H480  1  0.97880000  0.35270000  0.32590000  1.0 0.1396983067
H  H481  1  0.25600000  0.41930000  0.31630000  1.0 0.1396983067
H  H482  1  0.26940000  0.37000000  0.30140000  1.0 0.1650589017
H  H483  1  0.20220000  0.36440000  0.29900000  1.0 0.1650589017
H  H484  1  0.92930000  0.59620000  0.22490000  1.0 0.1218787986
H  H485  1  0.96140000  0.66470000  0.21210000  1.0 0.1288256436
H  H486  1  0.97830000  0.65530000  0.24200000  1.0 0.1492331379
H  H487  1  0.21420000  0.73790000  0.18360000  1.0 0.1396983067
H  H488  1  0.16690000  0.75640000  0.17020000  1.0 0.1396983067
H  H489  1  0.18120000  0.70700000  0.15580000  1.0 0.1396983067
H  H490  1  0.22480000  0.49880000  0.39590000  1.0 0.1288256436
H  H491  1  0.19390000  0.42620000  0.38860000  1.0 0.1396983067
H  H492  1  0.17740000  0.44700000  0.41630000  1.0 0.1492331379
C  C1  1  0.64060000  0.39290000  0.66643000  1.0 0.5365556238
C  C2  1  0.91435000  0.45235000  0.55981000  1.0 -0.0639431406
C  C3  1  0.86179000  0.44581000  0.57408000  1.0 0.1021625644
C  C4  1  0.85937000  0.43963000  0.60233000  1.0 -0.0016888483
C  C5  1  0.90952000  0.44002000  0.61630000  1.0 -0.1666013093
C  C6  1  0.96208000  0.44651000  0.60203000  1.0 0.001106797
C  C7  1  0.96450000  0.45269000  0.57378000  1.0 0.1894706639
C  C8  1  0.80250000  0.42770000  0.61867000  1.0 0.0812620243
C  C9  1  0.74176000  0.38026000  0.61103000  1.0 -0.1508288195
C  C10  1  0.68920000  0.36910000  0.62663000  1.0 -0.1000519275
C  C11  1  0.69739000  0.40540000  0.64986000  1.0 -0.0211368313
C  C12  1  0.75813000  0.45283000  0.65750000  1.0 -0.0867249479
C  C13  1  0.81069000  0.46399000  0.64191000  1.0 -0.1429160043
C  C14  1  0.75273000  0.35263000  0.46989000  1.0 -0.1429160043
C  C15  1  0.81620000  0.36990000  0.46579000  1.0 0.0812620243
C  C16  1  0.83344000  0.34754000  0.44309000  1.0 -0.1508288195
C  C17  1  0.78722000  0.30782000  0.42448000  1.0 -0.1000519275
C  C18  1  0.72376000  0.29046000  0.42857000  1.0 -0.026963569
C  C19  1  0.70651000  0.31288000  0.45128000  1.0 -0.1000519275
C  C20  1  0.01830000  0.44910000  0.61787000  1.0 -0.0489170871
C  C21  1  0.06570000  0.50590000  0.62912000  1.0 0.1492331379
C  C22  1  0.11690000  0.50740000  0.64265000  1.0 -0.248623268
C  C23  1  0.12070000  0.45220000  0.64492000  1.0 0.1801204516
C  C24  1  0.07340000  0.39550000  0.63367000  1.0 -0.2556981216
C  C25  1  0.02210000  0.39390000  0.62014000  1.0 0.1492331379
C  C26  1  0.67370000  0.24880000  0.40758000  1.0 0.5952743349
C  C27  1  0.81320000  0.34640000  0.52544000  1.0 -0.4438042273
C  C28  1  0.81300000  0.45850000  0.55972000  1.0 -0.4438042273
C  C29  1  0.92012000  0.46722000  0.47211000  1.0 -0.1758736761
C  C30  1  0.86818000  0.41558000  0.48438000  1.0 -0.0091170134
C  C31  1  0.86628000  0.40848000  0.51257000  1.0 0.1021625644
C  C32  1  0.91632000  0.45292000  0.52850000  1.0 -0.0670292307
C  C33  1  0.96826000  0.50456000  0.51624000  1.0 0.1894706639
C  C34  1  0.97016000  0.51166000  0.48805000  1.0 -0.0016888483
C  C35  1  0.06170000  0.56530000  0.62846000  1.0 -0.458874647
C  C36  1  0.26970000  0.83330000  0.55824000  1.0 0.6948560117
C  C37  1  0.06960000  0.49390000  0.45877000  1.0 -0.4512602281
C  C38  1  0.13140000  0.67180000  0.44958000  1.0 0.1801204516
C  C39  1  0.12607000  0.61187000  0.44864000  1.0 -0.2556981216
C  C40  1  0.07440000  0.56000000  0.46092000  1.0 0.1492331379
C  C41  1  0.02810000  0.56800000  0.47415000  1.0 -0.0489170871
C  C42  1  0.03340000  0.62780000  0.47509000  1.0 0.1396983067
C  C43  1  0.08500000  0.67970000  0.46280000  1.0 -0.248623268
C  C44  1  0.98300000  0.63860000  0.48863000  1.0 -0.406237928
C  C45  1  0.24720000  0.85370000  0.53306000  1.0 -0.5696769391
C  C46  1  0.96770000  0.33080000  0.60923000  1.0 -0.4167156435
C  C47  1  0.17580000  0.45340000  0.66023000  1.0 -0.4512602281
C  C48  1  0.18700000  0.72930000  0.43593000  1.0 -0.4512602281
C  C49  1  0.21980000  0.44030000  0.49163000  1.0 0.1288256436
C  C50  1  0.75230000  0.35940000  0.99977000  1.0 0.5365556238
C  C51  1  0.53800000  0.08565000  0.89315000  1.0 -0.0639431406
C  C52  1  0.58402000  0.13821000  0.90742000  1.0 0.1021625644
C  C53  1  0.58026000  0.14063000  0.93567000  1.0 -0.0016888483
C  C54  1  0.53050000  0.09048000  0.94964000  1.0 -0.1666013093
C  C55  1  0.48443000  0.03792000  0.93537000  1.0 -0.0016888483
C  C56  1  0.48819000  0.03550000  0.90712000  1.0 0.1894706639
C  C57  1  0.62520000  0.19750000  0.95201000  1.0 0.0812620243
C  C58  1  0.63850000  0.25824000  0.94437000  1.0 -0.1508288195
C  C59  1  0.67990000  0.31080000  0.95997000  1.0 -0.1000519275
C  C60  1  0.70801000  0.30261000  0.98320000  1.0 -0.0211368313
C  C61  1  0.69470000  0.24187000  0.99084000  1.0 -0.0867249479
C  C62  1  0.65330000  0.18931000  0.97525000  1.0 -0.1429160043
C  C63  1  0.59990000  0.24727000  0.80323000  1.0 -0.1429160043
C  C64  1  0.55370000  0.18380000  0.79913000  1.0 0.0812620243
C  C65  1  0.51410000  0.16656000  0.77643000  1.0 -0.1508288195
C  C66  1  0.52060000  0.21278000  0.75782000  1.0 -0.1000519275
C  C67  1  0.56670000  0.27624000  0.76191000  1.0 -0.026963569
C  C68  1  0.60637000  0.29349000  0.78462000  1.0 -0.1000519275
C  C69  1  0.43080000  0.98170000  0.95121000  1.0 -0.0489170871
C  C70  1  0.44020000  0.93430000  0.96246000  1.0 0.1492331379
C  C71  1  0.39050000  0.88310000  0.97599000  1.0 -0.248623268
C  C72  1  0.33150000  0.87930000  0.97826000  1.0 0.1801204516
C  C73  1  0.32210000  0.92660000  0.96701000  1.0 -0.248623268
C  C74  1  0.37180000  0.97790000  0.95348000  1.0 0.1492331379
C  C75  1  0.57510000  0.32630000  0.74092000  1.0 0.5952743349
C  C76  1  0.53320000  0.18680000  0.85878000  1.0 -0.4438042273
C  C77  1  0.64550000  0.18700000  0.89306000  1.0 -0.4438042273
C  C78  1  0.54710000  0.07988000  0.80545000  1.0 -0.1758736761
C  C79  1  0.54740000  0.13182000  0.81772000  1.0 -0.0091170134
C  C80  1  0.54220000  0.13372000  0.84591000  1.0 0.1021625644
C  C81  1  0.53660000  0.08368000  0.86184000  1.0 -0.0670292307
C  C82  1  0.53630000  0.03174000  0.84958000  1.0 0.1894706639
C  C83  1  0.54150000  0.02984000  0.82139000  1.0 -0.0016888483
C  C84  1  0.50360000  0.93830000  0.96180000  1.0 -0.458874647
C  C85  1  0.56360000  0.73030000  0.89158000  1.0 0.6948560117
C  C86  1  0.42430000  0.93040000  0.79211000  1.0 -0.4512602281
C  C87  1  0.54040000  0.86860000  0.78292000  1.0 0.1801204516
C  C88  1  0.48580000  0.87393000  0.78198000  1.0 -0.2556981216
C  C89  1  0.48560000  0.92560000  0.79426000  1.0 0.1492331379
C  C90  1  0.53990000  0.97190000  0.80749000  1.0 -0.0489170871
C  C91  1  0.59440000  0.96660000  0.80843000  1.0 0.1396983067
C  C92  1  0.59470000  0.91500000  0.79614000  1.0 -0.248623268
C  C93  1  0.65560000  0.01700000  0.82197000  1.0 -0.406237928
C  C94  1  0.60650000  0.75280000  0.86640000  1.0 -0.5696769391
C  C95  1  0.36310000  0.03230000  0.94257000  1.0 -0.4167156435
C  C96  1  0.27760000  0.82420000  0.99357000  1.0 -0.4512602281
C  C97  1  0.54230000  0.81300000  0.76927000  1.0 -0.4512602281
C  C98  1  0.22050000  0.78020000  0.82497000  1.0 0.1288256436
C  C99  1  0.60710000  0.24770000  0.33310000  1.0 0.5365556238
C  C100  1  0.54765000  0.46200000  0.22648000  1.0 -0.0639431406
C  C101  1  0.55419000  0.41598000  0.24075000  1.0 0.1021625644
C  C102  1  0.56037000  0.41974000  0.26900000  1.0 -0.0016888483
C  C103  1  0.55998000  0.46950000  0.28297000  1.0 -0.1666013093
C  C104  1  0.55349000  0.51557000  0.26870000  1.0 0.001106797
C  C105  1  0.54731000  0.51181000  0.24045000  1.0 0.1894706639
C  C106  1  0.57230000  0.37480000  0.28534000  1.0 0.0812620243
C  C107  1  0.61974000  0.36150000  0.27770000  1.0 -0.1508288195
C  C108  1  0.63090000  0.32010000  0.29330000  1.0 -0.1000519275
C  C109  1  0.59460000  0.29199000  0.31653000  1.0 -0.0211368313
C  C110  1  0.54717000  0.30530000  0.32417000  1.0 -0.0867249479
C  C111  1  0.53601000  0.34670000  0.30858000  1.0 -0.1429160043
C  C112  1  0.64737000  0.40010000  0.13656000  1.0 -0.1429160043
C  C113  1  0.63010000  0.44630000  0.13246000  1.0 0.0812620243
C  C114  1  0.65246000  0.48590000  0.10976000  1.0 -0.1508288195
C  C115  1  0.69218000  0.47940000  0.09115000  1.0 -0.1000519275
C  C116  1  0.70954000  0.43330000  0.09524000  1.0 -0.026963569
C  C117  1  0.68712000  0.39363000  0.11795000  1.0 -0.1000519275
C  C118  1  0.55090000  0.56920000  0.28454000  1.0 -0.04449769
C  C119  1  0.49410000  0.55980000  0.29579000  1.0 0.1492331379
C  C120  1  0.49260000  0.60950000  0.30932000  1.0 -0.248623268
C  C121  1  0.54780000  0.66850000  0.31159000  1.0 0.1801204516
C  C122  1  0.60450000  0.67790000  0.30034000  1.0 -0.248623268
C  C123  1  0.60610000  0.62820000  0.28681000  1.0 0.1492331379
C  C124  1  0.75120000  0.42490000  0.07425000  1.0 0.5952743349
C  C125  1  0.65360000  0.46680000  0.19211000  1.0 -0.4438042273
C  C126  1  0.54150000  0.35450000  0.22639000  1.0 -0.4438042273
C  C127  1  0.53278000  0.45290000  0.13878000  1.0 -0.1758736761
C  C128  1  0.58442000  0.45260000  0.15105000  1.0 -0.0091170134
C  C129  1  0.59152000  0.45780000  0.17924000  1.0 0.1021625644
C  C130  1  0.54708000  0.46340000  0.19517000  1.0 -0.0670292307
C  C131  1  0.49544000  0.46370000  0.18291000  1.0 0.1894706639
C  C132  1  0.48834000  0.45850000  0.15472000  1.0 -0.0016888483
C  C133  1  0.43470000  0.49640000  0.29513000  1.0 -0.458874647
C  C134  1  0.16670000  0.43640000  0.22491000  1.0 0.6948560117
C  C135  1  0.50610000  0.57570000  0.12544000  1.0 -0.4512602281
C  C136  1  0.32820000  0.45960000  0.11625000  1.0 0.1801204516
C  C137  1  0.38813000  0.51420000  0.11531000  1.0 -0.2556981216
C  C138  1  0.44000000  0.51440000  0.12759000  1.0 0.1492331379
C  C139  1  0.43200000  0.46010000  0.14082000  1.0 -0.0489170871
C  C140  1  0.37220000  0.40560000  0.14176000  1.0 0.1396983067
C  C141  1  0.32030000  0.40530000  0.12947000  1.0 -0.248623268
C  C142  1  0.36140000  0.34440000  0.15530000  1.0 -0.406237928
C  C143  1  0.14630000  0.39350000  0.19973000  1.0 -0.5696769391
C  C144  1  0.66920000  0.63690000  0.27590000  1.0 -0.4167156435
C  C145  1  0.54660000  0.72240000  0.32690000  1.0 -0.4512602281
C  C146  1  0.27070000  0.45770000  0.10260000  1.0 -0.4512602281
C  C147  1  0.55970000  0.77950000  0.15830000  1.0 0.1288256436
C  C148  1  0.35940000  0.60710000  0.16643000  1.0 0.5365556238
C  C149  1  0.08565000  0.54765000  0.05981000  1.0 -0.0639431406
C  C150  1  0.13821000  0.55419000  0.07408000  1.0 0.1021625644
C  C151  1  0.14063000  0.56037000  0.10233000  1.0 -0.0016888483
C  C152  1  0.09048000  0.55998000  0.11630000  1.0 -0.1666013093
C  C153  1  0.03792000  0.55349000  0.10203000  1.0 0.001106797
C  C154  1  0.03550000  0.54731000  0.07378000  1.0 0.1894706639
C  C155  1  0.19750000  0.57230000  0.11867000  1.0 0.0812620243
C  C156  1  0.25824000  0.61974000  0.11103000  1.0 -0.1508288195
C  C157  1  0.31080000  0.63090000  0.12663000  1.0 -0.1000519275
C  C158  1  0.30261000  0.59460000  0.14986000  1.0 -0.0211368313
C  C159  1  0.24187000  0.54717000  0.15750000  1.0 -0.0867249479
C  C160  1  0.18931000  0.53601000  0.14191000  1.0 -0.1429160043
C  C161  1  0.24727000  0.64737000  0.96989000  1.0 -0.1429160043
C  C162  1  0.18380000  0.63010000  0.96579000  1.0 0.0812620243
C  C163  1  0.16656000  0.65246000  0.94309000  1.0 -0.1508288195
C  C164  1  0.21278000  0.69218000  0.92448000  1.0 -0.1000519275
C  C165  1  0.27624000  0.70954000  0.92857000  1.0 -0.026963569
C  C166  1  0.29349000  0.68712000  0.95128000  1.0 -0.1000519275
C  C167  1  0.98170000  0.55090000  0.11787000  1.0 -0.04449769
C  C168  1  0.93430000  0.49410000  0.12912000  1.0 0.1492331379
C  C169  1  0.88310000  0.49260000  0.14265000  1.0 -0.248623268
C  C170  1  0.87930000  0.54780000  0.14492000  1.0 0.1801204516
C  C171  1  0.92660000  0.60450000  0.13367000  1.0 -0.248623268
C  C172  1  0.97790000  0.60610000  0.12014000  1.0 0.1492331379
C  C173  1  0.32630000  0.75120000  0.90758000  1.0 0.5952743349
C  C174  1  0.18680000  0.65360000  0.02544000  1.0 -0.4438042273
C  C175  1  0.18700000  0.54150000  0.05972000  1.0 -0.4438042273
C  C176  1  0.07988000  0.53278000  0.97211000  1.0 -0.1758736761
C  C177  1  0.13182000  0.58442000  0.98438000  1.0 -0.0091170134
C  C178  1  0.13372000  0.59152000  0.01257000  1.0 0.1021625644
C  C179  1  0.08368000  0.54708000  0.02850000  1.0 -0.0670292307
C  C180  1  0.03174000  0.49544000  0.01624000  1.0 0.1894706639
C  C181  1  0.02984000  0.48834000  0.98805000  1.0 -0.0016888483
C  C182  1  0.93830000  0.43470000  0.12846000  1.0 -0.458874647
C  C183  1  0.73030000  0.16670000  0.05824000  1.0 0.6948560117
C  C184  1  0.93040000  0.50610000  0.95877000  1.0 -0.4512602281
C  C185  1  0.86860000  0.32820000  0.94958000  1.0 0.1801204516
C  C186  1  0.87393000  0.38813000  0.94864000  1.0 -0.2556981216
C  C187  1  0.92560000  0.44000000  0.96092000  1.0 0.1492331379
C  C188  1  0.97190000  0.43200000  0.97415000  1.0 -0.0489170871
C  C189  1  0.96660000  0.37220000  0.97509000  1.0 0.1396983067
C  C190  1  0.91500000  0.32030000  0.96280000  1.0 -0.248623268
C  C191  1  0.01700000  0.36140000  0.98863000  1.0 -0.406237928
C  C192  1  0.75280000  0.14630000  0.03306000  1.0 -0.5696769391
C  C193  1  0.03230000  0.66920000  0.10923000  1.0 -0.4167156435
C  C194  1  0.82420000  0.54660000  0.16023000  1.0 -0.4512602281
C  C195  1  0.81300000  0.27070000  0.93593000  1.0 -0.4512602281
C  C196  1  0.78020000  0.55970000  0.99163000  1.0 0.1288256436
C  C197  1  0.24770000  0.64060000  0.49977000  1.0 0.5365556238
C  C198  1  0.46200000  0.91435000  0.39315000  1.0 -0.0639431406
C  C199  1  0.41598000  0.86179000  0.40742000  1.0 0.1021625644
C  C200  1  0.41974000  0.85937000  0.43567000  1.0 -0.0016888483
C  C201  1  0.46950000  0.90952000  0.44964000  1.0 -0.1666013093
C  C202  1  0.51557000  0.96208000  0.43537000  1.0 0.001106797
C  C203  1  0.51181000  0.96450000  0.40712000  1.0 0.1894706639
C  C204  1  0.37480000  0.80250000  0.45201000  1.0 0.0812620243
C  C205  1  0.36150000  0.74176000  0.44437000  1.0 -0.1508288195
C  C206  1  0.32010000  0.68920000  0.45997000  1.0 -0.1000519275
C  C207  1  0.29199000  0.69739000  0.48320000  1.0 -0.0211368313
C  C208  1  0.30530000  0.75813000  0.49084000  1.0 -0.0867249479
C  C209  1  0.34670000  0.81069000  0.47525000  1.0 -0.1429160043
C  C210  1  0.40010000  0.75273000  0.30323000  1.0 -0.1429160043
C  C211  1  0.44630000  0.81620000  0.29913000  1.0 0.0812620243
C  C212  1  0.48590000  0.83344000  0.27643000  1.0 -0.1508288195
C  C213  1  0.47940000  0.78722000  0.25782000  1.0 -0.1000519275
C  C214  1  0.43330000  0.72376000  0.26191000  1.0 -0.026963569
C  C215  1  0.39363000  0.70651000  0.28462000  1.0 -0.1000519275
C  C216  1  0.56920000  0.01830000  0.45121000  1.0 -0.04449769
C  C217  1  0.55980000  0.06570000  0.46246000  1.0 0.1492331379
C  C218  1  0.60950000  0.11690000  0.47599000  1.0 -0.248623268
C  C219  1  0.66850000  0.12070000  0.47826000  1.0 0.1801204516
C  C220  1  0.67790000  0.07340000  0.46701000  1.0 -0.248623268
C  C221  1  0.62820000  0.02210000  0.45348000  1.0 0.1492331379
C  C222  1  0.42490000  0.67370000  0.24092000  1.0 0.5952743349
C  C223  1  0.46680000  0.81320000  0.35878000  1.0 -0.4438042273
C  C224  1  0.35450000  0.81300000  0.39306000  1.0 -0.4438042273
C  C225  1  0.45290000  0.92012000  0.30545000  1.0 -0.1758736761
C  C226  1  0.45260000  0.86818000  0.31772000  1.0 -0.0091170134
C  C227  1  0.45780000  0.86628000  0.34591000  1.0 0.1021625644
C  C228  1  0.46340000  0.91632000  0.36184000  1.0 -0.0670292307
C  C229  1  0.46370000  0.96826000  0.34958000  1.0 0.1894706639
C  C230  1  0.45850000  0.97016000  0.32139000  1.0 -0.0016888483
C  C231  1  0.49640000  0.06170000  0.46180000  1.0 -0.458874647
C  C232  1  0.43640000  0.26970000  0.39158000  1.0 0.6948560117
C  C233  1  0.57570000  0.06960000  0.29211000  1.0 -0.4512602281
C  C234  1  0.45960000  0.13140000  0.28292000  1.0 0.1801204516
C  C235  1  0.51420000  0.12607000  0.28198000  1.0 -0.2556981216
C  C236  1  0.51440000  0.07440000  0.29426000  1.0 0.1492331379
C  C237  1  0.46010000  0.02810000  0.30749000  1.0 -0.0489170871
C  C238  1  0.40560000  0.03340000  0.30843000  1.0 0.1396983067
C  C239  1  0.40530000  0.08500000  0.29614000  1.0 -0.248623268
C  C240  1  0.34440000  0.98300000  0.32197000  1.0 -0.406237928
C  C241  1  0.39350000  0.24720000  0.36640000  1.0 -0.5696769391
C  C242  1  0.63690000  0.96770000  0.44257000  1.0 -0.4167156435
C  C243  1  0.72240000  0.17580000  0.49357000  1.0 -0.4512602281
C  C244  1  0.45770000  0.18700000  0.26927000  1.0 -0.4512602281
C  C245  1  0.77950000  0.21980000  0.32497000  1.0 0.1288256436
C  C246  1  0.39290000  0.75230000  0.83310000  1.0 0.5365556238
C  C247  1  0.45235000  0.53800000  0.72648000  1.0 -0.0639431406
C  C248  1  0.44581000  0.58402000  0.74075000  1.0 0.1021625644
C  C249  1  0.43963000  0.58026000  0.76900000  1.0 -0.0016888483
C  C250  1  0.44002000  0.53050000  0.78297000  1.0 -0.1666013093
C  C251  1  0.44651000  0.48443000  0.76870000  1.0 0.001106797
C  C252  1  0.45269000  0.48819000  0.74045000  1.0 0.1894706639
C  C253  1  0.42770000  0.62520000  0.78534000  1.0 0.0812620243
C  C254  1  0.38026000  0.63850000  0.77770000  1.0 -0.1508288195
C  C255  1  0.36910000  0.67990000  0.79330000  1.0 -0.1000519275
C  C256  1  0.40540000  0.70801000  0.81653000  1.0 -0.0211368313
C  C257  1  0.45283000  0.69470000  0.82417000  1.0 -0.0867249479
C  C258  1  0.46399000  0.65330000  0.80858000  1.0 -0.1429160043
C  C259  1  0.35263000  0.59990000  0.63656000  1.0 -0.1429160043
C  C260  1  0.36990000  0.55370000  0.63246000  1.0 0.0812620243
C  C261  1  0.34754000  0.51410000  0.60976000  1.0 -0.1508288195
C  C262  1  0.30782000  0.52060000  0.59115000  1.0 -0.1000519275
C  C263  1  0.29046000  0.56670000  0.59524000  1.0 -0.026963569
C  C264  1  0.31288000  0.60637000  0.61795000  1.0 -0.1000519275
C  C265  1  0.44910000  0.43080000  0.78454000  1.0 -0.04449769
C  C266  1  0.50590000  0.44020000  0.79579000  1.0 0.1492331379
C  C267  1  0.50740000  0.39050000  0.80932000  1.0 -0.248623268
C  C268  1  0.45220000  0.33150000  0.81159000  1.0 0.1801204516
C  C269  1  0.39550000  0.32210000  0.80034000  1.0 -0.248623268
C  C270  1  0.39390000  0.37180000  0.78681000  1.0 0.1492331379
C  C271  1  0.24880000  0.57510000  0.57425000  1.0 0.5952743349
C  C272  1  0.34640000  0.53320000  0.69211000  1.0 -0.4438042273
C  C273  1  0.45850000  0.64550000  0.72639000  1.0 -0.4438042273
C  C274  1  0.46722000  0.54710000  0.63878000  1.0 -0.1758736761
C  C275  1  0.41558000  0.54740000  0.65105000  1.0 -0.0091170134
C  C276  1  0.40848000  0.54220000  0.67924000  1.0 0.1021625644
C  C277  1  0.45292000  0.53660000  0.69517000  1.0 -0.0670292307
C  C278  1  0.50456000  0.53630000  0.68291000  1.0 0.1894706639
C  C279  1  0.51166000  0.54150000  0.65472000  1.0 -0.0016888483
C  C280  1  0.56530000  0.50360000  0.79513000  1.0 -0.458874647
C  C281  1  0.83330000  0.56360000  0.72491000  1.0 0.6948560117
C  C282  1  0.49390000  0.42430000  0.62544000  1.0 -0.4512602281
C  C283  1  0.67180000  0.54040000  0.61625000  1.0 0.1801204516
C  C284  1  0.61187000  0.48580000  0.61531000  1.0 -0.2556981216
C  C285  1  0.56000000  0.48560000  0.62759000  1.0 0.1492331379
C  C286  1  0.56800000  0.53990000  0.64082000  1.0 -0.0489170871
C  C287  1  0.62780000  0.59440000  0.64176000  1.0 0.1396983067
C  C288  1  0.67970000  0.59470000  0.62947000  1.0 -0.248623268
C  C289  1  0.63860000  0.65560000  0.65530000  1.0 -0.406237928
C  C290  1  0.85370000  0.60650000  0.69973000  1.0 -0.5696769391
C  C291  1  0.33080000  0.36310000  0.77590000  1.0 -0.4167156435
C  C292  1  0.45340000  0.27760000  0.82690000  1.0 -0.4512602281
C  C293  1  0.72930000  0.54230000  0.60260000  1.0 -0.4512602281
C  C294  1  0.44030000  0.22050000  0.65830000  1.0 0.1288256436
C  C295  1  0.24770000  0.60710000  0.33357000  1.0 0.5365556238
C  C296  1  0.46200000  0.54765000  0.44019000  1.0 -0.0639431406
C  C297  1  0.41598000  0.55419000  0.42592000  1.0 0.1021625644
C  C298  1  0.41974000  0.56037000  0.39767000  1.0 -0.0016888483
C  C299  1  0.46950000  0.55998000  0.38370000  1.0 -0.1666013093
C  C300  1  0.51557000  0.55349000  0.39797000  1.0 0.001106797
C  C301  1  0.51181000  0.54731000  0.42622000  1.0 0.1894706639
C  C302  1  0.37480000  0.57230000  0.38133000  1.0 0.0812620243
C  C303  1  0.36150000  0.61974000  0.38897000  1.0 -0.1508288195
C  C304  1  0.32010000  0.63090000  0.37337000  1.0 -0.1000519275
C  C305  1  0.29199000  0.59460000  0.35014000  1.0 -0.0211368313
C  C306  1  0.30530000  0.54717000  0.34250000  1.0 -0.0867249479
C  C307  1  0.34670000  0.53601000  0.35809000  1.0 -0.1429160043
C  C308  1  0.40010000  0.64737000  0.53011000  1.0 -0.1429160043
C  C309  1  0.44630000  0.63010000  0.53421000  1.0 0.0812620243
C  C310  1  0.48590000  0.65246000  0.55691000  1.0 -0.1508288195
C  C311  1  0.47940000  0.69218000  0.57552000  1.0 -0.1000519275
C  C312  1  0.43330000  0.70954000  0.57143000  1.0 -0.026963569
C  C313  1  0.39363000  0.68712000  0.54872000  1.0 -0.1000519275
C  C314  1  0.56920000  0.55090000  0.38213000  1.0 -0.04449769
C  C315  1  0.55980000  0.49410000  0.37088000  1.0 0.1492331379
C  C316  1  0.60950000  0.49260000  0.35735000  1.0 -0.248623268
C  C317  1  0.66850000  0.54780000  0.35508000  1.0 0.1801204516
C  C318  1  0.67790000  0.60450000  0.36633000  1.0 -0.248623268
C  C319  1  0.62820000  0.60610000  0.37986000  1.0 0.1492331379
C  C320  1  0.42490000  0.75120000  0.59242000  1.0 0.5952743349
C  C321  1  0.46680000  0.65360000  0.47456000  1.0 -0.4438042273
C  C322  1  0.35450000  0.54150000  0.44028000  1.0 -0.4438042273
C  C323  1  0.45290000  0.53278000  0.52789000  1.0 -0.1758736761
C  C324  1  0.45260000  0.58442000  0.51562000  1.0 -0.0091170134
C  C325  1  0.45780000  0.59152000  0.48743000  1.0 0.1021625644
C  C326  1  0.46340000  0.54708000  0.47150000  1.0 -0.0670292307
C  C327  1  0.46370000  0.49544000  0.48376000  1.0 0.1894706639
C  C328  1  0.45850000  0.48834000  0.51195000  1.0 -0.0016888483
C  C329  1  0.49640000  0.43470000  0.37154000  1.0 -0.458874647
C  C330  1  0.43640000  0.16670000  0.44176000  1.0 0.6957176982
C  C331  1  0.57570000  0.50610000  0.54123000  1.0 -0.4512602281
C  C332  1  0.45960000  0.32820000  0.55042000  1.0 0.1801204516
C  C333  1  0.51420000  0.38813000  0.55136000  1.0 -0.2556981216
C  C334  1  0.51440000  0.44000000  0.53908000  1.0 0.1492331379
C  C335  1  0.46010000  0.43200000  0.52585000  1.0 -0.0489170871
C  C336  1  0.40560000  0.37220000  0.52491000  1.0 0.1396983067
C  C337  1  0.40530000  0.32030000  0.53720000  1.0 -0.248623268
C  C338  1  0.34440000  0.36140000  0.51137000  1.0 -0.406237928
C  C339  1  0.39350000  0.14630000  0.46694000  1.0 -0.5696769391
C  C340  1  0.63690000  0.66920000  0.39077000  1.0 -0.4167156435
C  C341  1  0.72240000  0.54660000  0.33977000  1.0 -0.4512602281
C  C342  1  0.45770000  0.27070000  0.56407000  1.0 -0.4512602281
C  C343  1  0.77950000  0.55970000  0.50837000  1.0 0.1288256436
C  C344  1  0.39290000  0.64060000  0.00023000  1.0 0.5365556238
C  C345  1  0.45235000  0.91435000  0.10685000  1.0 -0.0639431406
C  C346  1  0.44581000  0.86179000  0.09258000  1.0 0.1021625644
C  C347  1  0.43963000  0.85937000  0.06433000  1.0 -0.0016888483
C  C348  1  0.44002000  0.90952000  0.05036000  1.0 -0.1666013093
C  C349  1  0.44651000  0.96208000  0.06463000  1.0 0.001106797
C  C350  1  0.45269000  0.96450000  0.09288000  1.0 0.1894706639
C  C351  1  0.42770000  0.80250000  0.04799000  1.0 0.0812620243
C  C352  1  0.38026000  0.74176000  0.05563000  1.0 -0.1508288195
C  C353  1  0.36910000  0.68920000  0.04003000  1.0 -0.1000519275
C  C354  1  0.40540000  0.69739000  0.01680000  1.0 -0.0211368313
C  C355  1  0.45283000  0.75813000  0.00916000  1.0 -0.0867249479
C  C356  1  0.46399000  0.81069000  0.02475000  1.0 -0.1429160043
C  C357  1  0.35263000  0.75273000  0.19677000  1.0 -0.1429160043
C  C358  1  0.36990000  0.81620000  0.20087000  1.0 0.0812620243
C  C359  1  0.34754000  0.83344000  0.22357000  1.0 -0.1508288195
C  C360  1  0.30782000  0.78722000  0.24218000  1.0 -0.1000519275
C  C361  1  0.29046000  0.72376000  0.23809000  1.0 -0.026963569
C  C362  1  0.31288000  0.70651000  0.21538000  1.0 -0.1000519275
C  C363  1  0.44910000  0.01830000  0.04879000  1.0 -0.04449769
C  C364  1  0.50590000  0.06570000  0.03754000  1.0 0.1492331379
C  C365  1  0.50740000  0.11690000  0.02401000  1.0 -0.248623268
C  C366  1  0.45220000  0.12070000  0.02174000  1.0 0.1801204516
C  C367  1  0.39550000  0.07340000  0.03299000  1.0 -0.248623268
C  C368  1  0.39390000  0.02210000  0.04652000  1.0 0.1492331379
C  C369  1  0.24880000  0.67370000  0.25908000  1.0 0.5952743349
C  C370  1  0.34640000  0.81320000  0.14122000  1.0 -0.4438042273
C  C371  1  0.45850000  0.81300000  0.10694000  1.0 -0.4438042273
C  C372  1  0.46722000  0.92012000  0.19455000  1.0 -0.1758736761
C  C373  1  0.41558000  0.86818000  0.18228000  1.0 -0.0091170134
C  C374  1  0.40848000  0.86628000  0.15409000  1.0 0.1021625644
C  C375  1  0.45292000  0.91632000  0.13816000  1.0 -0.0670292307
C  C376  1  0.50456000  0.96826000  0.15042000  1.0 0.1894706639
C  C377  1  0.51166000  0.97016000  0.17861000  1.0 -0.0016888483
C  C378  1  0.56530000  0.06170000  0.03820000  1.0 -0.458874647
C  C379  1  0.83330000  0.26970000  0.10842000  1.0 0.6948560117
C  C380  1  0.49390000  0.06960000  0.20789000  1.0 -0.4512602281
C  C381  1  0.67180000  0.13140000  0.21708000  1.0 0.1801204516
C  C382  1  0.61187000  0.12607000  0.21802000  1.0 -0.2556981216
C  C383  1  0.56000000  0.07440000  0.20574000  1.0 0.1492331379
C  C384  1  0.56800000  0.02810000  0.19251000  1.0 -0.0489170871
C  C385  1  0.62780000  0.03340000  0.19157000  1.0 0.1396983067
C  C386  1  0.67970000  0.08500000  0.20386000  1.0 -0.248623268
C  C387  1  0.63860000  0.98300000  0.17803000  1.0 -0.406237928
C  C388  1  0.85370000  0.24720000  0.13360000  1.0 -0.5696769391
C  C389  1  0.33080000  0.96770000  0.05743000  1.0 -0.4167156435
C  C390  1  0.45340000  0.17580000  0.00643000  1.0 -0.4512602281
C  C391  1  0.72930000  0.18700000  0.23073000  1.0 -0.4512602281
C  C392  1  0.44030000  0.21980000  0.17503000  1.0 0.1288256436
C  C393  1  0.35940000  0.75230000  0.66690000  1.0 0.5365556238
C  C394  1  0.08565000  0.53800000  0.77352000  1.0 -0.0639431406
C  C395  1  0.13821000  0.58402000  0.75925000  1.0 0.1021625644
C  C396  1  0.14063000  0.58026000  0.73100000  1.0 -0.0016888483
C  C397  1  0.09048000  0.53050000  0.71703000  1.0 -0.1666013093
C  C398  1  0.03792000  0.48443000  0.73130000  1.0 0.001106797
C  C399  1  0.03550000  0.48819000  0.75955000  1.0 0.1894706639
C  C400  1  0.19750000  0.62520000  0.71466000  1.0 0.0812620243
C  C401  1  0.25824000  0.63850000  0.72230000  1.0 -0.1508288195
C  C402  1  0.31080000  0.67990000  0.70670000  1.0 -0.1000519275
C  C403  1  0.30261000  0.70801000  0.68347000  1.0 -0.0211368313
C  C404  1  0.24187000  0.69470000  0.67583000  1.0 -0.0867249479
C  C405  1  0.18931000  0.65330000  0.69142000  1.0 -0.1429160043
C  C406  1  0.24727000  0.59990000  0.86344000  1.0 -0.1429160043
C  C407  1  0.18380000  0.55370000  0.86754000  1.0 0.0812620243
C  C408  1  0.16656000  0.51410000  0.89024000  1.0 -0.1508288195
C  C409  1  0.21278000  0.52060000  0.90885000  1.0 -0.1000519275
C  C410  1  0.27624000  0.56670000  0.90476000  1.0 -0.026963569
C  C411  1  0.29349000  0.60637000  0.88205000  1.0 -0.1000519275
C  C412  1  0.98170000  0.43080000  0.71546000  1.0 -0.04449769
C  C413  1  0.93430000  0.44020000  0.70421000  1.0 0.1492331379
C  C414  1  0.88310000  0.39050000  0.69068000  1.0 -0.248623268
C  C415  1  0.87930000  0.33150000  0.68841000  1.0 0.1801204516
C  C416  1  0.92660000  0.32210000  0.69966000  1.0 -0.248623268
C  C417  1  0.97790000  0.37180000  0.71319000  1.0 0.1492331379
C  C418  1  0.32630000  0.57510000  0.92575000  1.0 0.5952743349
C  C419  1  0.18680000  0.53320000  0.80789000  1.0 -0.4438042273
C  C420  1  0.18700000  0.64550000  0.77361000  1.0 -0.4438042273
C  C421  1  0.07988000  0.54710000  0.86122000  1.0 -0.1758736761
C  C422  1  0.13182000  0.54740000  0.84895000  1.0 -0.0091170134
C  C423  1  0.13372000  0.54220000  0.82076000  1.0 0.1021625644
C  C424  1  0.08368000  0.53660000  0.80483000  1.0 -0.0670292307
C  C425  1  0.03174000  0.53630000  0.81709000  1.0 0.1894706639
C  C426  1  0.02984000  0.54150000  0.84528000  1.0 -0.0016888483
C  C427  1  0.93830000  0.50360000  0.70487000  1.0 -0.458874647
C  C428  1  0.73030000  0.56360000  0.77509000  1.0 0.6948560117
C  C429  1  0.93040000  0.42430000  0.87456000  1.0 -0.4512602281
C  C430  1  0.86860000  0.54040000  0.88375000  1.0 0.1801204516
C  C431  1  0.87393000  0.48580000  0.88469000  1.0 -0.2556981216
C  C432  1  0.92560000  0.48560000  0.87241000  1.0 0.1492331379
C  C433  1  0.97190000  0.53990000  0.85918000  1.0 -0.0489170871
C  C434  1  0.96660000  0.59440000  0.85824000  1.0 0.1396983067
C  C435  1  0.91500000  0.59470000  0.87053000  1.0 -0.248623268
C  C436  1  0.01700000  0.65560000  0.84470000  1.0 -0.406237928
C  C437  1  0.75280000  0.60650000  0.80027000  1.0 -0.5696769391
C  C438  1  0.03230000  0.36310000  0.72410000  1.0 -0.4167156435
C  C439  1  0.82420000  0.27760000  0.67310000  1.0 -0.4512602281
C  C440  1  0.81300000  0.54230000  0.89740000  1.0 -0.4512602281
C  C441  1  0.78020000  0.22050000  0.84170000  1.0 0.1288256436
C  C442  1  0.75230000  0.39290000  0.83357000  1.0 0.5365556238
C  C443  1  0.53800000  0.45235000  0.94019000  1.0 -0.0639431406
C  C444  1  0.58402000  0.44581000  0.92592000  1.0 0.1021625644
C  C445  1  0.58026000  0.43963000  0.89767000  1.0 -0.0016888483
C  C446  1  0.53050000  0.44002000  0.88370000  1.0 -0.1666013093
C  C447  1  0.48443000  0.44651000  0.89797000  1.0 0.001106797
C  C448  1  0.48819000  0.45269000  0.92622000  1.0 0.1894706639
C  C449  1  0.62520000  0.42770000  0.88133000  1.0 0.0812620243
C  C450  1  0.63850000  0.38026000  0.88897000  1.0 -0.1508288195
C  C451  1  0.67990000  0.36910000  0.87337000  1.0 -0.1000519275
C  C452  1  0.70801000  0.40540000  0.85014000  1.0 -0.0211368313
C  C453  1  0.69470000  0.45283000  0.84250000  1.0 -0.0867249479
C  C454  1  0.65330000  0.46399000  0.85809000  1.0 -0.1429160043
C  C455  1  0.59990000  0.35263000  0.03011000  1.0 -0.1429160043
C  C456  1  0.55370000  0.36990000  0.03421000  1.0 0.0812620243
C  C457  1  0.51410000  0.34754000  0.05691000  1.0 -0.1508288195
C  C458  1  0.52060000  0.30782000  0.07552000  1.0 -0.1000519275
C  C459  1  0.56670000  0.29046000  0.07143000  1.0 -0.026963569
C  C460  1  0.60637000  0.31288000  0.04872000  1.0 -0.1000519275
C  C461  1  0.43080000  0.44910000  0.88213000  1.0 -0.0489170871
C  C462  1  0.44020000  0.50590000  0.87088000  1.0 0.1492331379
C  C463  1  0.39050000  0.50740000  0.85735000  1.0 -0.248623268
C  C464  1  0.33150000  0.45220000  0.85508000  1.0 0.1801204516
C  C465  1  0.32210000  0.39550000  0.86633000  1.0 -0.248623268
C  C466  1  0.37180000  0.39390000  0.87986000  1.0 0.1492331379
C  C467  1  0.57510000  0.24880000  0.09242000  1.0 0.5952743349
C  C468  1  0.53320000  0.34640000  0.97456000  1.0 -0.4438042273
C  C469  1  0.64550000  0.45850000  0.94028000  1.0 -0.4438042273
C  C470  1  0.54710000  0.46722000  0.02789000  1.0 -0.1758736761
C  C471  1  0.54740000  0.41558000  0.01562000  1.0 -0.0091170134
C  C472  1  0.54220000  0.40848000  0.98743000  1.0 0.1021625644
C  C473  1  0.53660000  0.45292000  0.97150000  1.0 -0.0670292307
C  C474  1  0.53630000  0.50456000  0.98376000  1.0 0.1894706639
C  C475  1  0.54150000  0.51166000  0.01195000  1.0 -0.0016888483
C  C476  1  0.50360000  0.56530000  0.87154000  1.0 -0.458874647
C  C477  1  0.56360000  0.83330000  0.94176000  1.0 0.6948560117
C  C478  1  0.42430000  0.49390000  0.04123000  1.0 -0.4512602281
C  C479  1  0.54040000  0.67180000  0.05042000  1.0 0.1801204516
C  C480  1  0.48580000  0.61187000  0.05136000  1.0 -0.2556981216
C  C481  1  0.48560000  0.56000000  0.03908000  1.0 0.1492331379
C  C482  1  0.53990000  0.56800000  0.02585000  1.0 -0.0489170871
C  C483  1  0.59440000  0.62780000  0.02491000  1.0 0.1396983067
C  C484  1  0.59470000  0.67970000  0.03720000  1.0 -0.248623268
C  C485  1  0.65560000  0.63860000  0.01137000  1.0 -0.406237928
C  C486  1  0.60650000  0.85370000  0.96694000  1.0 -0.5696769391
C  C487  1  0.36310000  0.33080000  0.89077000  1.0 -0.4167156435
C  C488  1  0.27760000  0.45340000  0.83977000  1.0 -0.4512602281
C  C489  1  0.54230000  0.72930000  0.06407000  1.0 -0.4512602281
C  C490  1  0.22050000  0.44030000  0.00837000  1.0 0.1288256436
C  C491  1  0.60710000  0.35940000  0.50023000  1.0 0.5365556238
C  C492  1  0.54765000  0.08565000  0.60685000  1.0 -0.0639431406
C  C493  1  0.55419000  0.13821000  0.59258000  1.0 0.1021625644
C  C494  1  0.56037000  0.14063000  0.56433000  1.0 -0.0016888483
C  C495  1  0.55998000  0.09048000  0.55036000  1.0 -0.1666013093
C  C496  1  0.55349000  0.03792000  0.56463000  1.0 -0.0016888483
C  C497  1  0.54731000  0.03550000  0.59288000  1.0 0.1894706639
C  C498  1  0.57230000  0.19750000  0.54799000  1.0 0.0812620243
C  C499  1  0.61974000  0.25824000  0.55563000  1.0 -0.1508288195
C  C500  1  0.63090000  0.31080000  0.54003000  1.0 -0.1000519275
C  C501  1  0.59460000  0.30261000  0.51680000  1.0 -0.0211368313
C  C502  1  0.54717000  0.24187000  0.50916000  1.0 -0.0867249479
C  C503  1  0.53601000  0.18931000  0.52475000  1.0 -0.1429160043
C  C504  1  0.64737000  0.24727000  0.69677000  1.0 -0.1429160043
C  C505  1  0.63010000  0.18380000  0.70087000  1.0 0.0812620243
C  C506  1  0.65246000  0.16656000  0.72357000  1.0 -0.1508288195
C  C507  1  0.69218000  0.21278000  0.74218000  1.0 -0.1000519275
C  C508  1  0.70954000  0.27624000  0.73809000  1.0 -0.026963569
C  C509  1  0.68712000  0.29349000  0.71538000  1.0 -0.1000519275
C  C510  1  0.55090000  0.98170000  0.54879000  1.0 -0.04449769
C  C511  1  0.49410000  0.93430000  0.53754000  1.0 0.1492331379
C  C512  1  0.49260000  0.88310000  0.52401000  1.0 -0.248623268
C  C513  1  0.54780000  0.87930000  0.52174000  1.0 0.1801204516
C  C514  1  0.60450000  0.92660000  0.53299000  1.0 -0.248623268
C  C515  1  0.60610000  0.97790000  0.54652000  1.0 0.1492331379
C  C516  1  0.75120000  0.32630000  0.75908000  1.0 0.5952743349
C  C517  1  0.65360000  0.18680000  0.64122000  1.0 -0.4438042273
C  C518  1  0.54150000  0.18700000  0.60694000  1.0 -0.4438042273
C  C519  1  0.53278000  0.07988000  0.69455000  1.0 -0.1758736761
C  C520  1  0.58442000  0.13182000  0.68228000  1.0 -0.0091170134
C  C521  1  0.59152000  0.13372000  0.65409000  1.0 0.1021625644
C  C522  1  0.54708000  0.08368000  0.63816000  1.0 -0.0670292307
C  C523  1  0.49544000  0.03174000  0.65042000  1.0 0.1894706639
C  C524  1  0.48834000  0.02984000  0.67861000  1.0 -0.0016888483
C  C525  1  0.43470000  0.93830000  0.53820000  1.0 -0.458874647
C  C526  1  0.16670000  0.73030000  0.60842000  1.0 0.6957176982
C  C527  1  0.50610000  0.93040000  0.70789000  1.0 -0.4512602281
C  C528  1  0.32820000  0.86860000  0.71708000  1.0 0.1801204516
C  C529  1  0.38813000  0.87393000  0.71802000  1.0 -0.2556981216
C  C530  1  0.44000000  0.92560000  0.70574000  1.0 0.1492331379
C  C531  1  0.43200000  0.97190000  0.69251000  1.0 -0.0489170871
C  C532  1  0.37220000  0.96660000  0.69157000  1.0 0.1396983067
C  C533  1  0.32030000  0.91500000  0.70386000  1.0 -0.248623268
C  C534  1  0.36140000  0.01700000  0.67803000  1.0 -0.406237928
C  C535  1  0.14630000  0.75280000  0.63360000  1.0 -0.5696769391
C  C536  1  0.66920000  0.03230000  0.55743000  1.0 -0.4167156435
C  C537  1  0.54660000  0.82420000  0.50643000  1.0 -0.4512602281
C  C538  1  0.27070000  0.81300000  0.73073000  1.0 -0.4512602281
C  C539  1  0.55970000  0.78020000  0.67503000  1.0 0.1288256436
C  C540  1  0.64060000  0.24770000  0.16690000  1.0 0.5365556238
C  C541  1  0.91435000  0.46200000  0.27352000  1.0 -0.0639431406
C  C542  1  0.86179000  0.41598000  0.25925000  1.0 0.1021625644
C  C543  1  0.85937000  0.41974000  0.23100000  1.0 -0.0016888483
C  C544  1  0.90952000  0.46950000  0.21703000  1.0 -0.1666013093
C  C545  1  0.96208000  0.51557000  0.23130000  1.0 -0.0016888483
C  C546  1  0.96450000  0.51181000  0.25955000  1.0 0.1894706639
C  C547  1  0.80250000  0.37480000  0.21466000  1.0 0.0812620243
C  C548  1  0.74176000  0.36150000  0.22230000  1.0 -0.1508288195
C  C549  1  0.68920000  0.32010000  0.20670000  1.0 -0.1000519275
C  C550  1  0.69739000  0.29199000  0.18347000  1.0 -0.0211368313
C  C551  1  0.75813000  0.30530000  0.17583000  1.0 -0.0867249479
C  C552  1  0.81069000  0.34670000  0.19142000  1.0 -0.1429160043
C  C553  1  0.75273000  0.40010000  0.36344000  1.0 -0.1429160043
C  C554  1  0.81620000  0.44630000  0.36754000  1.0 0.0812620243
C  C555  1  0.83344000  0.48590000  0.39024000  1.0 -0.1508288195
C  C556  1  0.78722000  0.47940000  0.40885000  1.0 -0.1000519275
C  C557  1  0.72376000  0.43330000  0.40476000  1.0 -0.026963569
C  C558  1  0.70651000  0.39363000  0.38205000  1.0 -0.1000519275
C  C559  1  0.01830000  0.56920000  0.21546000  1.0 -0.0489170871
C  C560  1  0.06570000  0.55980000  0.20421000  1.0 0.1492331379
C  C561  1  0.11690000  0.60950000  0.19068000  1.0 -0.248623268
C  C562  1  0.12070000  0.66850000  0.18841000  1.0 0.1801204516
C  C563  1  0.07340000  0.67790000  0.19966000  1.0 -0.2556981216
C  C564  1  0.02210000  0.62820000  0.21319000  1.0 0.1492331379
C  C565  1  0.67370000  0.42490000  0.42575000  1.0 0.5952743349
C  C566  1  0.81320000  0.46680000  0.30789000  1.0 -0.4438042273
C  C567  1  0.81300000  0.35450000  0.27361000  1.0 -0.4438042273
C  C568  1  0.92012000  0.45290000  0.36122000  1.0 -0.1758736761
C  C569  1  0.86818000  0.45260000  0.34895000  1.0 -0.0091170134
C  C570  1  0.86628000  0.45780000  0.32076000  1.0 0.1021625644
C  C571  1  0.91632000  0.46340000  0.30483000  1.0 -0.0670292307
C  C572  1  0.96826000  0.46370000  0.31709000  1.0 0.1894706639
C  C573  1  0.97016000  0.45850000  0.34528000  1.0 -0.0016888483
C  C574  1  0.06170000  0.49640000  0.20487000  1.0 -0.458874647
C  C575  1  0.26970000  0.43640000  0.27509000  1.0 0.6948560117
C  C576  1  0.06960000  0.57570000  0.37456000  1.0 -0.4512602281
C  C577  1  0.13140000  0.45960000  0.38375000  1.0 0.1801204516
C  C578  1  0.12607000  0.51420000  0.38469000  1.0 -0.2556981216
C  C579  1  0.07440000  0.51440000  0.37241000  1.0 0.1492331379
C  C580  1  0.02810000  0.46010000  0.35918000  1.0 -0.0489170871
C  C581  1  0.03340000  0.40560000  0.35824000  1.0 0.1396983067
C  C582  1  0.08500000  0.40530000  0.37053000  1.0 -0.248623268
C  C583  1  0.98300000  0.34440000  0.34470000  1.0 -0.406237928
C  C584  1  0.24720000  0.39350000  0.30027000  1.0 -0.5696769391
C  C585  1  0.96770000  0.63690000  0.22410000  1.0 -0.4167156435
C  C586  1  0.17580000  0.72240000  0.17310000  1.0 -0.4512602281
C  C587  1  0.18700000  0.45770000  0.39740000  1.0 -0.4512602281
C  C588  1  0.21980000  0.77950000  0.34170000  1.0 0.1288256436
O  O1  1  0.01638000  0.45868000  0.55956000  1.0 -0.4036351444
O  O2  1  0.64780000  0.42950000  0.68657000  1.0 -0.6699709834
O  O3  1  0.10400000  0.57580000  0.56566000  1.0 -0.8200716765
O  O4  1  0.58690000  0.34720000  0.65954000  1.0 -0.5553641857
O  O5  1  0.01826000  0.54646000  0.53194000  1.0 -0.4036351444
O  O6  1  0.09630000  0.50680000  0.52427000  1.0 -0.7720986845
O  O7  1  0.61890000  0.24100000  0.40978000  1.0 -0.617533375
O  O8  1  0.27340000  0.78320000  0.55688000  1.0 -0.7135390343
O  O9  1  0.16960000  0.44680000  0.50583000  1.0 -0.5756826668
O  O10  1  0.69440000  0.22810000  0.38857000  1.0 -0.5908874762
O  O11  1  0.28630000  0.86830000  0.57878000  1.0 -0.6062777084
O  O12  1  0.44230000  0.98362000  0.89290000  1.0 -0.4036351444
O  O13  1  0.78170000  0.35220000  0.01991000  1.0 -0.6699709834
O  O14  1  0.47180000  0.89600000  0.89900000  1.0 -0.8200716765
O  O15  1  0.76030000  0.41310000  0.99288000  1.0 -0.5553641857
O  O16  1  0.52820000  0.98174000  0.86528000  1.0 -0.406237928
O  O17  1  0.41050000  0.90370000  0.85761000  1.0 -0.7720986845
O  O18  1  0.62210000  0.38110000  0.74312000  1.0 -0.617533375
O  O19  1  0.50980000  0.72660000  0.89022000  1.0 -0.715021366
O  O20  1  0.27720000  0.83040000  0.83917000  1.0 -0.5696769391
O  O21  1  0.53370000  0.30560000  0.72191000  1.0 -0.5908874762
O  O22  1  0.58200000  0.71370000  0.91212000  1.0 -0.6062777084
O  O23  1  0.54132000  0.55770000  0.22623000  1.0 -0.4036351444
O  O24  1  0.57050000  0.21830000  0.35324000  1.0 -0.6699709834
O  O25  1  0.42420000  0.52820000  0.23233000  1.0 -0.8200716765
O  O26  1  0.65280000  0.23970000  0.32621000  1.0 -0.5553641857
O  O27  1  0.45354000  0.47180000  0.19861000  1.0 -0.406237928
O  O28  1  0.49320000  0.58950000  0.19094000  1.0 -0.7720986845
O  O29  1  0.75900000  0.37790000  0.07645000  1.0 -0.617533375
O  O30  1  0.21680000  0.49020000  0.22355000  1.0 -0.715021366
O  O31  1  0.55320000  0.72280000  0.17250000  1.0 -0.5756826668
O  O32  1  0.77190000  0.46630000  0.05524000  1.0 -0.5908874762
O  O33  1  0.13170000  0.41800000  0.24545000  1.0 -0.6062777084
O  O34  1  0.98362000  0.54132000  0.05956000  1.0 -0.4036351444
O  O35  1  0.35220000  0.57050000  0.18657000  1.0 -0.6699709834
O  O36  1  0.89600000  0.42420000  0.06566000  1.0 -0.8200716765
O  O37  1  0.41310000  0.65280000  0.15954000  1.0 -0.5553641857
O  O38  1  0.98174000  0.45354000  0.03194000  1.0 -0.4036351444
O  O39  1  0.90370000  0.49320000  0.02427000  1.0 -0.7720986845
O  O40  1  0.38110000  0.75900000  0.90978000  1.0 -0.617533375
O  O41  1  0.72660000  0.21680000  0.05688000  1.0 -0.7135390343
O  O42  1  0.83040000  0.55320000  0.00583000  1.0 -0.5756826668
O  O43  1  0.30560000  0.77190000  0.88857000  1.0 -0.5908874762
O  O44  1  0.71370000  0.13170000  0.07878000  1.0 -0.6062777084
O  O45  1  0.55770000  0.01638000  0.39290000  1.0 -0.4036351444
O  O46  1  0.21830000  0.64780000  0.51991000  1.0 -0.6699709834
O  O47  1  0.52820000  0.10400000  0.39900000  1.0 -0.8200716765
O  O48  1  0.23970000  0.58690000  0.49288000  1.0 -0.5553641857
O  O49  1  0.47180000  0.01826000  0.36528000  1.0 -0.4036351444
O  O50  1  0.58950000  0.09630000  0.35761000  1.0 -0.7720986845
O  O51  1  0.37790000  0.61890000  0.24312000  1.0 -0.617533375
O  O52  1  0.49020000  0.27340000  0.39022000  1.0 -0.715021366
O  O53  1  0.72280000  0.16960000  0.33917000  1.0 -0.5756826668
O  O54  1  0.46630000  0.69440000  0.22191000  1.0 -0.5908874762
O  O55  1  0.41800000  0.28630000  0.41212000  1.0 -0.6062777084
O  O56  1  0.45868000  0.44230000  0.72623000  1.0 -0.4036351444
O  O57  1  0.42950000  0.78170000  0.85324000  1.0 -0.6699709834
O  O58  1  0.57580000  0.47180000  0.73233000  1.0 -0.8200716765
O  O59  1  0.34720000  0.76030000  0.82621000  1.0 -0.5553641857
O  O60  1  0.54646000  0.52820000  0.69861000  1.0 -0.4036351444
O  O61  1  0.50680000  0.41050000  0.69094000  1.0 -0.7720986845
O  O62  1  0.24100000  0.62210000  0.57645000  1.0 -0.617533375
O  O63  1  0.78320000  0.50980000  0.72355000  1.0 -0.715021366
O  O64  1  0.44680000  0.27720000  0.67250000  1.0 -0.5756826668
O  O65  1  0.22810000  0.53370000  0.55524000  1.0 -0.5908874762
O  O66  1  0.86830000  0.58200000  0.74545000  1.0 -0.6062777084
O  O67  1  0.55770000  0.54132000  0.44044000  1.0 -0.4036351444
O  O68  1  0.21830000  0.57050000  0.31343000  1.0 -0.6699709834
O  O69  1  0.52820000  0.42420000  0.43434000  1.0 -0.8200716765
O  O70  1  0.23970000  0.65280000  0.34046000  1.0 -0.5553641857
O  O71  1  0.47180000  0.45354000  0.46806000  1.0 -0.4036351444
O  O72  1  0.58950000  0.49320000  0.47573000  1.0 -0.7720986845
O  O73  1  0.37790000  0.75900000  0.59022000  1.0 -0.617533375
O  O74  1  0.49020000  0.21680000  0.44312000  1.0 -0.7135390343
O  O75  1  0.72280000  0.55320000  0.49417000  1.0 -0.5756826668
O  O76  1  0.46630000  0.77190000  0.61143000  1.0 -0.5908874762
O  O77  1  0.41800000  0.13170000  0.42122000  1.0 -0.6062777084
O  O78  1  0.45868000  0.01638000  0.10710000  1.0 -0.4036351444
O  O79  1  0.42950000  0.64780000  0.98009000  1.0 -0.6699709834
O  O80  1  0.57580000  0.10400000  0.10100000  1.0 -0.8200716765
O  O81  1  0.34720000  0.58690000  0.00712000  1.0 -0.5553641857
O  O82  1  0.54646000  0.01826000  0.13472000  1.0 -0.4036351444
O  O83  1  0.50680000  0.09630000  0.14239000  1.0 -0.7720986845
O  O84  1  0.24100000  0.61890000  0.25688000  1.0 -0.617533375
O  O85  1  0.78320000  0.27340000  0.10978000  1.0 -0.7135390343
O  O86  1  0.44680000  0.16960000  0.16083000  1.0 -0.5756826668
O  O87  1  0.22810000  0.69440000  0.27809000  1.0 -0.5908874762
O  O88  1  0.86830000  0.28630000  0.08788000  1.0 -0.6062777084
O  O89  1  0.98362000  0.44230000  0.77377000  1.0 -0.4036351444
O  O90  1  0.35220000  0.78170000  0.64676000  1.0 -0.6699709834
O  O91  1  0.89600000  0.47180000  0.76767000  1.0 -0.8200716765
O  O92  1  0.41310000  0.76030000  0.67379000  1.0 -0.5553641857
O  O93  1  0.98174000  0.52820000  0.80139000  1.0 -0.4036351444
O  O94  1  0.90370000  0.41050000  0.80906000  1.0 -0.7720986845
O  O95  1  0.38110000  0.62210000  0.92355000  1.0 -0.617533375
O  O96  1  0.72660000  0.50980000  0.77645000  1.0 -0.715021366
O  O97  1  0.83040000  0.27720000  0.82750000  1.0 -0.5756826668
O  O98  1  0.30560000  0.53370000  0.94476000  1.0 -0.5908874762
O  O99  1  0.71370000  0.58200000  0.75455000  1.0 -0.6062777084
O  O100  1  0.44230000  0.45868000  0.94044000  1.0 -0.4036351444
O  O101  1  0.78170000  0.42950000  0.81343000  1.0 -0.6699709834
O  O102  1  0.47180000  0.57580000  0.93434000  1.0 -0.8200716765
O  O103  1  0.76030000  0.34720000  0.84046000  1.0 -0.5553641857
O  O104  1  0.52820000  0.54646000  0.96806000  1.0 -0.4036351444
O  O105  1  0.41050000  0.50680000  0.97573000  1.0 -0.7720986845
O  O106  1  0.62210000  0.24100000  0.09022000  1.0 -0.617533375
O  O107  1  0.50980000  0.78320000  0.94312000  1.0 -0.7135390343
O  O108  1  0.27720000  0.44680000  0.99417000  1.0 -0.5756826668
O  O109  1  0.53370000  0.22810000  0.11143000  1.0 -0.5908874762
O  O110  1  0.58200000  0.86830000  0.92122000  1.0 -0.6062777084
O  O111  1  0.54132000  0.98362000  0.60710000  1.0 -0.4036351444
O  O112  1  0.57050000  0.35220000  0.48009000  1.0 -0.6699709834
O  O113  1  0.42420000  0.89600000  0.60100000  1.0 -0.8200716765
O  O114  1  0.65280000  0.41310000  0.50712000  1.0 -0.5553641857
O  O115  1  0.45354000  0.98174000  0.63472000  1.0 -0.406237928
O  O116  1  0.49320000  0.90370000  0.64239000  1.0 -0.7720986845
O  O117  1  0.75900000  0.38110000  0.75688000  1.0 -0.617533375
O  O118  1  0.21680000  0.72660000  0.60978000  1.0 -0.715021366
O  O119  1  0.55320000  0.83040000  0.66083000  1.0 -0.5756826668
O  O120  1  0.77190000  0.30560000  0.77809000  1.0 -0.5908874762
O  O121  1  0.13170000  0.71370000  0.58788000  1.0 -0.6062777084
O  O122  1  0.01638000  0.55770000  0.27377000  1.0 -0.4036351444
O  O123  1  0.64780000  0.21830000  0.14676000  1.0 -0.6699709834
O  O124  1  0.10400000  0.52820000  0.26767000  1.0 -0.8200716765
O  O125  1  0.58690000  0.23970000  0.17379000  1.0 -0.5553641857
O  O126  1  0.01826000  0.47180000  0.30139000  1.0 -0.406237928
O  O127  1  0.09630000  0.58950000  0.30906000  1.0 -0.7720986845
O  O128  1  0.61890000  0.37790000  0.42355000  1.0 -0.617533375
O  O129  1  0.27340000  0.49020000  0.27645000  1.0 -0.715021366
O  O130  1  0.16960000  0.72280000  0.32750000  1.0 -0.5756826668
O  O131  1  0.69440000  0.46630000  0.44476000  1.0 -0.5908874762
O  O132  1  0.28630000  0.41800000  0.25455000  1.0 -0.6062777084
