# DDEC6 charges by PACMAN v1.1 (https://github.com/mtap-research/PACMAN-charge/)
data_TUXVOA_FSR_pacman
_symmetry_space_group_name_H-M   'P 1'
_cell_length_a   7.18690000
_cell_length_b   23.60570000
_cell_length_c   10.10200000
_cell_angle_alpha   90.00000000
_cell_angle_beta   133.72400000
_cell_angle_gamma   90.00000000
_symmetry_Int_Tables_number   1
_chemical_formula_structural   ZnH6C8N2O5
_chemical_formula_sum   'Zn4 H24 C32 N8 O20'
_cell_volume   1238.54130617
_cell_formula_units_Z   4
loop_
 _symmetry_equiv_pos_site_id
 _symmetry_equiv_pos_as_xyz
  1  'x, y, z'
loop_
 _atom_site_type_symbol
 _atom_site_label
 _atom_site_symmetry_multiplicity
 _atom_site_fract_x
 _atom_site_fract_y
 _atom_site_fract_z
 _atom_site_occupancy
 _atom_site_charge
Zn  Zn1  1  0.53104000  0.71587000  0.12570000  1.0 0.8927558439
Zn  Zn2  1  0.46896000  0.21587000  0.37430000  1.0 0.8927558439
Zn  Zn3  1  0.46896000  0.28413000  0.87430000  1.0 0.8927558439
Zn  Zn4  1  0.53104000  0.78413000  0.62570000  1.0 0.8927558439
H  H1  1  0.41760000  0.59290000  0.97520000  1.0 0.1114071237
H  H2  1  0.57940000  0.52310000  0.91680000  1.0 0.125280224
H  H3  1  0.19790000  0.61890000  0.16160000  1.0 0.1503866167
H  H4  1  0.01190000  0.68710000  0.20040000  1.0 0.115348572
H  H5  1  0.82910000  0.62790000  0.63490000  1.0 0.1503866167
H  H6  1  0.62340000  0.64880000  0.63640000  1.0 0.157047637
H  H7  1  0.58240000  0.09290000  0.52480000  1.0 0.1114071237
H  H8  1  0.42060000  0.02310000  0.58320000  1.0 0.125280224
H  H9  1  0.80210000  0.11890000  0.33840000  1.0 0.1503866167
H  H10  1  0.98810000  0.18710000  0.29960000  1.0 0.115348572
H  H11  1  0.17090000  0.12790000  0.86510000  1.0 0.1503866167
H  H12  1  0.37660000  0.14880000  0.86360000  1.0 0.157047637
H  H13  1  0.58240000  0.40710000  0.02480000  1.0 0.1114071237
H  H14  1  0.42060000  0.47690000  0.08320000  1.0 0.125280224
H  H15  1  0.80210000  0.38110000  0.83840000  1.0 0.1503866167
H  H16  1  0.98810000  0.31290000  0.79960000  1.0 0.115348572
H  H17  1  0.17090000  0.37210000  0.36510000  1.0 0.1503866167
H  H18  1  0.37660000  0.35120000  0.36360000  1.0 0.157047637
H  H19  1  0.41760000  0.90710000  0.47520000  1.0 0.1114071237
H  H20  1  0.57940000  0.97690000  0.41680000  1.0 0.125280224
H  H21  1  0.19790000  0.88110000  0.66160000  1.0 0.1503866167
H  H22  1  0.01190000  0.81290000  0.70040000  1.0 0.115348572
H  H23  1  0.82910000  0.87210000  0.13490000  1.0 0.1503866167
H  H24  1  0.62340000  0.85120000  0.13640000  1.0 0.157047637
C  C1  1  0.57560000  0.59870000  0.01170000  1.0 0.0966475384
C  C2  1  0.67300000  0.55600000  0.97790000  1.0 -0.2144241928
C  C3  1  0.91200000  0.56382000  0.03750000  1.0 0.157047637
C  C4  1  0.03740000  0.61254000  0.12070000  1.0 -0.1840973271
C  C5  1  0.92430000  0.65322000  0.14470000  1.0 0.0837703647
C  C6  1  0.95280000  0.69703000  0.80200000  1.0 0.652209826
C  C7  1  0.74870000  0.66133000  0.63310000  1.0 -0.5152148826
C  C8  1  0.61120000  0.69403000  0.45640000  1.0 0.652209826
C  C9  1  0.42440000  0.09870000  0.48830000  1.0 0.0966475384
C  C10  1  0.32700000  0.05600000  0.52210000  1.0 -0.2144241928
C  C11  1  0.08800000  0.06382000  0.46250000  1.0 0.157047637
C  C12  1  0.96260000  0.11254000  0.37930000  1.0 -0.1840973271
C  C13  1  0.07570000  0.15322000  0.35530000  1.0 0.0837703647
C  C14  1  0.04720000  0.19703000  0.69800000  1.0 0.652209826
C  C15  1  0.25130000  0.16133000  0.86690000  1.0 -0.5152148826
C  C16  1  0.38880000  0.19403000  0.04360000  1.0 0.652209826
C  C17  1  0.42440000  0.40130000  0.98830000  1.0 0.0966475384
C  C18  1  0.32700000  0.44400000  0.02210000  1.0 -0.2144241928
C  C19  1  0.08800000  0.43618000  0.96250000  1.0 0.157047637
C  C20  1  0.96260000  0.38746000  0.87930000  1.0 -0.1840973271
C  C21  1  0.07570000  0.34678000  0.85530000  1.0 0.0837703647
C  C22  1  0.04720000  0.30297000  0.19800000  1.0 0.652209826
C  C23  1  0.25130000  0.33867000  0.36690000  1.0 -0.5152148826
C  C24  1  0.38880000  0.30597000  0.54360000  1.0 0.652209826
C  C25  1  0.57560000  0.90130000  0.51170000  1.0 0.0966475384
C  C26  1  0.67300000  0.94400000  0.47790000  1.0 -0.2144241928
C  C27  1  0.91200000  0.93618000  0.53750000  1.0 0.157047637
C  C28  1  0.03740000  0.88746000  0.62070000  1.0 -0.1840973271
C  C29  1  0.92430000  0.84678000  0.64470000  1.0 0.0837703647
C  C30  1  0.95280000  0.80297000  0.30200000  1.0 0.652209826
C  C31  1  0.74870000  0.83867000  0.13310000  1.0 -0.5152148826
C  C32  1  0.61120000  0.80597000  0.95640000  1.0 0.652209826
N  N1  1  0.69720000  0.64677000  0.09280000  1.0 -0.2325848563
N  N2  1  0.04450000  0.52335000  0.01420000  1.0 -0.0973894967
N  N3  1  0.30280000  0.14677000  0.40720000  1.0 -0.2325848563
N  N4  1  0.95550000  0.02335000  0.48580000  1.0 -0.0973894967
N  N5  1  0.30280000  0.35323000  0.90720000  1.0 -0.2325848563
N  N6  1  0.95550000  0.47665000  0.98580000  1.0 -0.0973894967
N  N7  1  0.69720000  0.85323000  0.59280000  1.0 -0.2325848563
N  N8  1  0.04450000  0.97665000  0.51420000  1.0 -0.0973894967
O  O1  1  0.61550000  0.67363000  0.34380000  1.0 -0.5563529654
O  O2  1  0.34080000  0.78560000  0.12870000  1.0 0.0706611296
O  O3  1  0.49710000  0.73936000  0.43120000  1.0 -0.5293711348
O  O4  1  0.88840000  0.74390000  0.82100000  1.0 -0.5293711348
O  O5  1  0.17700000  0.67748000  0.91480000  1.0 -0.5563529654
O  O6  1  0.38450000  0.17363000  0.15620000  1.0 -0.5563529654
O  O7  1  0.65920000  0.28560000  0.37130000  1.0 0.0706611296
O  O8  1  0.50290000  0.23936000  0.06880000  1.0 -0.5293711348
O  O9  1  0.11160000  0.24390000  0.67900000  1.0 -0.5293711348
O  O10  1  0.82300000  0.17748000  0.58520000  1.0 -0.5563529654
O  O11  1  0.38450000  0.32637000  0.65620000  1.0 -0.5563529654
O  O12  1  0.65920000  0.21440000  0.87130000  1.0 0.0706611296
O  O13  1  0.50290000  0.26064000  0.56880000  1.0 -0.5293711348
O  O14  1  0.11160000  0.25610000  0.17900000  1.0 -0.5293711348
O  O15  1  0.82300000  0.32252000  0.08520000  1.0 -0.5563529654
O  O16  1  0.61550000  0.82637000  0.84380000  1.0 -0.5563529654
O  O17  1  0.34080000  0.71440000  0.62870000  1.0 0.0706611296
O  O18  1  0.49710000  0.76064000  0.93120000  1.0 -0.5293711348
O  O19  1  0.88840000  0.75610000  0.32100000  1.0 -0.5293711348
O  O20  1  0.17700000  0.82252000  0.41480000  1.0 -0.5563529654
