# DDEC6 charges by PACMAN v1.1 (https://github.com/mtap-research/PACMAN-charge/)
data_TUYHOL_ASR_pacman
_symmetry_space_group_name_H-M   'P 1'
_cell_length_a   11.75540000
_cell_length_b   14.43590000
_cell_length_c   14.69330000
_cell_angle_alpha   111.14600000
_cell_angle_beta   112.69800000
_cell_angle_gamma   93.21500000
_symmetry_Int_Tables_number   1
_chemical_formula_structural   Ce4SiH12W12C28(NO13)4
_chemical_formula_sum   'Ce4 Si1 H12 W12 C28 N4 O52'
_cell_volume   2089.45269605
_cell_formula_units_Z   1
loop_
 _symmetry_equiv_pos_site_id
 _symmetry_equiv_pos_as_xyz
  1  'x, y, z'
loop_
 _atom_site_type_symbol
 _atom_site_label
 _atom_site_symmetry_multiplicity
 _atom_site_fract_x
 _atom_site_fract_y
 _atom_site_fract_z
 _atom_site_occupancy
 _atom_site_charge
Ce  Ce1  1  0.08560000  0.47283000  0.65190000  1.0 1.7712627312
Ce  Ce2  1  0.91440000  0.52717000  0.34810000  1.0 1.7712627312
Ce  Ce3  1  0.28600000  0.52395000  0.06460000  1.0 1.7199483177
Ce  Ce4  1  0.71400000  0.47605000  0.93540000  1.0 1.7199483177
Si  Si1  1  0.00000000  0.00000000  0.00000000  1.0 1.3476919791
H  H1  1  0.38550000  0.82070000  0.69610000  1.0 0.1182956607
H  H2  1  0.61450000  0.17930000  0.30390000  1.0 0.1182956607
H  H3  1  0.52840000  0.86140000  0.87310000  1.0 0.0803730238
H  H4  1  0.47160000  0.13860000  0.12690000  1.0 0.0803730238
H  H5  1  0.50420000  0.78130000  0.97730000  1.0 0.1182956607
H  H6  1  0.49580000  0.21870000  0.02270000  1.0 0.1143054029
H  H7  1  0.35540000  0.38690000  0.51620000  1.0 0.1044907456
H  H8  1  0.64460000  0.61310000  0.48380000  1.0 0.1044907456
H  H9  1  0.49520000  0.36930000  0.43540000  1.0 0.0803730238
H  H10  1  0.50480000  0.63070000  0.56460000  1.0 0.0803730238
H  H11  1  0.70960000  0.44020000  0.54820000  1.0 0.1044907456
H  H12  1  0.29040000  0.55980000  0.45180000  1.0 0.1044907456
W  W1  1  0.07366000  0.90259000  0.19997000  1.0 2.3977114817
W  W2  1  0.92634000  0.09741000  0.80003000  1.0 2.3977114817
W  W3  1  0.27859000  0.90823000  0.07574000  1.0 2.360731717
W  W4  1  0.72141000  0.09177000  0.92426000  1.0 2.360731717
W  W5  1  0.25847000  0.13707000  0.25979000  1.0 2.360731717
W  W6  1  0.74153000  0.86293000  0.74021000  1.0 2.360731717
W  W7  1  0.01890000  0.76809000  0.81706000  1.0 2.360731717
W  W8  1  0.98110000  0.23191000  0.18294000  1.0 2.360731717
W  W9  1  0.20309000  0.00088000  0.87264000  1.0 2.360731717
W  W10  1  0.79691000  0.99912000  0.12736000  1.0 2.360731717
W  W11  1  0.18801000  0.23282000  0.05962000  1.0 2.3845864197
W  W12  1  0.81199000  0.76718000  0.94038000  1.0 2.3845864197
C  C1  1  0.17800000  0.64700000  0.57200000  1.0 0.5088795086
C  C2  1  0.82200000  0.35300000  0.42800000  1.0 0.5088795086
C  C3  1  0.28200000  0.69500000  0.68500000  1.0 0.0658498529
C  C4  1  0.71800000  0.30500000  0.31500000  1.0 0.0658498529
C  C5  1  0.37700000  0.78200000  0.73300000  1.0 -0.19278593
C  C6  1  0.62300000  0.21800000  0.26700000  1.0 -0.19278593
C  C7  1  0.46000000  0.80700000  0.84000000  1.0 -0.0244264027
C  C8  1  0.54000000  0.19300000  0.16000000  1.0 -0.0244264027
C  C9  1  0.45000000  0.75800000  0.90400000  1.0 -0.1736438314
C  C10  1  0.55000000  0.24200000  0.09600000  1.0 -0.1736438314
C  C11  1  0.35200000  0.67100000  0.84900000  1.0 0.0803730238
C  C12  1  0.64800000  0.32900000  0.15100000  1.0 0.0803730238
C  C13  1  0.31600000  0.61300000  0.90400000  1.0 0.5513642689
C  C14  1  0.68400000  0.38700000  0.09600000  1.0 0.5513642689
C  C15  1  0.42000000  0.44100000  0.73300000  1.0 0.5689372679
C  C16  1  0.58000000  0.55900000  0.26700000  1.0 0.5689372679
C  C17  1  0.49500000  0.44000000  0.67000000  1.0 0.0658498529
C  C18  1  0.50500000  0.56000000  0.33000000  1.0 0.0658498529
C  C19  1  0.44300000  0.40500000  0.55800000  1.0 -0.19278593
C  C20  1  0.55700000  0.59500000  0.44200000  1.0 -0.19278593
C  C21  1  0.52500000  0.39700000  0.51000000  1.0 -0.0958391132
C  C22  1  0.47500000  0.60300000  0.49000000  1.0 -0.0958391132
C  C23  1  0.65400000  0.43200000  0.57800000  1.0 -0.1516909937
C  C24  1  0.34600000  0.56800000  0.42200000  1.0 -0.1516909937
C  C25  1  0.70300000  0.45600000  0.68800000  1.0 0.0658498529
C  C26  1  0.29700000  0.54400000  0.31200000  1.0 0.0658498529
C  C27  1  0.84200000  0.47300000  0.75500000  1.0 0.5597164294
C  C28  1  0.15800000  0.52700000  0.24500000  1.0 0.5597164294
N  N1  1  0.26800000  0.63800000  0.74000000  1.0 -0.4154947886
N  N2  1  0.73200000  0.36200000  0.26000000  1.0 -0.4154947886
N  N3  1  0.62300000  0.45900000  0.73800000  1.0 -0.4496173451
N  N4  1  0.37700000  0.54100000  0.26200000  1.0 -0.4496173451
O  O1  1  0.10900000  0.99100000  0.09700000  1.0 -0.4662758747
O  O2  1  0.89100000  0.00900000  0.90300000  1.0 -0.4662758747
O  O3  1  0.10400000  0.93900000  0.96600000  1.0 -0.6000274459
O  O4  1  0.89600000  0.06100000  0.03400000  1.0 -0.6000274459
O  O5  1  0.08700000  0.12100000  0.10100000  1.0 -0.7118769029
O  O6  1  0.91300000  0.87900000  0.89900000  1.0 -0.7118769029
O  O7  1  0.95600000  0.94800000  0.05700000  1.0 -0.5664707163
O  O8  1  0.04400000  0.05200000  0.94300000  1.0 -0.5664707163
O  O9  1  0.19400000  0.86100000  0.14500000  1.0 -0.988238428
O  O10  1  0.80600000  0.13900000  0.85500000  1.0 -0.984250162
O  O11  1  0.18100000  0.03800000  0.28600000  1.0 -1.0149855951
O  O12  1  0.81900000  0.96200000  0.71400000  1.0 -1.0149855951
O  O13  1  0.94500000  0.96800000  0.20800000  1.0 -0.9290924856
O  O14  1  0.05500000  0.03200000  0.79200000  1.0 -0.9290924856
O  O15  1  0.95400000  0.78600000  0.08200000  1.0 -0.9594243804
O  O16  1  0.04600000  0.21400000  0.91800000  1.0 -0.9594243804
O  O17  1  0.33400000  0.03700000  0.18700000  1.0 -0.9495354036
O  O18  1  0.66600000  0.96300000  0.81300000  1.0 -0.9495354036
O  O19  1  0.30000000  0.96600000  0.99200000  1.0 -0.8662076036
O  O20  1  0.70000000  0.03400000  0.00800000  1.0 -0.8662076036
O  O21  1  0.17600000  0.78600000  0.94600000  1.0 -0.9389144817
O  O22  1  0.82400000  0.21400000  0.05400000  1.0 -0.9389144817
O  O23  1  0.12300000  0.19800000  0.26700000  1.0 -0.8077213207
O  O24  1  0.87700000  0.80200000  0.73300000  1.0 -0.8077213207
O  O25  1  0.10900000  0.86700000  0.79200000  1.0 -0.9290924856
O  O26  1  0.89100000  0.13300000  0.20800000  1.0 -0.9290924856
O  O27  1  0.91700000  0.71100000  0.86700000  1.0 -0.8899277637
O  O28  1  0.08300000  0.28900000  0.13300000  1.0 -0.8899277637
O  O29  1  0.02300000  0.66200000  0.72500000  1.0 -0.7291370968
O  O30  1  0.97700000  0.33800000  0.27500000  1.0 -0.7291370968
O  O31  1  0.25200000  0.14000000  0.97500000  1.0 -0.9495354036
O  O32  1  0.74800000  0.86000000  0.02500000  1.0 -0.9495354036
O  O33  1  0.28800000  0.21900000  0.18800000  1.0 -0.8899277637
O  O34  1  0.71200000  0.78100000  0.81200000  1.0 -0.8899277637
O  O35  1  0.26900000  0.34600000  0.07900000  1.0 -0.7964841166
O  O36  1  0.73100000  0.65400000  0.92100000  1.0 -0.7964841166
O  O37  1  0.11500000  0.56000000  0.53100000  1.0 -0.6190426885
O  O38  1  0.88500000  0.44000000  0.46900000  1.0 -0.6190426885
O  O39  1  0.16600000  0.69800000  0.52000000  1.0 -0.5150021652
O  O40  1  0.83400000  0.30200000  0.48000000  1.0 -0.5150021652
O  O41  1  0.22500000  0.53900000  0.85400000  1.0 -0.6344220975
O  O42  1  0.77500000  0.46100000  0.14600000  1.0 -0.6344220975
O  O43  1  0.39200000  0.63600000  0.00300000  1.0 -0.6190426885
O  O44  1  0.60800000  0.36400000  0.99700000  1.0 -0.6190426885
O  O45  1  0.30100000  0.42700000  0.68200000  1.0 -0.6344220975
O  O46  1  0.69900000  0.57300000  0.31800000  1.0 -0.6344220975
O  O47  1  0.47700000  0.45700000  0.83300000  1.0 -0.6190426885
O  O48  1  0.52300000  0.54300000  0.16700000  1.0 -0.6190426885
O  O49  1  0.87000000  0.48100000  0.84900000  1.0 -0.6000274459
O  O50  1  0.13000000  0.51900000  0.15100000  1.0 -0.6000274459
O  O51  1  0.91400000  0.47000000  0.71600000  1.0 -0.5432582537
O  O52  1  0.08600000  0.53000000  0.28400000  1.0 -0.5432582537
