# DDEC6 charges by PACMAN v1.1 (https://github.com/mtap-research/PACMAN-charge/)
data_TUYJII_FSR_pacman
_symmetry_space_group_name_H-M   'P 1'
_cell_length_a   10.44300000
_cell_length_b   11.54200000
_cell_length_c   13.19700000
_cell_angle_alpha   87.51000000
_cell_angle_beta   70.64800000
_cell_angle_gamma   85.71100000
_symmetry_Int_Tables_number   1
_chemical_formula_structural   CdH32C28(NO)4
_chemical_formula_sum   'Cd2 H64 C56 N8 O8'
_cell_volume   1496.30575109
_cell_formula_units_Z   2
loop_
 _symmetry_equiv_pos_site_id
 _symmetry_equiv_pos_as_xyz
  1  'x, y, z'
loop_
 _atom_site_type_symbol
 _atom_site_label
 _atom_site_symmetry_multiplicity
 _atom_site_fract_x
 _atom_site_fract_y
 _atom_site_fract_z
 _atom_site_occupancy
 _atom_site_charge
Cd  Cd1  1  0.61267000  0.88678000  0.04891000  1.0 0.8516999674
Cd  Cd2  1  0.38733000  0.11322000  0.95109000  1.0 0.8516999674
H  H1  1  0.18450000  0.63610000  0.16200000  1.0 0.1286155922
H  H2  1  0.81550000  0.36390000  0.83800000  1.0 0.1286155922
H  H3  1  0.79830000  0.10130000  0.04790000  1.0 0.1007224065
H  H4  1  0.20170000  0.89870000  0.95210000  1.0 0.1007224065
H  H5  1  0.99000000  0.18990000  0.94460000  1.0 0.1286155922
H  H6  1  0.01000000  0.81010000  0.05540000  1.0 0.1286155922
H  H7  1  0.12090000  0.11160000  0.78200000  1.0 0.1405188335
H  H8  1  0.87910000  0.88840000  0.21800000  1.0 0.1405188335
H  H9  1  0.85430000  0.86720000  0.83210000  1.0 0.1116015271
H  H10  1  0.14570000  0.13280000  0.16790000  1.0 0.1116015271
H  H11  1  0.17320000  0.92720000  0.66820000  1.0 0.1204319817
H  H12  1  0.82680000  0.07280000  0.33180000  1.0 0.1204319817
H  H13  1  0.05210000  0.84870000  0.68130000  1.0 0.1116015271
H  H14  1  0.94790000  0.15130000  0.31870000  1.0 0.1116015271
H  H15  1  0.84630000  0.03160000  0.66960000  1.0 0.1007224065
H  H16  1  0.15370000  0.96840000  0.33040000  1.0 0.1007224065
H  H17  1  0.87460000  0.91510000  0.60640000  1.0 0.1007224065
H  H18  1  0.12540000  0.08490000  0.39360000  1.0 0.1007224065
H  H19  1  0.10550000  0.86110000  0.49080000  1.0 0.0906760015
H  H20  1  0.89450000  0.13890000  0.50920000  1.0 0.0906760015
H  H21  1  0.22210000  0.94310000  0.48210000  1.0 0.1116015271
H  H22  1  0.77790000  0.05690000  0.51790000  1.0 0.1116015271
H  H23  1  0.34750000  0.74970000  0.05280000  1.0 0.1007224065
H  H24  1  0.65250000  0.25030000  0.94720000  1.0 0.1116015271
H  H25  1  0.17700000  0.59900000  0.33920000  1.0 0.1204319817
H  H26  1  0.82300000  0.40100000  0.66080000  1.0 0.1204319817
H  H27  1  0.48790000  0.80120000  0.28500000  1.0 0.1116015271
H  H28  1  0.51210000  0.19880000  0.71500000  1.0 0.1116015271
H  H29  1  0.36170000  0.74860000  0.46850000  1.0 0.1116015271
H  H30  1  0.63830000  0.25140000  0.53150000  1.0 0.1116015271
H  H31  1  0.24120000  0.66700000  0.49330000  1.0 0.1116015271
H  H32  1  0.75880000  0.33300000  0.50670000  1.0 0.1116015271
H  H33  1  0.59560000  0.62670000  0.41020000  1.0 0.0906760015
H  H34  1  0.40440000  0.37330000  0.58980000  1.0 0.0906760015
H  H35  1  0.55070000  0.56410000  0.32590000  1.0 0.1007224065
H  H36  1  0.44930000  0.43590000  0.67410000  1.0 0.1007224065
H  H37  1  0.40490000  0.61240000  0.61400000  1.0 0.081008066
H  H38  1  0.59510000  0.38760000  0.38600000  1.0 0.081008066
H  H39  1  0.28520000  0.54310000  0.60590000  1.0 0.0687324335
H  H40  1  0.71480000  0.45690000  0.39410000  1.0 0.0687324335
H  H41  1  0.89430000  0.55820000  0.07640000  1.0 0.1405188335
H  H42  1  0.10570000  0.44180000  0.92360000  1.0 0.1405188335
H  H43  1  0.87440000  0.53410000  0.96680000  1.0 0.1405188335
H  H44  1  0.12560000  0.46590000  0.03320000  1.0 0.1405188335
H  H45  1  0.56180000  0.53980000  0.06670000  1.0 0.1204319817
H  H46  1  0.43820000  0.46020000  0.93330000  1.0 0.1204319817
H  H47  1  0.85780000  0.35980000  0.14520000  1.0 0.1204319817
H  H48  1  0.14220000  0.64020000  0.85480000  1.0 0.1204319817
H  H49  1  0.41650000  0.39710000  0.14310000  1.0 0.1204319817
H  H50  1  0.58350000  0.60290000  0.85690000  1.0 0.1204319817
H  H51  1  0.71310000  0.21850000  0.22270000  1.0 0.1116015271
H  H52  1  0.28690000  0.78150000  0.77730000  1.0 0.1116015271
H  H53  1  0.44840000  0.17920000  0.31190000  1.0 0.147338484
H  H54  1  0.55160000  0.82080000  0.68810000  1.0 0.147338484
H  H55  1  0.36450000  0.21690000  0.23530000  1.0 0.1551645589
H  H56  1  0.63550000  0.78310000  0.76470000  1.0 0.1551645589
H  H57  1  0.42860000  0.48370000  0.35430000  1.0 0.1007224065
H  H58  1  0.57140000  0.51630000  0.64570000  1.0 0.1007224065
H  H59  1  0.34070000  0.44740000  0.47070000  1.0 0.0906760015
H  H60  1  0.65930000  0.55260000  0.52930000  1.0 0.0906760015
H  H61  1  0.47790000  0.68190000  0.56180000  1.0 0.0687324335
H  H62  1  0.52210000  0.31810000  0.43820000  1.0 0.0687324335
H  H63  1  0.37490000  0.59020000  0.62400000  1.0 0.081008066
H  H64  1  0.62510000  0.40980000  0.37600000  1.0 0.081008066
C  C1  1  0.24590000  0.66810000  0.18850000  1.0 -0.1387133705
C  C2  1  0.75410000  0.33190000  0.81150000  1.0 -0.1387133705
C  C3  1  0.84890000  0.07070000  0.98150000  1.0 0.0442524445
C  C4  1  0.15110000  0.92930000  0.01850000  1.0 0.0442524445
C  C5  1  0.96460000  0.12370000  0.92030000  1.0 -0.1317343484
C  C6  1  0.03540000  0.87630000  0.07970000  1.0 -0.1317343484
C  C7  1  0.04160000  0.07790000  0.82330000  1.0 -0.0928488797
C  C8  1  0.95840000  0.92210000  0.17670000  1.0 -0.0928488797
C  C9  1  0.00040000  0.98120000  0.78740000  1.0 0.0467219656
C  C10  1  0.99960000  0.01880000  0.21260000  1.0 0.0467219656
C  C11  1  0.88200000  0.93330000  0.85470000  1.0 0.0080741034
C  C12  1  0.11800000  0.06670000  0.14530000  1.0 0.0080741034
C  C13  1  0.07620000  0.92830000  0.68060000  1.0 -0.1952749002
C  C14  1  0.92380000  0.07170000  0.31940000  1.0 -0.1952749002
C  C15  1  0.90070000  0.99440000  0.60320000  1.0 -0.1317343484
C  C16  1  0.09930000  0.00560000  0.39680000  1.0 -0.1317343484
C  C17  1  0.12650000  0.94160000  0.49040000  1.0 -0.1496966886
C  C18  1  0.87350000  0.05840000  0.50960000  1.0 -0.1496966886
C  C19  1  0.34300000  0.73720000  0.12400000  1.0 0.0687324335
C  C20  1  0.65700000  0.26280000  0.87600000  1.0 0.0687324335
C  C21  1  0.24100000  0.64670000  0.29440000  1.0 -0.1387133705
C  C22  1  0.75900000  0.35330000  0.70560000  1.0 -0.1387133705
C  C23  1  0.33170000  0.69680000  0.33220000  1.0 0.0080741034
C  C24  1  0.66830000  0.30320000  0.66780000  1.0 0.0080741034
C  C25  1  0.42600000  0.76710000  0.26060000  1.0 -0.0373605671
C  C26  1  0.57400000  0.23290000  0.73940000  1.0 -0.0373605671
C  C27  1  0.33290000  0.67890000  0.44620000  1.0 -0.2860265183
C  C28  1  0.66710000  0.32110000  0.55380000  1.0 -0.2860265183
C  C29  1  0.54570000  0.56270000  0.40070000  1.0 -0.0780458893
C  C30  1  0.45430000  0.43730000  0.59930000  1.0 -0.0780458893
C  C31  1  0.38280000  0.54990000  0.57710000  1.0 -0.1116314637
C  C32  1  0.61720000  0.45010000  0.42290000  1.0 -0.1116314637
C  C33  1  0.75960000  0.67700000  0.04070000  1.0 0.6077923966
C  C34  1  0.24040000  0.32300000  0.95930000  1.0 0.6077923966
C  C35  1  0.82710000  0.55660000  0.04050000  1.0 -0.4018175858
C  C36  1  0.17290000  0.44340000  0.95950000  1.0 -0.4018175858
C  C37  1  0.72710000  0.46570000  0.09570000  1.0 0.1286155922
C  C38  1  0.27290000  0.53430000  0.90430000  1.0 0.1286155922
C  C39  1  0.59320000  0.47450000  0.09740000  1.0 -0.1819106671
C  C40  1  0.40680000  0.52550000  0.90260000  1.0 -0.1819106671
C  C41  1  0.76890000  0.36780000  0.14410000  1.0 -0.2072260785
C  C42  1  0.23110000  0.63220000  0.85590000  1.0 -0.2072260785
C  C43  1  0.50560000  0.38900000  0.14340000  1.0 -0.1862656581
C  C44  1  0.49440000  0.61100000  0.85660000  1.0 -0.1862656581
C  C45  1  0.68230000  0.28290000  0.19040000  1.0 -0.2309487122
C  C46  1  0.31770000  0.71710000  0.80960000  1.0 -0.2309487122
C  C47  1  0.54960000  0.29100000  0.19010000  1.0 0.1116015271
C  C48  1  0.45040000  0.70900000  0.80990000  1.0 0.1116015271
C  C49  1  0.45480000  0.19400000  0.23750000  1.0 -0.4250549781
C  C50  1  0.54520000  0.80600000  0.76250000  1.0 -0.4235608387
C  C51  1  0.50960000  0.08480000  0.17330000  1.0 0.6257925225
C  C52  1  0.49040000  0.91520000  0.82670000  1.0 0.6257925225
C  C53  1  0.42510000  0.48070000  0.42870000  1.0 -0.0677642818
C  C54  1  0.57490000  0.51930000  0.57130000  1.0 -0.0677642818
C  C55  1  0.45490000  0.60200000  0.56200000  1.0 -0.1173143643
C  C56  1  0.54510000  0.39800000  0.43800000  1.0 -0.1173143643
N  N1  1  0.80700000  0.97650000  0.94860000  1.0 -0.2309487122
N  N2  1  0.19300000  0.02350000  0.05140000  1.0 -0.2309487122
N  N3  1  0.04470000  0.99380000  0.59250000  1.0 -0.0928488797
N  N4  1  0.95530000  0.00620000  0.40750000  1.0 -0.0928488797
N  N5  1  0.43150000  0.78770000  0.15880000  1.0 -0.2394287842
N  N6  1  0.56850000  0.21230000  0.84120000  1.0 -0.2394287842
N  N7  1  0.42220000  0.58060000  0.45810000  1.0 0.1116015271
N  N8  1  0.57780000  0.41940000  0.54190000  1.0 0.1116015271
O  O1  1  0.48850000  0.07520000  0.08500000  1.0 -0.5734188366
O  O2  1  0.51150000  0.92480000  0.91500000  1.0 -0.5734188366
O  O3  1  0.57950000  0.00920000  0.20480000  1.0 -0.562380861
O  O4  1  0.42050000  0.99080000  0.79520000  1.0 -0.562380861
O  O5  1  0.72050000  0.71000000  0.96410000  1.0 -0.562380861
O  O6  1  0.27950000  0.29000000  0.03590000  1.0 -0.562380861
O  O7  1  0.74260000  0.73980000  0.12110000  1.0 -0.5881603765
O  O8  1  0.25740000  0.26020000  0.87890000  1.0 -0.5881603765
