# DDEC6 charges by PACMAN v1.1 (https://github.com/mtap-research/PACMAN-charge/)
data_UBABIK_ASR_pacman
_symmetry_space_group_name_H-M   'P 1'
_cell_length_a   14.19720000
_cell_length_b   14.19720000
_cell_length_c   22.79200000
_cell_angle_alpha   69.01110000
_cell_angle_beta   110.98900000
_cell_angle_gamma   99.63390000
_symmetry_Int_Tables_number   1
_chemical_formula_structural   Co3H50C80(N6O13)2
_chemical_formula_sum   'Co6 H100 C160 N24 O52'
_cell_volume   4000.54635056
_cell_formula_units_Z   2
loop_
 _symmetry_equiv_pos_site_id
 _symmetry_equiv_pos_as_xyz
  1  'x, y, z'
loop_
 _atom_site_type_symbol
 _atom_site_label
 _atom_site_symmetry_multiplicity
 _atom_site_fract_x
 _atom_site_fract_y
 _atom_site_fract_z
 _atom_site_occupancy
 _atom_site_charge
Co  Co1  1  0.90701000  0.11807000  0.93403000  1.0 0.7913920528
Co  Co2  1  0.11807000  0.90701000  0.56597000  1.0 0.7913920528
Co  Co3  1  0.09299000  0.88193000  0.06597000  1.0 0.7913920528
Co  Co4  1  0.88193000  0.09299000  0.43403000  1.0 0.7913920528
Co  Co5  1  0.00000000  0.50000000  0.00000000  1.0 0.7059793121
Co  Co6  1  0.50000000  0.00000000  0.50000000  1.0 0.7059793121
H  H1  1  0.70810000  0.94450000  0.89710000  1.0 0.1350736565
H  H2  1  0.94450000  0.70810000  0.60290000  1.0 0.1350736565
H  H3  1  0.29190000  0.05550000  0.10290000  1.0 0.1350736565
H  H4  1  0.05550000  0.29190000  0.39710000  1.0 0.1350736565
H  H5  1  0.63280000  0.64900000  0.04550000  1.0 0.1294450856
H  H6  1  0.64900000  0.63280000  0.45450000  1.0 0.1294450856
H  H7  1  0.36720000  0.35100000  0.95450000  1.0 0.1294450856
H  H8  1  0.35100000  0.36720000  0.54550000  1.0 0.1294450856
H  H9  1  0.79640000  0.71300000  0.06460000  1.0 0.1294450856
H  H10  1  0.71300000  0.79640000  0.43540000  1.0 0.1294450856
H  H11  1  0.20360000  0.28700000  0.93540000  1.0 0.1294450856
H  H12  1  0.28700000  0.20360000  0.56460000  1.0 0.1294450856
H  H13  1  0.42770000  0.77990000  0.00130000  1.0 0.1294450856
H  H14  1  0.77990000  0.42770000  0.49870000  1.0 0.1294450856
H  H15  1  0.57230000  0.22010000  0.99870000  1.0 0.1294450856
H  H16  1  0.22010000  0.57230000  0.50130000  1.0 0.1294450856
H  H17  1  0.27240000  0.69980000  0.99870000  1.0 0.1294450856
H  H18  1  0.69980000  0.27240000  0.50130000  1.0 0.1294450856
H  H19  1  0.72760000  0.30020000  0.00130000  1.0 0.1294450856
H  H20  1  0.30020000  0.72760000  0.49870000  1.0 0.1294450856
H  H21  1  0.31290000  0.53750000  0.89860000  1.0 0.1294450856
H  H22  1  0.53750000  0.31290000  0.60140000  1.0 0.1294450856
H  H23  1  0.68710000  0.46250000  0.10140000  1.0 0.1294450856
H  H24  1  0.46250000  0.68710000  0.39860000  1.0 0.1294450856
H  H25  1  0.58370000  0.21710000  0.79100000  1.0 0.1350736565
H  H26  1  0.21710000  0.58370000  0.70900000  1.0 0.1350736565
H  H27  1  0.41630000  0.78290000  0.20900000  1.0 0.1350736565
H  H28  1  0.78290000  0.41630000  0.29100000  1.0 0.1350736565
H  H29  1  0.61090000  0.52650000  0.81930000  1.0 0.1196028668
H  H30  1  0.52650000  0.61090000  0.68070000  1.0 0.1196028668
H  H31  1  0.38910000  0.47350000  0.18070000  1.0 0.1196028668
H  H32  1  0.47350000  0.38910000  0.31930000  1.0 0.1196028668
H  H33  1  0.74440000  0.42180000  0.87430000  1.0 0.1294450856
H  H34  1  0.42180000  0.74440000  0.62570000  1.0 0.1294450856
H  H35  1  0.25560000  0.57820000  0.12570000  1.0 0.1294450856
H  H36  1  0.57820000  0.25560000  0.37430000  1.0 0.1294450856
H  H37  1  0.79070000  0.99910000  0.54550000  1.0 0.1079442906
H  H38  1  0.99910000  0.79070000  0.95450000  1.0 0.1079442906
H  H39  1  0.20930000  0.00090000  0.45450000  1.0 0.1079442906
H  H40  1  0.00090000  0.20930000  0.04550000  1.0 0.1079442906
H  H41  1  0.79430000  0.00890000  0.64380000  1.0 0.1196028668
H  H42  1  0.00890000  0.79430000  0.85620000  1.0 0.1196028668
H  H43  1  0.20570000  0.99110000  0.35620000  1.0 0.1196028668
H  H44  1  0.99110000  0.20570000  0.14380000  1.0 0.1196028668
H  H45  1  0.99890000  0.23590000  0.62620000  1.0 0.1294450856
H  H46  1  0.23590000  0.99890000  0.87380000  1.0 0.1294450856
H  H47  1  0.00110000  0.76410000  0.37380000  1.0 0.1294450856
H  H48  1  0.76410000  0.00110000  0.12620000  1.0 0.1294450856
H  H49  1  0.99320000  0.21880000  0.52940000  1.0 0.1079442906
H  H50  1  0.21880000  0.99320000  0.97060000  1.0 0.1079442906
H  H51  1  0.00680000  0.78120000  0.47060000  1.0 0.1079442906
H  H52  1  0.78120000  0.00680000  0.02940000  1.0 0.1079442906
H  H53  1  0.75650000  0.08170000  0.70530000  1.0 0.1196028668
H  H54  1  0.08170000  0.75650000  0.79470000  1.0 0.1196028668
H  H55  1  0.24350000  0.91830000  0.29470000  1.0 0.1196028668
H  H56  1  0.91830000  0.24350000  0.20530000  1.0 0.1196028668
H  H57  1  0.76320000  0.09020000  0.80420000  1.0 0.1294450856
H  H58  1  0.09020000  0.76320000  0.69580000  1.0 0.1294450856
H  H59  1  0.23680000  0.90980000  0.19580000  1.0 0.1294450856
H  H60  1  0.90980000  0.23680000  0.30420000  1.0 0.1294450856
H  H61  1  0.04050000  0.19150000  0.83780000  1.0 0.1079442906
H  H62  1  0.19150000  0.04050000  0.66220000  1.0 0.1079442906
H  H63  1  0.95950000  0.80850000  0.16220000  1.0 0.1079442906
H  H64  1  0.80850000  0.95950000  0.33780000  1.0 0.1079442906
H  H65  1  0.04070000  0.18670000  0.74150000  1.0 0.1079442906
H  H66  1  0.18670000  0.04070000  0.75850000  1.0 0.1079442906
H  H67  1  0.95930000  0.81330000  0.25850000  1.0 0.1079442906
H  H68  1  0.81330000  0.95930000  0.24150000  1.0 0.1079442906
H  H69  1  0.96350000  0.56570000  0.84850000  1.0 0.1196028668
H  H70  1  0.56570000  0.96350000  0.65150000  1.0 0.1196028668
H  H71  1  0.03650000  0.43430000  0.15150000  1.0 0.1196028668
H  H72  1  0.43430000  0.03650000  0.34850000  1.0 0.1196028668
H  H73  1  0.86430000  0.66150000  0.74770000  1.0 0.1294450856
H  H74  1  0.66150000  0.86430000  0.75230000  1.0 0.1294450856
H  H75  1  0.13570000  0.33850000  0.25230000  1.0 0.1294450856
H  H76  1  0.33850000  0.13570000  0.24770000  1.0 0.1294450856
H  H77  1  0.71520000  0.73780000  0.84170000  1.0 0.1294450856
H  H78  1  0.73780000  0.71520000  0.65830000  1.0 0.1294450856
H  H79  1  0.28480000  0.26220000  0.15830000  1.0 0.1294450856
H  H80  1  0.26220000  0.28480000  0.34170000  1.0 0.1294450856
H  H81  1  0.81830000  0.63730000  0.94040000  1.0 0.1079442906
H  H82  1  0.63730000  0.81830000  0.55960000  1.0 0.1079442906
H  H83  1  0.18170000  0.36270000  0.05960000  1.0 0.1079442906
H  H84  1  0.36270000  0.18170000  0.44040000  1.0 0.1079442906
H  H85  1  0.02680000  0.12160000  0.25320000  1.0 0.102213969
H  H86  1  0.12160000  0.02680000  0.24680000  1.0 0.102213969
H  H87  1  0.97320000  0.87840000  0.74680000  1.0 0.102213969
H  H88  1  0.87840000  0.97320000  0.75320000  1.0 0.102213969
H  H89  1  0.02380000  0.12400000  0.35350000  1.0 0.1196028668
H  H90  1  0.12400000  0.02380000  0.14650000  1.0 0.1196028668
H  H91  1  0.97620000  0.87600000  0.64650000  1.0 0.1196028668
H  H92  1  0.87600000  0.97620000  0.85350000  1.0 0.1196028668
H  H93  1  0.74140000  0.03840000  0.31090000  1.0 0.1196028668
H  H94  1  0.03840000  0.74140000  0.18910000  1.0 0.1196028668
H  H95  1  0.25860000  0.96160000  0.68910000  1.0 0.1196028668
H  H96  1  0.96160000  0.25860000  0.81090000  1.0 0.1196028668
H  H97  1  0.73950000  0.03190000  0.21030000  1.0 0.1079442906
H  H98  1  0.03190000  0.73950000  0.28970000  1.0 0.1079442906
H  H99  1  0.26050000  0.96810000  0.78970000  1.0 0.1079442906
H  H100  1  0.96810000  0.26050000  0.71030000  1.0 0.1079442906
C  C1  1  0.87590000  0.88210000  0.99500000  1.0 0.551494444
C  C2  1  0.88210000  0.87590000  0.50500000  1.0 0.551494444
C  C3  1  0.12410000  0.11790000  0.00500000  1.0 0.551494444
C  C4  1  0.11790000  0.12410000  0.49500000  1.0 0.551494444
C  C5  1  0.76980000  0.83600000  0.98300000  1.0 -0.0265574646
C  C6  1  0.83600000  0.76980000  0.51700000  1.0 -0.0265574646
C  C7  1  0.23020000  0.16400000  0.01700000  1.0 -0.0265574646
C  C8  1  0.16400000  0.23020000  0.48300000  1.0 -0.0265574646
C  C9  1  0.69410000  0.88410000  0.92720000  1.0 -0.1520119735
C  C10  1  0.88410000  0.69410000  0.57280000  1.0 -0.1520119735
C  C11  1  0.30590000  0.11590000  0.07280000  1.0 -0.1520119735
C  C12  1  0.11590000  0.30590000  0.42720000  1.0 -0.1520119735
C  C13  1  0.59770000  0.84270000  0.91630000  1.0 0.0310986254
C  C14  1  0.84270000  0.59770000  0.58370000  1.0 0.0310986254
C  C15  1  0.40230000  0.15730000  0.08370000  1.0 0.0310986254
C  C16  1  0.15730000  0.40230000  0.41630000  1.0 0.0310986254
C  C17  1  0.57030000  0.75670000  0.95970000  1.0 0.035973849
C  C18  1  0.75670000  0.57030000  0.54030000  1.0 0.035973849
C  C19  1  0.42970000  0.24330000  0.04030000  1.0 0.035973849
C  C20  1  0.24330000  0.42970000  0.45970000  1.0 0.035973849
C  C21  1  0.64750000  0.70870000  0.01520000  1.0 -0.1384805494
C  C22  1  0.70870000  0.64750000  0.48480000  1.0 -0.1384805494
C  C23  1  0.35250000  0.29130000  0.98480000  1.0 -0.1384805494
C  C24  1  0.29130000  0.35250000  0.51520000  1.0 -0.1384805494
C  C25  1  0.74580000  0.74720000  0.02690000  1.0 -0.0813411645
C  C26  1  0.74720000  0.74580000  0.47310000  1.0 -0.0813411645
C  C27  1  0.25420000  0.25280000  0.97310000  1.0 -0.0813411645
C  C28  1  0.25280000  0.25420000  0.52690000  1.0 -0.0813411645
C  C29  1  0.46580000  0.71020000  0.95120000  1.0 0.0310986254
C  C30  1  0.71020000  0.46580000  0.54880000  1.0 0.0310986254
C  C31  1  0.53420000  0.28980000  0.04880000  1.0 0.0310986254
C  C32  1  0.28980000  0.53420000  0.45120000  1.0 0.0310986254
C  C33  1  0.40490000  0.73130000  0.98010000  1.0 -0.1298709014
C  C34  1  0.73130000  0.40490000  0.51990000  1.0 -0.1298709014
C  C35  1  0.59510000  0.26870000  0.01990000  1.0 -0.1298709014
C  C36  1  0.26870000  0.59510000  0.48010000  1.0 -0.1298709014
C  C37  1  0.31140000  0.68340000  0.97880000  1.0 -0.0813411645
C  C38  1  0.68340000  0.31140000  0.52120000  1.0 -0.0813411645
C  C39  1  0.68860000  0.31660000  0.02120000  1.0 -0.0813411645
C  C40  1  0.31660000  0.68860000  0.47880000  1.0 -0.0813411645
C  C41  1  0.27630000  0.61110000  0.94770000  1.0 -0.0033287037
C  C42  1  0.61110000  0.27630000  0.55230000  1.0 -0.0033287037
C  C43  1  0.72370000  0.38890000  0.05230000  1.0 -0.0033287037
C  C44  1  0.38890000  0.72370000  0.44770000  1.0 -0.0033287037
C  C45  1  0.33530000  0.58690000  0.91900000  1.0 -0.1520119735
C  C46  1  0.58690000  0.33530000  0.58100000  1.0 -0.1520119735
C  C47  1  0.66470000  0.41310000  0.08100000  1.0 -0.1520119735
C  C48  1  0.41310000  0.66470000  0.41900000  1.0 -0.1520119735
C  C49  1  0.42840000  0.63720000  0.92070000  1.0 0.0212555158
C  C50  1  0.63720000  0.42840000  0.57930000  1.0 0.0212555158
C  C51  1  0.57160000  0.36280000  0.07930000  1.0 0.0212555158
C  C52  1  0.36280000  0.57160000  0.42070000  1.0 0.0212555158
C  C53  1  0.17690000  0.55270000  0.94750000  1.0 0.551494444
C  C54  1  0.55270000  0.17690000  0.55250000  1.0 0.551494444
C  C55  1  0.82310000  0.44730000  0.05250000  1.0 0.551494444
C  C56  1  0.44730000  0.82310000  0.44750000  1.0 0.551494444
C  C57  1  0.76170000  0.23770000  0.87600000  1.0 0.5306197948
C  C58  1  0.23770000  0.76170000  0.62400000  1.0 0.5306197948
C  C59  1  0.23830000  0.76230000  0.12400000  1.0 0.5306197948
C  C60  1  0.76230000  0.23830000  0.37600000  1.0 0.5306197948
C  C61  1  0.67740000  0.30720000  0.83920000  1.0 -0.0033287037
C  C62  1  0.30720000  0.67740000  0.66080000  1.0 -0.0033287037
C  C63  1  0.32260000  0.69280000  0.16080000  1.0 -0.0033287037
C  C64  1  0.69280000  0.32260000  0.33920000  1.0 -0.0033287037
C  C65  1  0.59020000  0.28020000  0.79620000  1.0 -0.1384805494
C  C66  1  0.28020000  0.59020000  0.70380000  1.0 -0.1384805494
C  C67  1  0.40980000  0.71980000  0.20380000  1.0 -0.1384805494
C  C68  1  0.71980000  0.40980000  0.29620000  1.0 -0.1384805494
C  C69  1  0.51190000  0.34550000  0.76050000  1.0 -0.010569503
C  C70  1  0.34550000  0.51190000  0.73950000  1.0 -0.010569503
C  C71  1  0.48810000  0.65450000  0.23950000  1.0 -0.010569503
C  C72  1  0.65450000  0.48810000  0.26050000  1.0 -0.010569503
C  C73  1  0.51640000  0.43820000  0.76860000  1.0 0.0529897756
C  C74  1  0.43820000  0.51640000  0.73140000  1.0 0.0529897756
C  C75  1  0.48360000  0.56180000  0.23140000  1.0 0.0529897756
C  C76  1  0.56180000  0.48360000  0.26860000  1.0 0.0529897756
C  C77  1  0.60530000  0.46470000  0.81260000  1.0 -0.1298709014
C  C78  1  0.46470000  0.60530000  0.68740000  1.0 -0.1298709014
C  C79  1  0.39470000  0.53530000  0.18740000  1.0 -0.1298709014
C  C80  1  0.53530000  0.39470000  0.31260000  1.0 -0.1298709014
C  C81  1  0.68510000  0.40110000  0.84650000  1.0 -0.0813411645
C  C82  1  0.40110000  0.68510000  0.65350000  1.0 -0.0813411645
C  C83  1  0.31490000  0.59890000  0.15350000  1.0 -0.0813411645
C  C84  1  0.59890000  0.31490000  0.34650000  1.0 -0.0813411645
C  C85  1  0.83430000  0.04690000  0.56220000  1.0 0.0916737898
C  C86  1  0.04690000  0.83430000  0.93780000  1.0 0.0916737898
C  C87  1  0.16570000  0.95310000  0.43780000  1.0 0.0916737898
C  C88  1  0.95310000  0.16570000  0.06220000  1.0 0.0916737898
C  C89  1  0.83600000  0.05280000  0.62140000  1.0 -0.2092060537
C  C90  1  0.05280000  0.83600000  0.87860000  1.0 -0.2092060537
C  C91  1  0.16400000  0.94720000  0.37860000  1.0 -0.2092060537
C  C92  1  0.94720000  0.16400000  0.12140000  1.0 -0.2092060537
C  C93  1  0.89830000  0.12210000  0.64800000  1.0 0.0699216372
C  C94  1  0.12210000  0.89830000  0.85200000  1.0 0.0699216372
C  C95  1  0.10170000  0.87790000  0.35200000  1.0 0.0699216372
C  C96  1  0.87790000  0.10170000  0.14800000  1.0 0.0699216372
C  C97  1  0.95660000  0.18600000  0.61120000  1.0 -0.2092060537
C  C98  1  0.18600000  0.95660000  0.88880000  1.0 -0.2092060537
C  C99  1  0.04340000  0.81400000  0.38880000  1.0 -0.2092060537
C  C100  1  0.81400000  0.04340000  0.11120000  1.0 -0.2092060537
C  C101  1  0.95230000  0.17570000  0.55280000  1.0 0.0790548825
C  C102  1  0.17570000  0.95230000  0.94720000  1.0 0.0790548825
C  C103  1  0.04770000  0.82430000  0.44720000  1.0 0.0790548825
C  C104  1  0.82430000  0.04770000  0.05280000  1.0 0.0790548825
C  C105  1  0.90220000  0.12680000  0.71320000  1.0 0.0596574157
C  C106  1  0.12680000  0.90220000  0.78680000  1.0 0.0596574157
C  C107  1  0.09780000  0.87320000  0.28680000  1.0 0.0596574157
C  C108  1  0.87320000  0.09780000  0.21320000  1.0 0.0596574157
C  C109  1  0.81680000  0.10120000  0.73290000  1.0 -0.1009220944
C  C110  1  0.10120000  0.81680000  0.76710000  1.0 -0.1009220944
C  C111  1  0.18320000  0.89880000  0.26710000  1.0 -0.1009220944
C  C112  1  0.89880000  0.18320000  0.23290000  1.0 -0.1009220944
C  C113  1  0.82190000  0.10470000  0.79290000  1.0 -0.010569503
C  C114  1  0.10470000  0.82190000  0.70710000  1.0 -0.010569503
C  C115  1  0.17810000  0.89530000  0.20710000  1.0 -0.010569503
C  C116  1  0.89530000  0.17810000  0.29290000  1.0 -0.010569503
C  C117  1  0.98350000  0.16370000  0.81250000  1.0 0.0030512495
C  C118  1  0.16370000  0.98350000  0.68750000  1.0 0.0030512495
C  C119  1  0.01650000  0.83630000  0.18750000  1.0 0.0030512495
C  C120  1  0.83630000  0.01650000  0.31250000  1.0 0.0030512495
C  C121  1  0.98350000  0.16250000  0.75420000  1.0 -0.1009220944
C  C122  1  0.16250000  0.98350000  0.74580000  1.0 -0.1009220944
C  C123  1  0.01650000  0.83750000  0.24580000  1.0 -0.1009220944
C  C124  1  0.83750000  0.01650000  0.25420000  1.0 -0.1009220944
C  C125  1  0.91260000  0.60060000  0.84730000  1.0 0.0790548825
C  C126  1  0.60060000  0.91260000  0.65270000  1.0 0.0790548825
C  C127  1  0.08740000  0.39940000  0.15270000  1.0 0.0790548825
C  C128  1  0.39940000  0.08740000  0.34730000  1.0 0.0790548825
C  C129  1  0.85340000  0.65840000  0.78620000  1.0 -0.1973531877
C  C130  1  0.65840000  0.85340000  0.71380000  1.0 -0.1973531877
C  C131  1  0.14660000  0.34160000  0.21380000  1.0 -0.1973531877
C  C132  1  0.34160000  0.14660000  0.28620000  1.0 -0.1973531877
C  C133  1  0.77690000  0.71210000  0.78260000  1.0 0.102213969
C  C134  1  0.71210000  0.77690000  0.71740000  1.0 0.1079442906
C  C135  1  0.22310000  0.28790000  0.21740000  1.0 0.1079442906
C  C136  1  0.28790000  0.22310000  0.28260000  1.0 0.1079442906
C  C137  1  0.76520000  0.70320000  0.84160000  1.0 -0.1973531877
C  C138  1  0.70320000  0.76520000  0.65840000  1.0 -0.1973531877
C  C139  1  0.23480000  0.29680000  0.15840000  1.0 -0.1973531877
C  C140  1  0.29680000  0.23480000  0.34160000  1.0 -0.1973531877
C  C141  1  0.82810000  0.64250000  0.90120000  1.0 0.0790548825
C  C142  1  0.64250000  0.82810000  0.59880000  1.0 0.0790548825
C  C143  1  0.17190000  0.35750000  0.09880000  1.0 0.0790548825
C  C144  1  0.35750000  0.17190000  0.40120000  1.0 0.0790548825
C  C145  1  0.96610000  0.11210000  0.26190000  1.0 -0.1298709014
C  C146  1  0.11210000  0.96610000  0.23810000  1.0 -0.1298709014
C  C147  1  0.03390000  0.88790000  0.73810000  1.0 -0.1298709014
C  C148  1  0.88790000  0.03390000  0.76190000  1.0 -0.1298709014
C  C149  1  0.96420000  0.11160000  0.32210000  1.0 -0.0455090941
C  C150  1  0.11160000  0.96420000  0.17790000  1.0 -0.0455090941
C  C151  1  0.03580000  0.88840000  0.67790000  1.0 -0.0455090941
C  C152  1  0.88840000  0.03580000  0.82210000  1.0 -0.0455090941
C  C153  1  0.79880000  0.06180000  0.29830000  1.0 0.0699216372
C  C154  1  0.06180000  0.79880000  0.20170000  1.0 0.0699216372
C  C155  1  0.20120000  0.93820000  0.70170000  1.0 0.0699216372
C  C156  1  0.93820000  0.20120000  0.79830000  1.0 0.0699216372
C  C157  1  0.79610000  0.05990000  0.23580000  1.0 -0.0594286823
C  C158  1  0.05990000  0.79610000  0.26420000  1.0 -0.0594286823
C  C159  1  0.20390000  0.94010000  0.76420000  1.0 -0.0594286823
C  C160  1  0.94010000  0.20390000  0.73580000  1.0 -0.0594286823
N  N1  1  0.90770000  0.12790000  0.83668000  1.0 -0.0245102293
N  N2  1  0.12790000  0.90770000  0.66332000  1.0 -0.0245102293
N  N3  1  0.09230000  0.87210000  0.16332000  1.0 -0.0245102293
N  N4  1  0.87210000  0.09230000  0.33668000  1.0 -0.0265574646
N  N5  1  0.89226000  0.10666000  0.52767000  1.0 -0.2402855509
N  N6  1  0.10666000  0.89226000  0.97233000  1.0 -0.2402855509
N  N7  1  0.10774000  0.89334000  0.47233000  1.0 -0.2402855509
N  N8  1  0.89334000  0.10774000  0.02767000  1.0 -0.2402855509
N  N9  1  0.90139000  0.59139000  0.90482000  1.0 -0.2305415586
N  N10  1  0.59139000  0.90139000  0.59518000  1.0 -0.2305415586
N  N11  1  0.09861000  0.40861000  0.09518000  1.0 -0.2305415586
N  N12  1  0.40861000  0.09861000  0.40482000  1.0 -0.2305415586
N  N13  1  0.52050000  0.89830000  0.85460000  1.0 0.4989612385
N  N14  1  0.89830000  0.52050000  0.64540000  1.0 0.4989612385
N  N15  1  0.47950000  0.10170000  0.14540000  1.0 0.4989612385
N  N16  1  0.10170000  0.47950000  0.35460000  1.0 0.4989612385
N  N17  1  0.48870000  0.60570000  0.89050000  1.0 0.4989612385
N  N18  1  0.60570000  0.48870000  0.60950000  1.0 0.4989612385
N  N19  1  0.51130000  0.39430000  0.10950000  1.0 0.4989612385
N  N20  1  0.39430000  0.51130000  0.39050000  1.0 0.4989612385
N  N21  1  0.42320000  0.31400000  0.71180000  1.0 0.4772745467
N  N22  1  0.31400000  0.42320000  0.78820000  1.0 0.4772745467
N  N23  1  0.57680000  0.68600000  0.28820000  1.0 0.4772745467
N  N24  1  0.68600000  0.57680000  0.21180000  1.0 0.4772745467
O  O1  1  0.88901000  0.96575000  0.95441000  1.0 -0.5676549726
O  O2  1  0.96575000  0.88901000  0.54559000  1.0 -0.5676549726
O  O3  1  0.11099000  0.03425000  0.04559000  1.0 -0.5676549726
O  O4  1  0.03425000  0.11099000  0.45441000  1.0 -0.5676549726
O  O5  1  0.94500000  0.83284000  0.04347000  1.0 -0.5378173643
O  O6  1  0.83284000  0.94500000  0.45653000  1.0 -0.5378173643
O  O7  1  0.05500000  0.16716000  0.95653000  1.0 -0.5378173643
O  O8  1  0.16716000  0.05500000  0.54347000  1.0 -0.5378173643
O  O9  1  0.12879000  0.57175000  0.97806000  1.0 -0.5579860859
O  O10  1  0.57175000  0.12879000  0.52194000  1.0 -0.5579860859
O  O11  1  0.87121000  0.42825000  0.02194000  1.0 -0.5579860859
O  O12  1  0.42825000  0.87121000  0.47806000  1.0 -0.5579860859
O  O13  1  0.15092000  0.48872000  0.91810000  1.0 -0.5521640532
O  O14  1  0.48872000  0.15092000  0.58190000  1.0 -0.5521640532
O  O15  1  0.84908000  0.51128000  0.08190000  1.0 -0.5521640532
O  O16  1  0.51128000  0.84908000  0.41810000  1.0 -0.5521640532
O  O17  1  0.85118000  0.27178000  0.89532000  1.0 -0.5325512939
O  O18  1  0.27178000  0.85118000  0.60468000  1.0 -0.5325512939
O  O19  1  0.14882000  0.72822000  0.10468000  1.0 -0.5325512939
O  O20  1  0.72822000  0.14882000  0.39532000  1.0 -0.5325512939
O  O21  1  0.74265000  0.14385000  0.88711000  1.0 -0.5521640532
O  O22  1  0.14385000  0.74265000  0.61289000  1.0 -0.5521640532
O  O23  1  0.25735000  0.85615000  0.11289000  1.0 -0.5521640532
O  O24  1  0.85615000  0.25735000  0.38711000  1.0 -0.5521640532
O  O25  1  0.55180000  0.94760000  0.80630000  1.0 -0.359975753
O  O26  1  0.94760000  0.55180000  0.69370000  1.0 -0.359975753
O  O27  1  0.44820000  0.05240000  0.19370000  1.0 -0.359975753
O  O28  1  0.05240000  0.44820000  0.30630000  1.0 -0.359975753
O  O29  1  0.43530000  0.88630000  0.84690000  1.0 -0.2908191287
O  O30  1  0.88630000  0.43530000  0.65310000  1.0 -0.2908191287
O  O31  1  0.56470000  0.11370000  0.15310000  1.0 -0.2908191287
O  O32  1  0.11370000  0.56470000  0.34690000  1.0 -0.2908191287
O  O33  1  0.53980000  0.66780000  0.86340000  1.0 -0.2789190337
O  O34  1  0.66780000  0.53980000  0.63660000  1.0 -0.2789190337
O  O35  1  0.46020000  0.33220000  0.13660000  1.0 -0.2789190337
O  O36  1  0.33220000  0.46020000  0.36340000  1.0 -0.2789190337
O  O37  1  0.48090000  0.51710000  0.89370000  1.0 -0.3054713958
O  O38  1  0.51710000  0.48090000  0.60630000  1.0 -0.3054713958
O  O39  1  0.51910000  0.48290000  0.10630000  1.0 -0.3054713958
O  O40  1  0.48290000  0.51910000  0.39370000  1.0 -0.3037354403
O  O41  1  0.35600000  0.36440000  0.67960000  1.0 -0.2789190337
O  O42  1  0.36440000  0.35600000  0.82040000  1.0 -0.2744728678
O  O43  1  0.64400000  0.63560000  0.32040000  1.0 -0.2789190337
O  O44  1  0.63560000  0.64400000  0.17960000  1.0 -0.2789190337
O  O45  1  0.43580000  0.24960000  0.69090000  1.0 -0.1384805494
O  O46  1  0.24960000  0.43580000  0.80910000  1.0 -0.1298709014
O  O47  1  0.56420000  0.75040000  0.30910000  1.0 -0.1384805494
O  O48  1  0.75040000  0.56420000  0.19090000  1.0 -0.1384805494
O  O49  1  0.39620000  0.21760000  0.73940000  1.0 -0.261651484
O  O50  1  0.21760000  0.39620000  0.76060000  1.0 -0.261651484
O  O51  1  0.60380000  0.78240000  0.26060000  1.0 -0.261651484
O  O52  1  0.78240000  0.60380000  0.23940000  1.0 -0.261651484
