# DDEC6 charges by PACMAN v1.1 (https://github.com/mtap-research/PACMAN-charge/)
data_UBACOR_ion_pacman
_symmetry_space_group_name_H-M   'P 1'
_cell_length_a   14.62190000
_cell_length_b   14.62190000
_cell_length_c   19.11900000
_cell_angle_alpha   65.26660000
_cell_angle_beta   114.73300000
_cell_angle_gamma   122.81200000
_symmetry_Int_Tables_number   1
_chemical_formula_structural   Zn2H26C30N3O11
_chemical_formula_sum   'Zn8 H104 C120 N12 O44'
_cell_volume   3020.35580670
_cell_formula_units_Z   4
loop_
 _symmetry_equiv_pos_site_id
 _symmetry_equiv_pos_as_xyz
  1  'x, y, z'
loop_
 _atom_site_type_symbol
 _atom_site_label
 _atom_site_symmetry_multiplicity
 _atom_site_fract_x
 _atom_site_fract_y
 _atom_site_fract_z
 _atom_site_occupancy
 _atom_site_charge
Zn  Zn1  1  0.61913000  0.08127000  0.10158000  1.0 0.8646288129
Zn  Zn2  1  0.08127000  0.61913000  0.39842000  1.0 0.8646288129
Zn  Zn3  1  0.38087000  0.91873000  0.89842000  1.0 0.8646288129
Zn  Zn4  1  0.91873000  0.38087000  0.60158000  1.0 0.8646288129
Zn  Zn5  1  0.43282000  0.88106000  0.31568000  1.0 0.8518251391
Zn  Zn6  1  0.88106000  0.43282000  0.18432000  1.0 0.8518251391
Zn  Zn7  1  0.56718000  0.11894000  0.68432000  1.0 0.8518251391
Zn  Zn8  1  0.11894000  0.56718000  0.81568000  1.0 0.8518251391
H  H1  1  0.50910000  0.71090000  0.20900000  1.0 0.1188298903
H  H2  1  0.71090000  0.50910000  0.29100000  1.0 0.1188298903
H  H3  1  0.49090000  0.28910000  0.79100000  1.0 0.1188298903
H  H4  1  0.28910000  0.49090000  0.70900000  1.0 0.1188298903
H  H5  1  0.40560000  0.51720000  0.24540000  1.0 0.1188298903
H  H6  1  0.51720000  0.40560000  0.25460000  1.0 0.1188298903
H  H7  1  0.59440000  0.48280000  0.75460000  1.0 0.1188298903
H  H8  1  0.48280000  0.59440000  0.74540000  1.0 0.1188298903
H  H9  1  0.21680000  0.44160000  0.23870000  1.0 0.1188298903
H  H10  1  0.44160000  0.21680000  0.26130000  1.0 0.1188298903
H  H11  1  0.78320000  0.55840000  0.76130000  1.0 0.1188298903
H  H12  1  0.55840000  0.78320000  0.73870000  1.0 0.1188298903
H  H13  1  0.10230000  0.89430000  0.17700000  1.0 0.1188298903
H  H14  1  0.89430000  0.10230000  0.32300000  1.0 0.1188298903
H  H15  1  0.89770000  0.10570000  0.82300000  1.0 0.1188298903
H  H16  1  0.10570000  0.89770000  0.67700000  1.0 0.1188298903
H  H17  1  0.09350000  0.99210000  0.04500000  1.0 0.1098489897
H  H18  1  0.99210000  0.09350000  0.45500000  1.0 0.1098489897
H  H19  1  0.90650000  0.00790000  0.95500000  1.0 0.1098489897
H  H20  1  0.00790000  0.90650000  0.54500000  1.0 0.1098489897
H  H21  1  0.16510000  0.96590000  0.97150000  1.0 0.1188298903
H  H22  1  0.96590000  0.16510000  0.52850000  1.0 0.1188298903
H  H23  1  0.83490000  0.03410000  0.02850000  1.0 0.1188298903
H  H24  1  0.03410000  0.83490000  0.47150000  1.0 0.1188298903
H  H25  1  0.61040000  0.27880000  0.96850000  1.0 0.1188298903
H  H26  1  0.27880000  0.61040000  0.53150000  1.0 0.1188298903
H  H27  1  0.38960000  0.72120000  0.03150000  1.0 0.1188298903
H  H28  1  0.72120000  0.38960000  0.46850000  1.0 0.1188298903
H  H29  1  0.51970000  0.39070000  0.91250000  1.0 0.137747734
H  H30  1  0.39070000  0.51970000  0.58750000  1.0 0.137747734
H  H31  1  0.48030000  0.60930000  0.08750000  1.0 0.137747734
H  H32  1  0.60930000  0.48030000  0.41250000  1.0 0.137747734
H  H33  1  0.33240000  0.18780000  0.07070000  1.0 0.137747734
H  H34  1  0.18780000  0.33240000  0.42930000  1.0 0.137747734
H  H35  1  0.66760000  0.81220000  0.92930000  1.0 0.137747734
H  H36  1  0.81220000  0.66760000  0.57070000  1.0 0.137747734
H  H37  1  0.43320000  0.08540000  0.12330000  1.0 0.1188298903
H  H38  1  0.08540000  0.43320000  0.37670000  1.0 0.1188298903
H  H39  1  0.56680000  0.91460000  0.87670000  1.0 0.1188298903
H  H40  1  0.91460000  0.56680000  0.62330000  1.0 0.1188298903
H  H41  1  0.09050000  0.33250000  0.89120000  1.0 0.1188298903
H  H42  1  0.33250000  0.09050000  0.60880000  1.0 0.1188298903
H  H43  1  0.90950000  0.66750000  0.10880000  1.0 0.1188298903
H  H44  1  0.66750000  0.90950000  0.39120000  1.0 0.1188298903
H  H45  1  0.19210000  0.23210000  0.95130000  1.0 0.137747734
H  H46  1  0.23210000  0.19210000  0.54870000  1.0 0.137747734
H  H47  1  0.80790000  0.76790000  0.04870000  1.0 0.137747734
H  H48  1  0.76790000  0.80790000  0.45130000  1.0 0.137747734
H  H49  1  0.47020000  0.51900000  0.91870000  1.0 0.137747734
H  H50  1  0.51900000  0.47020000  0.58130000  1.0 0.137747734
H  H51  1  0.52980000  0.48100000  0.08130000  1.0 0.137747734
H  H52  1  0.48100000  0.52980000  0.41870000  1.0 0.137747734
H  H53  1  0.36270000  0.61350000  0.86900000  1.0 0.1098489897
H  H54  1  0.61350000  0.36270000  0.63100000  1.0 0.1098489897
H  H55  1  0.63730000  0.38650000  0.13100000  1.0 0.1098489897
H  H56  1  0.38650000  0.63730000  0.36900000  1.0 0.1098489897
H  H57  1  0.45380000  0.91700000  0.45830000  1.0 0.2683485957
H  H58  1  0.91700000  0.45380000  0.04170000  1.0 0.2683485957
H  H59  1  0.54620000  0.08300000  0.54170000  1.0 0.2683485957
H  H60  1  0.08300000  0.54620000  0.95830000  1.0 0.2683485957
H  H61  1  0.36820000  0.82880000  0.45300000  1.0 0.2934235694
H  H62  1  0.82880000  0.36820000  0.04700000  1.0 0.2934235694
H  H63  1  0.63180000  0.17120000  0.54700000  1.0 0.2934235694
H  H64  1  0.17120000  0.63180000  0.95300000  1.0 0.2934235694
H  H65  1  0.22830000  0.18490000  0.14390000  1.0 0.1188298903
H  H66  1  0.09860000  0.13040000  0.10510000  1.0 0.1098489897
H  H67  1  0.14270000  0.13590000  0.19420000  1.0 0.1293461186
H  H68  1  0.09820000  0.40840000  0.05060000  1.0 0.137747734
H  H69  1  0.02830000  0.31370000  0.11220000  1.0 0.137747734
H  H70  1  0.00990000  0.29050000  0.03320000  1.0 0.1188298903
H  H71  1  0.25140000  0.44780000  0.08040000  1.0 0.1021578001
H  H72  1  0.02170000  0.30910000  0.10900000  1.0 0.137747734
H  H73  1  0.06090000  0.23930000  0.19350000  1.0 0.0926117866
H  H74  1  0.98800000  0.18240000  0.12220000  1.0 0.1098489897
H  H75  1  0.18490000  0.22830000  0.35610000  1.0 0.1188298903
H  H76  1  0.13040000  0.09860000  0.39490000  1.0 0.1098489897
H  H77  1  0.13590000  0.14270000  0.30580000  1.0 0.1293461186
H  H78  1  0.40840000  0.09820000  0.44940000  1.0 0.137747734
H  H79  1  0.31370000  0.02830000  0.38780000  1.0 0.137747734
H  H80  1  0.29050000  0.00990000  0.46680000  1.0 0.1188298903
H  H81  1  0.44780000  0.25140000  0.41960000  1.0 0.1021578001
H  H82  1  0.30910000  0.02170000  0.39100000  1.0 0.137747734
H  H83  1  0.23930000  0.06090000  0.30650000  1.0 0.0926117866
H  H84  1  0.18240000  0.98800000  0.37780000  1.0 0.1098489897
H  H85  1  0.77170000  0.81510000  0.85610000  1.0 0.1188298903
H  H86  1  0.90140000  0.86960000  0.89490000  1.0 0.1098489897
H  H87  1  0.85730000  0.86410000  0.80580000  1.0 0.1293461186
H  H88  1  0.90180000  0.59160000  0.94940000  1.0 0.1293461186
H  H89  1  0.97170000  0.68630000  0.88780000  1.0 0.137747734
H  H90  1  0.99010000  0.70950000  0.96680000  1.0 0.1188298903
H  H91  1  0.74860000  0.55220000  0.91960000  1.0 0.1021578001
H  H92  1  0.97830000  0.69090000  0.89100000  1.0 0.137747734
H  H93  1  0.93910000  0.76070000  0.80650000  1.0 0.0926117866
H  H94  1  0.01200000  0.81760000  0.87780000  1.0 0.1098489897
H  H95  1  0.81510000  0.77170000  0.64390000  1.0 0.1188298903
H  H96  1  0.86960000  0.90140000  0.60510000  1.0 0.1098489897
H  H97  1  0.86410000  0.85730000  0.69420000  1.0 0.1293461186
H  H98  1  0.59160000  0.90180000  0.55060000  1.0 0.1293461186
H  H99  1  0.68630000  0.97170000  0.61220000  1.0 0.137747734
H  H100  1  0.70950000  0.99010000  0.53320000  1.0 0.1188298903
H  H101  1  0.55220000  0.74860000  0.58040000  1.0 0.1021578001
H  H102  1  0.69090000  0.97830000  0.60900000  1.0 0.137747734
H  H103  1  0.76070000  0.93910000  0.69350000  1.0 0.0926117866
H  H104  1  0.81760000  0.01200000  0.62220000  1.0 0.1098489897
C  C1  1  0.45680000  0.87380000  0.16780000  1.0 0.5803263994
C  C2  1  0.87380000  0.45680000  0.33220000  1.0 0.5803263994
C  C3  1  0.54320000  0.12620000  0.83220000  1.0 0.5803263994
C  C4  1  0.12620000  0.54320000  0.66780000  1.0 0.5803263994
C  C5  1  0.38230000  0.74950000  0.18180000  1.0 -0.0836563794
C  C6  1  0.74950000  0.38230000  0.31820000  1.0 -0.0836563794
C  C7  1  0.61770000  0.25050000  0.81820000  1.0 -0.0836563794
C  C8  1  0.25050000  0.61770000  0.68180000  1.0 -0.0836563794
C  C9  1  0.43330000  0.67970000  0.20660000  1.0 -0.1278012092
C  C10  1  0.67970000  0.43330000  0.29340000  1.0 -0.1278012092
C  C11  1  0.56670000  0.32030000  0.79340000  1.0 -0.1278012092
C  C12  1  0.32030000  0.56670000  0.70660000  1.0 -0.1278012092
C  C13  1  0.37160000  0.56400000  0.22780000  1.0 -0.1041946331
C  C14  1  0.56400000  0.37160000  0.27220000  1.0 -0.1041946331
C  C15  1  0.62840000  0.43600000  0.77220000  1.0 -0.1041946331
C  C16  1  0.43600000  0.62840000  0.72780000  1.0 -0.1041946331
C  C17  1  0.25810000  0.51890000  0.22240000  1.0 -0.1101114167
C  C18  1  0.51890000  0.25810000  0.27760000  1.0 -0.1101114167
C  C19  1  0.74190000  0.48110000  0.77760000  1.0 -0.1101114167
C  C20  1  0.48110000  0.74190000  0.72240000  1.0 -0.1101114167
C  C21  1  0.20510000  0.58790000  0.19280000  1.0 -0.0352936577
C  C22  1  0.58790000  0.20510000  0.30720000  1.0 -0.0352936577
C  C23  1  0.79490000  0.41210000  0.80720000  1.0 -0.0352936577
C  C24  1  0.41210000  0.79490000  0.69280000  1.0 -0.0352936577
C  C25  1  0.26750000  0.70630000  0.17250000  1.0 0.0455188226
C  C26  1  0.70630000  0.26750000  0.32750000  1.0 0.0455188226
C  C27  1  0.73250000  0.29370000  0.82750000  1.0 0.0455188226
C  C28  1  0.29370000  0.73250000  0.67250000  1.0 0.0455188226
C  C29  1  0.08000000  0.52900000  0.18480000  1.0 0.5317740055
C  C30  1  0.52900000  0.08000000  0.31520000  1.0 0.5317740055
C  C31  1  0.92000000  0.47100000  0.81520000  1.0 0.5317740055
C  C32  1  0.47100000  0.92000000  0.68480000  1.0 0.5317740055
C  C33  1  0.18630000  0.75410000  0.26910000  1.0 0.5906244727
C  C34  1  0.75410000  0.18630000  0.23090000  1.0 0.5906244727
C  C35  1  0.81370000  0.24590000  0.73090000  1.0 0.5906244727
C  C36  1  0.24590000  0.81370000  0.76910000  1.0 0.5906244727
C  C37  1  0.17800000  0.80880000  0.18190000  1.0 -0.0577560006
C  C38  1  0.80880000  0.17800000  0.31810000  1.0 -0.0577560006
C  C39  1  0.82200000  0.19120000  0.81810000  1.0 -0.0577560006
C  C40  1  0.19120000  0.82200000  0.68190000  1.0 -0.0577560006
C  C41  1  0.13040000  0.88380000  0.14690000  1.0 -0.1101114167
C  C42  1  0.88380000  0.13040000  0.35310000  1.0 -0.1101114167
C  C43  1  0.86960000  0.11620000  0.85310000  1.0 -0.1101114167
C  C44  1  0.11620000  0.86960000  0.64690000  1.0 -0.1101114167
C  C45  1  0.12470000  0.94190000  0.06820000  1.0 -0.1278012092
C  C46  1  0.94190000  0.12470000  0.43180000  1.0 -0.1278012092
C  C47  1  0.87530000  0.05810000  0.93180000  1.0 -0.1278012092
C  C48  1  0.05810000  0.87530000  0.56820000  1.0 -0.1278012092
C  C49  1  0.16620000  0.92460000  0.02410000  1.0 -0.1228383346
C  C50  1  0.92460000  0.16620000  0.47590000  1.0 -0.1228383346
C  C51  1  0.83380000  0.07540000  0.97590000  1.0 -0.1228383346
C  C52  1  0.07540000  0.83380000  0.52410000  1.0 -0.1228383346
C  C53  1  0.20960000  0.84640000  0.05690000  1.0 -0.0525514087
C  C54  1  0.84640000  0.20960000  0.44310000  1.0 -0.0525514087
C  C55  1  0.79040000  0.15360000  0.94310000  1.0 -0.0525514087
C  C56  1  0.15360000  0.79040000  0.55690000  1.0 -0.0525514087
C  C57  1  0.21630000  0.78710000  0.13710000  1.0 0.0455188226
C  C58  1  0.78710000  0.21630000  0.36290000  1.0 0.0455188226
C  C59  1  0.78370000  0.21290000  0.86290000  1.0 0.0455188226
C  C60  1  0.21290000  0.78370000  0.63710000  1.0 0.0455188226
C  C61  1  0.24810000  0.82910000  0.00290000  1.0 0.5497888537
C  C62  1  0.82910000  0.24810000  0.49710000  1.0 0.5497888537
C  C63  1  0.75190000  0.17090000  0.99710000  1.0 0.5497888537
C  C64  1  0.17090000  0.75190000  0.50290000  1.0 0.5497888537
C  C65  1  0.55320000  0.26000000  0.98920000  1.0 0.1098489897
C  C66  1  0.26000000  0.55320000  0.51080000  1.0 0.1098489897
C  C67  1  0.44680000  0.74000000  0.01080000  1.0 0.1098489897
C  C68  1  0.74000000  0.44680000  0.48920000  1.0 0.1098489897
C  C69  1  0.49760000  0.32700000  0.95370000  1.0 -0.1834733897
C  C70  1  0.32700000  0.49760000  0.54630000  1.0 -0.1834733897
C  C71  1  0.50240000  0.67300000  0.04630000  1.0 -0.1834733897
C  C72  1  0.67300000  0.50240000  0.45370000  1.0 -0.1834733897
C  C73  1  0.40930000  0.29730000  0.98080000  1.0 0.1098489897
C  C74  1  0.29730000  0.40930000  0.51920000  1.0 0.1098489897
C  C75  1  0.59070000  0.70270000  0.01920000  1.0 0.1098489897
C  C76  1  0.70270000  0.59070000  0.48080000  1.0 0.1098489897
C  C77  1  0.38740000  0.20700000  0.04780000  1.0 -0.1834733897
C  C78  1  0.20700000  0.38740000  0.45220000  1.0 -0.1834733897
C  C79  1  0.61260000  0.79300000  0.95220000  1.0 -0.1834733897
C  C80  1  0.79300000  0.61260000  0.54780000  1.0 -0.1834733897
C  C81  1  0.44920000  0.14640000  0.07950000  1.0 0.0926117866
C  C82  1  0.14640000  0.44920000  0.42050000  1.0 0.0926117866
C  C83  1  0.55080000  0.85360000  0.92050000  1.0 0.0926117866
C  C84  1  0.85360000  0.55080000  0.57950000  1.0 0.0926117866
C  C85  1  0.16800000  0.37080000  0.89810000  1.0 0.1021578001
C  C86  1  0.37080000  0.16800000  0.60190000  1.0 0.1021578001
C  C87  1  0.83200000  0.62920000  0.10190000  1.0 0.1021578001
C  C88  1  0.62920000  0.83200000  0.39810000  1.0 0.1021578001
C  C89  1  0.22870000  0.30990000  0.93360000  1.0 -0.1883234432
C  C90  1  0.30990000  0.22870000  0.56640000  1.0 -0.1883234432
C  C91  1  0.77130000  0.69010000  0.06640000  1.0 -0.1883234432
C  C92  1  0.69010000  0.77130000  0.43360000  1.0 -0.1883234432
C  C93  1  0.34490000  0.36390000  0.94340000  1.0 0.1098489897
C  C94  1  0.36390000  0.34490000  0.55660000  1.0 0.1098489897
C  C95  1  0.65510000  0.63610000  0.05660000  1.0 0.1098489897
C  C96  1  0.63610000  0.65510000  0.44340000  1.0 0.1098489897
C  C97  1  0.39360000  0.47920000  0.91590000  1.0 -0.1834733897
C  C98  1  0.47920000  0.39360000  0.58410000  1.0 -0.1834733897
C  C99  1  0.60640000  0.52080000  0.08410000  1.0 -0.1834733897
C  C100  1  0.52080000  0.60640000  0.41590000  1.0 -0.1834733897
C  C101  1  0.32760000  0.53540000  0.88380000  1.0 0.0926117866
C  C102  1  0.53540000  0.32760000  0.61620000  1.0 0.0926117866
C  C103  1  0.67240000  0.46460000  0.11620000  1.0 0.0926117866
C  C104  1  0.46460000  0.67240000  0.38380000  1.0 0.0926117866
C  C105  1  0.15660000  0.17440000  0.14220000  1.0 -0.3607218949
C  C106  1  0.06480000  0.32920000  0.07400000  1.0 -0.2283211414
C  C107  1  0.25580000  0.37980000  0.10360000  1.0 0.1098489897
C  C108  1  0.04550000  0.25050000  0.13700000  1.0 -0.2283211414
C  C109  1  0.17440000  0.15660000  0.35780000  1.0 -0.3607218949
C  C110  1  0.32920000  0.06480000  0.42600000  1.0 -0.2283211414
C  C111  1  0.37980000  0.25580000  0.39640000  1.0 0.1098489897
C  C112  1  0.25050000  0.04550000  0.36300000  1.0 -0.2283211414
C  C113  1  0.84340000  0.82560000  0.85780000  1.0 -0.3607218949
C  C114  1  0.93520000  0.67080000  0.92600000  1.0 -0.2283211414
C  C115  1  0.74420000  0.62020000  0.89640000  1.0 0.1098489897
C  C116  1  0.95450000  0.74950000  0.86300000  1.0 -0.2283211414
C  C117  1  0.82560000  0.84340000  0.64220000  1.0 -0.3607218949
C  C118  1  0.67080000  0.93520000  0.57400000  1.0 -0.2283211414
C  C119  1  0.62020000  0.74420000  0.60360000  1.0 0.1098489897
C  C120  1  0.74950000  0.95450000  0.63700000  1.0 -0.2283211414
N  N1  1  0.53090000  0.17190000  0.04990000  1.0 -0.2237399308
N  N2  1  0.17190000  0.53090000  0.45010000  1.0 -0.2237399308
N  N3  1  0.46910000  0.82810000  0.95010000  1.0 -0.2237399308
N  N4  1  0.82810000  0.46910000  0.54990000  1.0 -0.2237399308
N  N5  1  0.21600000  0.48260000  0.87300000  1.0 -0.2283211414
N  N6  1  0.48260000  0.21600000  0.62700000  1.0 -0.2283211414
N  N7  1  0.78400000  0.51740000  0.12700000  1.0 -0.2283211414
N  N8  1  0.51740000  0.78400000  0.37300000  1.0 -0.2283211414
N  N9  1  0.15720000  0.28720000  0.11620000  1.0 0.1098489897
N  N10  1  0.28720000  0.15720000  0.38380000  1.0 0.1098489897
N  N11  1  0.84280000  0.71280000  0.88380000  1.0 0.1098489897
N  N12  1  0.71280000  0.84280000  0.61620000  1.0 0.1098489897
O  O1  1  0.51510000  0.91750000  0.11880000  1.0 -0.5001753954
O  O2  1  0.91750000  0.51510000  0.38120000  1.0 -0.5001753954
O  O3  1  0.48490000  0.08250000  0.88120000  1.0 -0.5001753954
O  O4  1  0.08250000  0.48490000  0.61880000  1.0 -0.5001753954
O  O5  1  0.45881000  0.92859000  0.20430000  1.0 -0.5503259389
O  O6  1  0.92859000  0.45881000  0.29570000  1.0 -0.5503259389
O  O7  1  0.54119000  0.07141000  0.79570000  1.0 -0.5503259389
O  O8  1  0.07141000  0.54119000  0.70430000  1.0 -0.5503259389
O  O9  1  0.27773000  0.75427000  0.31620000  1.0 -0.5606721429
O  O10  1  0.75427000  0.27773000  0.18380000  1.0 -0.5606721429
O  O11  1  0.72227000  0.24573000  0.68380000  1.0 -0.5606721429
O  O12  1  0.24573000  0.72227000  0.81620000  1.0 -0.5606721429
O  O13  1  0.09796000  0.71244000  0.29090000  1.0 -0.5140173906
O  O14  1  0.71244000  0.09796000  0.20910000  1.0 -0.5140173906
O  O15  1  0.90204000  0.28756000  0.70910000  1.0 -0.5195027247
O  O16  1  0.28756000  0.90204000  0.79090000  1.0 -0.5140173906
O  O17  1  0.03500000  0.42700000  0.21730000  1.0 -0.5195027247
O  O18  1  0.42700000  0.03500000  0.28270000  1.0 -0.5195027247
O  O19  1  0.96500000  0.57300000  0.78270000  1.0 -0.5195027247
O  O20  1  0.57300000  0.96500000  0.71730000  1.0 -0.5195027247
O  O21  1  0.02480000  0.58320000  0.14510000  1.0 -0.4886162071
O  O22  1  0.58320000  0.02480000  0.35490000  1.0 -0.4886162071
O  O23  1  0.97520000  0.41680000  0.85490000  1.0 -0.4886162071
O  O24  1  0.41680000  0.97520000  0.64510000  1.0 -0.4886162071
O  O25  1  0.22940000  0.73540000  0.00610000  1.0 -0.5195027247
O  O26  1  0.73540000  0.22940000  0.49390000  1.0 -0.5195027247
O  O27  1  0.77060000  0.26460000  0.99390000  1.0 -0.5195027247
O  O28  1  0.26460000  0.77060000  0.50610000  1.0 -0.5195027247
O  O29  1  0.30200000  0.92180000  0.95700000  1.0 -0.5503259389
O  O30  1  0.92180000  0.30200000  0.54300000  1.0 -0.5503259389
O  O31  1  0.69800000  0.07820000  0.04300000  1.0 -0.5503259389
O  O32  1  0.07820000  0.69800000  0.45700000  1.0 -0.5503259389
O  O33  1  0.42900000  0.86280000  0.43880000  1.0 -0.5140173906
O  O34  1  0.86280000  0.42900000  0.06120000  1.0 -0.5140173906
O  O35  1  0.57100000  0.13720000  0.56120000  1.0 -0.5140173906
O  O36  1  0.13720000  0.57100000  0.93880000  1.0 -0.5140173906
O  O37  1  0.93550000  0.49710000  0.97780000  1.0 -0.3079267008
O  O38  1  0.49710000  0.93550000  0.52220000  1.0 -0.3079267008
O  O39  1  0.06450000  0.50290000  0.02220000  1.0 -0.3079267008
O  O40  1  0.50290000  0.06450000  0.47780000  1.0 -0.3079267008
O  O41  1  0.34540000  0.38640000  0.11780000  1.0 -0.4035092978
O  O42  1  0.38640000  0.34540000  0.38220000  1.0 -0.4035092978
O  O43  1  0.65460000  0.61360000  0.88220000  1.0 -0.4035092978
O  O44  1  0.61360000  0.65460000  0.61780000  1.0 -0.4035092978
