# DDEC6 charges by PACMAN v1.1 (https://github.com/mtap-research/PACMAN-charge/)
data_UBAVUR01_ASR_pacman
_symmetry_space_group_name_H-M   'P 1'
_cell_length_a   29.87960000
_cell_length_b   29.87960000
_cell_length_c   29.87960000
_cell_angle_alpha   109.47100000
_cell_angle_beta   109.47100000
_cell_angle_gamma   109.47100000
_symmetry_Int_Tables_number   1
_chemical_formula_structural   Fe2H76WC60(N4O3)4
_chemical_formula_sum   'Fe24 H912 W12 C720 N192 O144'
_cell_volume   20535.53371712
_cell_formula_units_Z   12
loop_
 _symmetry_equiv_pos_site_id
 _symmetry_equiv_pos_as_xyz
  1  'x, y, z'
loop_
 _atom_site_type_symbol
 _atom_site_label
 _atom_site_symmetry_multiplicity
 _atom_site_fract_x
 _atom_site_fract_y
 _atom_site_fract_z
 _atom_site_occupancy
 _atom_site_charge
Fe  Fe1  1  0.88388000  0.19194000  0.94194000  1.0 0.7047727553
Fe  Fe2  1  0.75000000  0.94194000  0.55806000  1.0 0.7047727553
Fe  Fe3  1  0.75000000  0.30806000  0.19194000  1.0 0.7047727553
Fe  Fe4  1  0.61612000  0.55806000  0.30806000  1.0 0.7047727553
Fe  Fe5  1  0.94194000  0.88388000  0.19194000  1.0 0.7047727553
Fe  Fe6  1  0.55806000  0.75000000  0.94194000  1.0 0.7047727553
Fe  Fe7  1  0.19194000  0.75000000  0.30806000  1.0 0.7047727553
Fe  Fe8  1  0.30806000  0.61612000  0.55806000  1.0 0.7047727553
Fe  Fe9  1  0.19194000  0.94194000  0.88388000  1.0 0.7047727553
Fe  Fe10  1  0.94194000  0.55806000  0.75000000  1.0 0.7047727553
Fe  Fe11  1  0.30806000  0.19194000  0.75000000  1.0 0.7047727553
Fe  Fe12  1  0.55806000  0.30806000  0.61612000  1.0 0.7047727553
Fe  Fe13  1  0.11612000  0.80806000  0.05806000  1.0 0.7047727553
Fe  Fe14  1  0.25000000  0.05806000  0.44194000  1.0 0.7047727553
Fe  Fe15  1  0.25000000  0.69194000  0.80806000  1.0 0.7047727553
Fe  Fe16  1  0.38388000  0.44194000  0.69194000  1.0 0.7047727553
Fe  Fe17  1  0.05806000  0.11612000  0.80806000  1.0 0.7047727553
Fe  Fe18  1  0.44194000  0.25000000  0.05806000  1.0 0.7047727553
Fe  Fe19  1  0.80806000  0.25000000  0.69194000  1.0 0.7047727553
Fe  Fe20  1  0.69194000  0.38388000  0.44194000  1.0 0.7047727553
Fe  Fe21  1  0.80806000  0.05806000  0.11612000  1.0 0.7047727553
Fe  Fe22  1  0.05806000  0.44194000  0.25000000  1.0 0.7047727553
Fe  Fe23  1  0.69194000  0.80806000  0.25000000  1.0 0.7047727553
Fe  Fe24  1  0.44194000  0.69194000  0.38388000  1.0 0.7047727553
H  H1  1  0.91650000  0.14480000  0.01510000  1.0 0.1103002115
H  H2  1  0.62970000  0.90140000  0.48490000  1.0 0.1103002115
H  H3  1  0.87030000  0.35520000  0.27170000  1.0 0.1103002115
H  H4  1  0.58350000  0.59860000  0.22830000  1.0 0.1103002115
H  H5  1  0.01510000  0.91650000  0.14480000  1.0 0.1103002115
H  H6  1  0.48490000  0.62970000  0.90140000  1.0 0.1103002115
H  H7  1  0.27170000  0.87030000  0.35520000  1.0 0.1103002115
H  H8  1  0.22830000  0.58350000  0.59860000  1.0 0.1103002115
H  H9  1  0.14480000  0.01510000  0.91650000  1.0 0.1103002115
H  H10  1  0.90140000  0.48490000  0.62970000  1.0 0.1103002115
H  H11  1  0.35520000  0.27170000  0.87030000  1.0 0.1103002115
H  H12  1  0.59860000  0.22830000  0.58350000  1.0 0.1103002115
H  H13  1  0.59860000  0.87030000  0.01510000  1.0 0.1103002115
H  H14  1  0.35520000  0.58350000  0.48490000  1.0 0.1103002115
H  H15  1  0.90140000  0.91650000  0.27170000  1.0 0.1103002115
H  H16  1  0.14480000  0.62970000  0.22830000  1.0 0.1103002115
H  H17  1  0.62970000  0.22830000  0.14480000  1.0 0.1103002115
H  H18  1  0.91650000  0.27170000  0.90140000  1.0 0.1103002115
H  H19  1  0.58350000  0.48490000  0.35520000  1.0 0.1103002115
H  H20  1  0.87030000  0.01510000  0.59860000  1.0 0.1103002115
H  H21  1  0.27170000  0.90140000  0.91650000  1.0 0.1103002115
H  H22  1  0.22830000  0.14480000  0.62970000  1.0 0.1103002115
H  H23  1  0.01510000  0.59860000  0.87030000  1.0 0.1103002115
H  H24  1  0.48490000  0.35520000  0.58350000  1.0 0.1103002115
H  H25  1  0.08350000  0.85520000  0.98490000  1.0 0.1103002115
H  H26  1  0.37030000  0.09860000  0.51510000  1.0 0.1103002115
H  H27  1  0.12970000  0.64480000  0.72830000  1.0 0.1103002115
H  H28  1  0.41650000  0.40140000  0.77170000  1.0 0.1103002115
H  H29  1  0.98490000  0.08350000  0.85520000  1.0 0.1103002115
H  H30  1  0.51510000  0.37030000  0.09860000  1.0 0.1103002115
H  H31  1  0.72830000  0.12970000  0.64480000  1.0 0.1103002115
H  H32  1  0.77170000  0.41650000  0.40140000  1.0 0.1103002115
H  H33  1  0.85520000  0.98490000  0.08350000  1.0 0.1103002115
H  H34  1  0.09860000  0.51510000  0.37030000  1.0 0.1103002115
H  H35  1  0.64480000  0.72830000  0.12970000  1.0 0.1103002115
H  H36  1  0.40140000  0.77170000  0.41650000  1.0 0.1103002115
H  H37  1  0.40140000  0.12970000  0.98490000  1.0 0.1103002115
H  H38  1  0.64480000  0.41650000  0.51510000  1.0 0.1103002115
H  H39  1  0.09860000  0.08350000  0.72830000  1.0 0.1103002115
H  H40  1  0.85520000  0.37030000  0.77170000  1.0 0.1103002115
H  H41  1  0.37030000  0.77170000  0.85520000  1.0 0.1103002115
H  H42  1  0.08350000  0.72830000  0.09860000  1.0 0.1103002115
H  H43  1  0.41650000  0.51510000  0.64480000  1.0 0.1103002115
H  H44  1  0.12970000  0.98490000  0.40140000  1.0 0.1103002115
H  H45  1  0.72830000  0.09860000  0.08350000  1.0 0.1103002115
H  H46  1  0.77170000  0.85520000  0.37030000  1.0 0.1103002115
H  H47  1  0.98490000  0.40140000  0.12970000  1.0 0.1103002115
H  H48  1  0.51510000  0.64480000  0.41650000  1.0 0.1103002115
H  H49  1  0.05240000  0.13700000  0.03020000  1.0 0.1039882756
H  H50  1  0.60680000  0.02220000  0.46980000  1.0 0.1039882756
H  H51  1  0.89320000  0.36300000  0.41540000  1.0 0.1039882756
H  H52  1  0.44760000  0.47780000  0.08460000  1.0 0.1039882756
H  H53  1  0.03020000  0.05240000  0.13700000  1.0 0.1039882756
H  H54  1  0.46980000  0.60680000  0.02220000  1.0 0.1039882756
H  H55  1  0.41540000  0.89320000  0.36300000  1.0 0.1039882756
H  H56  1  0.08460000  0.44760000  0.47780000  1.0 0.1039882756
H  H57  1  0.13700000  0.03020000  0.05240000  1.0 0.1039882756
H  H58  1  0.02220000  0.46980000  0.60680000  1.0 0.1039882756
H  H59  1  0.36300000  0.41540000  0.89320000  1.0 0.1039882756
H  H60  1  0.47780000  0.08460000  0.44760000  1.0 0.1039882756
H  H61  1  0.47780000  0.89320000  0.03020000  1.0 0.1039882756
H  H62  1  0.36300000  0.44760000  0.46980000  1.0 0.1039882756
H  H63  1  0.02220000  0.05240000  0.41540000  1.0 0.1039882756
H  H64  1  0.13700000  0.60680000  0.08460000  1.0 0.1039882756
H  H65  1  0.60680000  0.08460000  0.13700000  1.0 0.1039882756
H  H66  1  0.05240000  0.41540000  0.02220000  1.0 0.1039882756
H  H67  1  0.44760000  0.46980000  0.36300000  1.0 0.1039882756
H  H68  1  0.89320000  0.03020000  0.47780000  1.0 0.1039882756
H  H69  1  0.41540000  0.02220000  0.05240000  1.0 0.1039882756
H  H70  1  0.08460000  0.13700000  0.60680000  1.0 0.1039882756
H  H71  1  0.03020000  0.47780000  0.89320000  1.0 0.1039882756
H  H72  1  0.46980000  0.36300000  0.44760000  1.0 0.1039882756
H  H73  1  0.94760000  0.86300000  0.96980000  1.0 0.1039882756
H  H74  1  0.39320000  0.97780000  0.53020000  1.0 0.1039882756
H  H75  1  0.10680000  0.63700000  0.58460000  1.0 0.1039882756
H  H76  1  0.55240000  0.52220000  0.91540000  1.0 0.1039882756
H  H77  1  0.96980000  0.94760000  0.86300000  1.0 0.1039882756
H  H78  1  0.53020000  0.39320000  0.97780000  1.0 0.1039882756
H  H79  1  0.58460000  0.10680000  0.63700000  1.0 0.1039882756
H  H80  1  0.91540000  0.55240000  0.52220000  1.0 0.1039882756
H  H81  1  0.86300000  0.96980000  0.94760000  1.0 0.1039882756
H  H82  1  0.97780000  0.53020000  0.39320000  1.0 0.1039882756
H  H83  1  0.63700000  0.58460000  0.10680000  1.0 0.1039882756
H  H84  1  0.52220000  0.91540000  0.55240000  1.0 0.1039882756
H  H85  1  0.52220000  0.10680000  0.96980000  1.0 0.1039882756
H  H86  1  0.63700000  0.55240000  0.53020000  1.0 0.1039882756
H  H87  1  0.97780000  0.94760000  0.58460000  1.0 0.1039882756
H  H88  1  0.86300000  0.39320000  0.91540000  1.0 0.1039882756
H  H89  1  0.39320000  0.91540000  0.86300000  1.0 0.1039882756
H  H90  1  0.94760000  0.58460000  0.97780000  1.0 0.1039882756
H  H91  1  0.55240000  0.53020000  0.63700000  1.0 0.1039882756
H  H92  1  0.10680000  0.96980000  0.52220000  1.0 0.1039882756
H  H93  1  0.58460000  0.97780000  0.94760000  1.0 0.1039882756
H  H94  1  0.91540000  0.86300000  0.39320000  1.0 0.1039882756
H  H95  1  0.96980000  0.52220000  0.10680000  1.0 0.1039882756
H  H96  1  0.53020000  0.63700000  0.55240000  1.0 0.1039882756
H  H97  1  0.05230000  0.17200000  0.97050000  1.0 0.1180843235
H  H98  1  0.70150000  0.08180000  0.52950000  1.0 0.1180843235
H  H99  1  0.79850000  0.32800000  0.38030000  1.0 0.1180843235
H  H100  1  0.44770000  0.41820000  0.11970000  1.0 0.1180843235
H  H101  1  0.97050000  0.05230000  0.17200000  1.0 0.1180843235
H  H102  1  0.52950000  0.70150000  0.08180000  1.0 0.1180843235
H  H103  1  0.38030000  0.79850000  0.32800000  1.0 0.1180843235
H  H104  1  0.11970000  0.44770000  0.41820000  1.0 0.1180843235
H  H105  1  0.17200000  0.97050000  0.05230000  1.0 0.1180843235
H  H106  1  0.08180000  0.52950000  0.70150000  1.0 0.1180843235
H  H107  1  0.32800000  0.38030000  0.79850000  1.0 0.1180843235
H  H108  1  0.41820000  0.11970000  0.44770000  1.0 0.1180843235
H  H109  1  0.41820000  0.79850000  0.97050000  1.0 0.1180843235
H  H110  1  0.32800000  0.44770000  0.52950000  1.0 0.1180843235
H  H111  1  0.08180000  0.05230000  0.38030000  1.0 0.1180843235
H  H112  1  0.17200000  0.70150000  0.11970000  1.0 0.1180843235
H  H113  1  0.70150000  0.11970000  0.17200000  1.0 0.1180843235
H  H114  1  0.05230000  0.38030000  0.08180000  1.0 0.1180843235
H  H115  1  0.44770000  0.52950000  0.32800000  1.0 0.1180843235
H  H116  1  0.79850000  0.97050000  0.41820000  1.0 0.1180843235
H  H117  1  0.38030000  0.08180000  0.05230000  1.0 0.1180843235
H  H118  1  0.11970000  0.17200000  0.70150000  1.0 0.1180843235
H  H119  1  0.97050000  0.41820000  0.79850000  1.0 0.1180843235
H  H120  1  0.52950000  0.32800000  0.44770000  1.0 0.1180843235
H  H121  1  0.94770000  0.82800000  0.02950000  1.0 0.1180843235
H  H122  1  0.29850000  0.91820000  0.47050000  1.0 0.1180843235
H  H123  1  0.20150000  0.67200000  0.61970000  1.0 0.1180843235
H  H124  1  0.55230000  0.58180000  0.88030000  1.0 0.1180843235
H  H125  1  0.02950000  0.94770000  0.82800000  1.0 0.1180843235
H  H126  1  0.47050000  0.29850000  0.91820000  1.0 0.1180843235
H  H127  1  0.61970000  0.20150000  0.67200000  1.0 0.1180843235
H  H128  1  0.88030000  0.55230000  0.58180000  1.0 0.1180843235
H  H129  1  0.82800000  0.02950000  0.94770000  1.0 0.1180843235
H  H130  1  0.91820000  0.47050000  0.29850000  1.0 0.1180843235
H  H131  1  0.67200000  0.61970000  0.20150000  1.0 0.1180843235
H  H132  1  0.58180000  0.88030000  0.55230000  1.0 0.1180843235
H  H133  1  0.58180000  0.20150000  0.02950000  1.0 0.1180843235
H  H134  1  0.67200000  0.55230000  0.47050000  1.0 0.1180843235
H  H135  1  0.91820000  0.94770000  0.61970000  1.0 0.1180843235
H  H136  1  0.82800000  0.29850000  0.88030000  1.0 0.1180843235
H  H137  1  0.29850000  0.88030000  0.82800000  1.0 0.1180843235
H  H138  1  0.94770000  0.61970000  0.91820000  1.0 0.1180843235
H  H139  1  0.55230000  0.47050000  0.67200000  1.0 0.1180843235
H  H140  1  0.20150000  0.02950000  0.58180000  1.0 0.1180843235
H  H141  1  0.61970000  0.91820000  0.94770000  1.0 0.1180843235
H  H142  1  0.88030000  0.82800000  0.29850000  1.0 0.1180843235
H  H143  1  0.02950000  0.58180000  0.20150000  1.0 0.1180843235
H  H144  1  0.47050000  0.67200000  0.55230000  1.0 0.1180843235
H  H145  1  0.98600000  0.19440000  0.93740000  1.0 0.1103002115
H  H146  1  0.75700000  0.04860000  0.56260000  1.0 0.1103002115
H  H147  1  0.74300000  0.30560000  0.29160000  1.0 0.1103002115
H  H148  1  0.51400000  0.45140000  0.20840000  1.0 0.1103002115
H  H149  1  0.93740000  0.98600000  0.19440000  1.0 0.1103002115
H  H150  1  0.56260000  0.75700000  0.04860000  1.0 0.1103002115
H  H151  1  0.29160000  0.74300000  0.30560000  1.0 0.1103002115
H  H152  1  0.20840000  0.51400000  0.45140000  1.0 0.1103002115
H  H153  1  0.19440000  0.93740000  0.98600000  1.0 0.1103002115
H  H154  1  0.04860000  0.56260000  0.75700000  1.0 0.1103002115
H  H155  1  0.30560000  0.29160000  0.74300000  1.0 0.1103002115
H  H156  1  0.45140000  0.20840000  0.51400000  1.0 0.1103002115
H  H157  1  0.45140000  0.74300000  0.93740000  1.0 0.1103002115
H  H158  1  0.30560000  0.51400000  0.56260000  1.0 0.1103002115
H  H159  1  0.04860000  0.98600000  0.29160000  1.0 0.1103002115
H  H160  1  0.19440000  0.75700000  0.20840000  1.0 0.1103002115
H  H161  1  0.75700000  0.20840000  0.19440000  1.0 0.1103002115
H  H162  1  0.98600000  0.29160000  0.04860000  1.0 0.1103002115
H  H163  1  0.51400000  0.56260000  0.30560000  1.0 0.1103002115
H  H164  1  0.74300000  0.93740000  0.45140000  1.0 0.1103002115
H  H165  1  0.29160000  0.04860000  0.98600000  1.0 0.1103002115
H  H166  1  0.20840000  0.19440000  0.75700000  1.0 0.1103002115
H  H167  1  0.93740000  0.45140000  0.74300000  1.0 0.1103002115
H  H168  1  0.56260000  0.30560000  0.51400000  1.0 0.1103002115
H  H169  1  0.01400000  0.80560000  0.06260000  1.0 0.1103002115
H  H170  1  0.24300000  0.95140000  0.43740000  1.0 0.1103002115
H  H171  1  0.25700000  0.69440000  0.70840000  1.0 0.1103002115
H  H172  1  0.48600000  0.54860000  0.79160000  1.0 0.1103002115
H  H173  1  0.06260000  0.01400000  0.80560000  1.0 0.1103002115
H  H174  1  0.43740000  0.24300000  0.95140000  1.0 0.1103002115
H  H175  1  0.70840000  0.25700000  0.69440000  1.0 0.1103002115
H  H176  1  0.79160000  0.48600000  0.54860000  1.0 0.1103002115
H  H177  1  0.80560000  0.06260000  0.01400000  1.0 0.1103002115
H  H178  1  0.95140000  0.43740000  0.24300000  1.0 0.1103002115
H  H179  1  0.69440000  0.70840000  0.25700000  1.0 0.1103002115
H  H180  1  0.54860000  0.79160000  0.48600000  1.0 0.1103002115
H  H181  1  0.54860000  0.25700000  0.06260000  1.0 0.1103002115
H  H182  1  0.69440000  0.48600000  0.43740000  1.0 0.1103002115
H  H183  1  0.95140000  0.01400000  0.70840000  1.0 0.1103002115
H  H184  1  0.80560000  0.24300000  0.79160000  1.0 0.1103002115
H  H185  1  0.24300000  0.79160000  0.80560000  1.0 0.1103002115
H  H186  1  0.01400000  0.70840000  0.95140000  1.0 0.1103002115
H  H187  1  0.48600000  0.43740000  0.69440000  1.0 0.1103002115
H  H188  1  0.25700000  0.06260000  0.54860000  1.0 0.1103002115
H  H189  1  0.70840000  0.95140000  0.01400000  1.0 0.1103002115
H  H190  1  0.79160000  0.80560000  0.24300000  1.0 0.1103002115
H  H191  1  0.06260000  0.54860000  0.25700000  1.0 0.1103002115
H  H192  1  0.43740000  0.69440000  0.48600000  1.0 0.1103002115
H  H193  1  0.78410000  0.15280000  0.83250000  1.0 0.1103002115
H  H194  1  0.82030000  0.95160000  0.66750000  1.0 0.1103002115
H  H195  1  0.67970000  0.34720000  0.13130000  1.0 0.1103002115
H  H196  1  0.71590000  0.54840000  0.36870000  1.0 0.1103002115
H  H197  1  0.83250000  0.78410000  0.15280000  1.0 0.1103002115
H  H198  1  0.66750000  0.82030000  0.95160000  1.0 0.1103002115
H  H199  1  0.13130000  0.67970000  0.34720000  1.0 0.1103002115
H  H200  1  0.36870000  0.71590000  0.54840000  1.0 0.1103002115
H  H201  1  0.15280000  0.83250000  0.78410000  1.0 0.1103002115
H  H202  1  0.95160000  0.66750000  0.82030000  1.0 0.1103002115
H  H203  1  0.34720000  0.13130000  0.67970000  1.0 0.1103002115
H  H204  1  0.54840000  0.36870000  0.71590000  1.0 0.1103002115
H  H205  1  0.54840000  0.67970000  0.83250000  1.0 0.1103002115
H  H206  1  0.34720000  0.71590000  0.66750000  1.0 0.1103002115
H  H207  1  0.95160000  0.78410000  0.13130000  1.0 0.1103002115
H  H208  1  0.15280000  0.82030000  0.36870000  1.0 0.1103002115
H  H209  1  0.82030000  0.36870000  0.15280000  1.0 0.1103002115
H  H210  1  0.78410000  0.13130000  0.95160000  1.0 0.1103002115
H  H211  1  0.71590000  0.66750000  0.34720000  1.0 0.1103002115
H  H212  1  0.67970000  0.83250000  0.54840000  1.0 0.1103002115
H  H213  1  0.13130000  0.95160000  0.78410000  1.0 0.1103002115
H  H214  1  0.36870000  0.15280000  0.82030000  1.0 0.1103002115
H  H215  1  0.83250000  0.54840000  0.67970000  1.0 0.1103002115
H  H216  1  0.66750000  0.34720000  0.71590000  1.0 0.1103002115
H  H217  1  0.21590000  0.84720000  0.16750000  1.0 0.1103002115
H  H218  1  0.17970000  0.04840000  0.33250000  1.0 0.1103002115
H  H219  1  0.32030000  0.65280000  0.86870000  1.0 0.1103002115
H  H220  1  0.28410000  0.45160000  0.63130000  1.0 0.1103002115
H  H221  1  0.16750000  0.21590000  0.84720000  1.0 0.1103002115
H  H222  1  0.33250000  0.17970000  0.04840000  1.0 0.1103002115
H  H223  1  0.86870000  0.32030000  0.65280000  1.0 0.1103002115
H  H224  1  0.63130000  0.28410000  0.45160000  1.0 0.1103002115
H  H225  1  0.84720000  0.16750000  0.21590000  1.0 0.1103002115
H  H226  1  0.04840000  0.33250000  0.17970000  1.0 0.1103002115
H  H227  1  0.65280000  0.86870000  0.32030000  1.0 0.1103002115
H  H228  1  0.45160000  0.63130000  0.28410000  1.0 0.1103002115
H  H229  1  0.45160000  0.32030000  0.16750000  1.0 0.1103002115
H  H230  1  0.65280000  0.28410000  0.33250000  1.0 0.1103002115
H  H231  1  0.04840000  0.21590000  0.86870000  1.0 0.1103002115
H  H232  1  0.84720000  0.17970000  0.63130000  1.0 0.1103002115
H  H233  1  0.17970000  0.63130000  0.84720000  1.0 0.1103002115
H  H234  1  0.21590000  0.86870000  0.04840000  1.0 0.1103002115
H  H235  1  0.28410000  0.33250000  0.65280000  1.0 0.1103002115
H  H236  1  0.32030000  0.16750000  0.45160000  1.0 0.1103002115
H  H237  1  0.86870000  0.04840000  0.21590000  1.0 0.1103002115
H  H238  1  0.63130000  0.84720000  0.17970000  1.0 0.1103002115
H  H239  1  0.16750000  0.45160000  0.32030000  1.0 0.1103002115
H  H240  1  0.33250000  0.65280000  0.28410000  1.0 0.1103002115
H  H241  1  0.69980000  0.22820000  0.86500000  1.0 0.1039882756
H  H242  1  0.86320000  0.83480000  0.63500000  1.0 0.1039882756
H  H243  1  0.63680000  0.27180000  0.97160000  1.0 0.1039882756
H  H244  1  0.80020000  0.66520000  0.52840000  1.0 0.1039882756
H  H245  1  0.86500000  0.69980000  0.22820000  1.0 0.1039882756
H  H246  1  0.63500000  0.86320000  0.83480000  1.0 0.1039882756
H  H247  1  0.97160000  0.63680000  0.27180000  1.0 0.1039882756
H  H248  1  0.52840000  0.80020000  0.66520000  1.0 0.1039882756
H  H249  1  0.22820000  0.86500000  0.69980000  1.0 0.1039882756
H  H250  1  0.83480000  0.63500000  0.86320000  1.0 0.1039882756
H  H251  1  0.27180000  0.97160000  0.63680000  1.0 0.1039882756
H  H252  1  0.66520000  0.52840000  0.80020000  1.0 0.1039882756
H  H253  1  0.66520000  0.63680000  0.86500000  1.0 0.1039882756
H  H254  1  0.27180000  0.80020000  0.63500000  1.0 0.1039882756
H  H255  1  0.83480000  0.69980000  0.97160000  1.0 0.1039882756
H  H256  1  0.22820000  0.86320000  0.52840000  1.0 0.1039882756
H  H257  1  0.86320000  0.52840000  0.22820000  1.0 0.1039882756
H  H258  1  0.69980000  0.97160000  0.83480000  1.0 0.1039882756
H  H259  1  0.80020000  0.63500000  0.27180000  1.0 0.1039882756
H  H260  1  0.63680000  0.86500000  0.66520000  1.0 0.1039882756
H  H261  1  0.97160000  0.83480000  0.69980000  1.0 0.1039882756
H  H262  1  0.52840000  0.22820000  0.86320000  1.0 0.1039882756
H  H263  1  0.86500000  0.66520000  0.63680000  1.0 0.1039882756
H  H264  1  0.63500000  0.27180000  0.80020000  1.0 0.1039882756
H  H265  1  0.30020000  0.77180000  0.13500000  1.0 0.1039882756
H  H266  1  0.13680000  0.16520000  0.36500000  1.0 0.1039882756
H  H267  1  0.36320000  0.72820000  0.02840000  1.0 0.1039882756
H  H268  1  0.19980000  0.33480000  0.47160000  1.0 0.1039882756
H  H269  1  0.13500000  0.30020000  0.77180000  1.0 0.1039882756
H  H270  1  0.36500000  0.13680000  0.16520000  1.0 0.1039882756
H  H271  1  0.02840000  0.36320000  0.72820000  1.0 0.1039882756
H  H272  1  0.47160000  0.19980000  0.33480000  1.0 0.1039882756
H  H273  1  0.77180000  0.13500000  0.30020000  1.0 0.1039882756
H  H274  1  0.16520000  0.36500000  0.13680000  1.0 0.1039882756
H  H275  1  0.72820000  0.02840000  0.36320000  1.0 0.1039882756
H  H276  1  0.33480000  0.47160000  0.19980000  1.0 0.1039882756
H  H277  1  0.33480000  0.36320000  0.13500000  1.0 0.1039882756
H  H278  1  0.72820000  0.19980000  0.36500000  1.0 0.1039882756
H  H279  1  0.16520000  0.30020000  0.02840000  1.0 0.1039882756
H  H280  1  0.77180000  0.13680000  0.47160000  1.0 0.1039882756
H  H281  1  0.13680000  0.47160000  0.77180000  1.0 0.1039882756
H  H282  1  0.30020000  0.02840000  0.16520000  1.0 0.1039882756
H  H283  1  0.19980000  0.36500000  0.72820000  1.0 0.1039882756
H  H284  1  0.36320000  0.13500000  0.33480000  1.0 0.1039882756
H  H285  1  0.02840000  0.16520000  0.30020000  1.0 0.1039882756
H  H286  1  0.47160000  0.77180000  0.13680000  1.0 0.1039882756
H  H287  1  0.13500000  0.33480000  0.36320000  1.0 0.1039882756
H  H288  1  0.36500000  0.72820000  0.19980000  1.0 0.1039882756
H  H289  1  0.76720000  0.28060000  0.95360000  1.0 0.1285747189
H  H290  1  0.82700000  0.81360000  0.54640000  1.0 0.1285747189
H  H291  1  0.67300000  0.21940000  0.98660000  1.0 0.1285747189
H  H292  1  0.73280000  0.68640000  0.51340000  1.0 0.1285747189
H  H293  1  0.95360000  0.76720000  0.28060000  1.0 0.1285747189
H  H294  1  0.54640000  0.82700000  0.81360000  1.0 0.1285747189
H  H295  1  0.98660000  0.67300000  0.21940000  1.0 0.1285747189
H  H296  1  0.51340000  0.73280000  0.68640000  1.0 0.1285747189
H  H297  1  0.28060000  0.95360000  0.76720000  1.0 0.1285747189
H  H298  1  0.81360000  0.54640000  0.82700000  1.0 0.1285747189
H  H299  1  0.21940000  0.98660000  0.67300000  1.0 0.1285747189
H  H300  1  0.68640000  0.51340000  0.73280000  1.0 0.1285747189
H  H301  1  0.68640000  0.67300000  0.95360000  1.0 0.1285747189
H  H302  1  0.21940000  0.73280000  0.54640000  1.0 0.1285747189
H  H303  1  0.81360000  0.76720000  0.98660000  1.0 0.1285747189
H  H304  1  0.28060000  0.82700000  0.51340000  1.0 0.1285747189
H  H305  1  0.82700000  0.51340000  0.28060000  1.0 0.1285747189
H  H306  1  0.76720000  0.98660000  0.81360000  1.0 0.1285747189
H  H307  1  0.73280000  0.54640000  0.21940000  1.0 0.1285747189
H  H308  1  0.67300000  0.95360000  0.68640000  1.0 0.1285747189
H  H309  1  0.98660000  0.81360000  0.76720000  1.0 0.1285747189
H  H310  1  0.51340000  0.28060000  0.82700000  1.0 0.1285747189
H  H311  1  0.95360000  0.68640000  0.67300000  1.0 0.1285747189
H  H312  1  0.54640000  0.21940000  0.73280000  1.0 0.1285747189
H  H313  1  0.23280000  0.71940000  0.04640000  1.0 0.1285747189
H  H314  1  0.17300000  0.18640000  0.45360000  1.0 0.1285747189
H  H315  1  0.32700000  0.78060000  0.01340000  1.0 0.1285747189
H  H316  1  0.26720000  0.31360000  0.48660000  1.0 0.1285747189
H  H317  1  0.04640000  0.23280000  0.71940000  1.0 0.1285747189
H  H318  1  0.45360000  0.17300000  0.18640000  1.0 0.1285747189
H  H319  1  0.01340000  0.32700000  0.78060000  1.0 0.1285747189
H  H320  1  0.48660000  0.26720000  0.31360000  1.0 0.1285747189
H  H321  1  0.71940000  0.04640000  0.23280000  1.0 0.1285747189
H  H322  1  0.18640000  0.45360000  0.17300000  1.0 0.1285747189
H  H323  1  0.78060000  0.01340000  0.32700000  1.0 0.1285747189
H  H324  1  0.31360000  0.48660000  0.26720000  1.0 0.1285747189
H  H325  1  0.31360000  0.32700000  0.04640000  1.0 0.1285747189
H  H326  1  0.78060000  0.26720000  0.45360000  1.0 0.1285747189
H  H327  1  0.18640000  0.23280000  0.01340000  1.0 0.1285747189
H  H328  1  0.71940000  0.17300000  0.48660000  1.0 0.1285747189
H  H329  1  0.17300000  0.48660000  0.71940000  1.0 0.1285747189
H  H330  1  0.23280000  0.01340000  0.18640000  1.0 0.1285747189
H  H331  1  0.26720000  0.45360000  0.78060000  1.0 0.1285747189
H  H332  1  0.32700000  0.04640000  0.31360000  1.0 0.1285747189
H  H333  1  0.01340000  0.18640000  0.23280000  1.0 0.1285747189
H  H334  1  0.48660000  0.71940000  0.17300000  1.0 0.1285747189
H  H335  1  0.04640000  0.31360000  0.32700000  1.0 0.1285747189
H  H336  1  0.45360000  0.78060000  0.26720000  1.0 0.1285747189
H  H337  1  0.84330000  0.27150000  0.98280000  1.0 0.1039882756
H  H338  1  0.78870000  0.86050000  0.51720000  1.0 0.1039882756
H  H339  1  0.71130000  0.22850000  0.07180000  1.0 0.1039882756
H  H340  1  0.65670000  0.63950000  0.42820000  1.0 0.1039882756
H  H341  1  0.98280000  0.84330000  0.27150000  1.0 0.1039882756
H  H342  1  0.51720000  0.78870000  0.86050000  1.0 0.1039882756
H  H343  1  0.07180000  0.71130000  0.22850000  1.0 0.1039882756
H  H344  1  0.42820000  0.65670000  0.63950000  1.0 0.1039882756
H  H345  1  0.27150000  0.98280000  0.84330000  1.0 0.1039882756
H  H346  1  0.86050000  0.51720000  0.78870000  1.0 0.1039882756
H  H347  1  0.22850000  0.07180000  0.71130000  1.0 0.1039882756
H  H348  1  0.63950000  0.42820000  0.65670000  1.0 0.1039882756
H  H349  1  0.63950000  0.71130000  0.98280000  1.0 0.1039882756
H  H350  1  0.22850000  0.65670000  0.51720000  1.0 0.1039882756
H  H351  1  0.86050000  0.84330000  0.07180000  1.0 0.1039882756
H  H352  1  0.27150000  0.78870000  0.42820000  1.0 0.1039882756
H  H353  1  0.78870000  0.42820000  0.27150000  1.0 0.1039882756
H  H354  1  0.84330000  0.07180000  0.86050000  1.0 0.1039882756
H  H355  1  0.65670000  0.51720000  0.22850000  1.0 0.1039882756
H  H356  1  0.71130000  0.98280000  0.63950000  1.0 0.1039882756
H  H357  1  0.07180000  0.86050000  0.84330000  1.0 0.1039882756
H  H358  1  0.42820000  0.27150000  0.78870000  1.0 0.1039882756
H  H359  1  0.98280000  0.63950000  0.71130000  1.0 0.1039882756
H  H360  1  0.51720000  0.22850000  0.65670000  1.0 0.1039882756
H  H361  1  0.15670000  0.72850000  0.01720000  1.0 0.1039882756
H  H362  1  0.21130000  0.13950000  0.48280000  1.0 0.1039882756
H  H363  1  0.28870000  0.77150000  0.92820000  1.0 0.1039882756
H  H364  1  0.34330000  0.36050000  0.57180000  1.0 0.1039882756
H  H365  1  0.01720000  0.15670000  0.72850000  1.0 0.1039882756
H  H366  1  0.48280000  0.21130000  0.13950000  1.0 0.1039882756
H  H367  1  0.92820000  0.28870000  0.77150000  1.0 0.1039882756
H  H368  1  0.57180000  0.34330000  0.36050000  1.0 0.1039882756
H  H369  1  0.72850000  0.01720000  0.15670000  1.0 0.1039882756
H  H370  1  0.13950000  0.48280000  0.21130000  1.0 0.1039882756
H  H371  1  0.77150000  0.92820000  0.28870000  1.0 0.1039882756
H  H372  1  0.36050000  0.57180000  0.34330000  1.0 0.1039882756
H  H373  1  0.36050000  0.28870000  0.01720000  1.0 0.1039882756
H  H374  1  0.77150000  0.34330000  0.48280000  1.0 0.1039882756
H  H375  1  0.13950000  0.15670000  0.92820000  1.0 0.1039882756
H  H376  1  0.72850000  0.21130000  0.57180000  1.0 0.1039882756
H  H377  1  0.21130000  0.57180000  0.72850000  1.0 0.1039882756
H  H378  1  0.15670000  0.92820000  0.13950000  1.0 0.1039882756
H  H379  1  0.34330000  0.48280000  0.77150000  1.0 0.1039882756
H  H380  1  0.28870000  0.01720000  0.36050000  1.0 0.1039882756
H  H381  1  0.92820000  0.13950000  0.15670000  1.0 0.1039882756
H  H382  1  0.57180000  0.72850000  0.21130000  1.0 0.1039882756
H  H383  1  0.01720000  0.36050000  0.28870000  1.0 0.1039882756
H  H384  1  0.48280000  0.77150000  0.34330000  1.0 0.1039882756
H  H385  1  0.99060000  0.14770000  0.10250000  1.0 0.089401673
H  H386  1  0.54520000  0.88810000  0.39750000  1.0 0.089401673
H  H387  1  0.95480000  0.35230000  0.34290000  1.0 0.089401673
H  H388  1  0.50940000  0.61190000  0.15710000  1.0 0.089401673
H  H389  1  0.10250000  0.99060000  0.14770000  1.0 0.089401673
H  H390  1  0.39750000  0.54520000  0.88810000  1.0 0.089401673
H  H391  1  0.34290000  0.95480000  0.35230000  1.0 0.089401673
H  H392  1  0.15710000  0.50940000  0.61190000  1.0 0.089401673
H  H393  1  0.14770000  0.10250000  0.99060000  1.0 0.089401673
H  H394  1  0.88810000  0.39750000  0.54520000  1.0 0.089401673
H  H395  1  0.35230000  0.34290000  0.95480000  1.0 0.089401673
H  H396  1  0.61190000  0.15710000  0.50940000  1.0 0.089401673
H  H397  1  0.61190000  0.95480000  0.10250000  1.0 0.089401673
H  H398  1  0.35230000  0.50940000  0.39750000  1.0 0.089401673
H  H399  1  0.88810000  0.99060000  0.34290000  1.0 0.089401673
H  H400  1  0.14770000  0.54520000  0.15710000  1.0 0.089401673
H  H401  1  0.54520000  0.15710000  0.14770000  1.0 0.089401673
H  H402  1  0.99060000  0.34290000  0.88810000  1.0 0.089401673
H  H403  1  0.50940000  0.39750000  0.35230000  1.0 0.089401673
H  H404  1  0.95480000  0.10250000  0.61190000  1.0 0.089401673
H  H405  1  0.34290000  0.88810000  0.99060000  1.0 0.089401673
H  H406  1  0.15710000  0.14770000  0.54520000  1.0 0.089401673
H  H407  1  0.10250000  0.61190000  0.95480000  1.0 0.089401673
H  H408  1  0.39750000  0.35230000  0.50940000  1.0 0.089401673
H  H409  1  0.00940000  0.85230000  0.89750000  1.0 0.089401673
H  H410  1  0.45480000  0.11190000  0.60250000  1.0 0.089401673
H  H411  1  0.04520000  0.64770000  0.65710000  1.0 0.089401673
H  H412  1  0.49060000  0.38810000  0.84290000  1.0 0.089401673
H  H413  1  0.89750000  0.00940000  0.85230000  1.0 0.089401673
H  H414  1  0.60250000  0.45480000  0.11190000  1.0 0.089401673
H  H415  1  0.65710000  0.04520000  0.64770000  1.0 0.089401673
H  H416  1  0.84290000  0.49060000  0.38810000  1.0 0.089401673
H  H417  1  0.85230000  0.89750000  0.00940000  1.0 0.089401673
H  H418  1  0.11190000  0.60250000  0.45480000  1.0 0.089401673
H  H419  1  0.64770000  0.65710000  0.04520000  1.0 0.089401673
H  H420  1  0.38810000  0.84290000  0.49060000  1.0 0.089401673
H  H421  1  0.38810000  0.04520000  0.89750000  1.0 0.089401673
H  H422  1  0.64770000  0.49060000  0.60250000  1.0 0.089401673
H  H423  1  0.11190000  0.00940000  0.65710000  1.0 0.089401673
H  H424  1  0.85230000  0.45480000  0.84290000  1.0 0.089401673
H  H425  1  0.45480000  0.84290000  0.85230000  1.0 0.089401673
H  H426  1  0.00940000  0.65710000  0.11190000  1.0 0.089401673
H  H427  1  0.49060000  0.60250000  0.64770000  1.0 0.089401673
H  H428  1  0.04520000  0.89750000  0.38810000  1.0 0.089401673
H  H429  1  0.65710000  0.11190000  0.00940000  1.0 0.089401673
H  H430  1  0.84290000  0.85230000  0.45480000  1.0 0.089401673
H  H431  1  0.89750000  0.38810000  0.04520000  1.0 0.089401673
H  H432  1  0.60250000  0.64770000  0.49060000  1.0 0.089401673
H  H433  1  0.94810000  0.08770000  0.05540000  1.0 0.037615057
H  H434  1  0.53230000  0.89270000  0.44460000  1.0 0.037615057
H  H435  1  0.96770000  0.41230000  0.36040000  1.0 0.037615057
H  H436  1  0.55190000  0.60730000  0.13960000  1.0 0.037615057
H  H437  1  0.05540000  0.94810000  0.08770000  1.0 0.037615057
H  H438  1  0.44460000  0.53230000  0.89270000  1.0 0.037615057
H  H439  1  0.36040000  0.96770000  0.41230000  1.0 0.037615057
H  H440  1  0.13960000  0.55190000  0.60730000  1.0 0.037615057
H  H441  1  0.08770000  0.05540000  0.94810000  1.0 0.037615057
H  H442  1  0.89270000  0.44460000  0.53230000  1.0 0.037615057
H  H443  1  0.41230000  0.36040000  0.96770000  1.0 0.037615057
H  H444  1  0.60730000  0.13960000  0.55190000  1.0 0.037615057
H  H445  1  0.60730000  0.96770000  0.05540000  1.0 0.037615057
H  H446  1  0.41230000  0.55190000  0.44460000  1.0 0.037615057
H  H447  1  0.89270000  0.94810000  0.36040000  1.0 0.037615057
H  H448  1  0.08770000  0.53230000  0.13960000  1.0 0.037615057
H  H449  1  0.53230000  0.13960000  0.08770000  1.0 0.037615057
H  H450  1  0.94810000  0.36040000  0.89270000  1.0 0.037615057
H  H451  1  0.55190000  0.44460000  0.41230000  1.0 0.037615057
H  H452  1  0.96770000  0.05540000  0.60730000  1.0 0.037615057
H  H453  1  0.36040000  0.89270000  0.94810000  1.0 0.037615057
H  H454  1  0.13960000  0.08770000  0.53230000  1.0 0.037615057
H  H455  1  0.05540000  0.60730000  0.96770000  1.0 0.037615057
H  H456  1  0.44460000  0.41230000  0.55190000  1.0 0.037615057
H  H457  1  0.05190000  0.91230000  0.94460000  1.0 0.037615057
H  H458  1  0.46770000  0.10730000  0.55540000  1.0 0.037615057
H  H459  1  0.03230000  0.58770000  0.63960000  1.0 0.037615057
H  H460  1  0.44810000  0.39270000  0.86040000  1.0 0.037615057
H  H461  1  0.94460000  0.05190000  0.91230000  1.0 0.037615057
H  H462  1  0.55540000  0.46770000  0.10730000  1.0 0.037615057
H  H463  1  0.63960000  0.03230000  0.58770000  1.0 0.037615057
H  H464  1  0.86040000  0.44810000  0.39270000  1.0 0.037615057
H  H465  1  0.91230000  0.94460000  0.05190000  1.0 0.037615057
H  H466  1  0.10730000  0.55540000  0.46770000  1.0 0.037615057
H  H467  1  0.58770000  0.63960000  0.03230000  1.0 0.037615057
H  H468  1  0.39270000  0.86040000  0.44810000  1.0 0.037615057
H  H469  1  0.39270000  0.03230000  0.94460000  1.0 0.037615057
H  H470  1  0.58770000  0.44810000  0.55540000  1.0 0.037615057
H  H471  1  0.10730000  0.05190000  0.63960000  1.0 0.037615057
H  H472  1  0.91230000  0.46770000  0.86040000  1.0 0.037615057
H  H473  1  0.46770000  0.86040000  0.91230000  1.0 0.037615057
H  H474  1  0.05190000  0.63960000  0.10730000  1.0 0.037615057
H  H475  1  0.44810000  0.55540000  0.58770000  1.0 0.037615057
H  H476  1  0.03230000  0.94460000  0.39270000  1.0 0.037615057
H  H477  1  0.63960000  0.10730000  0.05190000  1.0 0.037615057
H  H478  1  0.86040000  0.91230000  0.46770000  1.0 0.037615057
H  H479  1  0.94460000  0.39270000  0.03230000  1.0 0.037615057
H  H480  1  0.55540000  0.58770000  0.44810000  1.0 0.037615057
H  H481  1  0.65270000  0.15080000  0.78950000  1.0 0.089401673
H  H482  1  0.86130000  0.86320000  0.71050000  1.0 0.089401673
H  H483  1  0.63870000  0.34920000  0.00190000  1.0 0.089401673
H  H484  1  0.84730000  0.63680000  0.49810000  1.0 0.089401673
H  H485  1  0.78950000  0.65270000  0.15080000  1.0 0.089401673
H  H486  1  0.71050000  0.86130000  0.86320000  1.0 0.089401673
H  H487  1  0.00190000  0.63870000  0.34920000  1.0 0.089401673
H  H488  1  0.49810000  0.84730000  0.63680000  1.0 0.089401673
H  H489  1  0.15080000  0.78950000  0.65270000  1.0 0.089401673
H  H490  1  0.86320000  0.71050000  0.86130000  1.0 0.089401673
H  H491  1  0.34920000  0.00190000  0.63870000  1.0 0.089401673
H  H492  1  0.63680000  0.49810000  0.84730000  1.0 0.089401673
H  H493  1  0.63680000  0.63870000  0.78950000  1.0 0.089401673
H  H494  1  0.34920000  0.84730000  0.71050000  1.0 0.089401673
H  H495  1  0.86320000  0.65270000  0.00190000  1.0 0.089401673
H  H496  1  0.15080000  0.86130000  0.49810000  1.0 0.089401673
H  H497  1  0.86130000  0.49810000  0.15080000  1.0 0.089401673
H  H498  1  0.65270000  0.00190000  0.86320000  1.0 0.089401673
H  H499  1  0.84730000  0.71050000  0.34920000  1.0 0.089401673
H  H500  1  0.63870000  0.78950000  0.63680000  1.0 0.089401673
H  H501  1  0.00190000  0.86320000  0.65270000  1.0 0.089401673
H  H502  1  0.49810000  0.15080000  0.86130000  1.0 0.089401673
H  H503  1  0.78950000  0.63680000  0.63870000  1.0 0.089401673
H  H504  1  0.71050000  0.34920000  0.84730000  1.0 0.089401673
H  H505  1  0.34730000  0.84920000  0.21050000  1.0 0.089401673
H  H506  1  0.13870000  0.13680000  0.28950000  1.0 0.089401673
H  H507  1  0.36130000  0.65080000  0.99810000  1.0 0.089401673
H  H508  1  0.15270000  0.36320000  0.50190000  1.0 0.089401673
H  H509  1  0.21050000  0.34730000  0.84920000  1.0 0.089401673
H  H510  1  0.28950000  0.13870000  0.13680000  1.0 0.089401673
H  H511  1  0.99810000  0.36130000  0.65080000  1.0 0.089401673
H  H512  1  0.50190000  0.15270000  0.36320000  1.0 0.089401673
H  H513  1  0.84920000  0.21050000  0.34730000  1.0 0.089401673
H  H514  1  0.13680000  0.28950000  0.13870000  1.0 0.089401673
H  H515  1  0.65080000  0.99810000  0.36130000  1.0 0.089401673
H  H516  1  0.36320000  0.50190000  0.15270000  1.0 0.089401673
H  H517  1  0.36320000  0.36130000  0.21050000  1.0 0.089401673
H  H518  1  0.65080000  0.15270000  0.28950000  1.0 0.089401673
H  H519  1  0.13680000  0.34730000  0.99810000  1.0 0.089401673
H  H520  1  0.84920000  0.13870000  0.50190000  1.0 0.089401673
H  H521  1  0.13870000  0.50190000  0.84920000  1.0 0.089401673
H  H522  1  0.34730000  0.99810000  0.13680000  1.0 0.089401673
H  H523  1  0.15270000  0.28950000  0.65080000  1.0 0.089401673
H  H524  1  0.36130000  0.21050000  0.36320000  1.0 0.089401673
H  H525  1  0.99810000  0.13680000  0.34730000  1.0 0.089401673
H  H526  1  0.50190000  0.84920000  0.13870000  1.0 0.089401673
H  H527  1  0.21050000  0.36320000  0.36130000  1.0 0.089401673
H  H528  1  0.28950000  0.65080000  0.15270000  1.0 0.089401673
H  H529  1  0.68880000  0.16440000  0.76120000  1.0 0.0715918802
H  H530  1  0.90320000  0.92760000  0.73880000  1.0 0.0715918802
H  H531  1  0.59680000  0.33560000  0.02440000  1.0 0.0715918802
H  H532  1  0.81120000  0.57240000  0.47560000  1.0 0.0715918802
H  H533  1  0.76120000  0.68880000  0.16440000  1.0 0.0715918802
H  H534  1  0.73880000  0.90320000  0.92760000  1.0 0.0715918802
H  H535  1  0.02440000  0.59680000  0.33560000  1.0 0.0715918802
H  H536  1  0.47560000  0.81120000  0.57240000  1.0 0.0715918802
H  H537  1  0.16440000  0.76120000  0.68880000  1.0 0.0715918802
H  H538  1  0.92760000  0.73880000  0.90320000  1.0 0.0715918802
H  H539  1  0.33560000  0.02440000  0.59680000  1.0 0.0715918802
H  H540  1  0.57240000  0.47560000  0.81120000  1.0 0.0715918802
H  H541  1  0.57240000  0.59680000  0.76120000  1.0 0.0715918802
H  H542  1  0.33560000  0.81120000  0.73880000  1.0 0.0715918802
H  H543  1  0.92760000  0.68880000  0.02440000  1.0 0.0715918802
H  H544  1  0.16440000  0.90320000  0.47560000  1.0 0.0715918802
H  H545  1  0.90320000  0.47560000  0.16440000  1.0 0.0715918802
H  H546  1  0.68880000  0.02440000  0.92760000  1.0 0.0715918802
H  H547  1  0.81120000  0.73880000  0.33560000  1.0 0.0715918802
H  H548  1  0.59680000  0.76120000  0.57240000  1.0 0.0715918802
H  H549  1  0.02440000  0.92760000  0.68880000  1.0 0.0715918802
H  H550  1  0.47560000  0.16440000  0.90320000  1.0 0.0715918802
H  H551  1  0.76120000  0.57240000  0.59680000  1.0 0.0715918802
H  H552  1  0.73880000  0.33560000  0.81120000  1.0 0.0715918802
H  H553  1  0.31120000  0.83560000  0.23880000  1.0 0.0715918802
H  H554  1  0.09680000  0.07240000  0.26120000  1.0 0.0715918802
H  H555  1  0.40320000  0.66440000  0.97560000  1.0 0.0715918802
H  H556  1  0.18880000  0.42760000  0.52440000  1.0 0.0715918802
H  H557  1  0.23880000  0.31120000  0.83560000  1.0 0.0715918802
H  H558  1  0.26120000  0.09680000  0.07240000  1.0 0.0715918802
H  H559  1  0.97560000  0.40320000  0.66440000  1.0 0.0715918802
H  H560  1  0.52440000  0.18880000  0.42760000  1.0 0.0715918802
H  H561  1  0.83560000  0.23880000  0.31120000  1.0 0.0766206809
H  H562  1  0.07240000  0.26120000  0.09680000  1.0 0.0715918802
H  H563  1  0.66440000  0.97560000  0.40320000  1.0 0.0715918802
H  H564  1  0.42760000  0.52440000  0.18880000  1.0 0.0715918802
H  H565  1  0.42760000  0.40320000  0.23880000  1.0 0.0715918802
H  H566  1  0.66440000  0.18880000  0.26120000  1.0 0.0715918802
H  H567  1  0.07240000  0.31120000  0.97560000  1.0 0.0715918802
H  H568  1  0.83560000  0.09680000  0.52440000  1.0 0.0715918802
H  H569  1  0.09680000  0.52440000  0.83560000  1.0 0.0715918802
H  H570  1  0.31120000  0.97560000  0.07240000  1.0 0.0715918802
H  H571  1  0.18880000  0.26120000  0.66440000  1.0 0.0715918802
H  H572  1  0.40320000  0.23880000  0.42760000  1.0 0.0715918802
H  H573  1  0.97560000  0.07240000  0.31120000  1.0 0.0715918802
H  H574  1  0.52440000  0.83560000  0.09680000  1.0 0.0715918802
H  H575  1  0.23880000  0.42760000  0.40320000  1.0 0.0715918802
H  H576  1  0.26120000  0.66440000  0.18880000  1.0 0.0715918802
H  H577  1  0.67300000  0.06500000  0.75200000  1.0 0.3438179224
H  H578  1  0.81300000  0.92100000  0.74800000  1.0 0.3438179224
H  H579  1  0.68700000  0.43500000  0.10800000  1.0 0.3438179224
H  H580  1  0.82700000  0.57900000  0.39200000  1.0 0.3438179224
H  H581  1  0.75200000  0.67300000  0.06500000  1.0 0.3438179224
H  H582  1  0.74800000  0.81300000  0.92100000  1.0 0.3438179224
H  H583  1  0.10800000  0.68700000  0.43500000  1.0 0.3438179224
H  H584  1  0.39200000  0.82700000  0.57900000  1.0 0.3438179224
H  H585  1  0.06500000  0.75200000  0.67300000  1.0 0.3438179224
H  H586  1  0.92100000  0.74800000  0.81300000  1.0 0.3438179224
H  H587  1  0.43500000  0.10800000  0.68700000  1.0 0.3438179224
H  H588  1  0.57900000  0.39200000  0.82700000  1.0 0.3438179224
H  H589  1  0.57900000  0.68700000  0.75200000  1.0 0.3438179224
H  H590  1  0.43500000  0.82700000  0.74800000  1.0 0.3438179224
H  H591  1  0.92100000  0.67300000  0.10800000  1.0 0.3438179224
H  H592  1  0.06500000  0.81300000  0.39200000  1.0 0.3438179224
H  H593  1  0.81300000  0.39200000  0.06500000  1.0 0.3438179224
H  H594  1  0.67300000  0.10800000  0.92100000  1.0 0.3438179224
H  H595  1  0.82700000  0.74800000  0.43500000  1.0 0.3438179224
H  H596  1  0.68700000  0.75200000  0.57900000  1.0 0.3438179224
H  H597  1  0.10800000  0.92100000  0.67300000  1.0 0.3438179224
H  H598  1  0.39200000  0.06500000  0.81300000  1.0 0.3438179224
H  H599  1  0.75200000  0.57900000  0.68700000  1.0 0.3438179224
H  H600  1  0.74800000  0.43500000  0.82700000  1.0 0.3438179224
H  H601  1  0.32700000  0.93500000  0.24800000  1.0 0.3438179224
H  H602  1  0.18700000  0.07900000  0.25200000  1.0 0.3438179224
H  H603  1  0.31300000  0.56500000  0.89200000  1.0 0.3438179224
H  H604  1  0.17300000  0.42100000  0.60800000  1.0 0.3438179224
H  H605  1  0.24800000  0.32700000  0.93500000  1.0 0.3438179224
H  H606  1  0.25200000  0.18700000  0.07900000  1.0 0.3438179224
H  H607  1  0.89200000  0.31300000  0.56500000  1.0 0.3438179224
H  H608  1  0.60800000  0.17300000  0.42100000  1.0 0.3438179224
H  H609  1  0.93500000  0.24800000  0.32700000  1.0 0.3438179224
H  H610  1  0.07900000  0.25200000  0.18700000  1.0 0.3438179224
H  H611  1  0.56500000  0.89200000  0.31300000  1.0 0.3438179224
H  H612  1  0.42100000  0.60800000  0.17300000  1.0 0.3438179224
H  H613  1  0.42100000  0.31300000  0.24800000  1.0 0.3438179224
H  H614  1  0.56500000  0.17300000  0.25200000  1.0 0.3438179224
H  H615  1  0.07900000  0.32700000  0.89200000  1.0 0.3438179224
H  H616  1  0.93500000  0.18700000  0.60800000  1.0 0.3438179224
H  H617  1  0.18700000  0.60800000  0.93500000  1.0 0.3438179224
H  H618  1  0.32700000  0.89200000  0.07900000  1.0 0.3438179224
H  H619  1  0.17300000  0.25200000  0.56500000  1.0 0.3438179224
H  H620  1  0.31300000  0.24800000  0.42100000  1.0 0.3438179224
H  H621  1  0.89200000  0.07900000  0.32700000  1.0 0.3438179224
H  H622  1  0.60800000  0.93500000  0.18700000  1.0 0.3438179224
H  H623  1  0.24800000  0.42100000  0.31300000  1.0 0.3438179224
H  H624  1  0.25200000  0.56500000  0.17300000  1.0 0.3438179224
H  H625  1  0.03900000  0.08430000  0.07730000  1.0 0.2746018018
H  H626  1  0.50700000  0.96170000  0.42270000  1.0 0.2746018018
H  H627  1  0.99300000  0.41570000  0.45470000  1.0 0.2746018018
H  H628  1  0.46100000  0.53830000  0.04530000  1.0 0.2746018018
H  H629  1  0.07730000  0.03900000  0.08430000  1.0 0.2746018018
H  H630  1  0.42270000  0.50700000  0.96170000  1.0 0.2746018018
H  H631  1  0.45470000  0.99300000  0.41570000  1.0 0.2746018018
H  H632  1  0.04530000  0.46100000  0.53830000  1.0 0.2746018018
H  H633  1  0.08430000  0.07730000  0.03900000  1.0 0.2746018018
H  H634  1  0.96170000  0.42270000  0.50700000  1.0 0.2746018018
H  H635  1  0.41570000  0.45470000  0.99300000  1.0 0.2746018018
H  H636  1  0.53830000  0.04530000  0.46100000  1.0 0.2746018018
H  H637  1  0.53830000  0.99300000  0.07730000  1.0 0.2746018018
H  H638  1  0.41570000  0.46100000  0.42270000  1.0 0.2746018018
H  H639  1  0.96170000  0.03900000  0.45470000  1.0 0.2746018018
H  H640  1  0.08430000  0.50700000  0.04530000  1.0 0.2746018018
H  H641  1  0.50700000  0.04530000  0.08430000  1.0 0.2746018018
H  H642  1  0.03900000  0.45470000  0.96170000  1.0 0.2746018018
H  H643  1  0.46100000  0.42270000  0.41570000  1.0 0.2746018018
H  H644  1  0.99300000  0.07730000  0.53830000  1.0 0.2746018018
H  H645  1  0.45470000  0.96170000  0.03900000  1.0 0.2746018018
H  H646  1  0.04530000  0.08430000  0.50700000  1.0 0.2746018018
H  H647  1  0.07730000  0.53830000  0.99300000  1.0 0.2746018018
H  H648  1  0.42270000  0.41570000  0.46100000  1.0 0.2746018018
H  H649  1  0.96100000  0.91570000  0.92270000  1.0 0.2746018018
H  H650  1  0.49300000  0.03830000  0.57730000  1.0 0.2746018018
H  H651  1  0.00700000  0.58430000  0.54530000  1.0 0.2746018018
H  H652  1  0.53900000  0.46170000  0.95470000  1.0 0.2746018018
H  H653  1  0.92270000  0.96100000  0.91570000  1.0 0.2746018018
H  H654  1  0.57730000  0.49300000  0.03830000  1.0 0.2746018018
H  H655  1  0.54530000  0.00700000  0.58430000  1.0 0.2746018018
H  H656  1  0.95470000  0.53900000  0.46170000  1.0 0.2756248313
H  H657  1  0.91570000  0.92270000  0.96100000  1.0 0.2746018018
H  H658  1  0.03830000  0.57730000  0.49300000  1.0 0.2746018018
H  H659  1  0.58430000  0.54530000  0.00700000  1.0 0.2746018018
H  H660  1  0.46170000  0.95470000  0.53900000  1.0 0.2746018018
H  H661  1  0.46170000  0.00700000  0.92270000  1.0 0.2746018018
H  H662  1  0.58430000  0.53900000  0.57730000  1.0 0.2746018018
H  H663  1  0.03830000  0.96100000  0.54530000  1.0 0.2746018018
H  H664  1  0.91570000  0.49300000  0.95470000  1.0 0.2746018018
H  H665  1  0.49300000  0.95470000  0.91570000  1.0 0.2746018018
H  H666  1  0.96100000  0.54530000  0.03830000  1.0 0.2746018018
H  H667  1  0.53900000  0.57730000  0.58430000  1.0 0.2746018018
H  H668  1  0.00700000  0.92270000  0.46170000  1.0 0.2746018018
H  H669  1  0.54530000  0.03830000  0.96100000  1.0 0.2746018018
H  H670  1  0.95470000  0.91570000  0.49300000  1.0 0.2756248313
H  H671  1  0.92270000  0.46170000  0.00700000  1.0 0.2746018018
H  H672  1  0.57730000  0.58430000  0.53900000  1.0 0.2746018018
H  H673  1  0.94780000  0.10530000  0.06650000  1.0 0.037615057
H  H674  1  0.53880000  0.88130000  0.43350000  1.0 0.037615057
H  H675  1  0.96120000  0.39470000  0.34250000  1.0 0.037615057
H  H676  1  0.55220000  0.61870000  0.15750000  1.0 0.037615057
H  H677  1  0.06650000  0.94780000  0.10530000  1.0 0.037615057
H  H678  1  0.43350000  0.53880000  0.88130000  1.0 0.037615057
H  H679  1  0.34250000  0.96120000  0.39470000  1.0 0.037615057
H  H680  1  0.15750000  0.55220000  0.61870000  1.0 0.037615057
H  H681  1  0.10530000  0.06650000  0.94780000  1.0 0.037615057
H  H682  1  0.88130000  0.43350000  0.53880000  1.0 0.037615057
H  H683  1  0.39470000  0.34250000  0.96120000  1.0 0.037615057
H  H684  1  0.61870000  0.15750000  0.55220000  1.0 0.037615057
H  H685  1  0.61870000  0.96120000  0.06650000  1.0 0.037615057
H  H686  1  0.39470000  0.55220000  0.43350000  1.0 0.037615057
H  H687  1  0.88130000  0.94780000  0.34250000  1.0 0.037615057
H  H688  1  0.10530000  0.53880000  0.15750000  1.0 0.037615057
H  H689  1  0.53880000  0.15750000  0.10530000  1.0 0.037615057
H  H690  1  0.94780000  0.34250000  0.88130000  1.0 0.037615057
H  H691  1  0.55220000  0.43350000  0.39470000  1.0 0.037615057
H  H692  1  0.96120000  0.06650000  0.61870000  1.0 0.037615057
H  H693  1  0.34250000  0.88130000  0.94780000  1.0 0.037615057
H  H694  1  0.15750000  0.10530000  0.53880000  1.0 0.037615057
H  H695  1  0.06650000  0.61870000  0.96120000  1.0 0.037615057
H  H696  1  0.43350000  0.39470000  0.55220000  1.0 0.037615057
H  H697  1  0.05220000  0.89470000  0.93350000  1.0 0.037615057
H  H698  1  0.46120000  0.11870000  0.56650000  1.0 0.037615057
H  H699  1  0.03880000  0.60530000  0.65750000  1.0 0.037615057
H  H700  1  0.44780000  0.38130000  0.84250000  1.0 0.037615057
H  H701  1  0.93350000  0.05220000  0.89470000  1.0 0.037615057
H  H702  1  0.56650000  0.46120000  0.11870000  1.0 0.037615057
H  H703  1  0.65750000  0.03880000  0.60530000  1.0 0.037615057
H  H704  1  0.84250000  0.44780000  0.38130000  1.0 0.037615057
H  H705  1  0.89470000  0.93350000  0.05220000  1.0 0.037615057
H  H706  1  0.11870000  0.56650000  0.46120000  1.0 0.037615057
H  H707  1  0.60530000  0.65750000  0.03880000  1.0 0.037615057
H  H708  1  0.38130000  0.84250000  0.44780000  1.0 0.037615057
H  H709  1  0.38130000  0.03880000  0.93350000  1.0 0.037615057
H  H710  1  0.60530000  0.44780000  0.56650000  1.0 0.037615057
H  H711  1  0.11870000  0.05220000  0.65750000  1.0 0.037615057
H  H712  1  0.89470000  0.46120000  0.84250000  1.0 0.037615057
H  H713  1  0.46120000  0.84250000  0.89470000  1.0 0.037615057
H  H714  1  0.05220000  0.65750000  0.11870000  1.0 0.037615057
H  H715  1  0.44780000  0.56650000  0.60530000  1.0 0.037615057
H  H716  1  0.03880000  0.93350000  0.38130000  1.0 0.037615057
H  H717  1  0.65750000  0.11870000  0.05220000  1.0 0.037615057
H  H718  1  0.84250000  0.89470000  0.46120000  1.0 0.037615057
H  H719  1  0.93350000  0.38130000  0.03880000  1.0 0.037615057
H  H720  1  0.56650000  0.60530000  0.44780000  1.0 0.037615057
H  H721  1  0.99000000  0.08770000  0.06210000  1.0 0.1180843235
H  H722  1  0.52560000  0.92790000  0.43790000  1.0 0.1180843235
H  H723  1  0.97440000  0.41230000  0.40230000  1.0 0.1180843235
H  H724  1  0.51000000  0.57210000  0.09770000  1.0 0.1180843235
H  H725  1  0.06210000  0.99000000  0.08770000  1.0 0.1180843235
H  H726  1  0.43790000  0.52560000  0.92790000  1.0 0.1180843235
H  H727  1  0.40230000  0.97440000  0.41230000  1.0 0.1180843235
H  H728  1  0.09770000  0.51000000  0.57210000  1.0 0.1180843235
H  H729  1  0.08770000  0.06210000  0.99000000  1.0 0.1180843235
H  H730  1  0.92790000  0.43790000  0.52560000  1.0 0.1180843235
H  H731  1  0.41230000  0.40230000  0.97440000  1.0 0.1180843235
H  H732  1  0.57210000  0.09770000  0.51000000  1.0 0.1180843235
H  H733  1  0.57210000  0.97440000  0.06210000  1.0 0.1180843235
H  H734  1  0.41230000  0.51000000  0.43790000  1.0 0.1180843235
H  H735  1  0.92790000  0.99000000  0.40230000  1.0 0.1180843235
H  H736  1  0.08770000  0.52560000  0.09770000  1.0 0.1180843235
H  H737  1  0.52560000  0.09770000  0.08770000  1.0 0.1180843235
H  H738  1  0.99000000  0.40230000  0.92790000  1.0 0.1180843235
H  H739  1  0.51000000  0.43790000  0.41230000  1.0 0.1180843235
H  H740  1  0.97440000  0.06210000  0.57210000  1.0 0.1180843235
H  H741  1  0.40230000  0.92790000  0.99000000  1.0 0.1180843235
H  H742  1  0.09770000  0.08770000  0.52560000  1.0 0.1180843235
H  H743  1  0.06210000  0.57210000  0.97440000  1.0 0.1180843235
H  H744  1  0.43790000  0.41230000  0.51000000  1.0 0.1180843235
H  H745  1  0.01000000  0.91230000  0.93790000  1.0 0.1180843235
H  H746  1  0.47440000  0.07210000  0.56210000  1.0 0.1180843235
H  H747  1  0.02560000  0.58770000  0.59770000  1.0 0.1180843235
H  H748  1  0.49000000  0.42790000  0.90230000  1.0 0.1180843235
H  H749  1  0.93790000  0.01000000  0.91230000  1.0 0.1180843235
H  H750  1  0.56210000  0.47440000  0.07210000  1.0 0.1180843235
H  H751  1  0.59770000  0.02560000  0.58770000  1.0 0.1180843235
H  H752  1  0.90230000  0.49000000  0.42790000  1.0 0.1180843235
H  H753  1  0.91230000  0.93790000  0.01000000  1.0 0.1180843235
H  H754  1  0.07210000  0.56210000  0.47440000  1.0 0.1180843235
H  H755  1  0.58770000  0.59770000  0.02560000  1.0 0.1180843235
H  H756  1  0.42790000  0.90230000  0.49000000  1.0 0.1180843235
H  H757  1  0.42790000  0.02560000  0.93790000  1.0 0.1180843235
H  H758  1  0.58770000  0.49000000  0.56210000  1.0 0.1180843235
H  H759  1  0.07210000  0.01000000  0.59770000  1.0 0.1180843235
H  H760  1  0.91230000  0.47440000  0.90230000  1.0 0.1180843235
H  H761  1  0.47440000  0.90230000  0.91230000  1.0 0.1180843235
H  H762  1  0.01000000  0.59770000  0.07210000  1.0 0.1180843235
H  H763  1  0.49000000  0.56210000  0.58770000  1.0 0.1180843235
H  H764  1  0.02560000  0.93790000  0.42790000  1.0 0.1180843235
H  H765  1  0.59770000  0.07210000  0.01000000  1.0 0.1180843235
H  H766  1  0.90230000  0.91230000  0.47440000  1.0 0.1180843235
H  H767  1  0.93790000  0.42790000  0.02560000  1.0 0.1180843235
H  H768  1  0.56210000  0.58770000  0.49000000  1.0 0.1180843235
H  H769  1  0.66820000  0.16240000  0.77140000  1.0 0.0715918802
H  H770  1  0.89100000  0.89680000  0.72860000  1.0 0.0715918802
H  H771  1  0.60900000  0.33760000  0.00580000  1.0 0.0715918802
H  H772  1  0.83180000  0.60320000  0.49420000  1.0 0.0715918802
H  H773  1  0.77140000  0.66820000  0.16240000  1.0 0.0715918802
H  H774  1  0.72860000  0.89100000  0.89680000  1.0 0.0715918802
H  H775  1  0.00580000  0.60900000  0.33760000  1.0 0.0715918802
H  H776  1  0.49420000  0.83180000  0.60320000  1.0 0.0715918802
H  H777  1  0.16240000  0.77140000  0.66820000  1.0 0.0715918802
H  H778  1  0.89680000  0.72860000  0.89100000  1.0 0.0715918802
H  H779  1  0.33760000  0.00580000  0.60900000  1.0 0.0715918802
H  H780  1  0.60320000  0.49420000  0.83180000  1.0 0.0715918802
H  H781  1  0.60320000  0.60900000  0.77140000  1.0 0.0715918802
H  H782  1  0.33760000  0.83180000  0.72860000  1.0 0.0715918802
H  H783  1  0.89680000  0.66820000  0.00580000  1.0 0.0715918802
H  H784  1  0.16240000  0.89100000  0.49420000  1.0 0.0715918802
H  H785  1  0.89100000  0.49420000  0.16240000  1.0 0.0715918802
H  H786  1  0.66820000  0.00580000  0.89680000  1.0 0.0715918802
H  H787  1  0.83180000  0.72860000  0.33760000  1.0 0.0715918802
H  H788  1  0.60900000  0.77140000  0.60320000  1.0 0.0715918802
H  H789  1  0.00580000  0.89680000  0.66820000  1.0 0.0715918802
H  H790  1  0.49420000  0.16240000  0.89100000  1.0 0.0715918802
H  H791  1  0.77140000  0.60320000  0.60900000  1.0 0.0715918802
H  H792  1  0.72860000  0.33760000  0.83180000  1.0 0.0715918802
H  H793  1  0.33180000  0.83760000  0.22860000  1.0 0.0715918802
H  H794  1  0.10900000  0.10320000  0.27140000  1.0 0.0715918802
H  H795  1  0.39100000  0.66240000  0.99420000  1.0 0.0715918802
H  H796  1  0.16820000  0.39680000  0.50580000  1.0 0.0715918802
H  H797  1  0.22860000  0.33180000  0.83760000  1.0 0.0715918802
H  H798  1  0.27140000  0.10900000  0.10320000  1.0 0.0715918802
H  H799  1  0.99420000  0.39100000  0.66240000  1.0 0.0715918802
H  H800  1  0.50580000  0.16820000  0.39680000  1.0 0.0715918802
H  H801  1  0.83760000  0.22860000  0.33180000  1.0 0.0715918802
H  H802  1  0.10320000  0.27140000  0.10900000  1.0 0.0715918802
H  H803  1  0.66240000  0.99420000  0.39100000  1.0 0.0715918802
H  H804  1  0.39680000  0.50580000  0.16820000  1.0 0.0715918802
H  H805  1  0.39680000  0.39100000  0.22860000  1.0 0.0715918802
H  H806  1  0.66240000  0.16820000  0.27140000  1.0 0.0715918802
H  H807  1  0.10320000  0.33180000  0.99420000  1.0 0.0715918802
H  H808  1  0.83760000  0.10900000  0.50580000  1.0 0.0715918802
H  H809  1  0.10900000  0.50580000  0.83760000  1.0 0.0715918802
H  H810  1  0.33180000  0.99420000  0.10320000  1.0 0.0715918802
H  H811  1  0.16820000  0.27140000  0.66240000  1.0 0.0715918802
H  H812  1  0.39100000  0.22860000  0.39680000  1.0 0.0715918802
H  H813  1  0.99420000  0.10320000  0.33180000  1.0 0.0715918802
H  H814  1  0.50580000  0.83760000  0.10900000  1.0 0.0715918802
H  H815  1  0.22860000  0.39680000  0.39100000  1.0 0.0715918802
H  H816  1  0.27140000  0.66240000  0.16820000  1.0 0.0715918802
H  H817  1  0.71810000  0.16260000  0.76190000  1.0 0.1039882756
H  H818  1  0.90070000  0.95620000  0.73810000  1.0 0.1039882756
H  H819  1  0.59930000  0.33740000  0.05550000  1.0 0.1039882756
H  H820  1  0.78190000  0.54380000  0.44450000  1.0 0.1039882756
H  H821  1  0.76190000  0.71810000  0.16260000  1.0 0.1039882756
H  H822  1  0.73810000  0.90070000  0.95620000  1.0 0.1039882756
H  H823  1  0.05550000  0.59930000  0.33740000  1.0 0.1039882756
H  H824  1  0.44450000  0.78190000  0.54380000  1.0 0.1039882756
H  H825  1  0.16260000  0.76190000  0.71810000  1.0 0.1039882756
H  H826  1  0.95620000  0.73810000  0.90070000  1.0 0.1039882756
H  H827  1  0.33740000  0.05550000  0.59930000  1.0 0.1039882756
H  H828  1  0.54380000  0.44450000  0.78190000  1.0 0.1039882756
H  H829  1  0.54380000  0.59930000  0.76190000  1.0 0.1039882756
H  H830  1  0.33740000  0.78190000  0.73810000  1.0 0.1039882756
H  H831  1  0.95620000  0.71810000  0.05550000  1.0 0.1039882756
H  H832  1  0.16260000  0.90070000  0.44450000  1.0 0.1039882756
H  H833  1  0.90070000  0.44450000  0.16260000  1.0 0.1039882756
H  H834  1  0.71810000  0.05550000  0.95620000  1.0 0.1039882756
H  H835  1  0.78190000  0.73810000  0.33740000  1.0 0.1039882756
H  H836  1  0.59930000  0.76190000  0.54380000  1.0 0.1039882756
H  H837  1  0.05550000  0.95620000  0.71810000  1.0 0.1039882756
H  H838  1  0.44450000  0.16260000  0.90070000  1.0 0.1039882756
H  H839  1  0.76190000  0.54380000  0.59930000  1.0 0.1039882756
H  H840  1  0.73810000  0.33740000  0.78190000  1.0 0.1039882756
H  H841  1  0.28190000  0.83740000  0.23810000  1.0 0.1039882756
H  H842  1  0.09930000  0.04380000  0.26190000  1.0 0.1039882756
H  H843  1  0.40070000  0.66260000  0.94450000  1.0 0.1039882756
H  H844  1  0.21810000  0.45620000  0.55550000  1.0 0.1039882756
H  H845  1  0.23810000  0.28190000  0.83740000  1.0 0.1039882756
H  H846  1  0.26190000  0.09930000  0.04380000  1.0 0.1039882756
H  H847  1  0.94450000  0.40070000  0.66260000  1.0 0.1039882756
H  H848  1  0.55550000  0.21810000  0.45620000  1.0 0.1039882756
H  H849  1  0.83740000  0.23810000  0.28190000  1.0 0.1039882756
H  H850  1  0.04380000  0.26190000  0.09930000  1.0 0.1039882756
H  H851  1  0.66260000  0.94450000  0.40070000  1.0 0.1039882756
H  H852  1  0.45620000  0.55550000  0.21810000  1.0 0.1039882756
H  H853  1  0.45620000  0.40070000  0.23810000  1.0 0.1039882756
H  H854  1  0.66260000  0.21810000  0.26190000  1.0 0.1039882756
H  H855  1  0.04380000  0.28190000  0.94450000  1.0 0.1039882756
H  H856  1  0.83740000  0.09930000  0.55550000  1.0 0.1039882756
H  H857  1  0.09930000  0.55550000  0.83740000  1.0 0.1039882756
H  H858  1  0.28190000  0.94450000  0.04380000  1.0 0.1039882756
H  H859  1  0.21810000  0.26190000  0.66260000  1.0 0.1039882756
H  H860  1  0.40070000  0.23810000  0.45620000  1.0 0.1039882756
H  H861  1  0.94450000  0.04380000  0.28190000  1.0 0.1039882756
H  H862  1  0.55550000  0.83740000  0.09930000  1.0 0.1039882756
H  H863  1  0.23810000  0.45620000  0.40070000  1.0 0.1039882756
H  H864  1  0.26190000  0.66260000  0.21810000  1.0 0.1039882756
H  H865  1  0.00700000  0.16380000  0.14280000  1.0 0.2266814868
H  H866  1  0.52100000  0.86420000  0.35720000  1.0 0.2266814868
H  H867  1  0.97900000  0.33620000  0.34320000  1.0 0.2266814868
H  H868  1  0.49300000  0.63580000  0.15680000  1.0 0.2266814868
H  H869  1  0.14280000  0.00700000  0.16380000  1.0 0.2266814868
H  H870  1  0.35720000  0.52100000  0.86420000  1.0 0.2266814868
H  H871  1  0.34320000  0.97900000  0.33620000  1.0 0.2266814868
H  H872  1  0.15680000  0.49300000  0.63580000  1.0 0.2266814868
H  H873  1  0.16380000  0.14280000  0.00700000  1.0 0.2266814868
H  H874  1  0.86420000  0.35720000  0.52100000  1.0 0.2266814868
H  H875  1  0.33620000  0.34320000  0.97900000  1.0 0.2266814868
H  H876  1  0.63580000  0.15680000  0.49300000  1.0 0.2266814868
H  H877  1  0.63580000  0.97900000  0.14280000  1.0 0.2266814868
H  H878  1  0.33620000  0.49300000  0.35720000  1.0 0.2266814868
H  H879  1  0.86420000  0.00700000  0.34320000  1.0 0.2266814868
H  H880  1  0.16380000  0.52100000  0.15680000  1.0 0.2266814868
H  H881  1  0.52100000  0.15680000  0.16380000  1.0 0.2266814868
H  H882  1  0.00700000  0.34320000  0.86420000  1.0 0.2266814868
H  H883  1  0.49300000  0.35720000  0.33620000  1.0 0.2266814868
H  H884  1  0.97900000  0.14280000  0.63580000  1.0 0.2266814868
H  H885  1  0.34320000  0.86420000  0.00700000  1.0 0.2266814868
H  H886  1  0.15680000  0.16380000  0.52100000  1.0 0.2266814868
H  H887  1  0.14280000  0.63580000  0.97900000  1.0 0.2266814868
H  H888  1  0.35720000  0.33620000  0.49300000  1.0 0.2266814868
H  H889  1  0.99300000  0.83620000  0.85720000  1.0 0.2266814868
H  H890  1  0.47900000  0.13580000  0.64280000  1.0 0.2266814868
H  H891  1  0.02100000  0.66380000  0.65680000  1.0 0.2266814868
H  H892  1  0.50700000  0.36420000  0.84320000  1.0 0.2266814868
H  H893  1  0.85720000  0.99300000  0.83620000  1.0 0.2266814868
H  H894  1  0.64280000  0.47900000  0.13580000  1.0 0.2266814868
H  H895  1  0.65680000  0.02100000  0.66380000  1.0 0.2266814868
H  H896  1  0.84320000  0.50700000  0.36420000  1.0 0.2266814868
H  H897  1  0.83620000  0.85720000  0.99300000  1.0 0.2266814868
H  H898  1  0.13580000  0.64280000  0.47900000  1.0 0.2266814868
H  H899  1  0.66380000  0.65680000  0.02100000  1.0 0.2266814868
H  H900  1  0.36420000  0.84320000  0.50700000  1.0 0.2266814868
H  H901  1  0.36420000  0.02100000  0.85720000  1.0 0.2266814868
H  H902  1  0.66380000  0.50700000  0.64280000  1.0 0.2266814868
H  H903  1  0.13580000  0.99300000  0.65680000  1.0 0.2266814868
H  H904  1  0.83620000  0.47900000  0.84320000  1.0 0.2266814868
H  H905  1  0.47900000  0.84320000  0.83620000  1.0 0.2266814868
H  H906  1  0.99300000  0.65680000  0.13580000  1.0 0.2266814868
H  H907  1  0.50700000  0.64280000  0.66380000  1.0 0.2266814868
H  H908  1  0.02100000  0.85720000  0.36420000  1.0 0.2266814868
H  H909  1  0.65680000  0.13580000  0.99300000  1.0 0.2266814868
H  H910  1  0.84320000  0.83620000  0.47900000  1.0 0.2266814868
H  H911  1  0.85720000  0.36420000  0.02100000  1.0 0.2266814868
H  H912  1  0.64280000  0.66380000  0.50700000  1.0 0.2266814868
W  W1  1  0.87500000  0.12500000  0.75000000  1.0 0.438106742
W  W2  1  0.62500000  0.37500000  0.25000000  1.0 0.438106742
W  W3  1  0.75000000  0.87500000  0.12500000  1.0 0.431683262
W  W4  1  0.25000000  0.62500000  0.37500000  1.0 0.431683262
W  W5  1  0.12500000  0.75000000  0.87500000  1.0 0.431683262
W  W6  1  0.37500000  0.25000000  0.62500000  1.0 0.438106742
W  W7  1  0.37500000  0.62500000  0.75000000  1.0 0.438106742
W  W8  1  0.12500000  0.87500000  0.25000000  1.0 0.438106742
W  W9  1  0.87500000  0.25000000  0.12500000  1.0 0.438106742
W  W10  1  0.62500000  0.75000000  0.37500000  1.0 0.438106742
W  W11  1  0.25000000  0.12500000  0.87500000  1.0 0.438106742
W  W12  1  0.75000000  0.37500000  0.62500000  1.0 0.438106742
C  C1  1  0.79190000  0.09350000  0.73600000  1.0 -0.0056791816
C  C2  1  0.85750000  0.05590000  0.76400000  1.0 -0.0056791816
C  C3  1  0.64250000  0.40650000  0.19840000  1.0 -0.0056791816
C  C4  1  0.70810000  0.44410000  0.30160000  1.0 -0.0056791816
C  C5  1  0.73600000  0.79190000  0.09350000  1.0 -0.0040590898
C  C6  1  0.76400000  0.85750000  0.05590000  1.0 -0.0040590898
C  C7  1  0.19840000  0.64250000  0.40650000  1.0 -0.0040590898
C  C8  1  0.30160000  0.70810000  0.44410000  1.0 -0.0040590898
C  C9  1  0.09350000  0.73600000  0.79190000  1.0 -0.0056791816
C  C10  1  0.05590000  0.76400000  0.85750000  1.0 -0.0056791816
C  C11  1  0.40650000  0.19840000  0.64250000  1.0 -0.0040590898
C  C12  1  0.44410000  0.30160000  0.70810000  1.0 -0.0056791816
C  C13  1  0.44410000  0.64250000  0.73600000  1.0 -0.0040590898
C  C14  1  0.40650000  0.70810000  0.76400000  1.0 -0.0056791816
C  C15  1  0.05590000  0.79190000  0.19840000  1.0 -0.0056791816
C  C16  1  0.09350000  0.85750000  0.30160000  1.0 -0.0040590898
C  C17  1  0.85750000  0.30160000  0.09350000  1.0 -0.0040590898
C  C18  1  0.79190000  0.19840000  0.05590000  1.0 -0.0040590898
C  C19  1  0.70810000  0.76400000  0.40650000  1.0 -0.0040590898
C  C20  1  0.64250000  0.73600000  0.44410000  1.0 -0.0056791816
C  C21  1  0.19840000  0.05590000  0.79190000  1.0 -0.0056791816
C  C22  1  0.30160000  0.09350000  0.85750000  1.0 -0.0056791816
C  C23  1  0.73600000  0.44410000  0.64250000  1.0 -0.0040590898
C  C24  1  0.76400000  0.40650000  0.70810000  1.0 -0.0056791816
C  C25  1  0.20810000  0.90650000  0.26400000  1.0 -0.0040590898
C  C26  1  0.14250000  0.94410000  0.23600000  1.0 -0.0040590898
C  C27  1  0.35750000  0.59350000  0.80160000  1.0 -0.0056791816
C  C28  1  0.29190000  0.55590000  0.69840000  1.0 -0.0056791816
C  C29  1  0.26400000  0.20810000  0.90650000  1.0 -0.0056791816
C  C30  1  0.23600000  0.14250000  0.94410000  1.0 -0.0056791816
C  C31  1  0.80160000  0.35750000  0.59350000  1.0 -0.0040590898
C  C32  1  0.69840000  0.29190000  0.55590000  1.0 -0.0040590898
C  C33  1  0.90650000  0.26400000  0.20810000  1.0 -0.0040590898
C  C34  1  0.94410000  0.23600000  0.14250000  1.0 -0.0040590898
C  C35  1  0.59350000  0.80160000  0.35750000  1.0 -0.0040590898
C  C36  1  0.55590000  0.69840000  0.29190000  1.0 -0.0040590898
C  C37  1  0.55590000  0.35750000  0.26400000  1.0 -0.0056791816
C  C38  1  0.59350000  0.29190000  0.23600000  1.0 -0.0056791816
C  C39  1  0.94410000  0.20810000  0.80160000  1.0 -0.0056791816
C  C40  1  0.90650000  0.14250000  0.69840000  1.0 -0.0056791816
C  C41  1  0.14250000  0.69840000  0.90650000  1.0 -0.0056791816
C  C42  1  0.20810000  0.80160000  0.94410000  1.0 -0.0056791816
C  C43  1  0.29190000  0.23600000  0.59350000  1.0 -0.0040590898
C  C44  1  0.35750000  0.26400000  0.55590000  1.0 -0.0040590898
C  C45  1  0.80160000  0.94410000  0.20810000  1.0 -0.0056791816
C  C46  1  0.69840000  0.90650000  0.14250000  1.0 -0.0040590898
C  C47  1  0.26400000  0.55590000  0.35750000  1.0 -0.0040590898
C  C48  1  0.23600000  0.59350000  0.29190000  1.0 -0.0040590898
C  C49  1  0.88400000  0.15640000  0.83000000  1.0 0.0270042254
C  C50  1  0.82640000  0.05400000  0.67000000  1.0 0.0270042254
C  C51  1  0.67360000  0.34360000  0.22760000  1.0 0.0270042254
C  C52  1  0.61600000  0.44600000  0.27240000  1.0 0.0270042254
C  C53  1  0.83000000  0.88400000  0.15640000  1.0 0.0270042254
C  C54  1  0.67000000  0.82640000  0.05400000  1.0 0.0270042254
C  C55  1  0.22760000  0.67360000  0.34360000  1.0 0.0270042254
C  C56  1  0.27240000  0.61600000  0.44600000  1.0 0.0270042254
C  C57  1  0.15640000  0.83000000  0.88400000  1.0 0.0270042254
C  C58  1  0.05400000  0.67000000  0.82640000  1.0 0.0270042254
C  C59  1  0.34360000  0.22760000  0.67360000  1.0 0.0270042254
C  C60  1  0.44600000  0.27240000  0.61600000  1.0 0.0270042254
C  C61  1  0.44600000  0.67360000  0.83000000  1.0 0.0270042254
C  C62  1  0.34360000  0.61600000  0.67000000  1.0 0.0270042254
C  C63  1  0.05400000  0.88400000  0.22760000  1.0 0.0270042254
C  C64  1  0.15640000  0.82640000  0.27240000  1.0 0.0270042254
C  C65  1  0.82640000  0.27240000  0.15640000  1.0 0.0270042254
C  C66  1  0.88400000  0.22760000  0.05400000  1.0 0.0270042254
C  C67  1  0.61600000  0.67000000  0.34360000  1.0 0.0270042254
C  C68  1  0.67360000  0.83000000  0.44600000  1.0 0.0270042254
C  C69  1  0.22760000  0.05400000  0.88400000  1.0 0.0270042254
C  C70  1  0.27240000  0.15640000  0.82640000  1.0 0.0270042254
C  C71  1  0.83000000  0.44600000  0.67360000  1.0 0.0270042254
C  C72  1  0.67000000  0.34360000  0.61600000  1.0 0.0270042254
C  C73  1  0.11600000  0.84360000  0.17000000  1.0 0.0270042254
C  C74  1  0.17360000  0.94600000  0.33000000  1.0 0.0270042254
C  C75  1  0.32640000  0.65640000  0.77240000  1.0 0.0270042254
C  C76  1  0.38400000  0.55400000  0.72760000  1.0 0.0270042254
C  C77  1  0.17000000  0.11600000  0.84360000  1.0 0.0270042254
C  C78  1  0.33000000  0.17360000  0.94600000  1.0 0.0270042254
C  C79  1  0.77240000  0.32640000  0.65640000  1.0 0.0270042254
C  C80  1  0.72760000  0.38400000  0.55400000  1.0 0.0270042254
C  C81  1  0.84360000  0.17000000  0.11600000  1.0 0.0270042254
C  C82  1  0.94600000  0.33000000  0.17360000  1.0 0.0270042254
C  C83  1  0.65640000  0.77240000  0.32640000  1.0 0.0270042254
C  C84  1  0.55400000  0.72760000  0.38400000  1.0 0.0270042254
C  C85  1  0.55400000  0.32640000  0.17000000  1.0 0.0270042254
C  C86  1  0.65640000  0.38400000  0.33000000  1.0 0.0270042254
C  C87  1  0.94600000  0.11600000  0.77240000  1.0 0.0270042254
C  C88  1  0.84360000  0.17360000  0.72760000  1.0 0.0270042254
C  C89  1  0.17360000  0.72760000  0.84360000  1.0 0.0270042254
C  C90  1  0.11600000  0.77240000  0.94600000  1.0 0.0270042254
C  C91  1  0.38400000  0.33000000  0.65640000  1.0 0.0270042254
C  C92  1  0.32640000  0.17000000  0.55400000  1.0 0.0270042254
C  C93  1  0.77240000  0.94600000  0.11600000  1.0 0.0270042254
C  C94  1  0.72760000  0.84360000  0.17360000  1.0 0.0270042254
C  C95  1  0.17000000  0.55400000  0.32640000  1.0 0.0270042254
C  C96  1  0.33000000  0.65640000  0.38400000  1.0 0.0270042254
C  C97  1  0.94500000  0.15110000  0.00650000  1.0 0.004483302
C  C98  1  0.64460000  0.93850000  0.49350000  1.0 0.004483302
C  C99  1  0.85540000  0.34890000  0.29390000  1.0 0.004483302
C  C100  1  0.55500000  0.56150000  0.20610000  1.0 0.0055739862
C  C101  1  0.00650000  0.94500000  0.15110000  1.0 0.004483302
C  C102  1  0.49350000  0.64460000  0.93850000  1.0 0.004483302
C  C103  1  0.29390000  0.85540000  0.34890000  1.0 0.004483302
C  C104  1  0.20610000  0.55500000  0.56150000  1.0 0.004483302
C  C105  1  0.15110000  0.00650000  0.94500000  1.0 0.004483302
C  C106  1  0.93850000  0.49350000  0.64460000  1.0 0.0055739862
C  C107  1  0.34890000  0.29390000  0.85540000  1.0 0.004483302
C  C108  1  0.56150000  0.20610000  0.55500000  1.0 0.004483302
C  C109  1  0.56150000  0.85540000  0.00650000  1.0 0.004483302
C  C110  1  0.34890000  0.55500000  0.49350000  1.0 0.004483302
C  C111  1  0.93850000  0.94500000  0.29390000  1.0 0.0055739862
C  C112  1  0.15110000  0.64460000  0.20610000  1.0 0.004483302
C  C113  1  0.64460000  0.20610000  0.15110000  1.0 0.004483302
C  C114  1  0.94500000  0.29390000  0.93850000  1.0 0.004483302
C  C115  1  0.55500000  0.49350000  0.34890000  1.0 0.004483302
C  C116  1  0.85540000  0.00650000  0.56150000  1.0 0.004483302
C  C117  1  0.29390000  0.93850000  0.94500000  1.0 0.004483302
C  C118  1  0.20610000  0.15110000  0.64460000  1.0 0.004483302
C  C119  1  0.00650000  0.56150000  0.85540000  1.0 0.004483302
C  C120  1  0.49350000  0.34890000  0.55500000  1.0 0.004483302
C  C121  1  0.05500000  0.84890000  0.99350000  1.0 0.004483302
C  C122  1  0.35540000  0.06150000  0.50650000  1.0 0.004483302
C  C123  1  0.14460000  0.65110000  0.70610000  1.0 0.004483302
C  C124  1  0.44500000  0.43850000  0.79390000  1.0 0.004483302
C  C125  1  0.99350000  0.05500000  0.84890000  1.0 0.004483302
C  C126  1  0.50650000  0.35540000  0.06150000  1.0 0.004483302
C  C127  1  0.70610000  0.14460000  0.65110000  1.0 0.004483302
C  C128  1  0.79390000  0.44500000  0.43850000  1.0 0.004483302
C  C129  1  0.84890000  0.99350000  0.05500000  1.0 0.004483302
C  C130  1  0.06150000  0.50650000  0.35540000  1.0 0.004483302
C  C131  1  0.65110000  0.70610000  0.14460000  1.0 0.0055739862
C  C132  1  0.43850000  0.79390000  0.44500000  1.0 0.004483302
C  C133  1  0.43850000  0.14460000  0.99350000  1.0 0.004483302
C  C134  1  0.65110000  0.44500000  0.50650000  1.0 0.004483302
C  C135  1  0.06150000  0.05500000  0.70610000  1.0 0.004483302
C  C136  1  0.84890000  0.35540000  0.79390000  1.0 0.004483302
C  C137  1  0.35540000  0.79390000  0.84890000  1.0 0.004483302
C  C138  1  0.05500000  0.70610000  0.06150000  1.0 0.004483302
C  C139  1  0.44500000  0.50650000  0.65110000  1.0 0.004483302
C  C140  1  0.14460000  0.99350000  0.43850000  1.0 0.004483302
C  C141  1  0.70610000  0.06150000  0.05500000  1.0 0.004483302
C  C142  1  0.79390000  0.84890000  0.35540000  1.0 0.004483302
C  C143  1  0.99350000  0.43850000  0.14460000  1.0 0.0055739862
C  C144  1  0.50650000  0.65110000  0.44500000  1.0 0.004483302
C  C145  1  0.98530000  0.13870000  0.03020000  1.0 -0.0967235327
C  C146  1  0.60850000  0.95510000  0.46980000  1.0 -0.0967235327
C  C147  1  0.89150000  0.36130000  0.34660000  1.0 -0.0967235327
C  C148  1  0.51470000  0.54490000  0.15340000  1.0 -0.0967235327
C  C149  1  0.03020000  0.98530000  0.13870000  1.0 -0.0967235327
C  C150  1  0.46980000  0.60850000  0.95510000  1.0 -0.0967235327
C  C151  1  0.34660000  0.89150000  0.36130000  1.0 -0.0967235327
C  C152  1  0.15340000  0.51470000  0.54490000  1.0 -0.0967235327
C  C153  1  0.13870000  0.03020000  0.98530000  1.0 -0.0967235327
C  C154  1  0.95510000  0.46980000  0.60850000  1.0 -0.0967235327
C  C155  1  0.36130000  0.34660000  0.89150000  1.0 -0.0967235327
C  C156  1  0.54490000  0.15340000  0.51470000  1.0 -0.0967235327
C  C157  1  0.54490000  0.89150000  0.03020000  1.0 -0.0967235327
C  C158  1  0.36130000  0.51470000  0.46980000  1.0 -0.0967235327
C  C159  1  0.95510000  0.98530000  0.34660000  1.0 -0.0967235327
C  C160  1  0.13870000  0.60850000  0.15340000  1.0 -0.0967235327
C  C161  1  0.60850000  0.15340000  0.13870000  1.0 -0.0967235327
C  C162  1  0.98530000  0.34660000  0.95510000  1.0 -0.0967235327
C  C163  1  0.51470000  0.46980000  0.36130000  1.0 -0.0967235327
C  C164  1  0.89150000  0.03020000  0.54490000  1.0 -0.0967235327
C  C165  1  0.34660000  0.95510000  0.98530000  1.0 -0.0967235327
C  C166  1  0.15340000  0.13870000  0.60850000  1.0 -0.0967235327
C  C167  1  0.03020000  0.54490000  0.89150000  1.0 -0.0967235327
C  C168  1  0.46980000  0.36130000  0.51470000  1.0 -0.0967235327
C  C169  1  0.01470000  0.86130000  0.96980000  1.0 -0.0967235327
C  C170  1  0.39150000  0.04490000  0.53020000  1.0 -0.0967235327
C  C171  1  0.10850000  0.63870000  0.65340000  1.0 -0.0967235327
C  C172  1  0.48530000  0.45510000  0.84660000  1.0 -0.0967235327
C  C173  1  0.96980000  0.01470000  0.86130000  1.0 -0.0967235327
C  C174  1  0.53020000  0.39150000  0.04490000  1.0 -0.0967235327
C  C175  1  0.65340000  0.10850000  0.63870000  1.0 -0.0967235327
C  C176  1  0.84660000  0.48530000  0.45510000  1.0 -0.0967235327
C  C177  1  0.86130000  0.96980000  0.01470000  1.0 -0.0967235327
C  C178  1  0.04490000  0.53020000  0.39150000  1.0 -0.0967235327
C  C179  1  0.63870000  0.65340000  0.10850000  1.0 -0.0967235327
C  C180  1  0.45510000  0.84660000  0.48530000  1.0 -0.0967235327
C  C181  1  0.45510000  0.10850000  0.96980000  1.0 -0.0967235327
C  C182  1  0.63870000  0.48530000  0.53020000  1.0 -0.0967235327
C  C183  1  0.04490000  0.01470000  0.65340000  1.0 -0.0967235327
C  C184  1  0.86130000  0.39150000  0.84660000  1.0 -0.0967235327
C  C185  1  0.39150000  0.84660000  0.86130000  1.0 -0.0967235327
C  C186  1  0.01470000  0.65340000  0.04490000  1.0 -0.0967235327
C  C187  1  0.48530000  0.53020000  0.63870000  1.0 -0.0967235327
C  C188  1  0.10850000  0.96980000  0.45510000  1.0 -0.0967235327
C  C189  1  0.65340000  0.04490000  0.01470000  1.0 -0.0967235327
C  C190  1  0.84660000  0.86130000  0.39150000  1.0 -0.0967235327
C  C191  1  0.96980000  0.45510000  0.10850000  1.0 -0.0967235327
C  C192  1  0.53020000  0.63870000  0.48530000  1.0 -0.0967235327
C  C193  1  0.02510000  0.14580000  0.01610000  1.0 -0.1951784145
C  C194  1  0.62970000  0.00900000  0.48390000  1.0 -0.1951784145
C  C195  1  0.87030000  0.35420000  0.37930000  1.0 -0.1951784145
C  C196  1  0.47490000  0.49100000  0.12070000  1.0 -0.191633804
C  C197  1  0.01610000  0.02510000  0.14580000  1.0 -0.1951784145
C  C198  1  0.48390000  0.62970000  0.00900000  1.0 -0.191633804
C  C199  1  0.37930000  0.87030000  0.35420000  1.0 -0.1951784145
C  C200  1  0.12070000  0.47490000  0.49100000  1.0 -0.1951784145
C  C201  1  0.14580000  0.01610000  0.02510000  1.0 -0.191633804
C  C202  1  0.00900000  0.48390000  0.62970000  1.0 -0.1951784145
C  C203  1  0.35420000  0.37930000  0.87030000  1.0 -0.1951784145
C  C204  1  0.49100000  0.12070000  0.47490000  1.0 -0.1951784145
C  C205  1  0.49100000  0.87030000  0.01610000  1.0 -0.191633804
C  C206  1  0.35420000  0.47490000  0.48390000  1.0 -0.1951784145
C  C207  1  0.00900000  0.02510000  0.37930000  1.0 -0.1951784145
C  C208  1  0.14580000  0.62970000  0.12070000  1.0 -0.1951784145
C  C209  1  0.62970000  0.12070000  0.14580000  1.0 -0.1951784145
C  C210  1  0.02510000  0.37930000  0.00900000  1.0 -0.1951784145
C  C211  1  0.47490000  0.48390000  0.35420000  1.0 -0.191633804
C  C212  1  0.87030000  0.01610000  0.49100000  1.0 -0.191633804
C  C213  1  0.37930000  0.00900000  0.02510000  1.0 -0.1951784145
C  C214  1  0.12070000  0.14580000  0.62970000  1.0 -0.1951784145
C  C215  1  0.01610000  0.49100000  0.87030000  1.0 -0.1951784145
C  C216  1  0.48390000  0.35420000  0.47490000  1.0 -0.191633804
C  C217  1  0.97490000  0.85420000  0.98390000  1.0 -0.191633804
C  C218  1  0.37030000  0.99100000  0.51610000  1.0 -0.1951784145
C  C219  1  0.12970000  0.64580000  0.62070000  1.0 -0.191633804
C  C220  1  0.52510000  0.50900000  0.87930000  1.0 -0.1951784145
C  C221  1  0.98390000  0.97490000  0.85420000  1.0 -0.191633804
C  C222  1  0.51610000  0.37030000  0.99100000  1.0 -0.191633804
C  C223  1  0.62070000  0.12970000  0.64580000  1.0 -0.1951784145
C  C224  1  0.87930000  0.52510000  0.50900000  1.0 -0.191633804
C  C225  1  0.85420000  0.98390000  0.97490000  1.0 -0.191633804
C  C226  1  0.99100000  0.51610000  0.37030000  1.0 -0.1951784145
C  C227  1  0.64580000  0.62070000  0.12970000  1.0 -0.191633804
C  C228  1  0.50900000  0.87930000  0.52510000  1.0 -0.191633804
C  C229  1  0.50900000  0.12970000  0.98390000  1.0 -0.1951784145
C  C230  1  0.64580000  0.52510000  0.51610000  1.0 -0.1951784145
C  C231  1  0.99100000  0.97490000  0.62070000  1.0 -0.191633804
C  C232  1  0.85420000  0.37030000  0.87930000  1.0 -0.191633804
C  C233  1  0.37030000  0.87930000  0.85420000  1.0 -0.1951784145
C  C234  1  0.97490000  0.62070000  0.99100000  1.0 -0.191633804
C  C235  1  0.52510000  0.51610000  0.64580000  1.0 -0.191633804
C  C236  1  0.12970000  0.98390000  0.50900000  1.0 -0.1951784145
C  C237  1  0.62070000  0.99100000  0.97490000  1.0 -0.1951784145
C  C238  1  0.87930000  0.85420000  0.37030000  1.0 -0.191633804
C  C239  1  0.98390000  0.50900000  0.12970000  1.0 -0.191633804
C  C240  1  0.51610000  0.64580000  0.52510000  1.0 -0.1951784145
C  C241  1  0.02500000  0.16660000  0.98080000  1.0 -0.2275877942
C  C242  1  0.68580000  0.04420000  0.51920000  1.0 -0.2275877942
C  C243  1  0.81420000  0.33340000  0.35840000  1.0 -0.2275877942
C  C244  1  0.47500000  0.45580000  0.14160000  1.0 -0.2275877942
C  C245  1  0.98080000  0.02500000  0.16660000  1.0 -0.2275877942
C  C246  1  0.51920000  0.68580000  0.04420000  1.0 -0.2275877942
C  C247  1  0.35840000  0.81420000  0.33340000  1.0 -0.2275877942
C  C248  1  0.14160000  0.47500000  0.45580000  1.0 -0.2275877942
C  C249  1  0.16660000  0.98080000  0.02500000  1.0 -0.2275877942
C  C250  1  0.04420000  0.51920000  0.68580000  1.0 -0.2275877942
C  C251  1  0.33340000  0.35840000  0.81420000  1.0 -0.2275877942
C  C252  1  0.45580000  0.14160000  0.47500000  1.0 -0.2275877942
C  C253  1  0.45580000  0.81420000  0.98080000  1.0 -0.2275877942
C  C254  1  0.33340000  0.47500000  0.51920000  1.0 -0.2275877942
C  C255  1  0.04420000  0.02500000  0.35840000  1.0 -0.2275877942
C  C256  1  0.16660000  0.68580000  0.14160000  1.0 -0.2275877942
C  C257  1  0.68580000  0.14160000  0.16660000  1.0 -0.2275877942
C  C258  1  0.02500000  0.35840000  0.04420000  1.0 -0.2275877942
C  C259  1  0.47500000  0.51920000  0.33340000  1.0 -0.2275877942
C  C260  1  0.81420000  0.98080000  0.45580000  1.0 -0.2275877942
C  C261  1  0.35840000  0.04420000  0.02500000  1.0 -0.2275877942
C  C262  1  0.14160000  0.16660000  0.68580000  1.0 -0.2275877942
C  C263  1  0.98080000  0.45580000  0.81420000  1.0 -0.2275877942
C  C264  1  0.51920000  0.33340000  0.47500000  1.0 -0.2275877942
C  C265  1  0.97500000  0.83340000  0.01920000  1.0 -0.2275877942
C  C266  1  0.31420000  0.95580000  0.48080000  1.0 -0.2275877942
C  C267  1  0.18580000  0.66666667  0.64160000  1.0 -0.2275877942
C  C268  1  0.52500000  0.54420000  0.85840000  1.0 -0.2275877942
C  C269  1  0.01920000  0.97500000  0.83340000  1.0 -0.2275877942
C  C270  1  0.48080000  0.31420000  0.95580000  1.0 -0.2275877942
C  C271  1  0.64160000  0.18580000  0.66666667  1.0 -0.2275877942
C  C272  1  0.85840000  0.52500000  0.54420000  1.0 -0.2275877942
C  C273  1  0.83340000  0.01920000  0.97500000  1.0 -0.2275877942
C  C274  1  0.95580000  0.48080000  0.31420000  1.0 -0.2275877942
C  C275  1  0.66666667  0.64160000  0.18580000  1.0 -0.2275877942
C  C276  1  0.54420000  0.85840000  0.52500000  1.0 -0.2275877942
C  C277  1  0.54420000  0.18580000  0.01920000  1.0 -0.2275877942
C  C278  1  0.66666667  0.52500000  0.48080000  1.0 -0.2275877942
C  C279  1  0.95580000  0.97500000  0.64160000  1.0 -0.2275877942
C  C280  1  0.83340000  0.31420000  0.85840000  1.0 -0.2275877942
C  C281  1  0.31420000  0.85840000  0.83340000  1.0 -0.2275877942
C  C282  1  0.97500000  0.64160000  0.95580000  1.0 -0.2275877942
C  C283  1  0.52500000  0.48080000  0.66666667  1.0 -0.2275877942
C  C284  1  0.18580000  0.01920000  0.54420000  1.0 -0.2275877942
C  C285  1  0.64160000  0.95580000  0.97500000  1.0 -0.2275877942
C  C286  1  0.85840000  0.83340000  0.31420000  1.0 -0.2275877942
C  C287  1  0.01920000  0.54420000  0.18580000  1.0 -0.2275877942
C  C288  1  0.48080000  0.66666667  0.52500000  1.0 -0.2275877942
C  C289  1  0.98500000  0.17930000  0.96070000  1.0 -0.0056791816
C  C290  1  0.71860000  0.02430000  0.53930000  1.0 -0.0056791816
C  C291  1  0.78140000  0.32070000  0.30570000  1.0 -0.0056791816
C  C292  1  0.51500000  0.47570000  0.19430000  1.0 -0.0056791816
C  C293  1  0.96070000  0.98500000  0.17930000  1.0 -0.0056791816
C  C294  1  0.53930000  0.71860000  0.02430000  1.0 -0.0056791816
C  C295  1  0.30570000  0.78140000  0.32070000  1.0 -0.0056791816
C  C296  1  0.19430000  0.51500000  0.47570000  1.0 -0.0056791816
C  C297  1  0.17930000  0.96070000  0.98500000  1.0 -0.0056791816
C  C298  1  0.02430000  0.53930000  0.71860000  1.0 -0.0056791816
C  C299  1  0.32070000  0.30570000  0.78140000  1.0 -0.0056791816
C  C300  1  0.47570000  0.19430000  0.51500000  1.0 -0.0056791816
C  C301  1  0.47570000  0.78140000  0.96070000  1.0 -0.0056791816
C  C302  1  0.32070000  0.51500000  0.53930000  1.0 -0.0056791816
C  C303  1  0.02430000  0.98500000  0.30570000  1.0 -0.0056791816
C  C304  1  0.17930000  0.71860000  0.19430000  1.0 -0.0056791816
C  C305  1  0.71860000  0.19430000  0.17930000  1.0 -0.0056791816
C  C306  1  0.98500000  0.30570000  0.02430000  1.0 -0.0040590898
C  C307  1  0.51500000  0.53930000  0.32070000  1.0 -0.0056791816
C  C308  1  0.78140000  0.96070000  0.47570000  1.0 -0.0056791816
C  C309  1  0.30570000  0.02430000  0.98500000  1.0 -0.0056791816
C  C310  1  0.19430000  0.17930000  0.71860000  1.0 -0.0056791816
C  C311  1  0.96070000  0.47570000  0.78140000  1.0 -0.0056791816
C  C312  1  0.53930000  0.32070000  0.51500000  1.0 -0.0056791816
C  C313  1  0.01500000  0.82070000  0.03930000  1.0 -0.0056791816
C  C314  1  0.28140000  0.97570000  0.46070000  1.0 -0.0056791816
C  C315  1  0.21860000  0.67930000  0.69430000  1.0 -0.0056791816
C  C316  1  0.48500000  0.52430000  0.80570000  1.0 -0.0056791816
C  C317  1  0.03930000  0.01500000  0.82070000  1.0 -0.0056791816
C  C318  1  0.46070000  0.28140000  0.97570000  1.0 -0.0056791816
C  C319  1  0.69430000  0.21860000  0.67930000  1.0 -0.0056791816
C  C320  1  0.80570000  0.48500000  0.52430000  1.0 -0.0056791816
C  C321  1  0.82070000  0.03930000  0.01500000  1.0 -0.0056791816
C  C322  1  0.97570000  0.46070000  0.28140000  1.0 -0.0056791816
C  C323  1  0.67930000  0.69430000  0.21860000  1.0 -0.0056791816
C  C324  1  0.52430000  0.80570000  0.48500000  1.0 -0.0056791816
C  C325  1  0.52430000  0.21860000  0.03930000  1.0 -0.0056791816
C  C326  1  0.67930000  0.48500000  0.46070000  1.0 -0.0056791816
C  C327  1  0.97570000  0.01500000  0.69430000  1.0 -0.0056791816
C  C328  1  0.82070000  0.28140000  0.80570000  1.0 -0.0056791816
C  C329  1  0.28140000  0.80570000  0.82070000  1.0 -0.0056791816
C  C330  1  0.01500000  0.69430000  0.97570000  1.0 -0.0056791816
C  C331  1  0.48500000  0.46070000  0.67930000  1.0 -0.0056791816
C  C332  1  0.21860000  0.03930000  0.52430000  1.0 -0.0056791816
C  C333  1  0.69430000  0.97570000  0.01500000  1.0 -0.0056791816
C  C334  1  0.80570000  0.82070000  0.28140000  1.0 -0.0056791816
C  C335  1  0.03930000  0.52430000  0.21860000  1.0 -0.0056791816
C  C336  1  0.46070000  0.67930000  0.48500000  1.0 -0.0056791816
C  C337  1  0.78070000  0.17870000  0.85820000  1.0 -0.0651146773
C  C338  1  0.82050000  0.92250000  0.64180000  1.0 -0.0651146773
C  C339  1  0.67950000  0.32130000  0.10200000  1.0 -0.0567434088
C  C340  1  0.71930000  0.57750000  0.39800000  1.0 -0.0651146773
C  C341  1  0.85820000  0.78070000  0.17870000  1.0 -0.0651146773
C  C342  1  0.64180000  0.82050000  0.92250000  1.0 -0.0651146773
C  C343  1  0.10200000  0.67950000  0.32130000  1.0 -0.0651146773
C  C344  1  0.39800000  0.71930000  0.57750000  1.0 -0.0651146773
C  C345  1  0.17870000  0.85820000  0.78070000  1.0 -0.0651146773
C  C346  1  0.92250000  0.64180000  0.82050000  1.0 -0.0567434088
C  C347  1  0.32130000  0.10200000  0.67950000  1.0 -0.0651146773
C  C348  1  0.57750000  0.39800000  0.71930000  1.0 -0.0651146773
C  C349  1  0.57750000  0.67950000  0.85820000  1.0 -0.0651146773
C  C350  1  0.32130000  0.71930000  0.64180000  1.0 -0.0651146773
C  C351  1  0.92250000  0.78070000  0.10200000  1.0 -0.0651146773
C  C352  1  0.17870000  0.82050000  0.39800000  1.0 -0.0651146773
C  C353  1  0.82050000  0.39800000  0.17870000  1.0 -0.0651146773
C  C354  1  0.78070000  0.10200000  0.92250000  1.0 -0.0651146773
C  C355  1  0.71930000  0.64180000  0.32130000  1.0 -0.0651146773
C  C356  1  0.67950000  0.85820000  0.57750000  1.0 -0.0651146773
C  C357  1  0.10200000  0.92250000  0.78070000  1.0 -0.0651146773
C  C358  1  0.39800000  0.17870000  0.82050000  1.0 -0.0651146773
C  C359  1  0.85820000  0.57750000  0.67950000  1.0 -0.0651146773
C  C360  1  0.64180000  0.32130000  0.71930000  1.0 -0.0651146773
C  C361  1  0.21930000  0.82130000  0.14180000  1.0 -0.0651146773
C  C362  1  0.17950000  0.07750000  0.35820000  1.0 -0.0567434088
C  C363  1  0.32050000  0.67870000  0.89800000  1.0 -0.0651146773
C  C364  1  0.28070000  0.42250000  0.60200000  1.0 -0.0651146773
C  C365  1  0.14180000  0.21930000  0.82130000  1.0 -0.0651146773
C  C366  1  0.35820000  0.17950000  0.07750000  1.0 -0.0567434088
C  C367  1  0.89800000  0.32050000  0.67870000  1.0 -0.0651146773
C  C368  1  0.60200000  0.28070000  0.42250000  1.0 -0.0567434088
C  C369  1  0.82130000  0.14180000  0.21930000  1.0 -0.0567434088
C  C370  1  0.07750000  0.35820000  0.17950000  1.0 -0.0651146773
C  C371  1  0.67870000  0.89800000  0.32050000  1.0 -0.0651146773
C  C372  1  0.42250000  0.60200000  0.28070000  1.0 -0.0651146773
C  C373  1  0.42250000  0.32050000  0.14180000  1.0 -0.0567434088
C  C374  1  0.67870000  0.28070000  0.35820000  1.0 -0.0567434088
C  C375  1  0.07750000  0.21930000  0.89800000  1.0 -0.0651146773
C  C376  1  0.82130000  0.17950000  0.60200000  1.0 -0.0651146773
C  C377  1  0.17950000  0.60200000  0.82130000  1.0 -0.0651146773
C  C378  1  0.21930000  0.89800000  0.07750000  1.0 -0.0651146773
C  C379  1  0.28070000  0.35820000  0.67870000  1.0 -0.0651146773
C  C380  1  0.32050000  0.14180000  0.42250000  1.0 -0.0651146773
C  C381  1  0.89800000  0.07750000  0.21930000  1.0 -0.0567434088
C  C382  1  0.60200000  0.82130000  0.17950000  1.0 -0.0651146773
C  C383  1  0.14180000  0.42250000  0.32050000  1.0 -0.0651146773
C  C384  1  0.35820000  0.67870000  0.28070000  1.0 -0.0651146773
C  C385  1  0.73570000  0.18510000  0.84140000  1.0 0.0766206809
C  C386  1  0.84370000  0.89430000  0.65860000  1.0 0.0766206809
C  C387  1  0.65630000  0.31490000  0.05060000  1.0 0.0766206809
C  C388  1  0.76430000  0.60570000  0.44940000  1.0 0.0766206809
C  C389  1  0.84140000  0.73570000  0.18510000  1.0 0.0766206809
C  C390  1  0.65860000  0.84370000  0.89430000  1.0 0.0766206809
C  C391  1  0.05060000  0.65630000  0.31490000  1.0 0.0766206809
C  C392  1  0.44940000  0.76430000  0.60570000  1.0 0.0766206809
C  C393  1  0.18510000  0.84140000  0.73570000  1.0 0.0766206809
C  C394  1  0.89430000  0.65860000  0.84370000  1.0 0.0766206809
C  C395  1  0.31490000  0.05060000  0.65630000  1.0 0.0766206809
C  C396  1  0.60570000  0.44940000  0.76430000  1.0 0.0766206809
C  C397  1  0.60570000  0.65630000  0.84140000  1.0 0.0766206809
C  C398  1  0.31490000  0.76430000  0.65860000  1.0 0.0766206809
C  C399  1  0.89430000  0.73570000  0.05060000  1.0 0.0766206809
C  C400  1  0.18510000  0.84370000  0.44940000  1.0 0.0766206809
C  C401  1  0.84370000  0.44940000  0.18510000  1.0 0.0766206809
C  C402  1  0.73570000  0.05060000  0.89430000  1.0 0.0766206809
C  C403  1  0.76430000  0.65860000  0.31490000  1.0 0.0766206809
C  C404  1  0.65630000  0.84140000  0.60570000  1.0 0.0766206809
C  C405  1  0.05060000  0.89430000  0.73570000  1.0 0.0766206809
C  C406  1  0.44940000  0.18510000  0.84370000  1.0 0.0766206809
C  C407  1  0.84140000  0.60570000  0.65630000  1.0 0.0766206809
C  C408  1  0.65860000  0.31490000  0.76430000  1.0 0.0766206809
C  C409  1  0.26430000  0.81490000  0.15860000  1.0 0.0766206809
C  C410  1  0.15630000  0.10570000  0.34140000  1.0 0.0766206809
C  C411  1  0.34370000  0.68510000  0.94940000  1.0 0.0766206809
C  C412  1  0.23570000  0.39430000  0.55060000  1.0 0.0766206809
C  C413  1  0.15860000  0.26430000  0.81490000  1.0 0.0766206809
C  C414  1  0.34140000  0.15630000  0.10570000  1.0 0.0766206809
C  C415  1  0.94940000  0.34370000  0.68510000  1.0 0.0766206809
C  C416  1  0.55060000  0.23570000  0.39430000  1.0 0.0766206809
C  C417  1  0.81490000  0.15860000  0.26430000  1.0 0.0766206809
C  C418  1  0.10570000  0.34140000  0.15630000  1.0 0.0766206809
C  C419  1  0.68510000  0.94940000  0.34370000  1.0 0.0766206809
C  C420  1  0.39430000  0.55060000  0.23570000  1.0 0.0766206809
C  C421  1  0.39430000  0.34370000  0.15860000  1.0 0.0766206809
C  C422  1  0.68510000  0.23570000  0.34140000  1.0 0.0766206809
C  C423  1  0.10570000  0.26430000  0.94940000  1.0 0.0766206809
C  C424  1  0.81490000  0.15630000  0.55060000  1.0 0.0766206809
C  C425  1  0.15630000  0.55060000  0.81490000  1.0 0.0766206809
C  C426  1  0.26430000  0.94940000  0.10570000  1.0 0.0766206809
C  C427  1  0.23570000  0.34140000  0.68510000  1.0 0.0766206809
C  C428  1  0.34370000  0.15860000  0.39430000  1.0 0.0766206809
C  C429  1  0.94940000  0.10570000  0.26430000  1.0 0.0766206809
C  C430  1  0.55060000  0.81490000  0.15630000  1.0 0.0766206809
C  C431  1  0.15860000  0.39430000  0.34370000  1.0 0.0766206809
C  C432  1  0.34140000  0.68510000  0.23570000  1.0 0.0766206809
C  C433  1  0.73090000  0.22370000  0.87720000  1.0 -0.1630559686
C  C434  1  0.84650000  0.85370000  0.62280000  1.0 -0.1630559686
C  C435  1  0.65350000  0.27630000  0.00720000  1.0 -0.1630559686
C  C436  1  0.76910000  0.64630000  0.49280000  1.0 -0.1630559686
C  C437  1  0.87720000  0.73090000  0.22370000  1.0 -0.1630559686
C  C438  1  0.62280000  0.84650000  0.85370000  1.0 -0.1630559686
C  C439  1  0.00720000  0.65350000  0.27630000  1.0 -0.1630559686
C  C440  1  0.49280000  0.76910000  0.64630000  1.0 -0.1630559686
C  C441  1  0.22370000  0.87720000  0.73090000  1.0 -0.1630559686
C  C442  1  0.85370000  0.62280000  0.84650000  1.0 -0.1630559686
C  C443  1  0.27630000  0.00720000  0.65350000  1.0 -0.1630559686
C  C444  1  0.64630000  0.49280000  0.76910000  1.0 -0.1630559686
C  C445  1  0.64630000  0.65350000  0.87720000  1.0 -0.1630559686
C  C446  1  0.27630000  0.76910000  0.62280000  1.0 -0.1630559686
C  C447  1  0.85370000  0.73090000  0.00720000  1.0 -0.1630559686
C  C448  1  0.22370000  0.84650000  0.49280000  1.0 -0.1630559686
C  C449  1  0.84650000  0.49280000  0.22370000  1.0 -0.1630559686
C  C450  1  0.73090000  0.00720000  0.85370000  1.0 -0.1630559686
C  C451  1  0.76910000  0.62280000  0.27630000  1.0 -0.1630559686
C  C452  1  0.65350000  0.87720000  0.64630000  1.0 -0.1630559686
C  C453  1  0.00720000  0.85370000  0.73090000  1.0 -0.1630559686
C  C454  1  0.49280000  0.22370000  0.84650000  1.0 -0.1630559686
C  C455  1  0.87720000  0.64630000  0.65350000  1.0 -0.1630559686
C  C456  1  0.62280000  0.27630000  0.76910000  1.0 -0.1630559686
C  C457  1  0.26910000  0.77630000  0.12280000  1.0 -0.1630559686
C  C458  1  0.15350000  0.14630000  0.37720000  1.0 -0.1630559686
C  C459  1  0.34650000  0.72370000  0.99280000  1.0 -0.1630559686
C  C460  1  0.23090000  0.35370000  0.50720000  1.0 -0.1630559686
C  C461  1  0.12280000  0.26910000  0.77630000  1.0 -0.1630559686
C  C462  1  0.37720000  0.15350000  0.14630000  1.0 -0.1630559686
C  C463  1  0.99280000  0.34650000  0.72370000  1.0 -0.1630559686
C  C464  1  0.50720000  0.23090000  0.35370000  1.0 -0.1630559686
C  C465  1  0.77630000  0.12280000  0.26910000  1.0 -0.1630559686
C  C466  1  0.14630000  0.37720000  0.15350000  1.0 -0.1630559686
C  C467  1  0.72370000  0.99280000  0.34650000  1.0 -0.1630559686
C  C468  1  0.35370000  0.50720000  0.23090000  1.0 -0.1630559686
C  C469  1  0.35370000  0.34650000  0.12280000  1.0 -0.1630559686
C  C470  1  0.72370000  0.23090000  0.37720000  1.0 -0.1630559686
C  C471  1  0.14630000  0.26910000  0.99280000  1.0 -0.1630559686
C  C472  1  0.77630000  0.15350000  0.50720000  1.0 -0.1630559686
C  C473  1  0.15350000  0.50720000  0.77630000  1.0 -0.1630559686
C  C474  1  0.26910000  0.99280000  0.14630000  1.0 -0.1630559686
C  C475  1  0.23090000  0.37720000  0.72370000  1.0 -0.1630559686
C  C476  1  0.34650000  0.12280000  0.35370000  1.0 -0.1630559686
C  C477  1  0.99280000  0.14630000  0.26910000  1.0 -0.1630559686
C  C478  1  0.50720000  0.77630000  0.15350000  1.0 -0.1630559686
C  C479  1  0.12280000  0.35370000  0.34650000  1.0 -0.1630559686
C  C480  1  0.37720000  0.72370000  0.23090000  1.0 -0.1630559686
C  C481  1  0.77000000  0.25400000  0.92820000  1.0 -0.1458620282
C  C482  1  0.82580000  0.84180000  0.57180000  1.0 -0.1458620282
C  C483  1  0.67420000  0.24600000  0.01600000  1.0 -0.1458620282
C  C484  1  0.73000000  0.65820000  0.48400000  1.0 -0.1458620282
C  C485  1  0.92820000  0.77000000  0.25400000  1.0 -0.1458620282
C  C486  1  0.57180000  0.82580000  0.84180000  1.0 -0.1458620282
C  C487  1  0.01600000  0.67420000  0.24600000  1.0 -0.1458620282
C  C488  1  0.48400000  0.73000000  0.65820000  1.0 -0.1458620282
C  C489  1  0.25400000  0.92820000  0.77000000  1.0 -0.1458620282
C  C490  1  0.84180000  0.57180000  0.82580000  1.0 -0.1458620282
C  C491  1  0.24600000  0.01600000  0.67420000  1.0 -0.1458620282
C  C492  1  0.65820000  0.48400000  0.73000000  1.0 -0.1458620282
C  C493  1  0.65820000  0.67420000  0.92820000  1.0 -0.1458620282
C  C494  1  0.24600000  0.73000000  0.57180000  1.0 -0.1458620282
C  C495  1  0.84180000  0.77000000  0.01600000  1.0 -0.1458620282
C  C496  1  0.25400000  0.82580000  0.48400000  1.0 -0.1458620282
C  C497  1  0.82580000  0.48400000  0.25400000  1.0 -0.1458620282
C  C498  1  0.77000000  0.01600000  0.84180000  1.0 -0.1458620282
C  C499  1  0.73000000  0.57180000  0.24600000  1.0 -0.1458620282
C  C500  1  0.67420000  0.92820000  0.65820000  1.0 -0.1458620282
C  C501  1  0.01600000  0.84180000  0.77000000  1.0 -0.1458620282
C  C502  1  0.48400000  0.25400000  0.82580000  1.0 -0.1458620282
C  C503  1  0.92820000  0.65820000  0.67420000  1.0 -0.1458620282
C  C504  1  0.57180000  0.24600000  0.73000000  1.0 -0.1458620282
C  C505  1  0.23000000  0.74600000  0.07180000  1.0 -0.1458620282
C  C506  1  0.17420000  0.15820000  0.42820000  1.0 -0.1458620282
C  C507  1  0.32580000  0.75400000  0.98400000  1.0 -0.1458620282
C  C508  1  0.27000000  0.34180000  0.51600000  1.0 -0.1458620282
C  C509  1  0.07180000  0.23000000  0.74600000  1.0 -0.1458620282
C  C510  1  0.42820000  0.17420000  0.15820000  1.0 -0.1458620282
C  C511  1  0.98400000  0.32580000  0.75400000  1.0 -0.1458620282
C  C512  1  0.51600000  0.27000000  0.34180000  1.0 -0.1458620282
C  C513  1  0.74600000  0.07180000  0.23000000  1.0 -0.1458620282
C  C514  1  0.15820000  0.42820000  0.17420000  1.0 -0.1458620282
C  C515  1  0.75400000  0.98400000  0.32580000  1.0 -0.1458620282
C  C516  1  0.34180000  0.51600000  0.27000000  1.0 -0.1458620282
C  C517  1  0.34180000  0.32580000  0.07180000  1.0 -0.1458620282
C  C518  1  0.75400000  0.27000000  0.42820000  1.0 -0.1458620282
C  C519  1  0.15820000  0.23000000  0.98400000  1.0 -0.1458620282
C  C520  1  0.74600000  0.17420000  0.51600000  1.0 -0.1458620282
C  C521  1  0.17420000  0.51600000  0.74600000  1.0 -0.1458620282
C  C522  1  0.23000000  0.98400000  0.15820000  1.0 -0.1458620282
C  C523  1  0.27000000  0.42820000  0.75400000  1.0 -0.1458620282
C  C524  1  0.32580000  0.07180000  0.34180000  1.0 -0.1458620282
C  C525  1  0.98400000  0.15820000  0.23000000  1.0 -0.1458620282
C  C526  1  0.51600000  0.74600000  0.17420000  1.0 -0.1458620282
C  C527  1  0.07180000  0.34180000  0.32580000  1.0 -0.1458620282
C  C528  1  0.42820000  0.75400000  0.27000000  1.0 -0.1458620282
C  C529  1  0.81490000  0.24790000  0.94560000  1.0 0.037615057
C  C530  1  0.80230000  0.86930000  0.55440000  1.0 0.037615057
C  C531  1  0.69770000  0.25210000  0.06700000  1.0 0.037615057
C  C532  1  0.68510000  0.63070000  0.43300000  1.0 0.037615057
C  C533  1  0.94560000  0.81490000  0.24790000  1.0 0.037615057
C  C534  1  0.55440000  0.80230000  0.86930000  1.0 0.037615057
C  C535  1  0.06700000  0.69770000  0.25210000  1.0 0.037615057
C  C536  1  0.43300000  0.68510000  0.63070000  1.0 0.037615057
C  C537  1  0.24790000  0.94560000  0.81490000  1.0 0.037615057
C  C538  1  0.86930000  0.55440000  0.80230000  1.0 0.037615057
C  C539  1  0.25210000  0.06700000  0.69770000  1.0 0.037615057
C  C540  1  0.63070000  0.43300000  0.68510000  1.0 0.037615057
C  C541  1  0.63070000  0.69770000  0.94560000  1.0 0.037615057
C  C542  1  0.25210000  0.68510000  0.55440000  1.0 0.037615057
C  C543  1  0.86930000  0.81490000  0.06700000  1.0 0.037615057
C  C544  1  0.24790000  0.80230000  0.43300000  1.0 0.037615057
C  C545  1  0.80230000  0.43300000  0.24790000  1.0 0.037615057
C  C546  1  0.81490000  0.06700000  0.86930000  1.0 0.037615057
C  C547  1  0.68510000  0.55440000  0.25210000  1.0 0.037615057
C  C548  1  0.69770000  0.94560000  0.63070000  1.0 0.037615057
C  C549  1  0.06700000  0.86930000  0.81490000  1.0 0.037615057
C  C550  1  0.43300000  0.24790000  0.80230000  1.0 0.037615057
C  C551  1  0.94560000  0.63070000  0.69770000  1.0 0.037615057
C  C552  1  0.55440000  0.25210000  0.68510000  1.0 0.037615057
C  C553  1  0.18510000  0.75210000  0.05440000  1.0 0.037615057
C  C554  1  0.19770000  0.13070000  0.44560000  1.0 0.037615057
C  C555  1  0.30230000  0.74790000  0.93300000  1.0 0.037615057
C  C556  1  0.31490000  0.36930000  0.56700000  1.0 0.037615057
C  C557  1  0.05440000  0.18510000  0.75210000  1.0 0.037615057
C  C558  1  0.44560000  0.19770000  0.13070000  1.0 0.037615057
C  C559  1  0.93300000  0.30230000  0.74790000  1.0 0.037615057
C  C560  1  0.56700000  0.31490000  0.36930000  1.0 0.037615057
C  C561  1  0.75210000  0.05440000  0.18510000  1.0 0.037615057
C  C562  1  0.13070000  0.44560000  0.19770000  1.0 0.037615057
C  C563  1  0.74790000  0.93300000  0.30230000  1.0 0.037615057
C  C564  1  0.36930000  0.56700000  0.31490000  1.0 0.037615057
C  C565  1  0.36930000  0.30230000  0.05440000  1.0 0.037615057
C  C566  1  0.74790000  0.31490000  0.44560000  1.0 0.037615057
C  C567  1  0.13070000  0.18510000  0.93300000  1.0 0.037615057
C  C568  1  0.75210000  0.19770000  0.56700000  1.0 0.037615057
C  C569  1  0.19770000  0.56700000  0.75210000  1.0 0.037615057
C  C570  1  0.18510000  0.93300000  0.13070000  1.0 0.037615057
C  C571  1  0.31490000  0.44560000  0.74790000  1.0 0.037615057
C  C572  1  0.30230000  0.05440000  0.36930000  1.0 0.037615057
C  C573  1  0.93300000  0.13070000  0.18510000  1.0 0.037615057
C  C574  1  0.56700000  0.75210000  0.19770000  1.0 0.037615057
C  C575  1  0.05440000  0.36930000  0.30230000  1.0 0.037615057
C  C576  1  0.44560000  0.74790000  0.31490000  1.0 0.037615057
C  C577  1  0.98360000  0.11810000  0.07050000  1.0 -0.0299582515
C  C578  1  0.54760000  0.91310000  0.42950000  1.0 -0.0299582515
C  C579  1  0.95240000  0.38190000  0.36550000  1.0 -0.0299582515
C  C580  1  0.51640000  0.58690000  0.13450000  1.0 -0.0299582515
C  C581  1  0.07050000  0.98360000  0.11810000  1.0 -0.0299582515
C  C582  1  0.42950000  0.54760000  0.91310000  1.0 -0.0299582515
C  C583  1  0.36550000  0.95240000  0.38190000  1.0 -0.0299582515
C  C584  1  0.13450000  0.51640000  0.58690000  1.0 -0.0299582515
C  C585  1  0.11810000  0.07050000  0.98360000  1.0 -0.0299582515
C  C586  1  0.91310000  0.42950000  0.54760000  1.0 -0.0299582515
C  C587  1  0.38190000  0.36550000  0.95240000  1.0 -0.0299582515
C  C588  1  0.58690000  0.13450000  0.51640000  1.0 -0.0299582515
C  C589  1  0.58690000  0.95240000  0.07050000  1.0 -0.0299582515
C  C590  1  0.38190000  0.51640000  0.42950000  1.0 -0.0299582515
C  C591  1  0.91310000  0.98360000  0.36550000  1.0 -0.0299582515
C  C592  1  0.11810000  0.54760000  0.13450000  1.0 -0.0299582515
C  C593  1  0.54760000  0.13450000  0.11810000  1.0 -0.0299582515
C  C594  1  0.98360000  0.36550000  0.91310000  1.0 -0.0299582515
C  C595  1  0.51640000  0.42950000  0.38190000  1.0 -0.0299582515
C  C596  1  0.95240000  0.07050000  0.58690000  1.0 -0.0299582515
C  C597  1  0.36550000  0.91310000  0.98360000  1.0 -0.0299582515
C  C598  1  0.13450000  0.11810000  0.54760000  1.0 -0.0299582515
C  C599  1  0.07050000  0.58690000  0.95240000  1.0 -0.0299582515
C  C600  1  0.42950000  0.38190000  0.51640000  1.0 -0.0299582515
C  C601  1  0.01640000  0.88190000  0.92950000  1.0 -0.0299582515
C  C602  1  0.45240000  0.08690000  0.57050000  1.0 -0.0299582515
C  C603  1  0.04760000  0.61810000  0.63450000  1.0 -0.0299582515
C  C604  1  0.48360000  0.41310000  0.86550000  1.0 -0.0299582515
C  C605  1  0.92950000  0.01640000  0.88190000  1.0 -0.0299582515
C  C606  1  0.57050000  0.45240000  0.08690000  1.0 -0.0299582515
C  C607  1  0.63450000  0.04760000  0.61810000  1.0 -0.0299582515
C  C608  1  0.86550000  0.48360000  0.41310000  1.0 -0.0299582515
C  C609  1  0.88190000  0.92950000  0.01640000  1.0 -0.0299582515
C  C610  1  0.08690000  0.57050000  0.45240000  1.0 -0.0299582515
C  C611  1  0.61810000  0.63450000  0.04760000  1.0 -0.0299582515
C  C612  1  0.41310000  0.86550000  0.48360000  1.0 -0.0299582515
C  C613  1  0.41310000  0.04760000  0.92950000  1.0 -0.0299582515
C  C614  1  0.61810000  0.48360000  0.57050000  1.0 -0.0299582515
C  C615  1  0.08690000  0.01640000  0.63450000  1.0 -0.0299582515
C  C616  1  0.88190000  0.45240000  0.86550000  1.0 -0.0299582515
C  C617  1  0.45240000  0.86550000  0.88190000  1.0 -0.0299582515
C  C618  1  0.01640000  0.63450000  0.08690000  1.0 -0.0299582515
C  C619  1  0.48360000  0.57050000  0.61810000  1.0 -0.0299582515
C  C620  1  0.04760000  0.92950000  0.41310000  1.0 -0.0299582515
C  C621  1  0.63450000  0.08690000  0.01640000  1.0 -0.0299582515
C  C622  1  0.86550000  0.88190000  0.45240000  1.0 -0.0299582515
C  C623  1  0.92950000  0.41310000  0.04760000  1.0 -0.0299582515
C  C624  1  0.57050000  0.61810000  0.48360000  1.0 -0.0299582515
C  C625  1  0.68440000  0.15020000  0.78600000  1.0 -0.0539589791
C  C626  1  0.86420000  0.89840000  0.71400000  1.0 -0.0539589791
C  C627  1  0.63580000  0.34980000  0.03420000  1.0 -0.0539589791
C  C628  1  0.81560000  0.60160000  0.46580000  1.0 -0.0539589791
C  C629  1  0.78600000  0.68440000  0.15020000  1.0 -0.0539589791
C  C630  1  0.71400000  0.86420000  0.89840000  1.0 -0.0539589791
C  C631  1  0.03420000  0.63580000  0.34980000  1.0 -0.0567434088
C  C632  1  0.46580000  0.81560000  0.60160000  1.0 -0.0539589791
C  C633  1  0.15020000  0.78600000  0.68440000  1.0 -0.0567434088
C  C634  1  0.89840000  0.71400000  0.86420000  1.0 -0.0539589791
C  C635  1  0.34980000  0.03420000  0.63580000  1.0 -0.0539589791
C  C636  1  0.60160000  0.46580000  0.81560000  1.0 -0.0539589791
C  C637  1  0.60160000  0.63580000  0.78600000  1.0 -0.0539589791
C  C638  1  0.34980000  0.81560000  0.71400000  1.0 -0.0539589791
C  C639  1  0.89840000  0.68440000  0.03420000  1.0 -0.0539589791
C  C640  1  0.15020000  0.86420000  0.46580000  1.0 -0.0567434088
C  C641  1  0.86420000  0.46580000  0.15020000  1.0 -0.0539589791
C  C642  1  0.68440000  0.03420000  0.89840000  1.0 -0.0539589791
C  C643  1  0.81560000  0.71400000  0.34980000  1.0 -0.0539589791
C  C644  1  0.63580000  0.78600000  0.60160000  1.0 -0.0539589791
C  C645  1  0.03420000  0.89840000  0.68440000  1.0 -0.0567434088
C  C646  1  0.46580000  0.15020000  0.86420000  1.0 -0.0539589791
C  C647  1  0.78600000  0.60160000  0.63580000  1.0 -0.0539589791
C  C648  1  0.71400000  0.34980000  0.81560000  1.0 -0.0539589791
C  C649  1  0.31560000  0.84980000  0.21400000  1.0 -0.0567434088
C  C650  1  0.13580000  0.10160000  0.28600000  1.0 -0.0567434088
C  C651  1  0.36420000  0.65020000  0.96580000  1.0 -0.0539589791
C  C652  1  0.18440000  0.39840000  0.53420000  1.0 -0.0567434088
C  C653  1  0.21400000  0.31560000  0.84980000  1.0 -0.0539589791
C  C654  1  0.28600000  0.13580000  0.10160000  1.0 -0.0539589791
C  C655  1  0.96580000  0.36420000  0.65020000  1.0 -0.0539589791
C  C656  1  0.53420000  0.18440000  0.39840000  1.0 -0.0539589791
C  C657  1  0.84980000  0.21400000  0.31560000  1.0 -0.0539589791
C  C658  1  0.10160000  0.28600000  0.13580000  1.0 -0.0567434088
C  C659  1  0.65020000  0.96580000  0.36420000  1.0 -0.0539589791
C  C660  1  0.39840000  0.53420000  0.18440000  1.0 -0.0539589791
C  C661  1  0.39840000  0.36420000  0.21400000  1.0 -0.0539589791
C  C662  1  0.65020000  0.18440000  0.28600000  1.0 -0.0539589791
C  C663  1  0.10160000  0.31560000  0.96580000  1.0 -0.0539589791
C  C664  1  0.84980000  0.13580000  0.53420000  1.0 -0.0539589791
C  C665  1  0.13580000  0.53420000  0.84980000  1.0 -0.0539589791
C  C666  1  0.31560000  0.96580000  0.10160000  1.0 -0.0567434088
C  C667  1  0.18440000  0.28600000  0.65020000  1.0 -0.0539589791
C  C668  1  0.36420000  0.21400000  0.39840000  1.0 -0.0539589791
C  C669  1  0.96580000  0.10160000  0.31560000  1.0 -0.0539589791
C  C670  1  0.53420000  0.84980000  0.13580000  1.0 -0.0539589791
C  C671  1  0.21400000  0.39840000  0.36420000  1.0 -0.0567434088
C  C672  1  0.28600000  0.65020000  0.18440000  1.0 -0.0567434088
C  C673  1  0.69790000  0.15350000  0.78080000  1.0 -0.0567434088
C  C674  1  0.87270000  0.91710000  0.71920000  1.0 -0.0567434088
C  C675  1  0.62730000  0.34650000  0.04440000  1.0 -0.0567434088
C  C676  1  0.80210000  0.58290000  0.45560000  1.0 -0.0567434088
C  C677  1  0.78080000  0.69790000  0.15350000  1.0 -0.0567434088
C  C678  1  0.71920000  0.87270000  0.91710000  1.0 -0.0567434088
C  C679  1  0.04440000  0.62730000  0.34650000  1.0 -0.0567434088
C  C680  1  0.45560000  0.80210000  0.58290000  1.0 -0.0567434088
C  C681  1  0.15350000  0.78080000  0.69790000  1.0 -0.0567434088
C  C682  1  0.91710000  0.71920000  0.87270000  1.0 -0.0567434088
C  C683  1  0.34650000  0.04440000  0.62730000  1.0 -0.0567434088
C  C684  1  0.58290000  0.45560000  0.80210000  1.0 -0.0567434088
C  C685  1  0.58290000  0.62730000  0.78080000  1.0 -0.0567434088
C  C686  1  0.34650000  0.80210000  0.71920000  1.0 -0.0567434088
C  C687  1  0.91710000  0.69790000  0.04440000  1.0 -0.0567434088
C  C688  1  0.15350000  0.87270000  0.45560000  1.0 -0.0567434088
C  C689  1  0.87270000  0.45560000  0.15350000  1.0 -0.0567434088
C  C690  1  0.69790000  0.04440000  0.91710000  1.0 -0.0567434088
C  C691  1  0.80210000  0.71920000  0.34650000  1.0 -0.0567434088
C  C692  1  0.62730000  0.78080000  0.58290000  1.0 -0.0567434088
C  C693  1  0.04440000  0.91710000  0.69790000  1.0 -0.0567434088
C  C694  1  0.45560000  0.15350000  0.87270000  1.0 -0.0567434088
C  C695  1  0.78080000  0.58290000  0.62730000  1.0 -0.0567434088
C  C696  1  0.71920000  0.34650000  0.80210000  1.0 -0.0567434088
C  C697  1  0.30210000  0.84650000  0.21920000  1.0 -0.0567434088
C  C698  1  0.12730000  0.08290000  0.28080000  1.0 -0.0567434088
C  C699  1  0.37270000  0.65350000  0.95560000  1.0 -0.0567434088
C  C700  1  0.19790000  0.41710000  0.54440000  1.0 -0.0567434088
C  C701  1  0.21920000  0.30210000  0.84650000  1.0 -0.0567434088
C  C702  1  0.28080000  0.12730000  0.08290000  1.0 -0.0567434088
C  C703  1  0.95560000  0.37270000  0.65350000  1.0 -0.0567434088
C  C704  1  0.54440000  0.19790000  0.41710000  1.0 -0.0567434088
C  C705  1  0.84650000  0.21920000  0.30210000  1.0 -0.0567434088
C  C706  1  0.08290000  0.28080000  0.12730000  1.0 -0.0567434088
C  C707  1  0.65350000  0.95560000  0.37270000  1.0 -0.0567434088
C  C708  1  0.41710000  0.54440000  0.19790000  1.0 -0.0567434088
C  C709  1  0.41710000  0.37270000  0.21920000  1.0 -0.0567434088
C  C710  1  0.65350000  0.19790000  0.28080000  1.0 -0.0567434088
C  C711  1  0.08290000  0.30210000  0.95560000  1.0 -0.0567434088
C  C712  1  0.84650000  0.12730000  0.54440000  1.0 -0.0567434088
C  C713  1  0.12730000  0.54440000  0.84650000  1.0 -0.0567434088
C  C714  1  0.30210000  0.95560000  0.08290000  1.0 -0.0567434088
C  C715  1  0.19790000  0.28080000  0.65350000  1.0 -0.0567434088
C  C716  1  0.37270000  0.21920000  0.41710000  1.0 -0.0567434088
C  C717  1  0.95560000  0.08290000  0.30210000  1.0 -0.0567434088
C  C718  1  0.54440000  0.84650000  0.12730000  1.0 -0.0567434088
C  C719  1  0.21920000  0.41710000  0.37270000  1.0 -0.0567434088
C  C720  1  0.28080000  0.65350000  0.19790000  1.0 -0.0567434088
N  N1  1  0.74840000  0.07830000  0.72950000  1.0 -0.4010112672
N  N2  1  0.84880000  0.01890000  0.77050000  1.0 -0.4010112672
N  N3  1  0.65120000  0.42170000  0.17010000  1.0 -0.4010112672
N  N4  1  0.75160000  0.48110000  0.32990000  1.0 -0.4010112672
N  N5  1  0.72950000  0.74840000  0.07830000  1.0 -0.4010112672
N  N6  1  0.77050000  0.84880000  0.01890000  1.0 -0.4010112672
N  N7  1  0.17010000  0.65120000  0.42170000  1.0 -0.4010112672
N  N8  1  0.32990000  0.75160000  0.48110000  1.0 -0.4010112672
N  N9  1  0.07830000  0.72950000  0.74840000  1.0 -0.4010112672
N  N10  1  0.01890000  0.77050000  0.84880000  1.0 -0.4010112672
N  N11  1  0.42170000  0.17010000  0.65120000  1.0 -0.4010112672
N  N12  1  0.48110000  0.32990000  0.75160000  1.0 -0.4010112672
N  N13  1  0.48110000  0.65120000  0.72950000  1.0 -0.4010112672
N  N14  1  0.42170000  0.75160000  0.77050000  1.0 -0.4010112672
N  N15  1  0.01890000  0.74840000  0.17010000  1.0 -0.4010112672
N  N16  1  0.07830000  0.84880000  0.32990000  1.0 -0.4010112672
N  N17  1  0.84880000  0.32990000  0.07830000  1.0 -0.4010112672
N  N18  1  0.74840000  0.17010000  0.01890000  1.0 -0.4010112672
N  N19  1  0.75160000  0.77050000  0.42170000  1.0 -0.4010112672
N  N20  1  0.65120000  0.72950000  0.48110000  1.0 -0.4010112672
N  N21  1  0.17010000  0.01890000  0.74840000  1.0 -0.4010112672
N  N22  1  0.32990000  0.07830000  0.84880000  1.0 -0.4010112672
N  N23  1  0.72950000  0.48110000  0.65120000  1.0 -0.4010112672
N  N24  1  0.77050000  0.42170000  0.75160000  1.0 -0.4010112672
N  N25  1  0.25160000  0.92170000  0.27050000  1.0 -0.4010112672
N  N26  1  0.15120000  0.98110000  0.22950000  1.0 -0.4010112672
N  N27  1  0.34880000  0.57830000  0.82990000  1.0 -0.4010112672
N  N28  1  0.24840000  0.51890000  0.67010000  1.0 -0.4010112672
N  N29  1  0.27050000  0.25160000  0.92170000  1.0 -0.4010112672
N  N30  1  0.22950000  0.15120000  0.98110000  1.0 -0.4010112672
N  N31  1  0.82990000  0.34880000  0.57830000  1.0 -0.4010112672
N  N32  1  0.67010000  0.24840000  0.51890000  1.0 -0.4010112672
N  N33  1  0.92170000  0.27050000  0.25160000  1.0 -0.4010112672
N  N34  1  0.98110000  0.22950000  0.15120000  1.0 -0.4010112672
N  N35  1  0.57830000  0.82990000  0.34880000  1.0 -0.4010112672
N  N36  1  0.51890000  0.67010000  0.24840000  1.0 -0.4010112672
N  N37  1  0.51890000  0.34880000  0.27050000  1.0 -0.4010112672
N  N38  1  0.57830000  0.24840000  0.22950000  1.0 -0.4010112672
N  N39  1  0.98110000  0.25160000  0.82990000  1.0 -0.4010112672
N  N40  1  0.92170000  0.15120000  0.67010000  1.0 -0.4010112672
N  N41  1  0.15120000  0.67010000  0.92170000  1.0 -0.4010112672
N  N42  1  0.25160000  0.82990000  0.98110000  1.0 -0.4010112672
N  N43  1  0.24840000  0.22950000  0.57830000  1.0 -0.4010112672
N  N44  1  0.34880000  0.27050000  0.51890000  1.0 -0.4010112672
N  N45  1  0.82990000  0.98110000  0.25160000  1.0 -0.4010112672
N  N46  1  0.67010000  0.92170000  0.15120000  1.0 -0.4010112672
N  N47  1  0.27050000  0.51890000  0.34880000  1.0 -0.4010112672
N  N48  1  0.22950000  0.57830000  0.24840000  1.0 -0.4010112672
N  N49  1  0.88600000  0.17010000  0.87110000  1.0 -0.3510470405
N  N50  1  0.79900000  0.01490000  0.62890000  1.0 -0.3510470405
N  N51  1  0.70100000  0.32990000  0.21590000  1.0 -0.3510470405
N  N52  1  0.61400000  0.48510000  0.28410000  1.0 -0.3510470405
N  N53  1  0.87110000  0.88600000  0.17010000  1.0 -0.3510470405
N  N54  1  0.62890000  0.79900000  0.01490000  1.0 -0.3510470405
N  N55  1  0.21590000  0.70100000  0.32990000  1.0 -0.3510470405
N  N56  1  0.28410000  0.61400000  0.48510000  1.0 -0.3510470405
N  N57  1  0.17010000  0.87110000  0.88600000  1.0 -0.3510470405
N  N58  1  0.01490000  0.62890000  0.79900000  1.0 -0.3510470405
N  N59  1  0.32990000  0.21590000  0.70100000  1.0 -0.3510470405
N  N60  1  0.48510000  0.28410000  0.61400000  1.0 -0.3510470405
N  N61  1  0.48510000  0.70100000  0.87110000  1.0 -0.3510470405
N  N62  1  0.32990000  0.61400000  0.62890000  1.0 -0.3510470405
N  N63  1  0.01490000  0.88600000  0.21590000  1.0 -0.3510470405
N  N64  1  0.17010000  0.79900000  0.28410000  1.0 -0.3510470405
N  N65  1  0.79900000  0.28410000  0.17010000  1.0 -0.3510470405
N  N66  1  0.88600000  0.21590000  0.01490000  1.0 -0.3510470405
N  N67  1  0.61400000  0.62890000  0.32990000  1.0 -0.3510470405
N  N68  1  0.70100000  0.87110000  0.48510000  1.0 -0.3510470405
N  N69  1  0.21590000  0.01490000  0.88600000  1.0 -0.3510470405
N  N70  1  0.28410000  0.17010000  0.79900000  1.0 -0.3510470405
N  N71  1  0.87110000  0.48510000  0.70100000  1.0 -0.3510470405
N  N72  1  0.62890000  0.32990000  0.61400000  1.0 -0.3510470405
N  N73  1  0.11400000  0.82990000  0.12890000  1.0 -0.3510470405
N  N74  1  0.20100000  0.98510000  0.37110000  1.0 -0.3510470405
N  N75  1  0.29900000  0.67010000  0.78410000  1.0 -0.3510470405
N  N76  1  0.38600000  0.51490000  0.71590000  1.0 -0.3510470405
N  N77  1  0.12890000  0.11400000  0.82990000  1.0 -0.3510470405
N  N78  1  0.37110000  0.20100000  0.98510000  1.0 -0.3510470405
N  N79  1  0.78410000  0.29900000  0.67010000  1.0 -0.3510470405
N  N80  1  0.71590000  0.38600000  0.51490000  1.0 -0.3510470405
N  N81  1  0.82990000  0.12890000  0.11400000  1.0 -0.3510470405
N  N82  1  0.98510000  0.37110000  0.20100000  1.0 -0.3510470405
N  N83  1  0.67010000  0.78410000  0.29900000  1.0 -0.3510470405
N  N84  1  0.51490000  0.71590000  0.38600000  1.0 -0.3510470405
N  N85  1  0.51490000  0.29900000  0.12890000  1.0 -0.3510470405
N  N86  1  0.67010000  0.38600000  0.37110000  1.0 -0.3510470405
N  N87  1  0.98510000  0.11400000  0.78410000  1.0 -0.3510470405
N  N88  1  0.82990000  0.20100000  0.71590000  1.0 -0.3510470405
N  N89  1  0.20100000  0.71590000  0.82990000  1.0 -0.3510470405
N  N90  1  0.11400000  0.78410000  0.98510000  1.0 -0.3510470405
N  N91  1  0.38600000  0.37110000  0.67010000  1.0 -0.3510470405
N  N92  1  0.29900000  0.12890000  0.51490000  1.0 -0.3510470405
N  N93  1  0.78410000  0.98510000  0.11400000  1.0 -0.3510470405
N  N94  1  0.71590000  0.82990000  0.20100000  1.0 -0.3510470405
N  N95  1  0.12890000  0.51490000  0.29900000  1.0 -0.3510470405
N  N96  1  0.37110000  0.67010000  0.38600000  1.0 -0.3510470405
N  N97  1  0.94470000  0.17110000  0.97300000  1.0 -0.191633804
N  N98  1  0.69810000  0.97170000  0.52700000  1.0 -0.191633804
N  N99  1  0.80190000  0.32890000  0.27360000  1.0 -0.191633804
N  N100  1  0.55530000  0.52830000  0.22640000  1.0 -0.191633804
N  N101  1  0.97300000  0.94470000  0.17110000  1.0 -0.191633804
N  N102  1  0.52700000  0.69810000  0.97170000  1.0 -0.191633804
N  N103  1  0.27360000  0.80190000  0.32890000  1.0 -0.191633804
N  N104  1  0.22640000  0.55530000  0.52830000  1.0 -0.191633804
N  N105  1  0.17110000  0.97300000  0.94470000  1.0 -0.191633804
N  N106  1  0.97170000  0.52700000  0.69810000  1.0 -0.191633804
N  N107  1  0.32890000  0.27360000  0.80190000  1.0 -0.191633804
N  N108  1  0.52830000  0.22640000  0.55530000  1.0 -0.191633804
N  N109  1  0.52830000  0.80190000  0.97300000  1.0 -0.191633804
N  N110  1  0.32890000  0.55530000  0.52700000  1.0 -0.191633804
N  N111  1  0.97170000  0.94470000  0.27360000  1.0 -0.191633804
N  N112  1  0.17110000  0.69810000  0.22640000  1.0 -0.191633804
N  N113  1  0.69810000  0.22640000  0.17110000  1.0 -0.191633804
N  N114  1  0.94470000  0.27360000  0.97170000  1.0 -0.191633804
N  N115  1  0.55530000  0.52700000  0.32890000  1.0 -0.191633804
N  N116  1  0.80190000  0.97300000  0.52830000  1.0 -0.191633804
N  N117  1  0.27360000  0.97170000  0.94470000  1.0 -0.191633804
N  N118  1  0.22640000  0.17110000  0.69810000  1.0 -0.191633804
N  N119  1  0.97300000  0.52830000  0.80190000  1.0 -0.191633804
N  N120  1  0.52700000  0.32890000  0.55530000  1.0 -0.191633804
N  N121  1  0.05530000  0.82890000  0.02700000  1.0 -0.191633804
N  N122  1  0.30190000  0.02830000  0.47300000  1.0 -0.191633804
N  N123  1  0.19810000  0.67110000  0.72640000  1.0 -0.191633804
N  N124  1  0.44470000  0.47170000  0.77360000  1.0 -0.191633804
N  N125  1  0.02700000  0.05530000  0.82890000  1.0 -0.191633804
N  N126  1  0.47300000  0.30190000  0.02830000  1.0 -0.191633804
N  N127  1  0.72640000  0.19810000  0.67110000  1.0 -0.191633804
N  N128  1  0.77360000  0.44470000  0.47170000  1.0 -0.191633804
N  N129  1  0.82890000  0.02700000  0.05530000  1.0 -0.191633804
N  N130  1  0.02830000  0.47300000  0.30190000  1.0 -0.191633804
N  N131  1  0.67110000  0.72640000  0.19810000  1.0 -0.191633804
N  N132  1  0.47170000  0.77360000  0.44470000  1.0 -0.191633804
N  N133  1  0.47170000  0.19810000  0.02700000  1.0 -0.191633804
N  N134  1  0.67110000  0.44470000  0.47300000  1.0 -0.191633804
N  N135  1  0.02830000  0.05530000  0.72640000  1.0 -0.191633804
N  N136  1  0.82890000  0.30190000  0.77360000  1.0 -0.191633804
N  N137  1  0.30190000  0.77360000  0.82890000  1.0 -0.191633804
N  N138  1  0.05530000  0.72640000  0.02830000  1.0 -0.191633804
N  N139  1  0.44470000  0.47300000  0.67110000  1.0 -0.191633804
N  N140  1  0.19810000  0.02700000  0.47170000  1.0 -0.191633804
N  N141  1  0.72640000  0.02830000  0.05530000  1.0 -0.191633804
N  N142  1  0.77360000  0.82890000  0.30190000  1.0 -0.191633804
N  N143  1  0.02700000  0.47170000  0.19810000  1.0 -0.191633804
N  N144  1  0.47300000  0.67110000  0.44470000  1.0 -0.191633804
N  N145  1  0.82020000  0.20970000  0.91190000  1.0 -0.191633804
N  N146  1  0.79780000  0.90830000  0.58810000  1.0 -0.191633804
N  N147  1  0.70220000  0.29030000  0.11050000  1.0 -0.191633804
N  N148  1  0.67980000  0.59170000  0.38950000  1.0 -0.191633804
N  N149  1  0.91190000  0.82020000  0.20970000  1.0 -0.191633804
N  N150  1  0.58810000  0.79780000  0.90830000  1.0 -0.191633804
N  N151  1  0.11050000  0.70220000  0.29030000  1.0 -0.191633804
N  N152  1  0.38950000  0.67980000  0.59170000  1.0 -0.191633804
N  N153  1  0.20970000  0.91190000  0.82020000  1.0 -0.191633804
N  N154  1  0.90830000  0.58810000  0.79780000  1.0 -0.191633804
N  N155  1  0.29030000  0.11050000  0.70220000  1.0 -0.191633804
N  N156  1  0.59170000  0.38950000  0.67980000  1.0 -0.191633804
N  N157  1  0.59170000  0.70220000  0.91190000  1.0 -0.191633804
N  N158  1  0.29030000  0.67980000  0.58810000  1.0 -0.191633804
N  N159  1  0.90830000  0.82020000  0.11050000  1.0 -0.191633804
N  N160  1  0.20970000  0.79780000  0.38950000  1.0 -0.191633804
N  N161  1  0.79780000  0.38950000  0.20970000  1.0 -0.191633804
N  N162  1  0.82020000  0.11050000  0.90830000  1.0 -0.191633804
N  N163  1  0.67980000  0.58810000  0.29030000  1.0 -0.191633804
N  N164  1  0.70220000  0.91190000  0.59170000  1.0 -0.191633804
N  N165  1  0.11050000  0.90830000  0.82020000  1.0 -0.191633804
N  N166  1  0.38950000  0.20970000  0.79780000  1.0 -0.191633804
N  N167  1  0.91190000  0.59170000  0.70220000  1.0 -0.191633804
N  N168  1  0.58810000  0.29030000  0.67980000  1.0 -0.191633804
N  N169  1  0.17980000  0.79030000  0.08810000  1.0 -0.191633804
N  N170  1  0.20220000  0.09170000  0.41190000  1.0 -0.191633804
N  N171  1  0.29780000  0.70970000  0.88950000  1.0 -0.191633804
N  N172  1  0.32020000  0.40830000  0.61050000  1.0 -0.191633804
N  N173  1  0.08810000  0.17980000  0.79030000  1.0 -0.191633804
N  N174  1  0.41190000  0.20220000  0.09170000  1.0 -0.191633804
N  N175  1  0.88950000  0.29780000  0.70970000  1.0 -0.191633804
N  N176  1  0.61050000  0.32020000  0.40830000  1.0 -0.191633804
N  N177  1  0.79030000  0.08810000  0.17980000  1.0 -0.191633804
N  N178  1  0.09170000  0.41190000  0.20220000  1.0 -0.191633804
N  N179  1  0.70970000  0.88950000  0.29780000  1.0 -0.191633804
N  N180  1  0.40830000  0.61050000  0.32020000  1.0 -0.191633804
N  N181  1  0.40830000  0.29780000  0.08810000  1.0 -0.191633804
N  N182  1  0.70970000  0.32020000  0.41190000  1.0 -0.191633804
N  N183  1  0.09170000  0.17980000  0.88950000  1.0 -0.191633804
N  N184  1  0.79030000  0.20220000  0.61050000  1.0 -0.191633804
N  N185  1  0.20220000  0.61050000  0.79030000  1.0 -0.191633804
N  N186  1  0.17980000  0.88950000  0.09170000  1.0 -0.191633804
N  N187  1  0.32020000  0.41190000  0.70970000  1.0 -0.191633804
N  N188  1  0.29780000  0.08810000  0.40830000  1.0 -0.191633804
N  N189  1  0.88950000  0.09170000  0.17980000  1.0 -0.191633804
N  N190  1  0.61050000  0.79030000  0.20220000  1.0 -0.191633804
N  N191  1  0.08810000  0.40830000  0.29780000  1.0 -0.191633804
N  N192  1  0.41190000  0.70970000  0.32020000  1.0 -0.191633804
O  O1  1  0.67510000  0.09540000  0.76390000  1.0 -0.249544676
O  O2  1  0.83150000  0.91120000  0.73610000  1.0 -0.249544676
O  O3  1  0.66850000  0.40460000  0.07970000  1.0 -0.249544676
O  O4  1  0.82490000  0.58880000  0.42030000  1.0 -0.249544676
O  O5  1  0.76390000  0.67510000  0.09540000  1.0 -0.249544676
O  O6  1  0.73610000  0.83150000  0.91120000  1.0 -0.249544676
O  O7  1  0.07970000  0.66850000  0.40460000  1.0 -0.249544676
O  O8  1  0.42030000  0.82490000  0.58880000  1.0 -0.249544676
O  O9  1  0.09540000  0.76390000  0.67510000  1.0 -0.249544676
O  O10  1  0.91120000  0.73610000  0.83150000  1.0 -0.249544676
O  O11  1  0.40460000  0.07970000  0.66850000  1.0 -0.249544676
O  O12  1  0.58880000  0.42030000  0.82490000  1.0 -0.249544676
O  O13  1  0.58880000  0.66850000  0.76390000  1.0 -0.249544676
O  O14  1  0.40460000  0.82490000  0.73610000  1.0 -0.249544676
O  O15  1  0.91120000  0.67510000  0.07970000  1.0 -0.249544676
O  O16  1  0.09540000  0.83150000  0.42030000  1.0 -0.249544676
O  O17  1  0.83150000  0.42030000  0.09540000  1.0 -0.249544676
O  O18  1  0.67510000  0.07970000  0.91120000  1.0 -0.249544676
O  O19  1  0.82490000  0.73610000  0.40460000  1.0 -0.249544676
O  O20  1  0.66850000  0.76390000  0.58880000  1.0 -0.249544676
O  O21  1  0.07970000  0.91120000  0.67510000  1.0 -0.249544676
O  O22  1  0.42030000  0.09540000  0.83150000  1.0 -0.249544676
O  O23  1  0.76390000  0.58880000  0.66850000  1.0 -0.249544676
O  O24  1  0.73610000  0.40460000  0.82490000  1.0 -0.249544676
O  O25  1  0.32490000  0.90460000  0.23610000  1.0 -0.249544676
O  O26  1  0.16850000  0.08880000  0.26390000  1.0 -0.249544676
O  O27  1  0.33150000  0.59540000  0.92030000  1.0 -0.249544676
O  O28  1  0.17510000  0.41120000  0.57970000  1.0 -0.249544676
O  O29  1  0.23610000  0.32490000  0.90460000  1.0 -0.249544676
O  O30  1  0.26390000  0.16850000  0.08880000  1.0 -0.249544676
O  O31  1  0.92030000  0.33150000  0.59540000  1.0 -0.249544676
O  O32  1  0.57970000  0.17510000  0.41120000  1.0 -0.249544676
O  O33  1  0.90460000  0.23610000  0.32490000  1.0 -0.249544676
O  O34  1  0.08880000  0.26390000  0.16850000  1.0 -0.249544676
O  O35  1  0.59540000  0.92030000  0.33150000  1.0 -0.249544676
O  O36  1  0.41120000  0.57970000  0.17510000  1.0 -0.249544676
O  O37  1  0.41120000  0.33150000  0.23610000  1.0 -0.249544676
O  O38  1  0.59540000  0.17510000  0.26390000  1.0 -0.249544676
O  O39  1  0.08880000  0.32490000  0.92030000  1.0 -0.249544676
O  O40  1  0.90460000  0.16850000  0.57970000  1.0 -0.249544676
O  O41  1  0.16850000  0.57970000  0.90460000  1.0 -0.249544676
O  O42  1  0.32490000  0.92030000  0.08880000  1.0 -0.249544676
O  O43  1  0.17510000  0.26390000  0.59540000  1.0 -0.249544676
O  O44  1  0.33150000  0.23610000  0.41120000  1.0 -0.249544676
O  O45  1  0.92030000  0.08880000  0.32490000  1.0 -0.249544676
O  O46  1  0.57970000  0.90460000  0.16850000  1.0 -0.249544676
O  O47  1  0.23610000  0.41120000  0.33150000  1.0 -0.249544676
O  O48  1  0.26390000  0.59540000  0.17510000  1.0 -0.249544676
O  O49  1  0.01900000  0.09800000  0.08200000  1.0 -0.2707471129
O  O50  1  0.51600000  0.93700000  0.41800000  1.0 -0.2707471129
O  O51  1  0.98400000  0.40200000  0.42100000  1.0 -0.2707471129
O  O52  1  0.48100000  0.56300000  0.07900000  1.0 -0.2707471129
O  O53  1  0.08200000  0.01900000  0.09800000  1.0 -0.2707471129
O  O54  1  0.41800000  0.51600000  0.93700000  1.0 -0.2707471129
O  O55  1  0.42100000  0.98400000  0.40200000  1.0 -0.2707471129
O  O56  1  0.07900000  0.48100000  0.56300000  1.0 -0.2707471129
O  O57  1  0.09800000  0.08200000  0.01900000  1.0 -0.2707471129
O  O58  1  0.93700000  0.41800000  0.51600000  1.0 -0.2707471129
O  O59  1  0.40200000  0.42100000  0.98400000  1.0 -0.2707471129
O  O60  1  0.56300000  0.07900000  0.48100000  1.0 -0.2707471129
O  O61  1  0.56300000  0.98400000  0.08200000  1.0 -0.2707471129
O  O62  1  0.40200000  0.48100000  0.41800000  1.0 -0.2707471129
O  O63  1  0.93700000  0.01900000  0.42100000  1.0 -0.2707471129
O  O64  1  0.09800000  0.51600000  0.07900000  1.0 -0.2707471129
O  O65  1  0.51600000  0.07900000  0.09800000  1.0 -0.2707471129
O  O66  1  0.01900000  0.42100000  0.93700000  1.0 -0.2707471129
O  O67  1  0.48100000  0.41800000  0.40200000  1.0 -0.2707471129
O  O68  1  0.98400000  0.08200000  0.56300000  1.0 -0.2707471129
O  O69  1  0.42100000  0.93700000  0.01900000  1.0 -0.2707471129
O  O70  1  0.07900000  0.09800000  0.51600000  1.0 -0.2707471129
O  O71  1  0.08200000  0.56300000  0.98400000  1.0 -0.2707471129
O  O72  1  0.41800000  0.40200000  0.48100000  1.0 -0.2707471129
O  O73  1  0.98100000  0.90200000  0.91800000  1.0 -0.2707471129
O  O74  1  0.48400000  0.06300000  0.58200000  1.0 -0.2707471129
O  O75  1  0.01600000  0.59800000  0.57900000  1.0 -0.2707471129
O  O76  1  0.51900000  0.43700000  0.92100000  1.0 -0.2707471129
O  O77  1  0.91800000  0.98100000  0.90200000  1.0 -0.2707471129
O  O78  1  0.58200000  0.48400000  0.06300000  1.0 -0.2707471129
O  O79  1  0.57900000  0.01600000  0.59800000  1.0 -0.2707471129
O  O80  1  0.92100000  0.51900000  0.43700000  1.0 -0.2707471129
O  O81  1  0.90200000  0.91800000  0.98100000  1.0 -0.2707471129
O  O82  1  0.06300000  0.58200000  0.48400000  1.0 -0.2707471129
O  O83  1  0.59800000  0.57900000  0.01600000  1.0 -0.2707471129
O  O84  1  0.43700000  0.92100000  0.51900000  1.0 -0.2707471129
O  O85  1  0.43700000  0.01600000  0.91800000  1.0 -0.2707471129
O  O86  1  0.59800000  0.51900000  0.58200000  1.0 -0.2707471129
O  O87  1  0.06300000  0.98100000  0.57900000  1.0 -0.2707471129
O  O88  1  0.90200000  0.48400000  0.92100000  1.0 -0.2707471129
O  O89  1  0.48400000  0.92100000  0.90200000  1.0 -0.2707471129
O  O90  1  0.98100000  0.57900000  0.06300000  1.0 -0.2707471129
O  O91  1  0.51900000  0.58200000  0.59800000  1.0 -0.2707471129
O  O92  1  0.01600000  0.91800000  0.43700000  1.0 -0.2707471129
O  O93  1  0.57900000  0.06300000  0.98100000  1.0 -0.2707471129
O  O94  1  0.92100000  0.90200000  0.48400000  1.0 -0.2707471129
O  O95  1  0.91800000  0.43700000  0.01600000  1.0 -0.2707471129
O  O96  1  0.58200000  0.59800000  0.51900000  1.0 -0.2707471129
O  O97  1  0.02400000  0.15790000  0.12550000  1.0 -0.2635783574
O  O98  1  0.53240000  0.89850000  0.37450000  1.0 -0.2635783574
O  O99  1  0.96760000  0.34210000  0.36610000  1.0 -0.2635783574
O  O100  1  0.47600000  0.60150000  0.13390000  1.0 -0.2635783574
O  O101  1  0.12550000  0.02400000  0.15790000  1.0 -0.2635783574
O  O102  1  0.37450000  0.53240000  0.89850000  1.0 -0.2635783574
O  O103  1  0.36610000  0.96760000  0.34210000  1.0 -0.2635783574
O  O104  1  0.13390000  0.47600000  0.60150000  1.0 -0.2635783574
O  O105  1  0.15790000  0.12550000  0.02400000  1.0 -0.2635783574
O  O106  1  0.89850000  0.37450000  0.53240000  1.0 -0.2635783574
O  O107  1  0.34210000  0.36610000  0.96760000  1.0 -0.2635783574
O  O108  1  0.60150000  0.13390000  0.47600000  1.0 -0.2635783574
O  O109  1  0.60150000  0.96760000  0.12550000  1.0 -0.2635783574
O  O110  1  0.34210000  0.47600000  0.37450000  1.0 -0.2635783574
O  O111  1  0.89850000  0.02400000  0.36610000  1.0 -0.2635783574
O  O112  1  0.15790000  0.53240000  0.13390000  1.0 -0.2635783574
O  O113  1  0.53240000  0.13390000  0.15790000  1.0 -0.2635783574
O  O114  1  0.02400000  0.36610000  0.89850000  1.0 -0.2635783574
O  O115  1  0.47600000  0.37450000  0.34210000  1.0 -0.2635783574
O  O116  1  0.96760000  0.12550000  0.60150000  1.0 -0.2635783574
O  O117  1  0.36610000  0.89850000  0.02400000  1.0 -0.2635783574
O  O118  1  0.13390000  0.15790000  0.53240000  1.0 -0.2635783574
O  O119  1  0.12550000  0.60150000  0.96760000  1.0 -0.2635783574
O  O120  1  0.37450000  0.34210000  0.47600000  1.0 -0.2635783574
O  O121  1  0.97600000  0.84210000  0.87450000  1.0 -0.2635783574
O  O122  1  0.46760000  0.10150000  0.62550000  1.0 -0.2635783574
O  O123  1  0.03240000  0.65790000  0.63390000  1.0 -0.2635783574
O  O124  1  0.52400000  0.39850000  0.86610000  1.0 -0.2635783574
O  O125  1  0.87450000  0.97600000  0.84210000  1.0 -0.2635783574
O  O126  1  0.62550000  0.46760000  0.10150000  1.0 -0.2635783574
O  O127  1  0.63390000  0.03240000  0.65790000  1.0 -0.2635783574
O  O128  1  0.86610000  0.52400000  0.39850000  1.0 -0.2635783574
O  O129  1  0.84210000  0.87450000  0.97600000  1.0 -0.2635783574
O  O130  1  0.10150000  0.62550000  0.46760000  1.0 -0.2635783574
O  O131  1  0.65790000  0.63390000  0.03240000  1.0 -0.2635783574
O  O132  1  0.39850000  0.86610000  0.52400000  1.0 -0.2635783574
O  O133  1  0.39850000  0.03240000  0.87450000  1.0 -0.2635783574
O  O134  1  0.65790000  0.52400000  0.62550000  1.0 -0.2635783574
O  O135  1  0.10150000  0.97600000  0.63390000  1.0 -0.2635783574
O  O136  1  0.84210000  0.46760000  0.86610000  1.0 -0.2635783574
O  O137  1  0.46760000  0.86610000  0.84210000  1.0 -0.2635783574
O  O138  1  0.97600000  0.63390000  0.10150000  1.0 -0.2635783574
O  O139  1  0.52400000  0.62550000  0.65790000  1.0 -0.2635783574
O  O140  1  0.03240000  0.87450000  0.39850000  1.0 -0.2635783574
O  O141  1  0.63390000  0.10150000  0.97600000  1.0 -0.2635783574
O  O142  1  0.86610000  0.84210000  0.46760000  1.0 -0.2635783574
O  O143  1  0.87450000  0.39850000  0.03240000  1.0 -0.2635783574
O  O144  1  0.62550000  0.65790000  0.52400000  1.0 -0.2635783574
