# DDEC6 charges by PACMAN v1.1 (https://github.com/mtap-research/PACMAN-charge/)
data_UBAVUR_FSR_pacman
_symmetry_space_group_name_H-M   'P 1'
_cell_length_a   30.20760000
_cell_length_b   30.20760000
_cell_length_c   30.20760000
_cell_angle_alpha   109.47100000
_cell_angle_beta   109.47100000
_cell_angle_gamma   109.47100000
_symmetry_Int_Tables_number   1
_chemical_formula_structural   Fe2H76WC60(N4O3)4
_chemical_formula_sum   'Fe24 H912 W12 C720 N192 O144'
_cell_volume   21219.26430813
_cell_formula_units_Z   12
loop_
 _symmetry_equiv_pos_site_id
 _symmetry_equiv_pos_as_xyz
  1  'x, y, z'
loop_
 _atom_site_type_symbol
 _atom_site_label
 _atom_site_symmetry_multiplicity
 _atom_site_fract_x
 _atom_site_fract_y
 _atom_site_fract_z
 _atom_site_occupancy
 _atom_site_charge
Fe  Fe1  1  0.88592000  0.19296000  0.94296000  1.0 0.6657361391
Fe  Fe2  1  0.75000000  0.94296000  0.55704000  1.0 0.6657361391
Fe  Fe3  1  0.75000000  0.30704000  0.19296000  1.0 0.6657361391
Fe  Fe4  1  0.61408000  0.55704000  0.30704000  1.0 0.6657361391
Fe  Fe5  1  0.94296000  0.88592000  0.19296000  1.0 0.6657361391
Fe  Fe6  1  0.55704000  0.75000000  0.94296000  1.0 0.6657361391
Fe  Fe7  1  0.19296000  0.75000000  0.30704000  1.0 0.6657361391
Fe  Fe8  1  0.30704000  0.61408000  0.55704000  1.0 0.6657361391
Fe  Fe9  1  0.19296000  0.94296000  0.88592000  1.0 0.6657361391
Fe  Fe10  1  0.94296000  0.55704000  0.75000000  1.0 0.6657361391
Fe  Fe11  1  0.30704000  0.19296000  0.75000000  1.0 0.6657361391
Fe  Fe12  1  0.55704000  0.30704000  0.61408000  1.0 0.6657361391
Fe  Fe13  1  0.11408000  0.80704000  0.05704000  1.0 0.6657361391
Fe  Fe14  1  0.25000000  0.05704000  0.44296000  1.0 0.6657361391
Fe  Fe15  1  0.25000000  0.69296000  0.80704000  1.0 0.6657361391
Fe  Fe16  1  0.38592000  0.44296000  0.69296000  1.0 0.6657361391
Fe  Fe17  1  0.05704000  0.11408000  0.80704000  1.0 0.6657361391
Fe  Fe18  1  0.44296000  0.25000000  0.05704000  1.0 0.6657361391
Fe  Fe19  1  0.80704000  0.25000000  0.69296000  1.0 0.6657361391
Fe  Fe20  1  0.69296000  0.38592000  0.44296000  1.0 0.6657361391
Fe  Fe21  1  0.80704000  0.05704000  0.11408000  1.0 0.6657361391
Fe  Fe22  1  0.05704000  0.44296000  0.25000000  1.0 0.6657361391
Fe  Fe23  1  0.69296000  0.80704000  0.25000000  1.0 0.6657361391
Fe  Fe24  1  0.44296000  0.69296000  0.38592000  1.0 0.6657361391
H  H1  1  0.92330000  0.14920000  0.01930000  1.0 0.1116384387
H  H2  1  0.62990000  0.90400000  0.48070000  1.0 0.1116384387
H  H3  1  0.87010000  0.35080000  0.27410000  1.0 0.1116384387
H  H4  1  0.57670000  0.59600000  0.22590000  1.0 0.1116384387
H  H5  1  0.01930000  0.92330000  0.14920000  1.0 0.1116384387
H  H6  1  0.48070000  0.62990000  0.90400000  1.0 0.1116384387
H  H7  1  0.27410000  0.87010000  0.35080000  1.0 0.1116384387
H  H8  1  0.22590000  0.57670000  0.59600000  1.0 0.1116384387
H  H9  1  0.14920000  0.01930000  0.92330000  1.0 0.1116384387
H  H10  1  0.90400000  0.48070000  0.62990000  1.0 0.1116384387
H  H11  1  0.35080000  0.27410000  0.87010000  1.0 0.1116384387
H  H12  1  0.59600000  0.22590000  0.57670000  1.0 0.1116384387
H  H13  1  0.59600000  0.87010000  0.01930000  1.0 0.1116384387
H  H14  1  0.35080000  0.57670000  0.48070000  1.0 0.1116384387
H  H15  1  0.90400000  0.92330000  0.27410000  1.0 0.1116384387
H  H16  1  0.14920000  0.62990000  0.22590000  1.0 0.1116384387
H  H17  1  0.62990000  0.22590000  0.14920000  1.0 0.1116384387
H  H18  1  0.92330000  0.27410000  0.90400000  1.0 0.1116384387
H  H19  1  0.57670000  0.48070000  0.35080000  1.0 0.1116384387
H  H20  1  0.87010000  0.01930000  0.59600000  1.0 0.1116384387
H  H21  1  0.27410000  0.90400000  0.92330000  1.0 0.1116384387
H  H22  1  0.22590000  0.14920000  0.62990000  1.0 0.1116384387
H  H23  1  0.01930000  0.59600000  0.87010000  1.0 0.1116384387
H  H24  1  0.48070000  0.35080000  0.57670000  1.0 0.1116384387
H  H25  1  0.07670000  0.85080000  0.98070000  1.0 0.1116384387
H  H26  1  0.37010000  0.09600000  0.51930000  1.0 0.1116384387
H  H27  1  0.12990000  0.64920000  0.72590000  1.0 0.1116384387
H  H28  1  0.42330000  0.40400000  0.77410000  1.0 0.1116384387
H  H29  1  0.98070000  0.07670000  0.85080000  1.0 0.1116384387
H  H30  1  0.51930000  0.37010000  0.09600000  1.0 0.1116384387
H  H31  1  0.72590000  0.12990000  0.64920000  1.0 0.1116384387
H  H32  1  0.77410000  0.42330000  0.40400000  1.0 0.1116384387
H  H33  1  0.85080000  0.98070000  0.07670000  1.0 0.1116384387
H  H34  1  0.09600000  0.51930000  0.37010000  1.0 0.1116384387
H  H35  1  0.64920000  0.72590000  0.12990000  1.0 0.1116384387
H  H36  1  0.40400000  0.77410000  0.42330000  1.0 0.1116384387
H  H37  1  0.40400000  0.12990000  0.98070000  1.0 0.1116384387
H  H38  1  0.64920000  0.42330000  0.51930000  1.0 0.1116384387
H  H39  1  0.09600000  0.07670000  0.72590000  1.0 0.1116384387
H  H40  1  0.85080000  0.37010000  0.77410000  1.0 0.1116384387
H  H41  1  0.37010000  0.77410000  0.85080000  1.0 0.1116384387
H  H42  1  0.07670000  0.72590000  0.09600000  1.0 0.1116384387
H  H43  1  0.42330000  0.51930000  0.64920000  1.0 0.1116384387
H  H44  1  0.12990000  0.98070000  0.40400000  1.0 0.1116384387
H  H45  1  0.72590000  0.09600000  0.07670000  1.0 0.1116384387
H  H46  1  0.77410000  0.85080000  0.37010000  1.0 0.1116384387
H  H47  1  0.98070000  0.40400000  0.12990000  1.0 0.1116384387
H  H48  1  0.51930000  0.64920000  0.42330000  1.0 0.1116384387
H  H49  1  0.05270000  0.13620000  0.03010000  1.0 0.1011280412
H  H50  1  0.60610000  0.02260000  0.46990000  1.0 0.1011280412
H  H51  1  0.89390000  0.36380000  0.41650000  1.0 0.1011280412
H  H52  1  0.44730000  0.47740000  0.08350000  1.0 0.1011280412
H  H53  1  0.03010000  0.05270000  0.13620000  1.0 0.1011280412
H  H54  1  0.46990000  0.60610000  0.02260000  1.0 0.1011280412
H  H55  1  0.41650000  0.89390000  0.36380000  1.0 0.1011280412
H  H56  1  0.08350000  0.44730000  0.47740000  1.0 0.1011280412
H  H57  1  0.13620000  0.03010000  0.05270000  1.0 0.1011280412
H  H58  1  0.02260000  0.46990000  0.60610000  1.0 0.1011280412
H  H59  1  0.36380000  0.41650000  0.89390000  1.0 0.1011280412
H  H60  1  0.47740000  0.08350000  0.44730000  1.0 0.1011280412
H  H61  1  0.47740000  0.89390000  0.03010000  1.0 0.1011280412
H  H62  1  0.36380000  0.44730000  0.46990000  1.0 0.1011280412
H  H63  1  0.02260000  0.05270000  0.41650000  1.0 0.1011280412
H  H64  1  0.13620000  0.60610000  0.08350000  1.0 0.1011280412
H  H65  1  0.60610000  0.08350000  0.13620000  1.0 0.1011280412
H  H66  1  0.05270000  0.41650000  0.02260000  1.0 0.1011280412
H  H67  1  0.44730000  0.46990000  0.36380000  1.0 0.1011280412
H  H68  1  0.89390000  0.03010000  0.47740000  1.0 0.1011280412
H  H69  1  0.41650000  0.02260000  0.05270000  1.0 0.1011280412
H  H70  1  0.08350000  0.13620000  0.60610000  1.0 0.1011280412
H  H71  1  0.03010000  0.47740000  0.89390000  1.0 0.1011280412
H  H72  1  0.46990000  0.36380000  0.44730000  1.0 0.1011280412
H  H73  1  0.94730000  0.86380000  0.96990000  1.0 0.1011280412
H  H74  1  0.39390000  0.97740000  0.53010000  1.0 0.1011280412
H  H75  1  0.10610000  0.63620000  0.58350000  1.0 0.1011280412
H  H76  1  0.55270000  0.52260000  0.91650000  1.0 0.1011280412
H  H77  1  0.96990000  0.94730000  0.86380000  1.0 0.1011280412
H  H78  1  0.53010000  0.39390000  0.97740000  1.0 0.1011280412
H  H79  1  0.58350000  0.10610000  0.63620000  1.0 0.1011280412
H  H80  1  0.91650000  0.55270000  0.52260000  1.0 0.1011280412
H  H81  1  0.86380000  0.96990000  0.94730000  1.0 0.1011280412
H  H82  1  0.97740000  0.53010000  0.39390000  1.0 0.1011280412
H  H83  1  0.63620000  0.58350000  0.10610000  1.0 0.1011280412
H  H84  1  0.52260000  0.91650000  0.55270000  1.0 0.1011280412
H  H85  1  0.52260000  0.10610000  0.96990000  1.0 0.1011280412
H  H86  1  0.63620000  0.55270000  0.53010000  1.0 0.1011280412
H  H87  1  0.97740000  0.94730000  0.58350000  1.0 0.1011280412
H  H88  1  0.86380000  0.39390000  0.91650000  1.0 0.1011280412
H  H89  1  0.39390000  0.91650000  0.86380000  1.0 0.1011280412
H  H90  1  0.94730000  0.58350000  0.97740000  1.0 0.1011280412
H  H91  1  0.55270000  0.53010000  0.63620000  1.0 0.1011280412
H  H92  1  0.10610000  0.96990000  0.52260000  1.0 0.1011280412
H  H93  1  0.58350000  0.97740000  0.94730000  1.0 0.1011280412
H  H94  1  0.91650000  0.86380000  0.39390000  1.0 0.1011280412
H  H95  1  0.96990000  0.52260000  0.10610000  1.0 0.1011280412
H  H96  1  0.53010000  0.63620000  0.55270000  1.0 0.1011280412
H  H97  1  0.05010000  0.16480000  0.96750000  1.0 0.1176933455
H  H98  1  0.69730000  0.08260000  0.53250000  1.0 0.1176933455
H  H99  1  0.80270000  0.33520000  0.38530000  1.0 0.1176933455
H  H100  1  0.44990000  0.41740000  0.11470000  1.0 0.1176933455
H  H101  1  0.96750000  0.05010000  0.16480000  1.0 0.1176933455
H  H102  1  0.53250000  0.69730000  0.08260000  1.0 0.1176933455
H  H103  1  0.38530000  0.80270000  0.33520000  1.0 0.1176933455
H  H104  1  0.11470000  0.44990000  0.41740000  1.0 0.1176933455
H  H105  1  0.16480000  0.96750000  0.05010000  1.0 0.1176933455
H  H106  1  0.08260000  0.53250000  0.69730000  1.0 0.1176933455
H  H107  1  0.33520000  0.38530000  0.80270000  1.0 0.1176933455
H  H108  1  0.41740000  0.11470000  0.44990000  1.0 0.1176933455
H  H109  1  0.41740000  0.80270000  0.96750000  1.0 0.1176933455
H  H110  1  0.33520000  0.44990000  0.53250000  1.0 0.1176933455
H  H111  1  0.08260000  0.05010000  0.38530000  1.0 0.1176933455
H  H112  1  0.16480000  0.69730000  0.11470000  1.0 0.1176933455
H  H113  1  0.69730000  0.11470000  0.16480000  1.0 0.1176933455
H  H114  1  0.05010000  0.38530000  0.08260000  1.0 0.1176933455
H  H115  1  0.44990000  0.53250000  0.33520000  1.0 0.1176933455
H  H116  1  0.80270000  0.96750000  0.41740000  1.0 0.1176933455
H  H117  1  0.38530000  0.08260000  0.05010000  1.0 0.1176933455
H  H118  1  0.11470000  0.16480000  0.69730000  1.0 0.1176933455
H  H119  1  0.96750000  0.41740000  0.80270000  1.0 0.1176933455
H  H120  1  0.53250000  0.33520000  0.44990000  1.0 0.1176933455
H  H121  1  0.94990000  0.83520000  0.03250000  1.0 0.1176933455
H  H122  1  0.30270000  0.91740000  0.46750000  1.0 0.1176933455
H  H123  1  0.19730000  0.66480000  0.61470000  1.0 0.1176933455
H  H124  1  0.55010000  0.58260000  0.88530000  1.0 0.1176933455
H  H125  1  0.03250000  0.94990000  0.83520000  1.0 0.1176933455
H  H126  1  0.46750000  0.30270000  0.91740000  1.0 0.1176933455
H  H127  1  0.61470000  0.19730000  0.66480000  1.0 0.1176933455
H  H128  1  0.88530000  0.55010000  0.58260000  1.0 0.1176933455
H  H129  1  0.83520000  0.03250000  0.94990000  1.0 0.1176933455
H  H130  1  0.91740000  0.46750000  0.30270000  1.0 0.1176933455
H  H131  1  0.66480000  0.61470000  0.19730000  1.0 0.1176933455
H  H132  1  0.58260000  0.88530000  0.55010000  1.0 0.1176933455
H  H133  1  0.58260000  0.19730000  0.03250000  1.0 0.1176933455
H  H134  1  0.66480000  0.55010000  0.46750000  1.0 0.1176933455
H  H135  1  0.91740000  0.94990000  0.61470000  1.0 0.1176933455
H  H136  1  0.83520000  0.30270000  0.88530000  1.0 0.1176933455
H  H137  1  0.30270000  0.88530000  0.83520000  1.0 0.1176933455
H  H138  1  0.94990000  0.61470000  0.91740000  1.0 0.1176933455
H  H139  1  0.55010000  0.46750000  0.66480000  1.0 0.1176933455
H  H140  1  0.19730000  0.03250000  0.58260000  1.0 0.1176933455
H  H141  1  0.61470000  0.91740000  0.94990000  1.0 0.1176933455
H  H142  1  0.88530000  0.83520000  0.30270000  1.0 0.1176933455
H  H143  1  0.03250000  0.58260000  0.19730000  1.0 0.1176933455
H  H144  1  0.46750000  0.66480000  0.55010000  1.0 0.1176933455
H  H145  1  0.98710000  0.19030000  0.93740000  1.0 0.1011280412
H  H146  1  0.75290000  0.04970000  0.56260000  1.0 0.1011280412
H  H147  1  0.74710000  0.30970000  0.29680000  1.0 0.1011280412
H  H148  1  0.51290000  0.45030000  0.20320000  1.0 0.1011280412
H  H149  1  0.93740000  0.98710000  0.19030000  1.0 0.1011280412
H  H150  1  0.56260000  0.75290000  0.04970000  1.0 0.1011280412
H  H151  1  0.29680000  0.74710000  0.30970000  1.0 0.1011280412
H  H152  1  0.20320000  0.51290000  0.45030000  1.0 0.1011280412
H  H153  1  0.19030000  0.93740000  0.98710000  1.0 0.1011280412
H  H154  1  0.04970000  0.56260000  0.75290000  1.0 0.1011280412
H  H155  1  0.30970000  0.29680000  0.74710000  1.0 0.1011280412
H  H156  1  0.45030000  0.20320000  0.51290000  1.0 0.1011280412
H  H157  1  0.45030000  0.74710000  0.93740000  1.0 0.1011280412
H  H158  1  0.30970000  0.51290000  0.56260000  1.0 0.1011280412
H  H159  1  0.04970000  0.98710000  0.29680000  1.0 0.1011280412
H  H160  1  0.19030000  0.75290000  0.20320000  1.0 0.1011280412
H  H161  1  0.75290000  0.20320000  0.19030000  1.0 0.1011280412
H  H162  1  0.98710000  0.29680000  0.04970000  1.0 0.1011280412
H  H163  1  0.51290000  0.56260000  0.30970000  1.0 0.1011280412
H  H164  1  0.74710000  0.93740000  0.45030000  1.0 0.1011280412
H  H165  1  0.29680000  0.04970000  0.98710000  1.0 0.1011280412
H  H166  1  0.20320000  0.19030000  0.75290000  1.0 0.1011280412
H  H167  1  0.93740000  0.45030000  0.74710000  1.0 0.1011280412
H  H168  1  0.56260000  0.30970000  0.51290000  1.0 0.1011280412
H  H169  1  0.01290000  0.80970000  0.06260000  1.0 0.1011280412
H  H170  1  0.24710000  0.95030000  0.43740000  1.0 0.1011280412
H  H171  1  0.25290000  0.69030000  0.70320000  1.0 0.1011280412
H  H172  1  0.48710000  0.54970000  0.79680000  1.0 0.1011280412
H  H173  1  0.06260000  0.01290000  0.80970000  1.0 0.1011280412
H  H174  1  0.43740000  0.24710000  0.95030000  1.0 0.1011280412
H  H175  1  0.70320000  0.25290000  0.69030000  1.0 0.1011280412
H  H176  1  0.79680000  0.48710000  0.54970000  1.0 0.1011280412
H  H177  1  0.80970000  0.06260000  0.01290000  1.0 0.1011280412
H  H178  1  0.95030000  0.43740000  0.24710000  1.0 0.1011280412
H  H179  1  0.69030000  0.70320000  0.25290000  1.0 0.1011280412
H  H180  1  0.54970000  0.79680000  0.48710000  1.0 0.1011280412
H  H181  1  0.54970000  0.25290000  0.06260000  1.0 0.1011280412
H  H182  1  0.69030000  0.48710000  0.43740000  1.0 0.1011280412
H  H183  1  0.95030000  0.01290000  0.70320000  1.0 0.1011280412
H  H184  1  0.80970000  0.24710000  0.79680000  1.0 0.1011280412
H  H185  1  0.24710000  0.79680000  0.80970000  1.0 0.1011280412
H  H186  1  0.01290000  0.70320000  0.95030000  1.0 0.1011280412
H  H187  1  0.48710000  0.43740000  0.69030000  1.0 0.1011280412
H  H188  1  0.25290000  0.06260000  0.54970000  1.0 0.1011280412
H  H189  1  0.70320000  0.95030000  0.01290000  1.0 0.1011280412
H  H190  1  0.79680000  0.80970000  0.24710000  1.0 0.1011280412
H  H191  1  0.06260000  0.54970000  0.25290000  1.0 0.1011280412
H  H192  1  0.43740000  0.69030000  0.48710000  1.0 0.1011280412
H  H193  1  0.78560000  0.15710000  0.83410000  1.0 0.1116384387
H  H194  1  0.82300000  0.95150000  0.66590000  1.0 0.1116384387
H  H195  1  0.67700000  0.34290000  0.12850000  1.0 0.1116384387
H  H196  1  0.71440000  0.54850000  0.37150000  1.0 0.1116384387
H  H197  1  0.83410000  0.78560000  0.15710000  1.0 0.1116384387
H  H198  1  0.66590000  0.82300000  0.95150000  1.0 0.1116384387
H  H199  1  0.12850000  0.67700000  0.34290000  1.0 0.1116384387
H  H200  1  0.37150000  0.71440000  0.54850000  1.0 0.1116384387
H  H201  1  0.15710000  0.83410000  0.78560000  1.0 0.1116384387
H  H202  1  0.95150000  0.66590000  0.82300000  1.0 0.1116384387
H  H203  1  0.34290000  0.12850000  0.67700000  1.0 0.1116384387
H  H204  1  0.54850000  0.37150000  0.71440000  1.0 0.1116384387
H  H205  1  0.54850000  0.67700000  0.83410000  1.0 0.1116384387
H  H206  1  0.34290000  0.71440000  0.66590000  1.0 0.1116384387
H  H207  1  0.95150000  0.78560000  0.12850000  1.0 0.1116384387
H  H208  1  0.15710000  0.82300000  0.37150000  1.0 0.1116384387
H  H209  1  0.82300000  0.37150000  0.15710000  1.0 0.1116384387
H  H210  1  0.78560000  0.12850000  0.95150000  1.0 0.1116384387
H  H211  1  0.71440000  0.66590000  0.34290000  1.0 0.1116384387
H  H212  1  0.67700000  0.83410000  0.54850000  1.0 0.1116384387
H  H213  1  0.12850000  0.95150000  0.78560000  1.0 0.1116384387
H  H214  1  0.37150000  0.15710000  0.82300000  1.0 0.1116384387
H  H215  1  0.83410000  0.54850000  0.67700000  1.0 0.1116384387
H  H216  1  0.66590000  0.34290000  0.71440000  1.0 0.1116384387
H  H217  1  0.21440000  0.84290000  0.16590000  1.0 0.1116384387
H  H218  1  0.17700000  0.04850000  0.33410000  1.0 0.1116384387
H  H219  1  0.32300000  0.65710000  0.87150000  1.0 0.1116384387
H  H220  1  0.28560000  0.45150000  0.62850000  1.0 0.1116384387
H  H221  1  0.16590000  0.21440000  0.84290000  1.0 0.1116384387
H  H222  1  0.33410000  0.17700000  0.04850000  1.0 0.1116384387
H  H223  1  0.87150000  0.32300000  0.65710000  1.0 0.1116384387
H  H224  1  0.62850000  0.28560000  0.45150000  1.0 0.1116384387
H  H225  1  0.84290000  0.16590000  0.21440000  1.0 0.1116384387
H  H226  1  0.04850000  0.33410000  0.17700000  1.0 0.1116384387
H  H227  1  0.65710000  0.87150000  0.32300000  1.0 0.1116384387
H  H228  1  0.45150000  0.62850000  0.28560000  1.0 0.1116384387
H  H229  1  0.45150000  0.32300000  0.16590000  1.0 0.1116384387
H  H230  1  0.65710000  0.28560000  0.33410000  1.0 0.1116384387
H  H231  1  0.04850000  0.21440000  0.87150000  1.0 0.1116384387
H  H232  1  0.84290000  0.17700000  0.62850000  1.0 0.1116384387
H  H233  1  0.17700000  0.62850000  0.84290000  1.0 0.1116384387
H  H234  1  0.21440000  0.87150000  0.04850000  1.0 0.1116384387
H  H235  1  0.28560000  0.33410000  0.65710000  1.0 0.1116384387
H  H236  1  0.32300000  0.16590000  0.45150000  1.0 0.1116384387
H  H237  1  0.87150000  0.04850000  0.21440000  1.0 0.1116384387
H  H238  1  0.62850000  0.84290000  0.17700000  1.0 0.1116384387
H  H239  1  0.16590000  0.45150000  0.32300000  1.0 0.1116384387
H  H240  1  0.33410000  0.65710000  0.28560000  1.0 0.1116384387
H  H241  1  0.70030000  0.22640000  0.86430000  1.0 0.1011280412
H  H242  1  0.86210000  0.83600000  0.63570000  1.0 0.1011280412
H  H243  1  0.63790000  0.27360000  0.97390000  1.0 0.1011280412
H  H244  1  0.79970000  0.66400000  0.52610000  1.0 0.1011280412
H  H245  1  0.86430000  0.70030000  0.22640000  1.0 0.1011280412
H  H246  1  0.63570000  0.86210000  0.83600000  1.0 0.1011280412
H  H247  1  0.97390000  0.63790000  0.27360000  1.0 0.1011280412
H  H248  1  0.52610000  0.79970000  0.66400000  1.0 0.1011280412
H  H249  1  0.22640000  0.86430000  0.70030000  1.0 0.1011280412
H  H250  1  0.83600000  0.63570000  0.86210000  1.0 0.1011280412
H  H251  1  0.27360000  0.97390000  0.63790000  1.0 0.1011280412
H  H252  1  0.66400000  0.52610000  0.79970000  1.0 0.1011280412
H  H253  1  0.66400000  0.63790000  0.86430000  1.0 0.1011280412
H  H254  1  0.27360000  0.79970000  0.63570000  1.0 0.1011280412
H  H255  1  0.83600000  0.70030000  0.97390000  1.0 0.1011280412
H  H256  1  0.22640000  0.86210000  0.52610000  1.0 0.1011280412
H  H257  1  0.86210000  0.52610000  0.22640000  1.0 0.1011280412
H  H258  1  0.70030000  0.97390000  0.83600000  1.0 0.1011280412
H  H259  1  0.79970000  0.63570000  0.27360000  1.0 0.1011280412
H  H260  1  0.63790000  0.86430000  0.66400000  1.0 0.1011280412
H  H261  1  0.97390000  0.83600000  0.70030000  1.0 0.1011280412
H  H262  1  0.52610000  0.22640000  0.86210000  1.0 0.1011280412
H  H263  1  0.86430000  0.66400000  0.63790000  1.0 0.1011280412
H  H264  1  0.63570000  0.27360000  0.79970000  1.0 0.1011280412
H  H265  1  0.29970000  0.77360000  0.13570000  1.0 0.1011280412
H  H266  1  0.13790000  0.16400000  0.36430000  1.0 0.1011280412
H  H267  1  0.36210000  0.72640000  0.02610000  1.0 0.1011280412
H  H268  1  0.20030000  0.33600000  0.47390000  1.0 0.1011280412
H  H269  1  0.13570000  0.29970000  0.77360000  1.0 0.1011280412
H  H270  1  0.36430000  0.13790000  0.16400000  1.0 0.1011280412
H  H271  1  0.02610000  0.36210000  0.72640000  1.0 0.1011280412
H  H272  1  0.47390000  0.20030000  0.33600000  1.0 0.1011280412
H  H273  1  0.77360000  0.13570000  0.29970000  1.0 0.1011280412
H  H274  1  0.16400000  0.36430000  0.13790000  1.0 0.1011280412
H  H275  1  0.72640000  0.02610000  0.36210000  1.0 0.1011280412
H  H276  1  0.33600000  0.47390000  0.20030000  1.0 0.1011280412
H  H277  1  0.33600000  0.36210000  0.13570000  1.0 0.1011280412
H  H278  1  0.72640000  0.20030000  0.36430000  1.0 0.1011280412
H  H279  1  0.16400000  0.29970000  0.02610000  1.0 0.1011280412
H  H280  1  0.77360000  0.13790000  0.47390000  1.0 0.1011280412
H  H281  1  0.13790000  0.47390000  0.77360000  1.0 0.1011280412
H  H282  1  0.29970000  0.02610000  0.16400000  1.0 0.1011280412
H  H283  1  0.20030000  0.36430000  0.72640000  1.0 0.1011280412
H  H284  1  0.36210000  0.13570000  0.33600000  1.0 0.1011280412
H  H285  1  0.02610000  0.16400000  0.29970000  1.0 0.1011280412
H  H286  1  0.47390000  0.77360000  0.13790000  1.0 0.1011280412
H  H287  1  0.13570000  0.33600000  0.36210000  1.0 0.1011280412
H  H288  1  0.36430000  0.72640000  0.20030000  1.0 0.1011280412
H  H289  1  0.76400000  0.27750000  0.95150000  1.0 0.1290777651
H  H290  1  0.82600000  0.81250000  0.54850000  1.0 0.1290777651
H  H291  1  0.67400000  0.22250000  0.98650000  1.0 0.1290777651
H  H292  1  0.73600000  0.68750000  0.51350000  1.0 0.1290777651
H  H293  1  0.95150000  0.76400000  0.27750000  1.0 0.1290777651
H  H294  1  0.54850000  0.82600000  0.81250000  1.0 0.1290777651
H  H295  1  0.98650000  0.67400000  0.22250000  1.0 0.1290777651
H  H296  1  0.51350000  0.73600000  0.68750000  1.0 0.1290777651
H  H297  1  0.27750000  0.95150000  0.76400000  1.0 0.1290777651
H  H298  1  0.81250000  0.54850000  0.82600000  1.0 0.1290777651
H  H299  1  0.22250000  0.98650000  0.67400000  1.0 0.1290777651
H  H300  1  0.68750000  0.51350000  0.73600000  1.0 0.1290777651
H  H301  1  0.68750000  0.67400000  0.95150000  1.0 0.1290777651
H  H302  1  0.22250000  0.73600000  0.54850000  1.0 0.1290777651
H  H303  1  0.81250000  0.76400000  0.98650000  1.0 0.1290777651
H  H304  1  0.27750000  0.82600000  0.51350000  1.0 0.1290777651
H  H305  1  0.82600000  0.51350000  0.27750000  1.0 0.1290777651
H  H306  1  0.76400000  0.98650000  0.81250000  1.0 0.1290777651
H  H307  1  0.73600000  0.54850000  0.22250000  1.0 0.1290777651
H  H308  1  0.67400000  0.95150000  0.68750000  1.0 0.1290777651
H  H309  1  0.98650000  0.81250000  0.76400000  1.0 0.1290777651
H  H310  1  0.51350000  0.27750000  0.82600000  1.0 0.1290777651
H  H311  1  0.95150000  0.68750000  0.67400000  1.0 0.1290777651
H  H312  1  0.54850000  0.22250000  0.73600000  1.0 0.1290777651
H  H313  1  0.23600000  0.72250000  0.04850000  1.0 0.1290777651
H  H314  1  0.17400000  0.18750000  0.45150000  1.0 0.1290777651
H  H315  1  0.32600000  0.77750000  0.01350000  1.0 0.1290777651
H  H316  1  0.26400000  0.31250000  0.48650000  1.0 0.1290777651
H  H317  1  0.04850000  0.23600000  0.72250000  1.0 0.1290777651
H  H318  1  0.45150000  0.17400000  0.18750000  1.0 0.1290777651
H  H319  1  0.01350000  0.32600000  0.77750000  1.0 0.1290777651
H  H320  1  0.48650000  0.26400000  0.31250000  1.0 0.1290777651
H  H321  1  0.72250000  0.04850000  0.23600000  1.0 0.1290777651
H  H322  1  0.18750000  0.45150000  0.17400000  1.0 0.1290777651
H  H323  1  0.77750000  0.01350000  0.32600000  1.0 0.1290777651
H  H324  1  0.31250000  0.48650000  0.26400000  1.0 0.1290777651
H  H325  1  0.31250000  0.32600000  0.04850000  1.0 0.1290777651
H  H326  1  0.77750000  0.26400000  0.45150000  1.0 0.1290777651
H  H327  1  0.18750000  0.23600000  0.01350000  1.0 0.1290777651
H  H328  1  0.72250000  0.17400000  0.48650000  1.0 0.1290777651
H  H329  1  0.17400000  0.48650000  0.72250000  1.0 0.1290777651
H  H330  1  0.23600000  0.01350000  0.18750000  1.0 0.1290777651
H  H331  1  0.26400000  0.45150000  0.77750000  1.0 0.1290777651
H  H332  1  0.32600000  0.04850000  0.31250000  1.0 0.1290777651
H  H333  1  0.01350000  0.18750000  0.23600000  1.0 0.1290777651
H  H334  1  0.48650000  0.72250000  0.17400000  1.0 0.1290777651
H  H335  1  0.04850000  0.31250000  0.32600000  1.0 0.1290777651
H  H336  1  0.45150000  0.77750000  0.26400000  1.0 0.1290777651
H  H337  1  0.84070000  0.26950000  0.98100000  1.0 0.1116384387
H  H338  1  0.78850000  0.85970000  0.51900000  1.0 0.1116384387
H  H339  1  0.71150000  0.23050000  0.07120000  1.0 0.1116384387
H  H340  1  0.65930000  0.64030000  0.42880000  1.0 0.1116384387
H  H341  1  0.98100000  0.84070000  0.26950000  1.0 0.1116384387
H  H342  1  0.51900000  0.78850000  0.85970000  1.0 0.1116384387
H  H343  1  0.07120000  0.71150000  0.23050000  1.0 0.1116384387
H  H344  1  0.42880000  0.65930000  0.64030000  1.0 0.1116384387
H  H345  1  0.26950000  0.98100000  0.84070000  1.0 0.1116384387
H  H346  1  0.85970000  0.51900000  0.78850000  1.0 0.1116384387
H  H347  1  0.23050000  0.07120000  0.71150000  1.0 0.1116384387
H  H348  1  0.64030000  0.42880000  0.65930000  1.0 0.1116384387
H  H349  1  0.64030000  0.71150000  0.98100000  1.0 0.1116384387
H  H350  1  0.23050000  0.65930000  0.51900000  1.0 0.1116384387
H  H351  1  0.85970000  0.84070000  0.07120000  1.0 0.1116384387
H  H352  1  0.26950000  0.78850000  0.42880000  1.0 0.1116384387
H  H353  1  0.78850000  0.42880000  0.26950000  1.0 0.1116384387
H  H354  1  0.84070000  0.07120000  0.85970000  1.0 0.1116384387
H  H355  1  0.65930000  0.51900000  0.23050000  1.0 0.1116384387
H  H356  1  0.71150000  0.98100000  0.64030000  1.0 0.1116384387
H  H357  1  0.07120000  0.85970000  0.84070000  1.0 0.1116384387
H  H358  1  0.42880000  0.26950000  0.78850000  1.0 0.1116384387
H  H359  1  0.98100000  0.64030000  0.71150000  1.0 0.1116384387
H  H360  1  0.51900000  0.23050000  0.65930000  1.0 0.1116384387
H  H361  1  0.15930000  0.73050000  0.01900000  1.0 0.1116384387
H  H362  1  0.21150000  0.14030000  0.48100000  1.0 0.1116384387
H  H363  1  0.28850000  0.76950000  0.92880000  1.0 0.1116384387
H  H364  1  0.34070000  0.35970000  0.57120000  1.0 0.1116384387
H  H365  1  0.01900000  0.15930000  0.73050000  1.0 0.1116384387
H  H366  1  0.48100000  0.21150000  0.14030000  1.0 0.1116384387
H  H367  1  0.92880000  0.28850000  0.76950000  1.0 0.1116384387
H  H368  1  0.57120000  0.34070000  0.35970000  1.0 0.1116384387
H  H369  1  0.73050000  0.01900000  0.15930000  1.0 0.1116384387
H  H370  1  0.14030000  0.48100000  0.21150000  1.0 0.1116384387
H  H371  1  0.76950000  0.92880000  0.28850000  1.0 0.1116384387
H  H372  1  0.35970000  0.57120000  0.34070000  1.0 0.1116384387
H  H373  1  0.35970000  0.28850000  0.01900000  1.0 0.1116384387
H  H374  1  0.76950000  0.34070000  0.48100000  1.0 0.1116384387
H  H375  1  0.14030000  0.15930000  0.92880000  1.0 0.1116384387
H  H376  1  0.73050000  0.21150000  0.57120000  1.0 0.1116384387
H  H377  1  0.21150000  0.57120000  0.73050000  1.0 0.1116384387
H  H378  1  0.15930000  0.92880000  0.14030000  1.0 0.1116384387
H  H379  1  0.34070000  0.48100000  0.76950000  1.0 0.1116384387
H  H380  1  0.28850000  0.01900000  0.35970000  1.0 0.1116384387
H  H381  1  0.92880000  0.14030000  0.15930000  1.0 0.1116384387
H  H382  1  0.57120000  0.73050000  0.21150000  1.0 0.1116384387
H  H383  1  0.01900000  0.35970000  0.28850000  1.0 0.1116384387
H  H384  1  0.48100000  0.76950000  0.34070000  1.0 0.1116384387
H  H385  1  0.99500000  0.15070000  0.10550000  1.0 0.0872647045
H  H386  1  0.54520000  0.88950000  0.39450000  1.0 0.0872647045
H  H387  1  0.95480000  0.34930000  0.34430000  1.0 0.0872647045
H  H388  1  0.50500000  0.61050000  0.15570000  1.0 0.0872647045
H  H389  1  0.10550000  0.99500000  0.15070000  1.0 0.0872647045
H  H390  1  0.39450000  0.54520000  0.88950000  1.0 0.0872647045
H  H391  1  0.34430000  0.95480000  0.34930000  1.0 0.0872647045
H  H392  1  0.15570000  0.50500000  0.61050000  1.0 0.0872647045
H  H393  1  0.15070000  0.10550000  0.99500000  1.0 0.0872647045
H  H394  1  0.88950000  0.39450000  0.54520000  1.0 0.0872647045
H  H395  1  0.34930000  0.34430000  0.95480000  1.0 0.0872647045
H  H396  1  0.61050000  0.15570000  0.50500000  1.0 0.0872647045
H  H397  1  0.61050000  0.95480000  0.10550000  1.0 0.0872647045
H  H398  1  0.34930000  0.50500000  0.39450000  1.0 0.0872647045
H  H399  1  0.88950000  0.99500000  0.34430000  1.0 0.0872647045
H  H400  1  0.15070000  0.54520000  0.15570000  1.0 0.0872647045
H  H401  1  0.54520000  0.15570000  0.15070000  1.0 0.0872647045
H  H402  1  0.99500000  0.34430000  0.88950000  1.0 0.0872647045
H  H403  1  0.50500000  0.39450000  0.34930000  1.0 0.0872647045
H  H404  1  0.95480000  0.10550000  0.61050000  1.0 0.0872647045
H  H405  1  0.34430000  0.88950000  0.99500000  1.0 0.0872647045
H  H406  1  0.15570000  0.15070000  0.54520000  1.0 0.0872647045
H  H407  1  0.10550000  0.61050000  0.95480000  1.0 0.0872647045
H  H408  1  0.39450000  0.34930000  0.50500000  1.0 0.0872647045
H  H409  1  0.00500000  0.84930000  0.89450000  1.0 0.0872647045
H  H410  1  0.45480000  0.11050000  0.60550000  1.0 0.0872647045
H  H411  1  0.04520000  0.65070000  0.65570000  1.0 0.0872647045
H  H412  1  0.49500000  0.38950000  0.84430000  1.0 0.0872647045
H  H413  1  0.89450000  0.00500000  0.84930000  1.0 0.0872647045
H  H414  1  0.60550000  0.45480000  0.11050000  1.0 0.0872647045
H  H415  1  0.65570000  0.04520000  0.65070000  1.0 0.0872647045
H  H416  1  0.84430000  0.49500000  0.38950000  1.0 0.0872647045
H  H417  1  0.84930000  0.89450000  0.00500000  1.0 0.0872647045
H  H418  1  0.11050000  0.60550000  0.45480000  1.0 0.0872647045
H  H419  1  0.65070000  0.65570000  0.04520000  1.0 0.0872647045
H  H420  1  0.38950000  0.84430000  0.49500000  1.0 0.0872647045
H  H421  1  0.38950000  0.04520000  0.89450000  1.0 0.0872647045
H  H422  1  0.65070000  0.49500000  0.60550000  1.0 0.0872647045
H  H423  1  0.11050000  0.00500000  0.65570000  1.0 0.0872647045
H  H424  1  0.84930000  0.45480000  0.84430000  1.0 0.0872647045
H  H425  1  0.45480000  0.84430000  0.84930000  1.0 0.0872647045
H  H426  1  0.00500000  0.65570000  0.11050000  1.0 0.0872647045
H  H427  1  0.49500000  0.60550000  0.65070000  1.0 0.0872647045
H  H428  1  0.04520000  0.89450000  0.38950000  1.0 0.0872647045
H  H429  1  0.65570000  0.11050000  0.00500000  1.0 0.0872647045
H  H430  1  0.84430000  0.84930000  0.45480000  1.0 0.0872647045
H  H431  1  0.89450000  0.38950000  0.04520000  1.0 0.0872647045
H  H432  1  0.60550000  0.65070000  0.49500000  1.0 0.0872647045
H  H433  1  0.95260000  0.09090000  0.05850000  1.0 0.0420398184
H  H434  1  0.53240000  0.89410000  0.44150000  1.0 0.0420398184
H  H435  1  0.96760000  0.40910000  0.36170000  1.0 0.0420398184
H  H436  1  0.54740000  0.60590000  0.13830000  1.0 0.0420398184
H  H437  1  0.05850000  0.95260000  0.09090000  1.0 0.0420398184
H  H438  1  0.44150000  0.53240000  0.89410000  1.0 0.0420398184
H  H439  1  0.36170000  0.96760000  0.40910000  1.0 0.0420398184
H  H440  1  0.13830000  0.54740000  0.60590000  1.0 0.0420398184
H  H441  1  0.09090000  0.05850000  0.95260000  1.0 0.0420398184
H  H442  1  0.89410000  0.44150000  0.53240000  1.0 0.0420398184
H  H443  1  0.40910000  0.36170000  0.96760000  1.0 0.0420398184
H  H444  1  0.60590000  0.13830000  0.54740000  1.0 0.0420398184
H  H445  1  0.60590000  0.96760000  0.05850000  1.0 0.0420398184
H  H446  1  0.40910000  0.54740000  0.44150000  1.0 0.0420398184
H  H447  1  0.89410000  0.95260000  0.36170000  1.0 0.0420398184
H  H448  1  0.09090000  0.53240000  0.13830000  1.0 0.0420398184
H  H449  1  0.53240000  0.13830000  0.09090000  1.0 0.0420398184
H  H450  1  0.95260000  0.36170000  0.89410000  1.0 0.0420398184
H  H451  1  0.54740000  0.44150000  0.40910000  1.0 0.0420398184
H  H452  1  0.96760000  0.05850000  0.60590000  1.0 0.0420398184
H  H453  1  0.36170000  0.89410000  0.95260000  1.0 0.0420398184
H  H454  1  0.13830000  0.09090000  0.53240000  1.0 0.0420398184
H  H455  1  0.05850000  0.60590000  0.96760000  1.0 0.0420398184
H  H456  1  0.44150000  0.40910000  0.54740000  1.0 0.0420398184
H  H457  1  0.04740000  0.90910000  0.94150000  1.0 0.0420398184
H  H458  1  0.46760000  0.10590000  0.55850000  1.0 0.0420398184
H  H459  1  0.03240000  0.59090000  0.63830000  1.0 0.0420398184
H  H460  1  0.45260000  0.39410000  0.86170000  1.0 0.0420398184
H  H461  1  0.94150000  0.04740000  0.90910000  1.0 0.0420398184
H  H462  1  0.55850000  0.46760000  0.10590000  1.0 0.0420398184
H  H463  1  0.63830000  0.03240000  0.59090000  1.0 0.0420398184
H  H464  1  0.86170000  0.45260000  0.39410000  1.0 0.0420398184
H  H465  1  0.90910000  0.94150000  0.04740000  1.0 0.0420398184
H  H466  1  0.10590000  0.55850000  0.46760000  1.0 0.0420398184
H  H467  1  0.59090000  0.63830000  0.03240000  1.0 0.0420398184
H  H468  1  0.39410000  0.86170000  0.45260000  1.0 0.0420398184
H  H469  1  0.39410000  0.03240000  0.94150000  1.0 0.0420398184
H  H470  1  0.59090000  0.45260000  0.55850000  1.0 0.0420398184
H  H471  1  0.10590000  0.04740000  0.63830000  1.0 0.0420398184
H  H472  1  0.90910000  0.46760000  0.86170000  1.0 0.0420398184
H  H473  1  0.46760000  0.86170000  0.90910000  1.0 0.0420398184
H  H474  1  0.04740000  0.63830000  0.10590000  1.0 0.0420398184
H  H475  1  0.45260000  0.55850000  0.59090000  1.0 0.0420398184
H  H476  1  0.03240000  0.94150000  0.39410000  1.0 0.0420398184
H  H477  1  0.63830000  0.10590000  0.04740000  1.0 0.0420398184
H  H478  1  0.86170000  0.90910000  0.46760000  1.0 0.0420398184
H  H479  1  0.94150000  0.39410000  0.03240000  1.0 0.0420398184
H  H480  1  0.55850000  0.59090000  0.45260000  1.0 0.0420398184
H  H481  1  0.65120000  0.14800000  0.79840000  1.0 0.1011280412
H  H482  1  0.84960000  0.85280000  0.70160000  1.0 0.1011280412
H  H483  1  0.65040000  0.35200000  0.00320000  1.0 0.1011280412
H  H484  1  0.84880000  0.64720000  0.49680000  1.0 0.1011280412
H  H485  1  0.79840000  0.65120000  0.14800000  1.0 0.1011280412
H  H486  1  0.70160000  0.84960000  0.85280000  1.0 0.1011280412
H  H487  1  0.00320000  0.65040000  0.35200000  1.0 0.1011280412
H  H488  1  0.49680000  0.84880000  0.64720000  1.0 0.1011280412
H  H489  1  0.14800000  0.79840000  0.65120000  1.0 0.1011280412
H  H490  1  0.85280000  0.70160000  0.84960000  1.0 0.1011280412
H  H491  1  0.35200000  0.00320000  0.65040000  1.0 0.1011280412
H  H492  1  0.64720000  0.49680000  0.84880000  1.0 0.1011280412
H  H493  1  0.64720000  0.65040000  0.79840000  1.0 0.1011280412
H  H494  1  0.35200000  0.84880000  0.70160000  1.0 0.1011280412
H  H495  1  0.85280000  0.65120000  0.00320000  1.0 0.1011280412
H  H496  1  0.14800000  0.84960000  0.49680000  1.0 0.1011280412
H  H497  1  0.84960000  0.49680000  0.14800000  1.0 0.1011280412
H  H498  1  0.65120000  0.00320000  0.85280000  1.0 0.1011280412
H  H499  1  0.84880000  0.70160000  0.35200000  1.0 0.1011280412
H  H500  1  0.65040000  0.79840000  0.64720000  1.0 0.1011280412
H  H501  1  0.00320000  0.85280000  0.65120000  1.0 0.1011280412
H  H502  1  0.49680000  0.14800000  0.84960000  1.0 0.1011280412
H  H503  1  0.79840000  0.64720000  0.65040000  1.0 0.1011280412
H  H504  1  0.70160000  0.35200000  0.84880000  1.0 0.1011280412
H  H505  1  0.34880000  0.85200000  0.20160000  1.0 0.1011280412
H  H506  1  0.15040000  0.14720000  0.29840000  1.0 0.1011280412
H  H507  1  0.34960000  0.64800000  0.99680000  1.0 0.1011280412
H  H508  1  0.15120000  0.35280000  0.50320000  1.0 0.1011280412
H  H509  1  0.20160000  0.34880000  0.85200000  1.0 0.1011280412
H  H510  1  0.29840000  0.15040000  0.14720000  1.0 0.1011280412
H  H511  1  0.99680000  0.34960000  0.64800000  1.0 0.1011280412
H  H512  1  0.50320000  0.15120000  0.35280000  1.0 0.1011280412
H  H513  1  0.85200000  0.20160000  0.34880000  1.0 0.1011280412
H  H514  1  0.14720000  0.29840000  0.15040000  1.0 0.1011280412
H  H515  1  0.64800000  0.99680000  0.34960000  1.0 0.1011280412
H  H516  1  0.35280000  0.50320000  0.15120000  1.0 0.1011280412
H  H517  1  0.35280000  0.34960000  0.20160000  1.0 0.1011280412
H  H518  1  0.64800000  0.15120000  0.29840000  1.0 0.1011280412
H  H519  1  0.14720000  0.34880000  0.99680000  1.0 0.1011280412
H  H520  1  0.85200000  0.15040000  0.50320000  1.0 0.1011280412
H  H521  1  0.15040000  0.50320000  0.85200000  1.0 0.1011280412
H  H522  1  0.34880000  0.99680000  0.14720000  1.0 0.1011280412
H  H523  1  0.15120000  0.29840000  0.64800000  1.0 0.1011280412
H  H524  1  0.34960000  0.20160000  0.35280000  1.0 0.1011280412
H  H525  1  0.99680000  0.14720000  0.34880000  1.0 0.1011280412
H  H526  1  0.50320000  0.85200000  0.15040000  1.0 0.1011280412
H  H527  1  0.20160000  0.35280000  0.34960000  1.0 0.1011280412
H  H528  1  0.29840000  0.64800000  0.15120000  1.0 0.1011280412
H  H529  1  0.67730000  0.16750000  0.76620000  1.0 0.1176933455
H  H530  1  0.90130000  0.91110000  0.73380000  1.0 0.1176933455
H  H531  1  0.59870000  0.33250000  0.00980000  1.0 0.1176933455
H  H532  1  0.82270000  0.58890000  0.49020000  1.0 0.1176933455
H  H533  1  0.76620000  0.67730000  0.16750000  1.0 0.1176933455
H  H534  1  0.73380000  0.90130000  0.91110000  1.0 0.1176933455
H  H535  1  0.00980000  0.59870000  0.33250000  1.0 0.1176933455
H  H536  1  0.49020000  0.82270000  0.58890000  1.0 0.1176933455
H  H537  1  0.16750000  0.76620000  0.67730000  1.0 0.1176933455
H  H538  1  0.91110000  0.73380000  0.90130000  1.0 0.1176933455
H  H539  1  0.33250000  0.00980000  0.59870000  1.0 0.1176933455
H  H540  1  0.58890000  0.49020000  0.82270000  1.0 0.1176933455
H  H541  1  0.58890000  0.59870000  0.76620000  1.0 0.1176933455
H  H542  1  0.33250000  0.82270000  0.73380000  1.0 0.1176933455
H  H543  1  0.91110000  0.67730000  0.00980000  1.0 0.1176933455
H  H544  1  0.16750000  0.90130000  0.49020000  1.0 0.1176933455
H  H545  1  0.90130000  0.49020000  0.16750000  1.0 0.1176933455
H  H546  1  0.67730000  0.00980000  0.91110000  1.0 0.1176933455
H  H547  1  0.82270000  0.73380000  0.33250000  1.0 0.1176933455
H  H548  1  0.59870000  0.76620000  0.58890000  1.0 0.1176933455
H  H549  1  0.00980000  0.91110000  0.67730000  1.0 0.1176933455
H  H550  1  0.49020000  0.16750000  0.90130000  1.0 0.1176933455
H  H551  1  0.76620000  0.58890000  0.59870000  1.0 0.1176933455
H  H552  1  0.73380000  0.33250000  0.82270000  1.0 0.1176933455
H  H553  1  0.32270000  0.83250000  0.23380000  1.0 0.1176933455
H  H554  1  0.09870000  0.08890000  0.26620000  1.0 0.1176933455
H  H555  1  0.40130000  0.66750000  0.99020000  1.0 0.1176933455
H  H556  1  0.17730000  0.41110000  0.50980000  1.0 0.1176933455
H  H557  1  0.23380000  0.32270000  0.83250000  1.0 0.1176933455
H  H558  1  0.26620000  0.09870000  0.08890000  1.0 0.1176933455
H  H559  1  0.99020000  0.40130000  0.66750000  1.0 0.1176933455
H  H560  1  0.50980000  0.17730000  0.41110000  1.0 0.1176933455
H  H561  1  0.83250000  0.23380000  0.32270000  1.0 0.1176933455
H  H562  1  0.08890000  0.26620000  0.09870000  1.0 0.1176933455
H  H563  1  0.66750000  0.99020000  0.40130000  1.0 0.1176933455
H  H564  1  0.41110000  0.50980000  0.17730000  1.0 0.1176933455
H  H565  1  0.41110000  0.40130000  0.23380000  1.0 0.1176933455
H  H566  1  0.66750000  0.17730000  0.26620000  1.0 0.1176933455
H  H567  1  0.08890000  0.32270000  0.99020000  1.0 0.1176933455
H  H568  1  0.83250000  0.09870000  0.50980000  1.0 0.1176933455
H  H569  1  0.09870000  0.50980000  0.83250000  1.0 0.1176933455
H  H570  1  0.32270000  0.99020000  0.08890000  1.0 0.1176933455
H  H571  1  0.17730000  0.26620000  0.66750000  1.0 0.1176933455
H  H572  1  0.40130000  0.23380000  0.41110000  1.0 0.1176933455
H  H573  1  0.99020000  0.08890000  0.32270000  1.0 0.1176933455
H  H574  1  0.50980000  0.83250000  0.09870000  1.0 0.1176933455
H  H575  1  0.23380000  0.41110000  0.40130000  1.0 0.1176933455
H  H576  1  0.26620000  0.66750000  0.17730000  1.0 0.1176933455
H  H577  1  0.67300000  0.07030000  0.75530000  1.0 0.3429582842
H  H578  1  0.81500000  0.91770000  0.74470000  1.0 0.3429582842
H  H579  1  0.68500000  0.42970000  0.10270000  1.0 0.3429582842
H  H580  1  0.82700000  0.58230000  0.39730000  1.0 0.3429582842
H  H581  1  0.75530000  0.67300000  0.07030000  1.0 0.3429582842
H  H582  1  0.74470000  0.81500000  0.91770000  1.0 0.3429582842
H  H583  1  0.10270000  0.68500000  0.42970000  1.0 0.3429582842
H  H584  1  0.39730000  0.82700000  0.58230000  1.0 0.3429582842
H  H585  1  0.07030000  0.75530000  0.67300000  1.0 0.3429582842
H  H586  1  0.91770000  0.74470000  0.81500000  1.0 0.3429582842
H  H587  1  0.42970000  0.10270000  0.68500000  1.0 0.3429582842
H  H588  1  0.58230000  0.39730000  0.82700000  1.0 0.3429582842
H  H589  1  0.58230000  0.68500000  0.75530000  1.0 0.3429582842
H  H590  1  0.42970000  0.82700000  0.74470000  1.0 0.3429582842
H  H591  1  0.91770000  0.67300000  0.10270000  1.0 0.3429582842
H  H592  1  0.07030000  0.81500000  0.39730000  1.0 0.3429582842
H  H593  1  0.81500000  0.39730000  0.07030000  1.0 0.3429582842
H  H594  1  0.67300000  0.10270000  0.91770000  1.0 0.3429582842
H  H595  1  0.82700000  0.74470000  0.42970000  1.0 0.3429582842
H  H596  1  0.68500000  0.75530000  0.58230000  1.0 0.3429582842
H  H597  1  0.10270000  0.91770000  0.67300000  1.0 0.3429582842
H  H598  1  0.39730000  0.07030000  0.81500000  1.0 0.3429582842
H  H599  1  0.75530000  0.58230000  0.68500000  1.0 0.3429582842
H  H600  1  0.74470000  0.42970000  0.82700000  1.0 0.3429582842
H  H601  1  0.32700000  0.92970000  0.24470000  1.0 0.3429582842
H  H602  1  0.18500000  0.08230000  0.25530000  1.0 0.3429582842
H  H603  1  0.31500000  0.57030000  0.89730000  1.0 0.3429582842
H  H604  1  0.17300000  0.41770000  0.60270000  1.0 0.3429582842
H  H605  1  0.24470000  0.32700000  0.92970000  1.0 0.3429582842
H  H606  1  0.25530000  0.18500000  0.08230000  1.0 0.3429582842
H  H607  1  0.89730000  0.31500000  0.57030000  1.0 0.3429582842
H  H608  1  0.60270000  0.17300000  0.41770000  1.0 0.3429582842
H  H609  1  0.92970000  0.24470000  0.32700000  1.0 0.3429582842
H  H610  1  0.08230000  0.25530000  0.18500000  1.0 0.3429582842
H  H611  1  0.57030000  0.89730000  0.31500000  1.0 0.3429582842
H  H612  1  0.41770000  0.60270000  0.17300000  1.0 0.3429582842
H  H613  1  0.41770000  0.31500000  0.24470000  1.0 0.3429582842
H  H614  1  0.57030000  0.17300000  0.25530000  1.0 0.3429582842
H  H615  1  0.08230000  0.32700000  0.89730000  1.0 0.3429582842
H  H616  1  0.92970000  0.18500000  0.60270000  1.0 0.3429582842
H  H617  1  0.18500000  0.60270000  0.92970000  1.0 0.3429582842
H  H618  1  0.32700000  0.89730000  0.08230000  1.0 0.3429582842
H  H619  1  0.17300000  0.25530000  0.57030000  1.0 0.3429582842
H  H620  1  0.31500000  0.24470000  0.41770000  1.0 0.3429582842
H  H621  1  0.89730000  0.08230000  0.32700000  1.0 0.3429582842
H  H622  1  0.60270000  0.92970000  0.18500000  1.0 0.3429582842
H  H623  1  0.24470000  0.41770000  0.31500000  1.0 0.3429582842
H  H624  1  0.25530000  0.57030000  0.17300000  1.0 0.3429582842
H  H625  1  0.04300000  0.09100000  0.07600000  1.0 0.2450679717
H  H626  1  0.51500000  0.96700000  0.42400000  1.0 0.2443109191
H  H627  1  0.98500000  0.40900000  0.45200000  1.0 0.2450679717
H  H628  1  0.45700000  0.53300000  0.04800000  1.0 0.2450679717
H  H629  1  0.07600000  0.04300000  0.09100000  1.0 0.2443109191
H  H630  1  0.42400000  0.51500000  0.96700000  1.0 0.2443109191
H  H631  1  0.45200000  0.98500000  0.40900000  1.0 0.2443109191
H  H632  1  0.04800000  0.45700000  0.53300000  1.0 0.2443109191
H  H633  1  0.09100000  0.07600000  0.04300000  1.0 0.2443109191
H  H634  1  0.96700000  0.42400000  0.51500000  1.0 0.2443109191
H  H635  1  0.40900000  0.45200000  0.98500000  1.0 0.2443109191
H  H636  1  0.53300000  0.04800000  0.45700000  1.0 0.2443109191
H  H637  1  0.53300000  0.98500000  0.07600000  1.0 0.2450679717
H  H638  1  0.40900000  0.45700000  0.42400000  1.0 0.2443109191
H  H639  1  0.96700000  0.04300000  0.45200000  1.0 0.2450679717
H  H640  1  0.09100000  0.51500000  0.04800000  1.0 0.2443109191
H  H641  1  0.51500000  0.04800000  0.09100000  1.0 0.2450679717
H  H642  1  0.04300000  0.45200000  0.96700000  1.0 0.2443109191
H  H643  1  0.45700000  0.42400000  0.40900000  1.0 0.2443109191
H  H644  1  0.98500000  0.07600000  0.53300000  1.0 0.2443109191
H  H645  1  0.45200000  0.96700000  0.04300000  1.0 0.2450679717
H  H646  1  0.04800000  0.09100000  0.51500000  1.0 0.2443109191
H  H647  1  0.07600000  0.53300000  0.98500000  1.0 0.2443109191
H  H648  1  0.42400000  0.40900000  0.45700000  1.0 0.2443109191
H  H649  1  0.95700000  0.90900000  0.92400000  1.0 0.2450679717
H  H650  1  0.48500000  0.03300000  0.57600000  1.0 0.2443109191
H  H651  1  0.01500000  0.59100000  0.54800000  1.0 0.2443109191
H  H652  1  0.54300000  0.46700000  0.95200000  1.0 0.2443109191
H  H653  1  0.92400000  0.95700000  0.90900000  1.0 0.2443109191
H  H654  1  0.57600000  0.48500000  0.03300000  1.0 0.2450679717
H  H655  1  0.54800000  0.01500000  0.59100000  1.0 0.2443109191
H  H656  1  0.95200000  0.54300000  0.46700000  1.0 0.2450679717
H  H657  1  0.90900000  0.92400000  0.95700000  1.0 0.2450679717
H  H658  1  0.03300000  0.57600000  0.48500000  1.0 0.2443109191
H  H659  1  0.59100000  0.54800000  0.01500000  1.0 0.2450679717
H  H660  1  0.46700000  0.95200000  0.54300000  1.0 0.2443109191
H  H661  1  0.46700000  0.01500000  0.92400000  1.0 0.2443109191
H  H662  1  0.59100000  0.54300000  0.57600000  1.0 0.2443109191
H  H663  1  0.03300000  0.95700000  0.54800000  1.0 0.2443109191
H  H664  1  0.90900000  0.48500000  0.95200000  1.0 0.2443109191
H  H665  1  0.48500000  0.95200000  0.90900000  1.0 0.2450679717
H  H666  1  0.95700000  0.54800000  0.03300000  1.0 0.2443109191
H  H667  1  0.54300000  0.57600000  0.59100000  1.0 0.2443109191
H  H668  1  0.01500000  0.92400000  0.46700000  1.0 0.2443109191
H  H669  1  0.54800000  0.03300000  0.95700000  1.0 0.2443109191
H  H670  1  0.95200000  0.90900000  0.48500000  1.0 0.2450679717
H  H671  1  0.92400000  0.46700000  0.01500000  1.0 0.2450679717
H  H672  1  0.57600000  0.59100000  0.54300000  1.0 0.2443109191
H  H673  1  0.95220000  0.10830000  0.06950000  1.0 0.0420398184
H  H674  1  0.53880000  0.88270000  0.43050000  1.0 0.0420398184
H  H675  1  0.96120000  0.39170000  0.34390000  1.0 0.0420398184
H  H676  1  0.54780000  0.61730000  0.15610000  1.0 0.0420398184
H  H677  1  0.06950000  0.95220000  0.10830000  1.0 0.0420398184
H  H678  1  0.43050000  0.53880000  0.88270000  1.0 0.0420398184
H  H679  1  0.34390000  0.96120000  0.39170000  1.0 0.0420398184
H  H680  1  0.15610000  0.54780000  0.61730000  1.0 0.0420398184
H  H681  1  0.10830000  0.06950000  0.95220000  1.0 0.0420398184
H  H682  1  0.88270000  0.43050000  0.53880000  1.0 0.0420398184
H  H683  1  0.39170000  0.34390000  0.96120000  1.0 0.0420398184
H  H684  1  0.61730000  0.15610000  0.54780000  1.0 0.0420398184
H  H685  1  0.61730000  0.96120000  0.06950000  1.0 0.0420398184
H  H686  1  0.39170000  0.54780000  0.43050000  1.0 0.0420398184
H  H687  1  0.88270000  0.95220000  0.34390000  1.0 0.0420398184
H  H688  1  0.10830000  0.53880000  0.15610000  1.0 0.0420398184
H  H689  1  0.53880000  0.15610000  0.10830000  1.0 0.0420398184
H  H690  1  0.95220000  0.34390000  0.88270000  1.0 0.0420398184
H  H691  1  0.54780000  0.43050000  0.39170000  1.0 0.0420398184
H  H692  1  0.96120000  0.06950000  0.61730000  1.0 0.0420398184
H  H693  1  0.34390000  0.88270000  0.95220000  1.0 0.0420398184
H  H694  1  0.15610000  0.10830000  0.53880000  1.0 0.0420398184
H  H695  1  0.06950000  0.61730000  0.96120000  1.0 0.0420398184
H  H696  1  0.43050000  0.39170000  0.54780000  1.0 0.0420398184
H  H697  1  0.04780000  0.89170000  0.93050000  1.0 0.0420398184
H  H698  1  0.46120000  0.11730000  0.56950000  1.0 0.0420398184
H  H699  1  0.03880000  0.60830000  0.65610000  1.0 0.0420398184
H  H700  1  0.45220000  0.38270000  0.84390000  1.0 0.0420398184
H  H701  1  0.93050000  0.04780000  0.89170000  1.0 0.0420398184
H  H702  1  0.56950000  0.46120000  0.11730000  1.0 0.0420398184
H  H703  1  0.65610000  0.03880000  0.60830000  1.0 0.0420398184
H  H704  1  0.84390000  0.45220000  0.38270000  1.0 0.0420398184
H  H705  1  0.89170000  0.93050000  0.04780000  1.0 0.0420398184
H  H706  1  0.11730000  0.56950000  0.46120000  1.0 0.0420398184
H  H707  1  0.60830000  0.65610000  0.03880000  1.0 0.0420398184
H  H708  1  0.38270000  0.84390000  0.45220000  1.0 0.0420398184
H  H709  1  0.38270000  0.03880000  0.93050000  1.0 0.0420398184
H  H710  1  0.60830000  0.45220000  0.56950000  1.0 0.0420398184
H  H711  1  0.11730000  0.04780000  0.65610000  1.0 0.0420398184
H  H712  1  0.89170000  0.46120000  0.84390000  1.0 0.0420398184
H  H713  1  0.46120000  0.84390000  0.89170000  1.0 0.0420398184
H  H714  1  0.04780000  0.65610000  0.11730000  1.0 0.0420398184
H  H715  1  0.45220000  0.56950000  0.60830000  1.0 0.0420398184
H  H716  1  0.03880000  0.93050000  0.38270000  1.0 0.0420398184
H  H717  1  0.65610000  0.11730000  0.04780000  1.0 0.0420398184
H  H718  1  0.84390000  0.89170000  0.46120000  1.0 0.0420398184
H  H719  1  0.93050000  0.38270000  0.03880000  1.0 0.0420398184
H  H720  1  0.56950000  0.60830000  0.45220000  1.0 0.0420398184
H  H721  1  0.99460000  0.09080000  0.06520000  1.0 0.1116384387
H  H722  1  0.52560000  0.92940000  0.43480000  1.0 0.1116384387
H  H723  1  0.97440000  0.40920000  0.40380000  1.0 0.1116384387
H  H724  1  0.50540000  0.57060000  0.09620000  1.0 0.1116384387
H  H725  1  0.06520000  0.99460000  0.09080000  1.0 0.1116384387
H  H726  1  0.43480000  0.52560000  0.92940000  1.0 0.1116384387
H  H727  1  0.40380000  0.97440000  0.40920000  1.0 0.1116384387
H  H728  1  0.09620000  0.50540000  0.57060000  1.0 0.1116384387
H  H729  1  0.09080000  0.06520000  0.99460000  1.0 0.1116384387
H  H730  1  0.92940000  0.43480000  0.52560000  1.0 0.1116384387
H  H731  1  0.40920000  0.40380000  0.97440000  1.0 0.1116384387
H  H732  1  0.57060000  0.09620000  0.50540000  1.0 0.1116384387
H  H733  1  0.57060000  0.97440000  0.06520000  1.0 0.1116384387
H  H734  1  0.40920000  0.50540000  0.43480000  1.0 0.1116384387
H  H735  1  0.92940000  0.99460000  0.40380000  1.0 0.1116384387
H  H736  1  0.09080000  0.52560000  0.09620000  1.0 0.1116384387
H  H737  1  0.52560000  0.09620000  0.09080000  1.0 0.1116384387
H  H738  1  0.99460000  0.40380000  0.92940000  1.0 0.1116384387
H  H739  1  0.50540000  0.43480000  0.40920000  1.0 0.1116384387
H  H740  1  0.97440000  0.06520000  0.57060000  1.0 0.1116384387
H  H741  1  0.40380000  0.92940000  0.99460000  1.0 0.1116384387
H  H742  1  0.09620000  0.09080000  0.52560000  1.0 0.1116384387
H  H743  1  0.06520000  0.57060000  0.97440000  1.0 0.1116384387
H  H744  1  0.43480000  0.40920000  0.50540000  1.0 0.1116384387
H  H745  1  0.00540000  0.90920000  0.93480000  1.0 0.1176933455
H  H746  1  0.47440000  0.07060000  0.56520000  1.0 0.1116384387
H  H747  1  0.02560000  0.59080000  0.59620000  1.0 0.1116384387
H  H748  1  0.49460000  0.42940000  0.90380000  1.0 0.1116384387
H  H749  1  0.93480000  0.00540000  0.90920000  1.0 0.1116384387
H  H750  1  0.56520000  0.47440000  0.07060000  1.0 0.1116384387
H  H751  1  0.59620000  0.02560000  0.59080000  1.0 0.1116384387
H  H752  1  0.90380000  0.49460000  0.42940000  1.0 0.1116384387
H  H753  1  0.90920000  0.93480000  0.00540000  1.0 0.1116384387
H  H754  1  0.07060000  0.56520000  0.47440000  1.0 0.1116384387
H  H755  1  0.59080000  0.59620000  0.02560000  1.0 0.1116384387
H  H756  1  0.42940000  0.90380000  0.49460000  1.0 0.1116384387
H  H757  1  0.42940000  0.02560000  0.93480000  1.0 0.1116384387
H  H758  1  0.59080000  0.49460000  0.56520000  1.0 0.1116384387
H  H759  1  0.07060000  0.00540000  0.59620000  1.0 0.1116384387
H  H760  1  0.90920000  0.47440000  0.90380000  1.0 0.1116384387
H  H761  1  0.47440000  0.90380000  0.90920000  1.0 0.1116384387
H  H762  1  0.00540000  0.59620000  0.07060000  1.0 0.1116384387
H  H763  1  0.49460000  0.56520000  0.59080000  1.0 0.1116384387
H  H764  1  0.02560000  0.93480000  0.42940000  1.0 0.1116384387
H  H765  1  0.59620000  0.07060000  0.00540000  1.0 0.1116384387
H  H766  1  0.90380000  0.90920000  0.47440000  1.0 0.1116384387
H  H767  1  0.93480000  0.42940000  0.02560000  1.0 0.1116384387
H  H768  1  0.56520000  0.59080000  0.49460000  1.0 0.1116384387
H  H769  1  0.67550000  0.16920000  0.77010000  1.0 0.1176933455
H  H770  1  0.89910000  0.90540000  0.72990000  1.0 0.1176933455
H  H771  1  0.60090000  0.33080000  0.00630000  1.0 0.1176933455
H  H772  1  0.82450000  0.59460000  0.49370000  1.0 0.1176933455
H  H773  1  0.77010000  0.67550000  0.16920000  1.0 0.1176933455
H  H774  1  0.72990000  0.89910000  0.90540000  1.0 0.1176933455
H  H775  1  0.00630000  0.60090000  0.33080000  1.0 0.1176933455
H  H776  1  0.49370000  0.82450000  0.59460000  1.0 0.1176933455
H  H777  1  0.16920000  0.77010000  0.67550000  1.0 0.1176933455
H  H778  1  0.90540000  0.72990000  0.89910000  1.0 0.1176933455
H  H779  1  0.33080000  0.00630000  0.60090000  1.0 0.1176933455
H  H780  1  0.59460000  0.49370000  0.82450000  1.0 0.1176933455
H  H781  1  0.59460000  0.60090000  0.77010000  1.0 0.1176933455
H  H782  1  0.33080000  0.82450000  0.72990000  1.0 0.1176933455
H  H783  1  0.90540000  0.67550000  0.00630000  1.0 0.1176933455
H  H784  1  0.16920000  0.89910000  0.49370000  1.0 0.1176933455
H  H785  1  0.89910000  0.49370000  0.16920000  1.0 0.1176933455
H  H786  1  0.67550000  0.00630000  0.90540000  1.0 0.1176933455
H  H787  1  0.82450000  0.72990000  0.33080000  1.0 0.1176933455
H  H788  1  0.60090000  0.77010000  0.59460000  1.0 0.1176933455
H  H789  1  0.00630000  0.90540000  0.67550000  1.0 0.1176933455
H  H790  1  0.49370000  0.16920000  0.89910000  1.0 0.1176933455
H  H791  1  0.77010000  0.59460000  0.60090000  1.0 0.1176933455
H  H792  1  0.72990000  0.33080000  0.82450000  1.0 0.1176933455
H  H793  1  0.32450000  0.83080000  0.22990000  1.0 0.1176933455
H  H794  1  0.10090000  0.09460000  0.27010000  1.0 0.1176933455
H  H795  1  0.39910000  0.66920000  0.99370000  1.0 0.1176933455
H  H796  1  0.17550000  0.40540000  0.50630000  1.0 0.1176933455
H  H797  1  0.22990000  0.32450000  0.83080000  1.0 0.1176933455
H  H798  1  0.27010000  0.10090000  0.09460000  1.0 0.1176933455
H  H799  1  0.99370000  0.39910000  0.66920000  1.0 0.1176933455
H  H800  1  0.50630000  0.17550000  0.40540000  1.0 0.1176933455
H  H801  1  0.83080000  0.22990000  0.32450000  1.0 0.1176933455
H  H802  1  0.09460000  0.27010000  0.10090000  1.0 0.1176933455
H  H803  1  0.66920000  0.99370000  0.39910000  1.0 0.1176933455
H  H804  1  0.40540000  0.50630000  0.17550000  1.0 0.1176933455
H  H805  1  0.40540000  0.39910000  0.22990000  1.0 0.1176933455
H  H806  1  0.66920000  0.17550000  0.27010000  1.0 0.1176933455
H  H807  1  0.09460000  0.32450000  0.99370000  1.0 0.1176933455
H  H808  1  0.83080000  0.10090000  0.50630000  1.0 0.1176933455
H  H809  1  0.10090000  0.50630000  0.83080000  1.0 0.1176933455
H  H810  1  0.32450000  0.99370000  0.09460000  1.0 0.1176933455
H  H811  1  0.17550000  0.27010000  0.66920000  1.0 0.1176933455
H  H812  1  0.39910000  0.22990000  0.40540000  1.0 0.1176933455
H  H813  1  0.99370000  0.09460000  0.32450000  1.0 0.1176933455
H  H814  1  0.50630000  0.83080000  0.10090000  1.0 0.1176933455
H  H815  1  0.22990000  0.40540000  0.39910000  1.0 0.1176933455
H  H816  1  0.27010000  0.66920000  0.17550000  1.0 0.1176933455
H  H817  1  0.72530000  0.16730000  0.76480000  1.0 0.1116384387
H  H818  1  0.90250000  0.96050000  0.73520000  1.0 0.1116384387
H  H819  1  0.59750000  0.33270000  0.05800000  1.0 0.1116384387
H  H820  1  0.77470000  0.53950000  0.44200000  1.0 0.1116384387
H  H821  1  0.76480000  0.72530000  0.16730000  1.0 0.1116384387
H  H822  1  0.73520000  0.90250000  0.96050000  1.0 0.1116384387
H  H823  1  0.05800000  0.59750000  0.33270000  1.0 0.1116384387
H  H824  1  0.44200000  0.77470000  0.53950000  1.0 0.1116384387
H  H825  1  0.16730000  0.76480000  0.72530000  1.0 0.1116384387
H  H826  1  0.96050000  0.73520000  0.90250000  1.0 0.1116384387
H  H827  1  0.33270000  0.05800000  0.59750000  1.0 0.1116384387
H  H828  1  0.53950000  0.44200000  0.77470000  1.0 0.1116384387
H  H829  1  0.53950000  0.59750000  0.76480000  1.0 0.1116384387
H  H830  1  0.33270000  0.77470000  0.73520000  1.0 0.1116384387
H  H831  1  0.96050000  0.72530000  0.05800000  1.0 0.1116384387
H  H832  1  0.16730000  0.90250000  0.44200000  1.0 0.1116384387
H  H833  1  0.90250000  0.44200000  0.16730000  1.0 0.1116384387
H  H834  1  0.72530000  0.05800000  0.96050000  1.0 0.1116384387
H  H835  1  0.77470000  0.73520000  0.33270000  1.0 0.1116384387
H  H836  1  0.59750000  0.76480000  0.53950000  1.0 0.1116384387
H  H837  1  0.05800000  0.96050000  0.72530000  1.0 0.1116384387
H  H838  1  0.44200000  0.16730000  0.90250000  1.0 0.1116384387
H  H839  1  0.76480000  0.53950000  0.59750000  1.0 0.1116384387
H  H840  1  0.73520000  0.33270000  0.77470000  1.0 0.1116384387
H  H841  1  0.27470000  0.83270000  0.23520000  1.0 0.1116384387
H  H842  1  0.09750000  0.03950000  0.26480000  1.0 0.1116384387
H  H843  1  0.40250000  0.66730000  0.94200000  1.0 0.1116384387
H  H844  1  0.22530000  0.46050000  0.55800000  1.0 0.1116384387
H  H845  1  0.23520000  0.27470000  0.83270000  1.0 0.1116384387
H  H846  1  0.26480000  0.09750000  0.03950000  1.0 0.1116384387
H  H847  1  0.94200000  0.40250000  0.66730000  1.0 0.1116384387
H  H848  1  0.55800000  0.22530000  0.46050000  1.0 0.1116384387
H  H849  1  0.83270000  0.23520000  0.27470000  1.0 0.1116384387
H  H850  1  0.03950000  0.26480000  0.09750000  1.0 0.1116384387
H  H851  1  0.66730000  0.94200000  0.40250000  1.0 0.1116384387
H  H852  1  0.46050000  0.55800000  0.22530000  1.0 0.1116384387
H  H853  1  0.46050000  0.40250000  0.23520000  1.0 0.1116384387
H  H854  1  0.66730000  0.22530000  0.26480000  1.0 0.1116384387
H  H855  1  0.03950000  0.27470000  0.94200000  1.0 0.1116384387
H  H856  1  0.83270000  0.09750000  0.55800000  1.0 0.1116384387
H  H857  1  0.09750000  0.55800000  0.83270000  1.0 0.1116384387
H  H858  1  0.27470000  0.94200000  0.03950000  1.0 0.1116384387
H  H859  1  0.22530000  0.26480000  0.66730000  1.0 0.1116384387
H  H860  1  0.40250000  0.23520000  0.46050000  1.0 0.1116384387
H  H861  1  0.94200000  0.03950000  0.27470000  1.0 0.1116384387
H  H862  1  0.55800000  0.83270000  0.09750000  1.0 0.1116384387
H  H863  1  0.23520000  0.46050000  0.40250000  1.0 0.1116384387
H  H864  1  0.26480000  0.66730000  0.22530000  1.0 0.1116384387
H  H865  1  0.01580000  0.17320000  0.15020000  1.0 0.2095017172
H  H866  1  0.52300000  0.86560000  0.34980000  1.0 0.2095017172
H  H867  1  0.97700000  0.32680000  0.34260000  1.0 0.2095017172
H  H868  1  0.48420000  0.63440000  0.15740000  1.0 0.2095017172
H  H869  1  0.15020000  0.01580000  0.17320000  1.0 0.2095017172
H  H870  1  0.34980000  0.52300000  0.86560000  1.0 0.2095017172
H  H871  1  0.34260000  0.97700000  0.32680000  1.0 0.2095017172
H  H872  1  0.15740000  0.48420000  0.63440000  1.0 0.2095017172
H  H873  1  0.17320000  0.15020000  0.01580000  1.0 0.2095017172
H  H874  1  0.86560000  0.34980000  0.52300000  1.0 0.2095017172
H  H875  1  0.32680000  0.34260000  0.97700000  1.0 0.2095017172
H  H876  1  0.63440000  0.15740000  0.48420000  1.0 0.2095017172
H  H877  1  0.63440000  0.97700000  0.15020000  1.0 0.2095017172
H  H878  1  0.32680000  0.48420000  0.34980000  1.0 0.2095017172
H  H879  1  0.86560000  0.01580000  0.34260000  1.0 0.2095017172
H  H880  1  0.17320000  0.52300000  0.15740000  1.0 0.2095017172
H  H881  1  0.52300000  0.15740000  0.17320000  1.0 0.2095017172
H  H882  1  0.01580000  0.34260000  0.86560000  1.0 0.2095017172
H  H883  1  0.48420000  0.34980000  0.32680000  1.0 0.2095017172
H  H884  1  0.97700000  0.15020000  0.63440000  1.0 0.2095017172
H  H885  1  0.34260000  0.86560000  0.01580000  1.0 0.2095017172
H  H886  1  0.15740000  0.17320000  0.52300000  1.0 0.2095017172
H  H887  1  0.15020000  0.63440000  0.97700000  1.0 0.2095017172
H  H888  1  0.34980000  0.32680000  0.48420000  1.0 0.2095017172
H  H889  1  0.98420000  0.82680000  0.84980000  1.0 0.2095017172
H  H890  1  0.47700000  0.13440000  0.65020000  1.0 0.2095017172
H  H891  1  0.02300000  0.67320000  0.65740000  1.0 0.2095017172
H  H892  1  0.51580000  0.36560000  0.84260000  1.0 0.2095017172
H  H893  1  0.84980000  0.98420000  0.82680000  1.0 0.2095017172
H  H894  1  0.65020000  0.47700000  0.13440000  1.0 0.2095017172
H  H895  1  0.65740000  0.02300000  0.67320000  1.0 0.2095017172
H  H896  1  0.84260000  0.51580000  0.36560000  1.0 0.2095017172
H  H897  1  0.82680000  0.84980000  0.98420000  1.0 0.2095017172
H  H898  1  0.13440000  0.65020000  0.47700000  1.0 0.2095017172
H  H899  1  0.67320000  0.65740000  0.02300000  1.0 0.2095017172
H  H900  1  0.36560000  0.84260000  0.51580000  1.0 0.2095017172
H  H901  1  0.36560000  0.02300000  0.84980000  1.0 0.2095017172
H  H902  1  0.67320000  0.51580000  0.65020000  1.0 0.2095017172
H  H903  1  0.13440000  0.98420000  0.65740000  1.0 0.2095017172
H  H904  1  0.82680000  0.47700000  0.84260000  1.0 0.2095017172
H  H905  1  0.47700000  0.84260000  0.82680000  1.0 0.2095017172
H  H906  1  0.98420000  0.65740000  0.13440000  1.0 0.2095017172
H  H907  1  0.51580000  0.65020000  0.67320000  1.0 0.2095017172
H  H908  1  0.02300000  0.84980000  0.36560000  1.0 0.2095017172
H  H909  1  0.65740000  0.13440000  0.98420000  1.0 0.2095017172
H  H910  1  0.84260000  0.82680000  0.47700000  1.0 0.2095017172
H  H911  1  0.84980000  0.36560000  0.02300000  1.0 0.2095017172
H  H912  1  0.65020000  0.67320000  0.51580000  1.0 0.2095017172
W  W1  1  0.87500000  0.12500000  0.75000000  1.0 0.4568981347
W  W2  1  0.62500000  0.37500000  0.25000000  1.0 0.4568981347
W  W3  1  0.75000000  0.87500000  0.12500000  1.0 0.4568981347
W  W4  1  0.25000000  0.62500000  0.37500000  1.0 0.4568981347
W  W5  1  0.12500000  0.75000000  0.87500000  1.0 0.4568981347
W  W6  1  0.37500000  0.25000000  0.62500000  1.0 0.4568981347
W  W7  1  0.37500000  0.62500000  0.75000000  1.0 0.4568981347
W  W8  1  0.12500000  0.87500000  0.25000000  1.0 0.4539902238
W  W9  1  0.87500000  0.25000000  0.12500000  1.0 0.4568981347
W  W10  1  0.62500000  0.75000000  0.37500000  1.0 0.4539902238
W  W11  1  0.25000000  0.12500000  0.87500000  1.0 0.4568981347
W  W12  1  0.75000000  0.37500000  0.62500000  1.0 0.4568981347
C  C1  1  0.79280000  0.09420000  0.73680000  1.0 -0.0078367919
C  C2  1  0.85740000  0.05600000  0.76320000  1.0 -0.0078367919
C  C3  1  0.64260000  0.40580000  0.19860000  1.0 -0.0078367919
C  C4  1  0.70720000  0.44400000  0.30140000  1.0 -0.0078367919
C  C5  1  0.73680000  0.79280000  0.09420000  1.0 -0.0078367919
C  C6  1  0.76320000  0.85740000  0.05600000  1.0 -0.0078367919
C  C7  1  0.19860000  0.64260000  0.40580000  1.0 -0.0078367919
C  C8  1  0.30140000  0.70720000  0.44400000  1.0 -0.0078367919
C  C9  1  0.09420000  0.73680000  0.79280000  1.0 -0.0078367919
C  C10  1  0.05600000  0.76320000  0.85740000  1.0 -0.0078367919
C  C11  1  0.40580000  0.19860000  0.64260000  1.0 -0.0078367919
C  C12  1  0.44400000  0.30140000  0.70720000  1.0 -0.0078367919
C  C13  1  0.44400000  0.64260000  0.73680000  1.0 -0.0078367919
C  C14  1  0.40580000  0.70720000  0.76320000  1.0 -0.0078367919
C  C15  1  0.05600000  0.79280000  0.19860000  1.0 -0.0078367919
C  C16  1  0.09420000  0.85740000  0.30140000  1.0 -0.0078367919
C  C17  1  0.85740000  0.30140000  0.09420000  1.0 -0.0078367919
C  C18  1  0.79280000  0.19860000  0.05600000  1.0 -0.0078367919
C  C19  1  0.70720000  0.76320000  0.40580000  1.0 -0.0078367919
C  C20  1  0.64260000  0.73680000  0.44400000  1.0 -0.0078367919
C  C21  1  0.19860000  0.05600000  0.79280000  1.0 -0.0078367919
C  C22  1  0.30140000  0.09420000  0.85740000  1.0 -0.0078367919
C  C23  1  0.73680000  0.44400000  0.64260000  1.0 -0.0078367919
C  C24  1  0.76320000  0.40580000  0.70720000  1.0 -0.0078367919
C  C25  1  0.20720000  0.90580000  0.26320000  1.0 -0.0078367919
C  C26  1  0.14260000  0.94400000  0.23680000  1.0 -0.0078367919
C  C27  1  0.35740000  0.59420000  0.80140000  1.0 -0.0078367919
C  C28  1  0.29280000  0.55600000  0.69860000  1.0 -0.0078367919
C  C29  1  0.26320000  0.20720000  0.90580000  1.0 -0.0078367919
C  C30  1  0.23680000  0.14260000  0.94400000  1.0 -0.0078367919
C  C31  1  0.80140000  0.35740000  0.59420000  1.0 -0.0078367919
C  C32  1  0.69860000  0.29280000  0.55600000  1.0 -0.0078367919
C  C33  1  0.90580000  0.26320000  0.20720000  1.0 -0.0078367919
C  C34  1  0.94400000  0.23680000  0.14260000  1.0 -0.0078367919
C  C35  1  0.59420000  0.80140000  0.35740000  1.0 -0.0078367919
C  C36  1  0.55600000  0.69860000  0.29280000  1.0 -0.0078367919
C  C37  1  0.55600000  0.35740000  0.26320000  1.0 -0.0078367919
C  C38  1  0.59420000  0.29280000  0.23680000  1.0 -0.0078367919
C  C39  1  0.94400000  0.20720000  0.80140000  1.0 -0.0078367919
C  C40  1  0.90580000  0.14260000  0.69860000  1.0 -0.0078367919
C  C41  1  0.14260000  0.69860000  0.90580000  1.0 -0.0078367919
C  C42  1  0.20720000  0.80140000  0.94400000  1.0 -0.0078367919
C  C43  1  0.29280000  0.23680000  0.59420000  1.0 -0.0078367919
C  C44  1  0.35740000  0.26320000  0.55600000  1.0 -0.0078367919
C  C45  1  0.80140000  0.94400000  0.20720000  1.0 -0.0078367919
C  C46  1  0.69860000  0.90580000  0.14260000  1.0 -0.0078367919
C  C47  1  0.26320000  0.55600000  0.35740000  1.0 -0.0078367919
C  C48  1  0.23680000  0.59420000  0.29280000  1.0 -0.0078367919
C  C49  1  0.88520000  0.15650000  0.82950000  1.0 0.0293975539
C  C50  1  0.82700000  0.05570000  0.67050000  1.0 0.0293975539
C  C51  1  0.67300000  0.34350000  0.22870000  1.0 0.0293975539
C  C52  1  0.61480000  0.44430000  0.27130000  1.0 0.0293975539
C  C53  1  0.82950000  0.88520000  0.15650000  1.0 0.0293975539
C  C54  1  0.67050000  0.82700000  0.05570000  1.0 0.0293975539
C  C55  1  0.22870000  0.67300000  0.34350000  1.0 0.0293975539
C  C56  1  0.27130000  0.61480000  0.44430000  1.0 0.0293975539
C  C57  1  0.15650000  0.82950000  0.88520000  1.0 0.0293975539
C  C58  1  0.05570000  0.67050000  0.82700000  1.0 0.0293975539
C  C59  1  0.34350000  0.22870000  0.67300000  1.0 0.0293975539
C  C60  1  0.44430000  0.27130000  0.61480000  1.0 0.0293975539
C  C61  1  0.44430000  0.67300000  0.82950000  1.0 0.0293975539
C  C62  1  0.34350000  0.61480000  0.67050000  1.0 0.0293975539
C  C63  1  0.05570000  0.88520000  0.22870000  1.0 0.0293975539
C  C64  1  0.15650000  0.82700000  0.27130000  1.0 0.0293975539
C  C65  1  0.82700000  0.27130000  0.15650000  1.0 0.0293975539
C  C66  1  0.88520000  0.22870000  0.05570000  1.0 0.0293975539
C  C67  1  0.61480000  0.67050000  0.34350000  1.0 0.0293975539
C  C68  1  0.67300000  0.82950000  0.44430000  1.0 0.0293975539
C  C69  1  0.22870000  0.05570000  0.88520000  1.0 0.0293975539
C  C70  1  0.27130000  0.15650000  0.82700000  1.0 0.0293975539
C  C71  1  0.82950000  0.44430000  0.67300000  1.0 0.0293975539
C  C72  1  0.67050000  0.34350000  0.61480000  1.0 0.0293975539
C  C73  1  0.11480000  0.84350000  0.17050000  1.0 0.0293975539
C  C74  1  0.17300000  0.94430000  0.32950000  1.0 0.0293975539
C  C75  1  0.32700000  0.65650000  0.77130000  1.0 0.0293975539
C  C76  1  0.38520000  0.55570000  0.72870000  1.0 0.0293975539
C  C77  1  0.17050000  0.11480000  0.84350000  1.0 0.0293975539
C  C78  1  0.32950000  0.17300000  0.94430000  1.0 0.0293975539
C  C79  1  0.77130000  0.32700000  0.65650000  1.0 0.0293975539
C  C80  1  0.72870000  0.38520000  0.55570000  1.0 0.0293975539
C  C81  1  0.84350000  0.17050000  0.11480000  1.0 0.0293975539
C  C82  1  0.94430000  0.32950000  0.17300000  1.0 0.0293975539
C  C83  1  0.65650000  0.77130000  0.32700000  1.0 0.0293975539
C  C84  1  0.55570000  0.72870000  0.38520000  1.0 0.0293975539
C  C85  1  0.55570000  0.32700000  0.17050000  1.0 0.0293975539
C  C86  1  0.65650000  0.38520000  0.32950000  1.0 0.0293975539
C  C87  1  0.94430000  0.11480000  0.77130000  1.0 0.0293975539
C  C88  1  0.84350000  0.17300000  0.72870000  1.0 0.0293975539
C  C89  1  0.17300000  0.72870000  0.84350000  1.0 0.0293975539
C  C90  1  0.11480000  0.77130000  0.94430000  1.0 0.0293975539
C  C91  1  0.38520000  0.32950000  0.65650000  1.0 0.0293975539
C  C92  1  0.32700000  0.17050000  0.55570000  1.0 0.0293975539
C  C93  1  0.77130000  0.94430000  0.11480000  1.0 0.0293975539
C  C94  1  0.72870000  0.84350000  0.17300000  1.0 0.0293975539
C  C95  1  0.17050000  0.55570000  0.32700000  1.0 0.0293975539
C  C96  1  0.32950000  0.65650000  0.38520000  1.0 0.0293975539
C  C97  1  0.94980000  0.15320000  0.00940000  1.0 0.0035273218
C  C98  1  0.64380000  0.94040000  0.49060000  1.0 0.0035273218
C  C99  1  0.85620000  0.34680000  0.29660000  1.0 0.0035273218
C  C100  1  0.55020000  0.55960000  0.20340000  1.0 0.0035273218
C  C101  1  0.00940000  0.94980000  0.15320000  1.0 0.0035273218
C  C102  1  0.49060000  0.64380000  0.94040000  1.0 0.0035273218
C  C103  1  0.29660000  0.85620000  0.34680000  1.0 0.0035273218
C  C104  1  0.20340000  0.55020000  0.55960000  1.0 0.0035273218
C  C105  1  0.15320000  0.00940000  0.94980000  1.0 0.0035273218
C  C106  1  0.94040000  0.49060000  0.64380000  1.0 0.0035273218
C  C107  1  0.34680000  0.29660000  0.85620000  1.0 0.0035273218
C  C108  1  0.55960000  0.20340000  0.55020000  1.0 0.0035273218
C  C109  1  0.55960000  0.85620000  0.00940000  1.0 0.0035273218
C  C110  1  0.34680000  0.55020000  0.49060000  1.0 0.0035273218
C  C111  1  0.94040000  0.94980000  0.29660000  1.0 0.0035273218
C  C112  1  0.15320000  0.64380000  0.20340000  1.0 0.0035273218
C  C113  1  0.64380000  0.20340000  0.15320000  1.0 0.0035273218
C  C114  1  0.94980000  0.29660000  0.94040000  1.0 0.0035273218
C  C115  1  0.55020000  0.49060000  0.34680000  1.0 0.0035273218
C  C116  1  0.85620000  0.00940000  0.55960000  1.0 0.0035273218
C  C117  1  0.29660000  0.94040000  0.94980000  1.0 0.0035273218
C  C118  1  0.20340000  0.15320000  0.64380000  1.0 0.0035273218
C  C119  1  0.00940000  0.55960000  0.85620000  1.0 0.0035273218
C  C120  1  0.49060000  0.34680000  0.55020000  1.0 0.0035273218
C  C121  1  0.05020000  0.84680000  0.99060000  1.0 0.0035273218
C  C122  1  0.35620000  0.05960000  0.50940000  1.0 0.0035273218
C  C123  1  0.14380000  0.65320000  0.70340000  1.0 0.0035273218
C  C124  1  0.44980000  0.44040000  0.79660000  1.0 0.0035273218
C  C125  1  0.99060000  0.05020000  0.84680000  1.0 0.0035273218
C  C126  1  0.50940000  0.35620000  0.05960000  1.0 0.0055724362
C  C127  1  0.70340000  0.14380000  0.65320000  1.0 0.0035273218
C  C128  1  0.79660000  0.44980000  0.44040000  1.0 0.0055724362
C  C129  1  0.84680000  0.99060000  0.05020000  1.0 0.0035273218
C  C130  1  0.05960000  0.50940000  0.35620000  1.0 0.0035273218
C  C131  1  0.65320000  0.70340000  0.14380000  1.0 0.0035273218
C  C132  1  0.44040000  0.79660000  0.44980000  1.0 0.0035273218
C  C133  1  0.44040000  0.14380000  0.99060000  1.0 0.0035273218
C  C134  1  0.65320000  0.44980000  0.50940000  1.0 0.0035273218
C  C135  1  0.05960000  0.05020000  0.70340000  1.0 0.0035273218
C  C136  1  0.84680000  0.35620000  0.79660000  1.0 0.0035273218
C  C137  1  0.35620000  0.79660000  0.84680000  1.0 0.0035273218
C  C138  1  0.05020000  0.70340000  0.05960000  1.0 0.0035273218
C  C139  1  0.44980000  0.50940000  0.65320000  1.0 0.0035273218
C  C140  1  0.14380000  0.99060000  0.44040000  1.0 0.0035273218
C  C141  1  0.70340000  0.05960000  0.05020000  1.0 0.0055724362
C  C142  1  0.79660000  0.84680000  0.35620000  1.0 0.0035273218
C  C143  1  0.99060000  0.44040000  0.14380000  1.0 0.0035273218
C  C144  1  0.50940000  0.65320000  0.44980000  1.0 0.0035273218
C  C145  1  0.98880000  0.13970000  0.03190000  1.0 -0.1036209815
C  C146  1  0.60780000  0.95690000  0.46810000  1.0 -0.1036209815
C  C147  1  0.89220000  0.36030000  0.34910000  1.0 -0.1036209815
C  C148  1  0.51120000  0.54310000  0.15090000  1.0 -0.1036209815
C  C149  1  0.03190000  0.98880000  0.13970000  1.0 -0.1036209815
C  C150  1  0.46810000  0.60780000  0.95690000  1.0 -0.1036209815
C  C151  1  0.34910000  0.89220000  0.36030000  1.0 -0.1036209815
C  C152  1  0.15090000  0.51120000  0.54310000  1.0 -0.1036209815
C  C153  1  0.13970000  0.03190000  0.98880000  1.0 -0.1036209815
C  C154  1  0.95690000  0.46810000  0.60780000  1.0 -0.1036209815
C  C155  1  0.36030000  0.34910000  0.89220000  1.0 -0.1036209815
C  C156  1  0.54310000  0.15090000  0.51120000  1.0 -0.1036209815
C  C157  1  0.54310000  0.89220000  0.03190000  1.0 -0.1036209815
C  C158  1  0.36030000  0.51120000  0.46810000  1.0 -0.1036209815
C  C159  1  0.95690000  0.98880000  0.34910000  1.0 -0.1036209815
C  C160  1  0.13970000  0.60780000  0.15090000  1.0 -0.1036209815
C  C161  1  0.60780000  0.15090000  0.13970000  1.0 -0.1036209815
C  C162  1  0.98880000  0.34910000  0.95690000  1.0 -0.1036209815
C  C163  1  0.51120000  0.46810000  0.36030000  1.0 -0.1036209815
C  C164  1  0.89220000  0.03190000  0.54310000  1.0 -0.1036209815
C  C165  1  0.34910000  0.95690000  0.98880000  1.0 -0.1036209815
C  C166  1  0.15090000  0.13970000  0.60780000  1.0 -0.1036209815
C  C167  1  0.03190000  0.54310000  0.89220000  1.0 -0.1036209815
C  C168  1  0.46810000  0.36030000  0.51120000  1.0 -0.1036209815
C  C169  1  0.01120000  0.86030000  0.96810000  1.0 -0.1036209815
C  C170  1  0.39220000  0.04310000  0.53190000  1.0 -0.1036209815
C  C171  1  0.10780000  0.63970000  0.65090000  1.0 -0.1036209815
C  C172  1  0.48880000  0.45690000  0.84910000  1.0 -0.1036209815
C  C173  1  0.96810000  0.01120000  0.86030000  1.0 -0.1036209815
C  C174  1  0.53190000  0.39220000  0.04310000  1.0 -0.1036209815
C  C175  1  0.65090000  0.10780000  0.63970000  1.0 -0.1036209815
C  C176  1  0.84910000  0.48880000  0.45690000  1.0 -0.1036209815
C  C177  1  0.86030000  0.96810000  0.01120000  1.0 -0.1036209815
C  C178  1  0.04310000  0.53190000  0.39220000  1.0 -0.1036209815
C  C179  1  0.63970000  0.65090000  0.10780000  1.0 -0.1036209815
C  C180  1  0.45690000  0.84910000  0.48880000  1.0 -0.1036209815
C  C181  1  0.45690000  0.10780000  0.96810000  1.0 -0.1036209815
C  C182  1  0.63970000  0.48880000  0.53190000  1.0 -0.1036209815
C  C183  1  0.04310000  0.01120000  0.65090000  1.0 -0.1036209815
C  C184  1  0.86030000  0.39220000  0.84910000  1.0 -0.1036209815
C  C185  1  0.39220000  0.84910000  0.86030000  1.0 -0.1036209815
C  C186  1  0.01120000  0.65090000  0.04310000  1.0 -0.1036209815
C  C187  1  0.48880000  0.53190000  0.63970000  1.0 -0.1036209815
C  C188  1  0.10780000  0.96810000  0.45690000  1.0 -0.1036209815
C  C189  1  0.65090000  0.04310000  0.01120000  1.0 -0.1036209815
C  C190  1  0.84910000  0.86030000  0.39220000  1.0 -0.1036209815
C  C191  1  0.96810000  0.45690000  0.10780000  1.0 -0.1036209815
C  C192  1  0.53190000  0.63970000  0.48880000  1.0 -0.1036209815
C  C193  1  0.02630000  0.14470000  0.01620000  1.0 -0.1863101501
C  C194  1  0.62850000  0.01010000  0.48380000  1.0 -0.1863101501
C  C195  1  0.87150000  0.35530000  0.38160000  1.0 -0.1863101501
C  C196  1  0.47370000  0.48990000  0.11840000  1.0 -0.1863101501
C  C197  1  0.01620000  0.02630000  0.14470000  1.0 -0.1863101501
C  C198  1  0.48380000  0.62850000  0.01010000  1.0 -0.1849840405
C  C199  1  0.38160000  0.87150000  0.35530000  1.0 -0.1863101501
C  C200  1  0.11840000  0.47370000  0.48990000  1.0 -0.1863101501
C  C201  1  0.14470000  0.01620000  0.02630000  1.0 -0.1863101501
C  C202  1  0.01010000  0.48380000  0.62850000  1.0 -0.1863101501
C  C203  1  0.35530000  0.38160000  0.87150000  1.0 -0.1863101501
C  C204  1  0.48990000  0.11840000  0.47370000  1.0 -0.1863101501
C  C205  1  0.48990000  0.87150000  0.01620000  1.0 -0.1849840405
C  C206  1  0.35530000  0.47370000  0.48380000  1.0 -0.1863101501
C  C207  1  0.01010000  0.02630000  0.38160000  1.0 -0.1863101501
C  C208  1  0.14470000  0.62850000  0.11840000  1.0 -0.1863101501
C  C209  1  0.62850000  0.11840000  0.14470000  1.0 -0.1863101501
C  C210  1  0.02630000  0.38160000  0.01010000  1.0 -0.1863101501
C  C211  1  0.47370000  0.48380000  0.35530000  1.0 -0.1863101501
C  C212  1  0.87150000  0.01620000  0.48990000  1.0 -0.1863101501
C  C213  1  0.38160000  0.01010000  0.02630000  1.0 -0.1863101501
C  C214  1  0.11840000  0.14470000  0.62850000  1.0 -0.1863101501
C  C215  1  0.01620000  0.48990000  0.87150000  1.0 -0.1863101501
C  C216  1  0.48380000  0.35530000  0.47370000  1.0 -0.1863101501
C  C217  1  0.97370000  0.85530000  0.98380000  1.0 -0.1863101501
C  C218  1  0.37150000  0.98990000  0.51620000  1.0 -0.1863101501
C  C219  1  0.12850000  0.64470000  0.61840000  1.0 -0.1863101501
C  C220  1  0.52630000  0.51010000  0.88160000  1.0 -0.1863101501
C  C221  1  0.98380000  0.97370000  0.85530000  1.0 -0.1863101501
C  C222  1  0.51620000  0.37150000  0.98990000  1.0 -0.1863101501
C  C223  1  0.61840000  0.12850000  0.64470000  1.0 -0.1863101501
C  C224  1  0.88160000  0.52630000  0.51010000  1.0 -0.1863101501
C  C225  1  0.85530000  0.98380000  0.97370000  1.0 -0.1849840405
C  C226  1  0.98990000  0.51620000  0.37150000  1.0 -0.1863101501
C  C227  1  0.64470000  0.61840000  0.12850000  1.0 -0.1863101501
C  C228  1  0.51010000  0.88160000  0.52630000  1.0 -0.1863101501
C  C229  1  0.51010000  0.12850000  0.98380000  1.0 -0.1863101501
C  C230  1  0.64470000  0.52630000  0.51620000  1.0 -0.1863101501
C  C231  1  0.98990000  0.97370000  0.61840000  1.0 -0.1849840405
C  C232  1  0.85530000  0.37150000  0.88160000  1.0 -0.1863101501
C  C233  1  0.37150000  0.88160000  0.85530000  1.0 -0.1863101501
C  C234  1  0.97370000  0.61840000  0.98990000  1.0 -0.1863101501
C  C235  1  0.52630000  0.51620000  0.64470000  1.0 -0.1863101501
C  C236  1  0.12850000  0.98380000  0.51010000  1.0 -0.1863101501
C  C237  1  0.61840000  0.98990000  0.97370000  1.0 -0.1863101501
C  C238  1  0.88160000  0.85530000  0.37150000  1.0 -0.1863101501
C  C239  1  0.98380000  0.51010000  0.12850000  1.0 -0.1849840405
C  C240  1  0.51620000  0.64470000  0.52630000  1.0 -0.1849840405
C  C241  1  0.02530000  0.16240000  0.97950000  1.0 -0.2270701031
C  C242  1  0.68290000  0.04580000  0.52050000  1.0 -0.2270701031
C  C243  1  0.81710000  0.33760000  0.36290000  1.0 -0.2270701031
C  C244  1  0.47470000  0.45420000  0.13710000  1.0 -0.2270701031
C  C245  1  0.97950000  0.02530000  0.16240000  1.0 -0.2270701031
C  C246  1  0.52050000  0.68290000  0.04580000  1.0 -0.2270701031
C  C247  1  0.36290000  0.81710000  0.33760000  1.0 -0.2270701031
C  C248  1  0.13710000  0.47470000  0.45420000  1.0 -0.2270701031
C  C249  1  0.16240000  0.97950000  0.02530000  1.0 -0.2270701031
C  C250  1  0.04580000  0.52050000  0.68290000  1.0 -0.2270701031
C  C251  1  0.33760000  0.36290000  0.81710000  1.0 -0.2270701031
C  C252  1  0.45420000  0.13710000  0.47470000  1.0 -0.2270701031
C  C253  1  0.45420000  0.81710000  0.97950000  1.0 -0.2270701031
C  C254  1  0.33760000  0.47470000  0.52050000  1.0 -0.2270701031
C  C255  1  0.04580000  0.02530000  0.36290000  1.0 -0.2270701031
C  C256  1  0.16240000  0.68290000  0.13710000  1.0 -0.2270701031
C  C257  1  0.68290000  0.13710000  0.16240000  1.0 -0.2270701031
C  C258  1  0.02530000  0.36290000  0.04580000  1.0 -0.2270701031
C  C259  1  0.47470000  0.52050000  0.33760000  1.0 -0.2270701031
C  C260  1  0.81710000  0.97950000  0.45420000  1.0 -0.2270701031
C  C261  1  0.36290000  0.04580000  0.02530000  1.0 -0.2270701031
C  C262  1  0.13710000  0.16240000  0.68290000  1.0 -0.2270701031
C  C263  1  0.97950000  0.45420000  0.81710000  1.0 -0.2270701031
C  C264  1  0.52050000  0.33760000  0.47470000  1.0 -0.2270701031
C  C265  1  0.97470000  0.83760000  0.02050000  1.0 -0.2270701031
C  C266  1  0.31710000  0.95420000  0.47950000  1.0 -0.2270701031
C  C267  1  0.18290000  0.66240000  0.63710000  1.0 -0.2270701031
C  C268  1  0.52530000  0.54580000  0.86290000  1.0 -0.2270701031
C  C269  1  0.02050000  0.97470000  0.83760000  1.0 -0.2270701031
C  C270  1  0.47950000  0.31710000  0.95420000  1.0 -0.2270701031
C  C271  1  0.63710000  0.18290000  0.66240000  1.0 -0.2270701031
C  C272  1  0.86290000  0.52530000  0.54580000  1.0 -0.2270701031
C  C273  1  0.83760000  0.02050000  0.97470000  1.0 -0.2270701031
C  C274  1  0.95420000  0.47950000  0.31710000  1.0 -0.2270701031
C  C275  1  0.66240000  0.63710000  0.18290000  1.0 -0.2270701031
C  C276  1  0.54580000  0.86290000  0.52530000  1.0 -0.2270701031
C  C277  1  0.54580000  0.18290000  0.02050000  1.0 -0.2270701031
C  C278  1  0.66240000  0.52530000  0.47950000  1.0 -0.2270701031
C  C279  1  0.95420000  0.97470000  0.63710000  1.0 -0.2270701031
C  C280  1  0.83760000  0.31710000  0.86290000  1.0 -0.2270701031
C  C281  1  0.31710000  0.86290000  0.83760000  1.0 -0.2270701031
C  C282  1  0.97470000  0.63710000  0.95420000  1.0 -0.2270701031
C  C283  1  0.52530000  0.47950000  0.66240000  1.0 -0.2270701031
C  C284  1  0.18290000  0.02050000  0.54580000  1.0 -0.2270701031
C  C285  1  0.63710000  0.95420000  0.97470000  1.0 -0.2270701031
C  C286  1  0.86290000  0.83760000  0.31710000  1.0 -0.2270701031
C  C287  1  0.02050000  0.54580000  0.18290000  1.0 -0.2270701031
C  C288  1  0.47950000  0.66240000  0.52530000  1.0 -0.2270701031
C  C289  1  0.98650000  0.17660000  0.96070000  1.0 0.0055724362
C  C290  1  0.71590000  0.02580000  0.53930000  1.0 0.0055724362
C  C291  1  0.78410000  0.32340000  0.30990000  1.0 0.0055724362
C  C292  1  0.51350000  0.47420000  0.19010000  1.0 0.0055724362
C  C293  1  0.96070000  0.98650000  0.17660000  1.0 0.0055724362
C  C294  1  0.53930000  0.71590000  0.02580000  1.0 0.0055724362
C  C295  1  0.30990000  0.78410000  0.32340000  1.0 0.0055724362
C  C296  1  0.19010000  0.51350000  0.47420000  1.0 0.0035273218
C  C297  1  0.17660000  0.96070000  0.98650000  1.0 0.0035273218
C  C298  1  0.02580000  0.53930000  0.71590000  1.0 0.0035273218
C  C299  1  0.32340000  0.30990000  0.78410000  1.0 0.0035273218
C  C300  1  0.47420000  0.19010000  0.51350000  1.0 0.0055724362
C  C301  1  0.47420000  0.78410000  0.96070000  1.0 0.0055724362
C  C302  1  0.32340000  0.51350000  0.53930000  1.0 0.0035273218
C  C303  1  0.02580000  0.98650000  0.30990000  1.0 0.0035273218
C  C304  1  0.17660000  0.71590000  0.19010000  1.0 0.0055724362
C  C305  1  0.71590000  0.19010000  0.17660000  1.0 0.0055724362
C  C306  1  0.98650000  0.30990000  0.02580000  1.0 0.0055724362
C  C307  1  0.51350000  0.53930000  0.32340000  1.0 0.0055724362
C  C308  1  0.78410000  0.96070000  0.47420000  1.0 0.0055724362
C  C309  1  0.30990000  0.02580000  0.98650000  1.0 0.0055724362
C  C310  1  0.19010000  0.17660000  0.71590000  1.0 0.0035273218
C  C311  1  0.96070000  0.47420000  0.78410000  1.0 0.0055724362
C  C312  1  0.53930000  0.32340000  0.51350000  1.0 0.0055724362
C  C313  1  0.01350000  0.82340000  0.03930000  1.0 0.0035273218
C  C314  1  0.28410000  0.97420000  0.46070000  1.0 0.0055724362
C  C315  1  0.21590000  0.67660000  0.69010000  1.0 0.0035273218
C  C316  1  0.48650000  0.52580000  0.80990000  1.0 0.0055724362
C  C317  1  0.03930000  0.01350000  0.82340000  1.0 0.0035273218
C  C318  1  0.46070000  0.28410000  0.97420000  1.0 0.0035273218
C  C319  1  0.69010000  0.21590000  0.67660000  1.0 0.0055724362
C  C320  1  0.80990000  0.48650000  0.52580000  1.0 0.0055724362
C  C321  1  0.82340000  0.03930000  0.01350000  1.0 0.0055724362
C  C322  1  0.97420000  0.46070000  0.28410000  1.0 0.0055724362
C  C323  1  0.67660000  0.69010000  0.21590000  1.0 0.0055724362
C  C324  1  0.52580000  0.80990000  0.48650000  1.0 0.0055724362
C  C325  1  0.52580000  0.21590000  0.03930000  1.0 0.0035273218
C  C326  1  0.67660000  0.48650000  0.46070000  1.0 0.0055724362
C  C327  1  0.97420000  0.01350000  0.69010000  1.0 0.0055724362
C  C328  1  0.82340000  0.28410000  0.80990000  1.0 0.0055724362
C  C329  1  0.28410000  0.80990000  0.82340000  1.0 0.0055724362
C  C330  1  0.01350000  0.69010000  0.97420000  1.0 0.0055724362
C  C331  1  0.48650000  0.46070000  0.67660000  1.0 0.0055724362
C  C332  1  0.21590000  0.03930000  0.52580000  1.0 0.0035273218
C  C333  1  0.69010000  0.97420000  0.01350000  1.0 0.0055724362
C  C334  1  0.80990000  0.82340000  0.28410000  1.0 0.0055724362
C  C335  1  0.03930000  0.52580000  0.21590000  1.0 0.0035273218
C  C336  1  0.46070000  0.67660000  0.48650000  1.0 0.0055724362
C  C337  1  0.78120000  0.18110000  0.85870000  1.0 -0.0634092666
C  C338  1  0.82240000  0.92250000  0.64130000  1.0 -0.0634092666
C  C339  1  0.67760000  0.31890000  0.10010000  1.0 -0.0634092666
C  C340  1  0.71880000  0.57750000  0.39990000  1.0 -0.0634092666
C  C341  1  0.85870000  0.78120000  0.18110000  1.0 -0.0634092666
C  C342  1  0.64130000  0.82240000  0.92250000  1.0 -0.0634092666
C  C343  1  0.10010000  0.67760000  0.31890000  1.0 -0.0634092666
C  C344  1  0.39990000  0.71880000  0.57750000  1.0 -0.0634092666
C  C345  1  0.18110000  0.85870000  0.78120000  1.0 -0.0634092666
C  C346  1  0.92250000  0.64130000  0.82240000  1.0 -0.0634092666
C  C347  1  0.31890000  0.10010000  0.67760000  1.0 -0.0634092666
C  C348  1  0.57750000  0.39990000  0.71880000  1.0 -0.0634092666
C  C349  1  0.57750000  0.67760000  0.85870000  1.0 -0.0634092666
C  C350  1  0.31890000  0.71880000  0.64130000  1.0 -0.0634092666
C  C351  1  0.92250000  0.78120000  0.10010000  1.0 -0.0634092666
C  C352  1  0.18110000  0.82240000  0.39990000  1.0 -0.0634092666
C  C353  1  0.82240000  0.39990000  0.18110000  1.0 -0.0634092666
C  C354  1  0.78120000  0.10010000  0.92250000  1.0 -0.0634092666
C  C355  1  0.71880000  0.64130000  0.31890000  1.0 -0.0634092666
C  C356  1  0.67760000  0.85870000  0.57750000  1.0 -0.0634092666
C  C357  1  0.10010000  0.92250000  0.78120000  1.0 -0.0634092666
C  C358  1  0.39990000  0.18110000  0.82240000  1.0 -0.0634092666
C  C359  1  0.85870000  0.57750000  0.67760000  1.0 -0.0634092666
C  C360  1  0.64130000  0.31890000  0.71880000  1.0 -0.0634092666
C  C361  1  0.21880000  0.81890000  0.14130000  1.0 -0.0634092666
C  C362  1  0.17760000  0.07750000  0.35870000  1.0 -0.0634092666
C  C363  1  0.32240000  0.68110000  0.89990000  1.0 -0.0634092666
C  C364  1  0.28120000  0.42250000  0.60010000  1.0 -0.0634092666
C  C365  1  0.14130000  0.21880000  0.81890000  1.0 -0.0634092666
C  C366  1  0.35870000  0.17760000  0.07750000  1.0 -0.0634092666
C  C367  1  0.89990000  0.32240000  0.68110000  1.0 -0.0634092666
C  C368  1  0.60010000  0.28120000  0.42250000  1.0 -0.0634092666
C  C369  1  0.81890000  0.14130000  0.21880000  1.0 -0.0634092666
C  C370  1  0.07750000  0.35870000  0.17760000  1.0 -0.0634092666
C  C371  1  0.68110000  0.89990000  0.32240000  1.0 -0.0634092666
C  C372  1  0.42250000  0.60010000  0.28120000  1.0 -0.0634092666
C  C373  1  0.42250000  0.32240000  0.14130000  1.0 -0.0634092666
C  C374  1  0.68110000  0.28120000  0.35870000  1.0 -0.0634092666
C  C375  1  0.07750000  0.21880000  0.89990000  1.0 -0.0634092666
C  C376  1  0.81890000  0.17760000  0.60010000  1.0 -0.0634092666
C  C377  1  0.17760000  0.60010000  0.81890000  1.0 -0.0634092666
C  C378  1  0.21880000  0.89990000  0.07750000  1.0 -0.0634092666
C  C379  1  0.28120000  0.35870000  0.68110000  1.0 -0.0634092666
C  C380  1  0.32240000  0.14130000  0.42250000  1.0 -0.0634092666
C  C381  1  0.89990000  0.07750000  0.21880000  1.0 -0.0634092666
C  C382  1  0.60010000  0.81890000  0.17760000  1.0 -0.0634092666
C  C383  1  0.14130000  0.42250000  0.32240000  1.0 -0.0634092666
C  C384  1  0.35870000  0.68110000  0.28120000  1.0 -0.0634092666
C  C385  1  0.73610000  0.18600000  0.84110000  1.0 0.0699155438
C  C386  1  0.84490000  0.89500000  0.65890000  1.0 0.0647194413
C  C387  1  0.65510000  0.31400000  0.05010000  1.0 0.0699155438
C  C388  1  0.76390000  0.60500000  0.44990000  1.0 0.0699155438
C  C389  1  0.84110000  0.73610000  0.18600000  1.0 0.0699155438
C  C390  1  0.65890000  0.84490000  0.89500000  1.0 0.0647194413
C  C391  1  0.05010000  0.65510000  0.31400000  1.0 0.0699155438
C  C392  1  0.44990000  0.76390000  0.60500000  1.0 0.0699155438
C  C393  1  0.18600000  0.84110000  0.73610000  1.0 0.0699155438
C  C394  1  0.89500000  0.65890000  0.84490000  1.0 0.0647194413
C  C395  1  0.31400000  0.05010000  0.65510000  1.0 0.0699155438
C  C396  1  0.60500000  0.44990000  0.76390000  1.0 0.0699155438
C  C397  1  0.60500000  0.65510000  0.84110000  1.0 0.0699155438
C  C398  1  0.31400000  0.76390000  0.65890000  1.0 0.0699155438
C  C399  1  0.89500000  0.73610000  0.05010000  1.0 0.0699155438
C  C400  1  0.18600000  0.84490000  0.44990000  1.0 0.0647194413
C  C401  1  0.84490000  0.44990000  0.18600000  1.0 0.0699155438
C  C402  1  0.73610000  0.05010000  0.89500000  1.0 0.0699155438
C  C403  1  0.76390000  0.65890000  0.31400000  1.0 0.0699155438
C  C404  1  0.65510000  0.84110000  0.60500000  1.0 0.0699155438
C  C405  1  0.05010000  0.89500000  0.73610000  1.0 0.0699155438
C  C406  1  0.44990000  0.18600000  0.84490000  1.0 0.0699155438
C  C407  1  0.84110000  0.60500000  0.65510000  1.0 0.0699155438
C  C408  1  0.65890000  0.31400000  0.76390000  1.0 0.0699155438
C  C409  1  0.26390000  0.81400000  0.15890000  1.0 0.0699155438
C  C410  1  0.15510000  0.10500000  0.34110000  1.0 0.0699155438
C  C411  1  0.34490000  0.68600000  0.94990000  1.0 0.0699155438
C  C412  1  0.23610000  0.39500000  0.55010000  1.0 0.0699155438
C  C413  1  0.15890000  0.26390000  0.81400000  1.0 0.0699155438
C  C414  1  0.34110000  0.15510000  0.10500000  1.0 0.0699155438
C  C415  1  0.94990000  0.34490000  0.68600000  1.0 0.0699155438
C  C416  1  0.55010000  0.23610000  0.39500000  1.0 0.0699155438
C  C417  1  0.81400000  0.15890000  0.26390000  1.0 0.0699155438
C  C418  1  0.10500000  0.34110000  0.15510000  1.0 0.0699155438
C  C419  1  0.68600000  0.94990000  0.34490000  1.0 0.0699155438
C  C420  1  0.39500000  0.55010000  0.23610000  1.0 0.0699155438
C  C421  1  0.39500000  0.34490000  0.15890000  1.0 0.0699155438
C  C422  1  0.68600000  0.23610000  0.34110000  1.0 0.0699155438
C  C423  1  0.10500000  0.26390000  0.94990000  1.0 0.0699155438
C  C424  1  0.81400000  0.15510000  0.55010000  1.0 0.0699155438
C  C425  1  0.15510000  0.55010000  0.81400000  1.0 0.0699155438
C  C426  1  0.26390000  0.94990000  0.10500000  1.0 0.0699155438
C  C427  1  0.23610000  0.34110000  0.68600000  1.0 0.0699155438
C  C428  1  0.34490000  0.15890000  0.39500000  1.0 0.0699155438
C  C429  1  0.94990000  0.10500000  0.26390000  1.0 0.0699155438
C  C430  1  0.55010000  0.81400000  0.15510000  1.0 0.0699155438
C  C431  1  0.15890000  0.39500000  0.34490000  1.0 0.0699155438
C  C432  1  0.34110000  0.68600000  0.23610000  1.0 0.0699155438
C  C433  1  0.73080000  0.22270000  0.87650000  1.0 -0.1863101501
C  C434  1  0.84620000  0.85430000  0.62350000  1.0 -0.1863101501
C  C435  1  0.65380000  0.27730000  0.00810000  1.0 -0.1863101501
C  C436  1  0.76920000  0.64570000  0.49190000  1.0 -0.1863101501
C  C437  1  0.87650000  0.73080000  0.22270000  1.0 -0.1863101501
C  C438  1  0.62350000  0.84620000  0.85430000  1.0 -0.1863101501
C  C439  1  0.00810000  0.65380000  0.27730000  1.0 -0.1863101501
C  C440  1  0.49190000  0.76920000  0.64570000  1.0 -0.1863101501
C  C441  1  0.22270000  0.87650000  0.73080000  1.0 -0.1863101501
C  C442  1  0.85430000  0.62350000  0.84620000  1.0 -0.1863101501
C  C443  1  0.27730000  0.00810000  0.65380000  1.0 -0.1863101501
C  C444  1  0.64570000  0.49190000  0.76920000  1.0 -0.1863101501
C  C445  1  0.64570000  0.65380000  0.87650000  1.0 -0.1863101501
C  C446  1  0.27730000  0.76920000  0.62350000  1.0 -0.1863101501
C  C447  1  0.85430000  0.73080000  0.00810000  1.0 -0.1863101501
C  C448  1  0.22270000  0.84620000  0.49190000  1.0 -0.1863101501
C  C449  1  0.84620000  0.49190000  0.22270000  1.0 -0.1863101501
C  C450  1  0.73080000  0.00810000  0.85430000  1.0 -0.1863101501
C  C451  1  0.76920000  0.62350000  0.27730000  1.0 -0.1863101501
C  C452  1  0.65380000  0.87650000  0.64570000  1.0 -0.1863101501
C  C453  1  0.00810000  0.85430000  0.73080000  1.0 -0.1863101501
C  C454  1  0.49190000  0.22270000  0.84620000  1.0 -0.1863101501
C  C455  1  0.87650000  0.64570000  0.65380000  1.0 -0.1863101501
C  C456  1  0.62350000  0.27730000  0.76920000  1.0 -0.1863101501
C  C457  1  0.26920000  0.77730000  0.12350000  1.0 -0.1863101501
C  C458  1  0.15380000  0.14570000  0.37650000  1.0 -0.1863101501
C  C459  1  0.34620000  0.72270000  0.99190000  1.0 -0.1863101501
C  C460  1  0.23080000  0.35430000  0.50810000  1.0 -0.1863101501
C  C461  1  0.12350000  0.26920000  0.77730000  1.0 -0.1863101501
C  C462  1  0.37650000  0.15380000  0.14570000  1.0 -0.1863101501
C  C463  1  0.99190000  0.34620000  0.72270000  1.0 -0.1863101501
C  C464  1  0.50810000  0.23080000  0.35430000  1.0 -0.1863101501
C  C465  1  0.77730000  0.12350000  0.26920000  1.0 -0.1863101501
C  C466  1  0.14570000  0.37650000  0.15380000  1.0 -0.1863101501
C  C467  1  0.72270000  0.99190000  0.34620000  1.0 -0.1863101501
C  C468  1  0.35430000  0.50810000  0.23080000  1.0 -0.1863101501
C  C469  1  0.35430000  0.34620000  0.12350000  1.0 -0.1863101501
C  C470  1  0.72270000  0.23080000  0.37650000  1.0 -0.1863101501
C  C471  1  0.14570000  0.26920000  0.99190000  1.0 -0.1863101501
C  C472  1  0.77730000  0.15380000  0.50810000  1.0 -0.1863101501
C  C473  1  0.15380000  0.50810000  0.77730000  1.0 -0.1863101501
C  C474  1  0.26920000  0.99190000  0.14570000  1.0 -0.1863101501
C  C475  1  0.23080000  0.37650000  0.72270000  1.0 -0.1863101501
C  C476  1  0.34620000  0.12350000  0.35430000  1.0 -0.1863101501
C  C477  1  0.99190000  0.14570000  0.26920000  1.0 -0.1863101501
C  C478  1  0.50810000  0.77730000  0.15380000  1.0 -0.1863101501
C  C479  1  0.12350000  0.35430000  0.34620000  1.0 -0.1863101501
C  C480  1  0.37650000  0.72270000  0.23080000  1.0 -0.1863101501
C  C481  1  0.76790000  0.25270000  0.92720000  1.0 -0.1404601525
C  C482  1  0.82550000  0.84070000  0.57280000  1.0 -0.1404601525
C  C483  1  0.67450000  0.24730000  0.01520000  1.0 -0.1404601525
C  C484  1  0.73210000  0.65930000  0.48480000  1.0 -0.1404601525
C  C485  1  0.92720000  0.76790000  0.25270000  1.0 -0.1404601525
C  C486  1  0.57280000  0.82550000  0.84070000  1.0 -0.1404601525
C  C487  1  0.01520000  0.67450000  0.24730000  1.0 -0.1404601525
C  C488  1  0.48480000  0.73210000  0.65930000  1.0 -0.1404601525
C  C489  1  0.25270000  0.92720000  0.76790000  1.0 -0.1404601525
C  C490  1  0.84070000  0.57280000  0.82550000  1.0 -0.1404601525
C  C491  1  0.24730000  0.01520000  0.67450000  1.0 -0.1404601525
C  C492  1  0.65930000  0.48480000  0.73210000  1.0 -0.1404601525
C  C493  1  0.65930000  0.67450000  0.92720000  1.0 -0.1404601525
C  C494  1  0.24730000  0.73210000  0.57280000  1.0 -0.1404601525
C  C495  1  0.84070000  0.76790000  0.01520000  1.0 -0.1404601525
C  C496  1  0.25270000  0.82550000  0.48480000  1.0 -0.1404601525
C  C497  1  0.82550000  0.48480000  0.25270000  1.0 -0.1404601525
C  C498  1  0.76790000  0.01520000  0.84070000  1.0 -0.1404601525
C  C499  1  0.73210000  0.57280000  0.24730000  1.0 -0.1404601525
C  C500  1  0.67450000  0.92720000  0.65930000  1.0 -0.1404601525
C  C501  1  0.01520000  0.84070000  0.76790000  1.0 -0.1404601525
C  C502  1  0.48480000  0.25270000  0.82550000  1.0 -0.1404601525
C  C503  1  0.92720000  0.65930000  0.67450000  1.0 -0.1404601525
C  C504  1  0.57280000  0.24730000  0.73210000  1.0 -0.1404601525
C  C505  1  0.23210000  0.74730000  0.07280000  1.0 -0.1404601525
C  C506  1  0.17450000  0.15930000  0.42720000  1.0 -0.1404601525
C  C507  1  0.32550000  0.75270000  0.98480000  1.0 -0.1404601525
C  C508  1  0.26790000  0.34070000  0.51520000  1.0 -0.1404601525
C  C509  1  0.07280000  0.23210000  0.74730000  1.0 -0.1404601525
C  C510  1  0.42720000  0.17450000  0.15930000  1.0 -0.1404601525
C  C511  1  0.98480000  0.32550000  0.75270000  1.0 -0.1404601525
C  C512  1  0.51520000  0.26790000  0.34070000  1.0 -0.1404601525
C  C513  1  0.74730000  0.07280000  0.23210000  1.0 -0.1404601525
C  C514  1  0.15930000  0.42720000  0.17450000  1.0 -0.1404601525
C  C515  1  0.75270000  0.98480000  0.32550000  1.0 -0.1404601525
C  C516  1  0.34070000  0.51520000  0.26790000  1.0 -0.1404601525
C  C517  1  0.34070000  0.32550000  0.07280000  1.0 -0.1404601525
C  C518  1  0.75270000  0.26790000  0.42720000  1.0 -0.1404601525
C  C519  1  0.15930000  0.23210000  0.98480000  1.0 -0.1404601525
C  C520  1  0.74730000  0.17450000  0.51520000  1.0 -0.1404601525
C  C521  1  0.17450000  0.51520000  0.74730000  1.0 -0.1404601525
C  C522  1  0.23210000  0.98480000  0.15930000  1.0 -0.1404601525
C  C523  1  0.26790000  0.42720000  0.75270000  1.0 -0.1404601525
C  C524  1  0.32550000  0.07280000  0.34070000  1.0 -0.1404601525
C  C525  1  0.98480000  0.15930000  0.23210000  1.0 -0.1404601525
C  C526  1  0.51520000  0.74730000  0.17450000  1.0 -0.1404601525
C  C527  1  0.07280000  0.34070000  0.32550000  1.0 -0.1404601525
C  C528  1  0.42720000  0.75270000  0.26790000  1.0 -0.1404601525
C  C529  1  0.81370000  0.24710000  0.94480000  1.0 0.0699155438
C  C530  1  0.80230000  0.86890000  0.55520000  1.0 0.0699155438
C  C531  1  0.69770000  0.25290000  0.06660000  1.0 0.0699155438
C  C532  1  0.68630000  0.63110000  0.43340000  1.0 0.0699155438
C  C533  1  0.94480000  0.81370000  0.24710000  1.0 0.0699155438
C  C534  1  0.55520000  0.80230000  0.86890000  1.0 0.0699155438
C  C535  1  0.06660000  0.69770000  0.25290000  1.0 0.0699155438
C  C536  1  0.43340000  0.68630000  0.63110000  1.0 0.0699155438
C  C537  1  0.24710000  0.94480000  0.81370000  1.0 0.0699155438
C  C538  1  0.86890000  0.55520000  0.80230000  1.0 0.0699155438
C  C539  1  0.25290000  0.06660000  0.69770000  1.0 0.0699155438
C  C540  1  0.63110000  0.43340000  0.68630000  1.0 0.0699155438
C  C541  1  0.63110000  0.69770000  0.94480000  1.0 0.0699155438
C  C542  1  0.25290000  0.68630000  0.55520000  1.0 0.0699155438
C  C543  1  0.86890000  0.81370000  0.06660000  1.0 0.0699155438
C  C544  1  0.24710000  0.80230000  0.43340000  1.0 0.0699155438
C  C545  1  0.80230000  0.43340000  0.24710000  1.0 0.0699155438
C  C546  1  0.81370000  0.06660000  0.86890000  1.0 0.0699155438
C  C547  1  0.68630000  0.55520000  0.25290000  1.0 0.0699155438
C  C548  1  0.69770000  0.94480000  0.63110000  1.0 0.0699155438
C  C549  1  0.06660000  0.86890000  0.81370000  1.0 0.0699155438
C  C550  1  0.43340000  0.24710000  0.80230000  1.0 0.0699155438
C  C551  1  0.94480000  0.63110000  0.69770000  1.0 0.0699155438
C  C552  1  0.55520000  0.25290000  0.68630000  1.0 0.0699155438
C  C553  1  0.18630000  0.75290000  0.05520000  1.0 0.0699155438
C  C554  1  0.19770000  0.13110000  0.44480000  1.0 0.0699155438
C  C555  1  0.30230000  0.74710000  0.93340000  1.0 0.0699155438
C  C556  1  0.31370000  0.36890000  0.56660000  1.0 0.0699155438
C  C557  1  0.05520000  0.18630000  0.75290000  1.0 0.0699155438
C  C558  1  0.44480000  0.19770000  0.13110000  1.0 0.0699155438
C  C559  1  0.93340000  0.30230000  0.74710000  1.0 0.0699155438
C  C560  1  0.56660000  0.31370000  0.36890000  1.0 0.0699155438
C  C561  1  0.75290000  0.05520000  0.18630000  1.0 0.0699155438
C  C562  1  0.13110000  0.44480000  0.19770000  1.0 0.0699155438
C  C563  1  0.74710000  0.93340000  0.30230000  1.0 0.0699155438
C  C564  1  0.36890000  0.56660000  0.31370000  1.0 0.0699155438
C  C565  1  0.36890000  0.30230000  0.05520000  1.0 0.0699155438
C  C566  1  0.74710000  0.31370000  0.44480000  1.0 0.0699155438
C  C567  1  0.13110000  0.18630000  0.93340000  1.0 0.0699155438
C  C568  1  0.75290000  0.19770000  0.56660000  1.0 0.0699155438
C  C569  1  0.19770000  0.56660000  0.75290000  1.0 0.0699155438
C  C570  1  0.18630000  0.93340000  0.13110000  1.0 0.0699155438
C  C571  1  0.31370000  0.44480000  0.74710000  1.0 0.0699155438
C  C572  1  0.30230000  0.05520000  0.36890000  1.0 0.0699155438
C  C573  1  0.93340000  0.13110000  0.18630000  1.0 0.0699155438
C  C574  1  0.56660000  0.75290000  0.19770000  1.0 0.0699155438
C  C575  1  0.05520000  0.36890000  0.30230000  1.0 0.0699155438
C  C576  1  0.44480000  0.74710000  0.31370000  1.0 0.0699155438
C  C577  1  0.98810000  0.12120000  0.07350000  1.0 -0.0078367919
C  C578  1  0.54770000  0.91460000  0.42650000  1.0 -0.0078367919
C  C579  1  0.95230000  0.37880000  0.36690000  1.0 -0.0078367919
C  C580  1  0.51190000  0.58540000  0.13310000  1.0 -0.0078367919
C  C581  1  0.07350000  0.98810000  0.12120000  1.0 -0.0078367919
C  C582  1  0.42650000  0.54770000  0.91460000  1.0 -0.0078367919
C  C583  1  0.36690000  0.95230000  0.37880000  1.0 -0.0078367919
C  C584  1  0.13310000  0.51190000  0.58540000  1.0 -0.0078367919
C  C585  1  0.12120000  0.07350000  0.98810000  1.0 -0.0078367919
C  C586  1  0.91460000  0.42650000  0.54770000  1.0 -0.0078367919
C  C587  1  0.37880000  0.36690000  0.95230000  1.0 -0.0078367919
C  C588  1  0.58540000  0.13310000  0.51190000  1.0 -0.0078367919
C  C589  1  0.58540000  0.95230000  0.07350000  1.0 -0.0078367919
C  C590  1  0.37880000  0.51190000  0.42650000  1.0 -0.0078367919
C  C591  1  0.91460000  0.98810000  0.36690000  1.0 -0.0078367919
C  C592  1  0.12120000  0.54770000  0.13310000  1.0 -0.0078367919
C  C593  1  0.54770000  0.13310000  0.12120000  1.0 -0.0078367919
C  C594  1  0.98810000  0.36690000  0.91460000  1.0 -0.0078367919
C  C595  1  0.51190000  0.42650000  0.37880000  1.0 -0.0078367919
C  C596  1  0.95230000  0.07350000  0.58540000  1.0 -0.0078367919
C  C597  1  0.36690000  0.91460000  0.98810000  1.0 -0.0078367919
C  C598  1  0.13310000  0.12120000  0.54770000  1.0 -0.0078367919
C  C599  1  0.07350000  0.58540000  0.95230000  1.0 -0.0078367919
C  C600  1  0.42650000  0.37880000  0.51190000  1.0 -0.0078367919
C  C601  1  0.01190000  0.87880000  0.92650000  1.0 -0.0078367919
C  C602  1  0.45230000  0.08540000  0.57350000  1.0 -0.0078367919
C  C603  1  0.04770000  0.62120000  0.63310000  1.0 -0.0078367919
C  C604  1  0.48810000  0.41460000  0.86690000  1.0 -0.0078367919
C  C605  1  0.92650000  0.01190000  0.87880000  1.0 -0.0078367919
C  C606  1  0.57350000  0.45230000  0.08540000  1.0 -0.0078367919
C  C607  1  0.63310000  0.04770000  0.62120000  1.0 -0.0078367919
C  C608  1  0.86690000  0.48810000  0.41460000  1.0 -0.0078367919
C  C609  1  0.87880000  0.92650000  0.01190000  1.0 -0.0078367919
C  C610  1  0.08540000  0.57350000  0.45230000  1.0 -0.0078367919
C  C611  1  0.62120000  0.63310000  0.04770000  1.0 -0.0078367919
C  C612  1  0.41460000  0.86690000  0.48810000  1.0 -0.0078367919
C  C613  1  0.41460000  0.04770000  0.92650000  1.0 -0.0078367919
C  C614  1  0.62120000  0.48810000  0.57350000  1.0 -0.0078367919
C  C615  1  0.08540000  0.01190000  0.63310000  1.0 -0.0078367919
C  C616  1  0.87880000  0.45230000  0.86690000  1.0 -0.0078367919
C  C617  1  0.45230000  0.86690000  0.87880000  1.0 -0.0078367919
C  C618  1  0.01190000  0.63310000  0.08540000  1.0 -0.0078367919
C  C619  1  0.48810000  0.57350000  0.62120000  1.0 -0.0078367919
C  C620  1  0.04770000  0.92650000  0.41460000  1.0 -0.0078367919
C  C621  1  0.63310000  0.08540000  0.01190000  1.0 -0.0078367919
C  C622  1  0.86690000  0.87880000  0.45230000  1.0 -0.0078367919
C  C623  1  0.92650000  0.41460000  0.04770000  1.0 -0.0078367919
C  C624  1  0.57350000  0.62120000  0.48810000  1.0 -0.0078367919
C  C625  1  0.67990000  0.15190000  0.78960000  1.0 -0.0634092666
C  C626  1  0.86230000  0.89030000  0.71040000  1.0 -0.0634092666
C  C627  1  0.63770000  0.34810000  0.02800000  1.0 -0.0634092666
C  C628  1  0.82010000  0.60970000  0.47200000  1.0 -0.0634092666
C  C629  1  0.78960000  0.67990000  0.15190000  1.0 -0.0634092666
C  C630  1  0.71040000  0.86230000  0.89030000  1.0 -0.0634092666
C  C631  1  0.02800000  0.63770000  0.34810000  1.0 -0.0634092666
C  C632  1  0.47200000  0.82010000  0.60970000  1.0 -0.0634092666
C  C633  1  0.15190000  0.78960000  0.67990000  1.0 -0.0634092666
C  C634  1  0.89030000  0.71040000  0.86230000  1.0 -0.0634092666
C  C635  1  0.34810000  0.02800000  0.63770000  1.0 -0.0634092666
C  C636  1  0.60970000  0.47200000  0.82010000  1.0 -0.0634092666
C  C637  1  0.60970000  0.63770000  0.78960000  1.0 -0.0634092666
C  C638  1  0.34810000  0.82010000  0.71040000  1.0 -0.0634092666
C  C639  1  0.89030000  0.67990000  0.02800000  1.0 -0.0634092666
C  C640  1  0.15190000  0.86230000  0.47200000  1.0 -0.0634092666
C  C641  1  0.86230000  0.47200000  0.15190000  1.0 -0.0634092666
C  C642  1  0.67990000  0.02800000  0.89030000  1.0 -0.0634092666
C  C643  1  0.82010000  0.71040000  0.34810000  1.0 -0.0634092666
C  C644  1  0.63770000  0.78960000  0.60970000  1.0 -0.0634092666
C  C645  1  0.02800000  0.89030000  0.67990000  1.0 -0.0634092666
C  C646  1  0.47200000  0.15190000  0.86230000  1.0 -0.0634092666
C  C647  1  0.78960000  0.60970000  0.63770000  1.0 -0.0634092666
C  C648  1  0.71040000  0.34810000  0.82010000  1.0 -0.0634092666
C  C649  1  0.32010000  0.84810000  0.21040000  1.0 -0.0634092666
C  C650  1  0.13770000  0.10970000  0.28960000  1.0 -0.0634092666
C  C651  1  0.36230000  0.65190000  0.97200000  1.0 -0.0634092666
C  C652  1  0.17990000  0.39030000  0.52800000  1.0 -0.0634092666
C  C653  1  0.21040000  0.32010000  0.84810000  1.0 -0.0634092666
C  C654  1  0.28960000  0.13770000  0.10970000  1.0 -0.0634092666
C  C655  1  0.97200000  0.36230000  0.65190000  1.0 -0.0634092666
C  C656  1  0.52800000  0.17990000  0.39030000  1.0 -0.0634092666
C  C657  1  0.84810000  0.21040000  0.32010000  1.0 -0.0634092666
C  C658  1  0.10970000  0.28960000  0.13770000  1.0 -0.0634092666
C  C659  1  0.65190000  0.97200000  0.36230000  1.0 -0.0634092666
C  C660  1  0.39030000  0.52800000  0.17990000  1.0 -0.0634092666
C  C661  1  0.39030000  0.36230000  0.21040000  1.0 -0.0634092666
C  C662  1  0.65190000  0.17990000  0.28960000  1.0 -0.0634092666
C  C663  1  0.10970000  0.32010000  0.97200000  1.0 -0.0634092666
C  C664  1  0.84810000  0.13770000  0.52800000  1.0 -0.0634092666
C  C665  1  0.13770000  0.52800000  0.84810000  1.0 -0.0634092666
C  C666  1  0.32010000  0.97200000  0.10970000  1.0 -0.0634092666
C  C667  1  0.17990000  0.28960000  0.65190000  1.0 -0.0634092666
C  C668  1  0.36230000  0.21040000  0.39030000  1.0 -0.0634092666
C  C669  1  0.97200000  0.10970000  0.32010000  1.0 -0.0634092666
C  C670  1  0.52800000  0.84810000  0.13770000  1.0 -0.0634092666
C  C671  1  0.21040000  0.39030000  0.36230000  1.0 -0.0634092666
C  C672  1  0.28960000  0.65190000  0.17990000  1.0 -0.0634092666
C  C673  1  0.70290000  0.15900000  0.78070000  1.0 -0.0687249792
C  C674  1  0.87830000  0.92220000  0.71930000  1.0 -0.0687249792
C  C675  1  0.62170000  0.34100000  0.04390000  1.0 -0.0687249792
C  C676  1  0.79710000  0.57780000  0.45610000  1.0 -0.0687249792
C  C677  1  0.78070000  0.70290000  0.15900000  1.0 -0.0687249792
C  C678  1  0.71930000  0.87830000  0.92220000  1.0 -0.0687249792
C  C679  1  0.04390000  0.62170000  0.34100000  1.0 -0.0687249792
C  C680  1  0.45610000  0.79710000  0.57780000  1.0 -0.0687249792
C  C681  1  0.15900000  0.78070000  0.70290000  1.0 -0.0687249792
C  C682  1  0.92220000  0.71930000  0.87830000  1.0 -0.0687249792
C  C683  1  0.34100000  0.04390000  0.62170000  1.0 -0.0687249792
C  C684  1  0.57780000  0.45610000  0.79710000  1.0 -0.0687249792
C  C685  1  0.57780000  0.62170000  0.78070000  1.0 -0.0687249792
C  C686  1  0.34100000  0.79710000  0.71930000  1.0 -0.0687249792
C  C687  1  0.92220000  0.70290000  0.04390000  1.0 -0.0687249792
C  C688  1  0.15900000  0.87830000  0.45610000  1.0 -0.0687249792
C  C689  1  0.87830000  0.45610000  0.15900000  1.0 -0.0687249792
C  C690  1  0.70290000  0.04390000  0.92220000  1.0 -0.0687249792
C  C691  1  0.79710000  0.71930000  0.34100000  1.0 -0.0687249792
C  C692  1  0.62170000  0.78070000  0.57780000  1.0 -0.0687249792
C  C693  1  0.04390000  0.92220000  0.70290000  1.0 -0.0687249792
C  C694  1  0.45610000  0.15900000  0.87830000  1.0 -0.0687249792
C  C695  1  0.78070000  0.57780000  0.62170000  1.0 -0.0687249792
C  C696  1  0.71930000  0.34100000  0.79710000  1.0 -0.0687249792
C  C697  1  0.29710000  0.84100000  0.21930000  1.0 -0.0687249792
C  C698  1  0.12170000  0.07780000  0.28070000  1.0 -0.0687249792
C  C699  1  0.37830000  0.65900000  0.95610000  1.0 -0.0687249792
C  C700  1  0.20290000  0.42220000  0.54390000  1.0 -0.0687249792
C  C701  1  0.21930000  0.29710000  0.84100000  1.0 -0.0687249792
C  C702  1  0.28070000  0.12170000  0.07780000  1.0 -0.0687249792
C  C703  1  0.95610000  0.37830000  0.65900000  1.0 -0.0687249792
C  C704  1  0.54390000  0.20290000  0.42220000  1.0 -0.0687249792
C  C705  1  0.84100000  0.21930000  0.29710000  1.0 -0.0687249792
C  C706  1  0.07780000  0.28070000  0.12170000  1.0 -0.0687249792
C  C707  1  0.65900000  0.95610000  0.37830000  1.0 -0.0687249792
C  C708  1  0.42220000  0.54390000  0.20290000  1.0 -0.0687249792
C  C709  1  0.42220000  0.37830000  0.21930000  1.0 -0.0687249792
C  C710  1  0.65900000  0.20290000  0.28070000  1.0 -0.0687249792
C  C711  1  0.07780000  0.29710000  0.95610000  1.0 -0.0687249792
C  C712  1  0.84100000  0.12170000  0.54390000  1.0 -0.0687249792
C  C713  1  0.12170000  0.54390000  0.84100000  1.0 -0.0687249792
C  C714  1  0.29710000  0.95610000  0.07780000  1.0 -0.0687249792
C  C715  1  0.20290000  0.28070000  0.65900000  1.0 -0.0687249792
C  C716  1  0.37830000  0.21930000  0.42220000  1.0 -0.0687249792
C  C717  1  0.95610000  0.07780000  0.29710000  1.0 -0.0687249792
C  C718  1  0.54390000  0.84100000  0.12170000  1.0 -0.0687249792
C  C719  1  0.21930000  0.42220000  0.37830000  1.0 -0.0687249792
C  C720  1  0.28070000  0.65900000  0.20290000  1.0 -0.0687249792
N  N1  1  0.74970000  0.07880000  0.73030000  1.0 -0.4145680574
N  N2  1  0.84850000  0.01940000  0.76970000  1.0 -0.4145680574
N  N3  1  0.65150000  0.42120000  0.17090000  1.0 -0.4155191454
N  N4  1  0.75030000  0.48060000  0.32910000  1.0 -0.4145680574
N  N5  1  0.73030000  0.74970000  0.07880000  1.0 -0.4155191454
N  N6  1  0.76970000  0.84850000  0.01940000  1.0 -0.4145680574
N  N7  1  0.17090000  0.65150000  0.42120000  1.0 -0.4145680574
N  N8  1  0.32910000  0.75030000  0.48060000  1.0 -0.4145680574
N  N9  1  0.07880000  0.73030000  0.74970000  1.0 -0.4145680574
N  N10  1  0.01940000  0.76970000  0.84850000  1.0 -0.4145680574
N  N11  1  0.42120000  0.17090000  0.65150000  1.0 -0.4145680574
N  N12  1  0.48060000  0.32910000  0.75030000  1.0 -0.4145680574
N  N13  1  0.48060000  0.65150000  0.73030000  1.0 -0.4145680574
N  N14  1  0.42120000  0.75030000  0.76970000  1.0 -0.4145680574
N  N15  1  0.01940000  0.74970000  0.17090000  1.0 -0.4145680574
N  N16  1  0.07880000  0.84850000  0.32910000  1.0 -0.4145680574
N  N17  1  0.84850000  0.32910000  0.07880000  1.0 -0.4155191454
N  N18  1  0.74970000  0.17090000  0.01940000  1.0 -0.4145680574
N  N19  1  0.75030000  0.76970000  0.42120000  1.0 -0.4145680574
N  N20  1  0.65150000  0.73030000  0.48060000  1.0 -0.4155191454
N  N21  1  0.17090000  0.01940000  0.74970000  1.0 -0.4145680574
N  N22  1  0.32910000  0.07880000  0.84850000  1.0 -0.4145680574
N  N23  1  0.73030000  0.48060000  0.65150000  1.0 -0.4145680574
N  N24  1  0.76970000  0.42120000  0.75030000  1.0 -0.4145680574
N  N25  1  0.25030000  0.92120000  0.26970000  1.0 -0.4145680574
N  N26  1  0.15150000  0.98060000  0.23030000  1.0 -0.4145680574
N  N27  1  0.34850000  0.57880000  0.82910000  1.0 -0.4145680574
N  N28  1  0.24970000  0.51940000  0.67090000  1.0 -0.4145680574
N  N29  1  0.26970000  0.25030000  0.92120000  1.0 -0.4145680574
N  N30  1  0.23030000  0.15150000  0.98060000  1.0 -0.4145680574
N  N31  1  0.82910000  0.34850000  0.57880000  1.0 -0.4145680574
N  N32  1  0.67090000  0.24970000  0.51940000  1.0 -0.4145680574
N  N33  1  0.92120000  0.26970000  0.25030000  1.0 -0.4145680574
N  N34  1  0.98060000  0.23030000  0.15150000  1.0 -0.4145680574
N  N35  1  0.57880000  0.82910000  0.34850000  1.0 -0.4145680574
N  N36  1  0.51940000  0.67090000  0.24970000  1.0 -0.4145680574
N  N37  1  0.51940000  0.34850000  0.26970000  1.0 -0.4145680574
N  N38  1  0.57880000  0.24970000  0.23030000  1.0 -0.4145680574
N  N39  1  0.98060000  0.25030000  0.82910000  1.0 -0.4145680574
N  N40  1  0.92120000  0.15150000  0.67090000  1.0 -0.4145680574
N  N41  1  0.15150000  0.67090000  0.92120000  1.0 -0.4145680574
N  N42  1  0.25030000  0.82910000  0.98060000  1.0 -0.4145680574
N  N43  1  0.24970000  0.23030000  0.57880000  1.0 -0.4145680574
N  N44  1  0.34850000  0.26970000  0.51940000  1.0 -0.4145680574
N  N45  1  0.82910000  0.98060000  0.25030000  1.0 -0.4155191454
N  N46  1  0.67090000  0.92120000  0.15150000  1.0 -0.4155191454
N  N47  1  0.26970000  0.51940000  0.34850000  1.0 -0.4145680574
N  N48  1  0.23030000  0.57880000  0.24970000  1.0 -0.4145680574
N  N49  1  0.88801000  0.17042000  0.87079000  1.0 -0.3532954166
N  N50  1  0.79963000  0.01722000  0.62921000  1.0 -0.3532954166
N  N51  1  0.70037000  0.32958000  0.21759000  1.0 -0.3532954166
N  N52  1  0.61199000  0.48278000  0.28241000  1.0 -0.3532954166
N  N53  1  0.87079000  0.88801000  0.17042000  1.0 -0.3532954166
N  N54  1  0.62921000  0.79963000  0.01722000  1.0 -0.3532954166
N  N55  1  0.21759000  0.70037000  0.32958000  1.0 -0.3532954166
N  N56  1  0.28241000  0.61199000  0.48278000  1.0 -0.3532954166
N  N57  1  0.17042000  0.87079000  0.88801000  1.0 -0.3532954166
N  N58  1  0.01722000  0.62921000  0.79963000  1.0 -0.3532954166
N  N59  1  0.32958000  0.21759000  0.70037000  1.0 -0.3532954166
N  N60  1  0.48278000  0.28241000  0.61199000  1.0 -0.3532954166
N  N61  1  0.48278000  0.70037000  0.87079000  1.0 -0.3532954166
N  N62  1  0.32958000  0.61199000  0.62921000  1.0 -0.3532954166
N  N63  1  0.01722000  0.88801000  0.21759000  1.0 -0.3532954166
N  N64  1  0.17042000  0.79963000  0.28241000  1.0 -0.3532954166
N  N65  1  0.79963000  0.28241000  0.17042000  1.0 -0.3532954166
N  N66  1  0.88801000  0.21759000  0.01722000  1.0 -0.3532954166
N  N67  1  0.61199000  0.62921000  0.32958000  1.0 -0.3532954166
N  N68  1  0.70037000  0.87079000  0.48278000  1.0 -0.3532954166
N  N69  1  0.21759000  0.01722000  0.88801000  1.0 -0.3532954166
N  N70  1  0.28241000  0.17042000  0.79963000  1.0 -0.3532954166
N  N71  1  0.87079000  0.48278000  0.70037000  1.0 -0.3532954166
N  N72  1  0.62921000  0.32958000  0.61199000  1.0 -0.3532954166
N  N73  1  0.11199000  0.82958000  0.12921000  1.0 -0.3532954166
N  N74  1  0.20037000  0.98278000  0.37079000  1.0 -0.3532954166
N  N75  1  0.29963000  0.67042000  0.78241000  1.0 -0.3532954166
N  N76  1  0.38801000  0.51722000  0.71759000  1.0 -0.3532954166
N  N77  1  0.12921000  0.11199000  0.82958000  1.0 -0.3532954166
N  N78  1  0.37079000  0.20037000  0.98278000  1.0 -0.3532954166
N  N79  1  0.78241000  0.29963000  0.67042000  1.0 -0.3532954166
N  N80  1  0.71759000  0.38801000  0.51722000  1.0 -0.3532954166
N  N81  1  0.82958000  0.12921000  0.11199000  1.0 -0.3532954166
N  N82  1  0.98278000  0.37079000  0.20037000  1.0 -0.3532954166
N  N83  1  0.67042000  0.78241000  0.29963000  1.0 -0.3532954166
N  N84  1  0.51722000  0.71759000  0.38801000  1.0 -0.3532954166
N  N85  1  0.51722000  0.29963000  0.12921000  1.0 -0.3532954166
N  N86  1  0.67042000  0.38801000  0.37079000  1.0 -0.3532954166
N  N87  1  0.98278000  0.11199000  0.78241000  1.0 -0.3532954166
N  N88  1  0.82958000  0.20037000  0.71759000  1.0 -0.3532954166
N  N89  1  0.20037000  0.71759000  0.82958000  1.0 -0.3532954166
N  N90  1  0.11199000  0.78241000  0.98278000  1.0 -0.3532954166
N  N91  1  0.38801000  0.37079000  0.67042000  1.0 -0.3532954166
N  N92  1  0.29963000  0.12921000  0.51722000  1.0 -0.3532954166
N  N93  1  0.78241000  0.98278000  0.11199000  1.0 -0.3532954166
N  N94  1  0.71759000  0.82958000  0.20037000  1.0 -0.3532954166
N  N95  1  0.12921000  0.51722000  0.29963000  1.0 -0.3532954166
N  N96  1  0.37079000  0.67042000  0.38801000  1.0 -0.3532954166
N  N97  1  0.94860000  0.17099000  0.97479000  1.0 -0.2043365708
N  N98  1  0.69620000  0.97381000  0.52521000  1.0 -0.2043365708
N  N99  1  0.80380000  0.32901000  0.27761000  1.0 -0.2043365708
N  N100  1  0.55140000  0.52619000  0.22239000  1.0 -0.2043365708
N  N101  1  0.97479000  0.94860000  0.17099000  1.0 -0.2043365708
N  N102  1  0.52521000  0.69620000  0.97381000  1.0 -0.2043365708
N  N103  1  0.27761000  0.80380000  0.32901000  1.0 -0.2043365708
N  N104  1  0.22239000  0.55140000  0.52619000  1.0 -0.2043365708
N  N105  1  0.17099000  0.97479000  0.94860000  1.0 -0.2043365708
N  N106  1  0.97381000  0.52521000  0.69620000  1.0 -0.2043365708
N  N107  1  0.32901000  0.27761000  0.80380000  1.0 -0.2043365708
N  N108  1  0.52619000  0.22239000  0.55140000  1.0 -0.2043365708
N  N109  1  0.52619000  0.80380000  0.97479000  1.0 -0.2043365708
N  N110  1  0.32901000  0.55140000  0.52521000  1.0 -0.2043365708
N  N111  1  0.97381000  0.94860000  0.27761000  1.0 -0.2043365708
N  N112  1  0.17099000  0.69620000  0.22239000  1.0 -0.2043365708
N  N113  1  0.69620000  0.22239000  0.17099000  1.0 -0.2043365708
N  N114  1  0.94860000  0.27761000  0.97381000  1.0 -0.2043365708
N  N115  1  0.55140000  0.52521000  0.32901000  1.0 -0.2043365708
N  N116  1  0.80380000  0.97479000  0.52619000  1.0 -0.2043365708
N  N117  1  0.27761000  0.97381000  0.94860000  1.0 -0.2043365708
N  N118  1  0.22239000  0.17099000  0.69620000  1.0 -0.2043365708
N  N119  1  0.97479000  0.52619000  0.80380000  1.0 -0.2043365708
N  N120  1  0.52521000  0.32901000  0.55140000  1.0 -0.2043365708
N  N121  1  0.05140000  0.82901000  0.02521000  1.0 -0.2043365708
N  N122  1  0.30380000  0.02619000  0.47479000  1.0 -0.2043365708
N  N123  1  0.19620000  0.67099000  0.72239000  1.0 -0.2043365708
N  N124  1  0.44860000  0.47381000  0.77761000  1.0 -0.2043365708
N  N125  1  0.02521000  0.05140000  0.82901000  1.0 -0.2043365708
N  N126  1  0.47479000  0.30380000  0.02619000  1.0 -0.2043365708
N  N127  1  0.72239000  0.19620000  0.67099000  1.0 -0.2043365708
N  N128  1  0.77761000  0.44860000  0.47381000  1.0 -0.2043365708
N  N129  1  0.82901000  0.02521000  0.05140000  1.0 -0.2043365708
N  N130  1  0.02619000  0.47479000  0.30380000  1.0 -0.2043365708
N  N131  1  0.67099000  0.72239000  0.19620000  1.0 -0.2043365708
N  N132  1  0.47381000  0.77761000  0.44860000  1.0 -0.2043365708
N  N133  1  0.47381000  0.19620000  0.02521000  1.0 -0.2043365708
N  N134  1  0.67099000  0.44860000  0.47479000  1.0 -0.2043365708
N  N135  1  0.02619000  0.05140000  0.72239000  1.0 -0.2043365708
N  N136  1  0.82901000  0.30380000  0.77761000  1.0 -0.2043365708
N  N137  1  0.30380000  0.77761000  0.82901000  1.0 -0.2043365708
N  N138  1  0.05140000  0.72239000  0.02619000  1.0 -0.2043365708
N  N139  1  0.44860000  0.47479000  0.67099000  1.0 -0.2043365708
N  N140  1  0.19620000  0.02521000  0.47381000  1.0 -0.2043365708
N  N141  1  0.72239000  0.02619000  0.05140000  1.0 -0.2043365708
N  N142  1  0.77761000  0.82901000  0.30380000  1.0 -0.2043365708
N  N143  1  0.02521000  0.47381000  0.19620000  1.0 -0.2043365708
N  N144  1  0.47479000  0.67099000  0.44860000  1.0 -0.2043365708
N  N145  1  0.81990000  0.21120000  0.91210000  1.0 -0.2043365708
N  N146  1  0.79910000  0.90780000  0.58790000  1.0 -0.2054217281
N  N147  1  0.70090000  0.28880000  0.10870000  1.0 -0.2054217281
N  N148  1  0.68010000  0.59220000  0.39130000  1.0 -0.2054217281
N  N149  1  0.91210000  0.81990000  0.21120000  1.0 -0.2054217281
N  N150  1  0.58790000  0.79910000  0.90780000  1.0 -0.2043365708
N  N151  1  0.10870000  0.70090000  0.28880000  1.0 -0.2043365708
N  N152  1  0.39130000  0.68010000  0.59220000  1.0 -0.2054217281
N  N153  1  0.21120000  0.91210000  0.81990000  1.0 -0.2043365708
N  N154  1  0.90780000  0.58790000  0.79910000  1.0 -0.2043365708
N  N155  1  0.28880000  0.10870000  0.70090000  1.0 -0.2043365708
N  N156  1  0.59220000  0.39130000  0.68010000  1.0 -0.2043365708
N  N157  1  0.59220000  0.70090000  0.91210000  1.0 -0.2043365708
N  N158  1  0.28880000  0.68010000  0.58790000  1.0 -0.2054217281
N  N159  1  0.90780000  0.81990000  0.10870000  1.0 -0.2054217281
N  N160  1  0.21120000  0.79910000  0.39130000  1.0 -0.2054217281
N  N161  1  0.79910000  0.39130000  0.21120000  1.0 -0.2054217281
N  N162  1  0.81990000  0.10870000  0.90780000  1.0 -0.2043365708
N  N163  1  0.68010000  0.58790000  0.28880000  1.0 -0.2054217281
N  N164  1  0.70090000  0.91210000  0.59220000  1.0 -0.2054217281
N  N165  1  0.10870000  0.90780000  0.81990000  1.0 -0.2043365708
N  N166  1  0.39130000  0.21120000  0.79910000  1.0 -0.2043365708
N  N167  1  0.91210000  0.59220000  0.70090000  1.0 -0.2043365708
N  N168  1  0.58790000  0.28880000  0.68010000  1.0 -0.2043365708
N  N169  1  0.18010000  0.78880000  0.08790000  1.0 -0.2054217281
N  N170  1  0.20090000  0.09220000  0.41210000  1.0 -0.2043365708
N  N171  1  0.29910000  0.71120000  0.89130000  1.0 -0.2043365708
N  N172  1  0.31990000  0.40780000  0.60870000  1.0 -0.2043365708
N  N173  1  0.08790000  0.18010000  0.78880000  1.0 -0.2043365708
N  N174  1  0.41210000  0.20090000  0.09220000  1.0 -0.2043365708
N  N175  1  0.89130000  0.29910000  0.71120000  1.0 -0.2043365708
N  N176  1  0.60870000  0.31990000  0.40780000  1.0 -0.2043365708
N  N177  1  0.78880000  0.08790000  0.18010000  1.0 -0.2043365708
N  N178  1  0.09220000  0.41210000  0.20090000  1.0 -0.2043365708
N  N179  1  0.71120000  0.89130000  0.29910000  1.0 -0.2054217281
N  N180  1  0.40780000  0.60870000  0.31990000  1.0 -0.2054217281
N  N181  1  0.40780000  0.29910000  0.08790000  1.0 -0.2054217281
N  N182  1  0.71120000  0.31990000  0.41210000  1.0 -0.2043365708
N  N183  1  0.09220000  0.18010000  0.89130000  1.0 -0.2043365708
N  N184  1  0.78880000  0.20090000  0.60870000  1.0 -0.2043365708
N  N185  1  0.20090000  0.60870000  0.78880000  1.0 -0.2043365708
N  N186  1  0.18010000  0.89130000  0.09220000  1.0 -0.2054217281
N  N187  1  0.31990000  0.41210000  0.71120000  1.0 -0.2043365708
N  N188  1  0.29910000  0.08790000  0.40780000  1.0 -0.2043365708
N  N189  1  0.89130000  0.09220000  0.18010000  1.0 -0.2054217281
N  N190  1  0.60870000  0.78880000  0.20090000  1.0 -0.2054217281
N  N191  1  0.08790000  0.40780000  0.29910000  1.0 -0.2043365708
N  N192  1  0.41210000  0.71120000  0.31990000  1.0 -0.2054217281
O  O1  1  0.67820000  0.10120000  0.76560000  1.0 -0.260115045
O  O2  1  0.83560000  0.91260000  0.73440000  1.0 -0.260115045
O  O3  1  0.66440000  0.39880000  0.07700000  1.0 -0.260115045
O  O4  1  0.82180000  0.58740000  0.42300000  1.0 -0.260115045
O  O5  1  0.76560000  0.67820000  0.10120000  1.0 -0.260115045
O  O6  1  0.73440000  0.83560000  0.91260000  1.0 -0.260115045
O  O7  1  0.07700000  0.66440000  0.39880000  1.0 -0.260115045
O  O8  1  0.42300000  0.82180000  0.58740000  1.0 -0.260115045
O  O9  1  0.10120000  0.76560000  0.67820000  1.0 -0.260115045
O  O10  1  0.91260000  0.73440000  0.83560000  1.0 -0.260115045
O  O11  1  0.39880000  0.07700000  0.66440000  1.0 -0.260115045
O  O12  1  0.58740000  0.42300000  0.82180000  1.0 -0.260115045
O  O13  1  0.58740000  0.66440000  0.76560000  1.0 -0.260115045
O  O14  1  0.39880000  0.82180000  0.73440000  1.0 -0.260115045
O  O15  1  0.91260000  0.67820000  0.07700000  1.0 -0.260115045
O  O16  1  0.10120000  0.83560000  0.42300000  1.0 -0.260115045
O  O17  1  0.83560000  0.42300000  0.10120000  1.0 -0.260115045
O  O18  1  0.67820000  0.07700000  0.91260000  1.0 -0.260115045
O  O19  1  0.82180000  0.73440000  0.39880000  1.0 -0.260115045
O  O20  1  0.66440000  0.76560000  0.58740000  1.0 -0.260115045
O  O21  1  0.07700000  0.91260000  0.67820000  1.0 -0.260115045
O  O22  1  0.42300000  0.10120000  0.83560000  1.0 -0.260115045
O  O23  1  0.76560000  0.58740000  0.66440000  1.0 -0.260115045
O  O24  1  0.73440000  0.39880000  0.82180000  1.0 -0.260115045
O  O25  1  0.32180000  0.89880000  0.23440000  1.0 -0.260115045
O  O26  1  0.16440000  0.08740000  0.26560000  1.0 -0.260115045
O  O27  1  0.33560000  0.60120000  0.92300000  1.0 -0.260115045
O  O28  1  0.17820000  0.41260000  0.57700000  1.0 -0.260115045
O  O29  1  0.23440000  0.32180000  0.89880000  1.0 -0.260115045
O  O30  1  0.26560000  0.16440000  0.08740000  1.0 -0.260115045
O  O31  1  0.92300000  0.33560000  0.60120000  1.0 -0.260115045
O  O32  1  0.57700000  0.17820000  0.41260000  1.0 -0.260115045
O  O33  1  0.89880000  0.23440000  0.32180000  1.0 -0.260115045
O  O34  1  0.08740000  0.26560000  0.16440000  1.0 -0.260115045
O  O35  1  0.60120000  0.92300000  0.33560000  1.0 -0.260115045
O  O36  1  0.41260000  0.57700000  0.17820000  1.0 -0.260115045
O  O37  1  0.41260000  0.33560000  0.23440000  1.0 -0.260115045
O  O38  1  0.60120000  0.17820000  0.26560000  1.0 -0.260115045
O  O39  1  0.08740000  0.32180000  0.92300000  1.0 -0.260115045
O  O40  1  0.89880000  0.16440000  0.57700000  1.0 -0.260115045
O  O41  1  0.16440000  0.57700000  0.89880000  1.0 -0.260115045
O  O42  1  0.32180000  0.92300000  0.08740000  1.0 -0.260115045
O  O43  1  0.17820000  0.26560000  0.60120000  1.0 -0.260115045
O  O44  1  0.33560000  0.23440000  0.41260000  1.0 -0.260115045
O  O45  1  0.92300000  0.08740000  0.32180000  1.0 -0.260115045
O  O46  1  0.57700000  0.89880000  0.16440000  1.0 -0.260115045
O  O47  1  0.23440000  0.41260000  0.33560000  1.0 -0.260115045
O  O48  1  0.26560000  0.60120000  0.17820000  1.0 -0.260115045
O  O49  1  0.02210000  0.10180000  0.08250000  1.0 -0.2540804731
O  O50  1  0.51930000  0.93960000  0.41750000  1.0 -0.260115045
O  O51  1  0.98070000  0.39820000  0.42030000  1.0 -0.2540804731
O  O52  1  0.47790000  0.56040000  0.07970000  1.0 -0.2540804731
O  O53  1  0.08250000  0.02210000  0.10180000  1.0 -0.260115045
O  O54  1  0.41750000  0.51930000  0.93960000  1.0 -0.260115045
O  O55  1  0.42030000  0.98070000  0.39820000  1.0 -0.260115045
O  O56  1  0.07970000  0.47790000  0.56040000  1.0 -0.2540804731
O  O57  1  0.10180000  0.08250000  0.02210000  1.0 -0.2540804731
O  O58  1  0.93960000  0.41750000  0.51930000  1.0 -0.260115045
O  O59  1  0.39820000  0.42030000  0.98070000  1.0 -0.260115045
O  O60  1  0.56040000  0.07970000  0.47790000  1.0 -0.2540804731
O  O61  1  0.56040000  0.98070000  0.08250000  1.0 -0.260115045
O  O62  1  0.39820000  0.47790000  0.41750000  1.0 -0.260115045
O  O63  1  0.93960000  0.02210000  0.42030000  1.0 -0.2540804731
O  O64  1  0.10180000  0.51930000  0.07970000  1.0 -0.260115045
O  O65  1  0.51930000  0.07970000  0.10180000  1.0 -0.2540804731
O  O66  1  0.02210000  0.42030000  0.93960000  1.0 -0.2540804731
O  O67  1  0.47790000  0.41750000  0.39820000  1.0 -0.2540804731
O  O68  1  0.98070000  0.08250000  0.56040000  1.0 -0.2540804731
O  O69  1  0.42030000  0.93960000  0.02210000  1.0 -0.260115045
O  O70  1  0.07970000  0.10180000  0.51930000  1.0 -0.260115045
O  O71  1  0.08250000  0.56040000  0.98070000  1.0 -0.260115045
O  O72  1  0.41750000  0.39820000  0.47790000  1.0 -0.2540804731
O  O73  1  0.97790000  0.89820000  0.91750000  1.0 -0.2540804731
O  O74  1  0.48070000  0.06040000  0.58250000  1.0 -0.2540804731
O  O75  1  0.01930000  0.60180000  0.57970000  1.0 -0.260115045
O  O76  1  0.52210000  0.43960000  0.92030000  1.0 -0.260115045
O  O77  1  0.91750000  0.97790000  0.89820000  1.0 -0.260115045
O  O78  1  0.58250000  0.48070000  0.06040000  1.0 -0.260115045
O  O79  1  0.57970000  0.01930000  0.60180000  1.0 -0.260115045
O  O80  1  0.92030000  0.52210000  0.43960000  1.0 -0.260115045
O  O81  1  0.89820000  0.91750000  0.97790000  1.0 -0.260115045
O  O82  1  0.06040000  0.58250000  0.48070000  1.0 -0.260115045
O  O83  1  0.60180000  0.57970000  0.01930000  1.0 -0.260115045
O  O84  1  0.43960000  0.92030000  0.52210000  1.0 -0.2540804731
O  O85  1  0.43960000  0.01930000  0.91750000  1.0 -0.2540804731
O  O86  1  0.60180000  0.52210000  0.58250000  1.0 -0.260115045
O  O87  1  0.06040000  0.97790000  0.57970000  1.0 -0.260115045
O  O88  1  0.89820000  0.48070000  0.92030000  1.0 -0.260115045
O  O89  1  0.48070000  0.92030000  0.89820000  1.0 -0.260115045
O  O90  1  0.97790000  0.57970000  0.06040000  1.0 -0.2540804731
O  O91  1  0.52210000  0.58250000  0.60180000  1.0 -0.2540804731
O  O92  1  0.01930000  0.91750000  0.43960000  1.0 -0.260115045
O  O93  1  0.57970000  0.06040000  0.97790000  1.0 -0.260115045
O  O94  1  0.92030000  0.89820000  0.48070000  1.0 -0.2540804731
O  O95  1  0.91750000  0.43960000  0.01930000  1.0 -0.2540804731
O  O96  1  0.58250000  0.60180000  0.52210000  1.0 -0.2540804731
O  O97  1  0.02720000  0.16260000  0.12860000  1.0 -0.2882404262
O  O98  1  0.53400000  0.89860000  0.37140000  1.0 -0.2882404262
O  O99  1  0.96600000  0.33740000  0.36460000  1.0 -0.2882404262
O  O100  1  0.47280000  0.60140000  0.13540000  1.0 -0.2882404262
O  O101  1  0.12860000  0.02720000  0.16260000  1.0 -0.2882404262
O  O102  1  0.37140000  0.53400000  0.89860000  1.0 -0.2882404262
O  O103  1  0.36460000  0.96600000  0.33740000  1.0 -0.2882404262
O  O104  1  0.13540000  0.47280000  0.60140000  1.0 -0.2882404262
O  O105  1  0.16260000  0.12860000  0.02720000  1.0 -0.2882404262
O  O106  1  0.89860000  0.37140000  0.53400000  1.0 -0.2882404262
O  O107  1  0.33740000  0.36460000  0.96600000  1.0 -0.2882404262
O  O108  1  0.60140000  0.13540000  0.47280000  1.0 -0.2882404262
O  O109  1  0.60140000  0.96600000  0.12860000  1.0 -0.2882404262
O  O110  1  0.33740000  0.47280000  0.37140000  1.0 -0.2882404262
O  O111  1  0.89860000  0.02720000  0.36460000  1.0 -0.2882404262
O  O112  1  0.16260000  0.53400000  0.13540000  1.0 -0.2882404262
O  O113  1  0.53400000  0.13540000  0.16260000  1.0 -0.2882404262
O  O114  1  0.02720000  0.36460000  0.89860000  1.0 -0.2882404262
O  O115  1  0.47280000  0.37140000  0.33740000  1.0 -0.2882404262
O  O116  1  0.96600000  0.12860000  0.60140000  1.0 -0.2882404262
O  O117  1  0.36460000  0.89860000  0.02720000  1.0 -0.2882404262
O  O118  1  0.13540000  0.16260000  0.53400000  1.0 -0.2882404262
O  O119  1  0.12860000  0.60140000  0.96600000  1.0 -0.2882404262
O  O120  1  0.37140000  0.33740000  0.47280000  1.0 -0.2882404262
O  O121  1  0.97280000  0.83740000  0.87140000  1.0 -0.2882404262
O  O122  1  0.46600000  0.10140000  0.62860000  1.0 -0.2882404262
O  O123  1  0.03400000  0.66260000  0.63540000  1.0 -0.2882404262
O  O124  1  0.52720000  0.39860000  0.86460000  1.0 -0.2882404262
O  O125  1  0.87140000  0.97280000  0.83740000  1.0 -0.2882404262
O  O126  1  0.62860000  0.46600000  0.10140000  1.0 -0.2882404262
O  O127  1  0.63540000  0.03400000  0.66260000  1.0 -0.2882404262
O  O128  1  0.86460000  0.52720000  0.39860000  1.0 -0.2882404262
O  O129  1  0.83740000  0.87140000  0.97280000  1.0 -0.2882404262
O  O130  1  0.10140000  0.62860000  0.46600000  1.0 -0.2882404262
O  O131  1  0.66260000  0.63540000  0.03400000  1.0 -0.2882404262
O  O132  1  0.39860000  0.86460000  0.52720000  1.0 -0.2882404262
O  O133  1  0.39860000  0.03400000  0.87140000  1.0 -0.2882404262
O  O134  1  0.66260000  0.52720000  0.62860000  1.0 -0.2882404262
O  O135  1  0.10140000  0.97280000  0.63540000  1.0 -0.2882404262
O  O136  1  0.83740000  0.46600000  0.86460000  1.0 -0.2882404262
O  O137  1  0.46600000  0.86460000  0.83740000  1.0 -0.2882404262
O  O138  1  0.97280000  0.63540000  0.10140000  1.0 -0.2882404262
O  O139  1  0.52720000  0.62860000  0.66260000  1.0 -0.2882404262
O  O140  1  0.03400000  0.87140000  0.39860000  1.0 -0.2882404262
O  O141  1  0.63540000  0.10140000  0.97280000  1.0 -0.2882404262
O  O142  1  0.86460000  0.83740000  0.46600000  1.0 -0.2882404262
O  O143  1  0.87140000  0.39860000  0.03400000  1.0 -0.2882404262
O  O144  1  0.62860000  0.66260000  0.52720000  1.0 -0.2882404262
