# DDEC6 charges by PACMAN v1.1 (https://github.com/mtap-research/PACMAN-charge/)
data_UBAVUR02_ASR_pacman
_symmetry_space_group_name_H-M   'P 1'
_cell_length_a   29.60200000
_cell_length_b   29.60200000
_cell_length_c   29.60200000
_cell_angle_alpha   109.47100000
_cell_angle_beta   109.47100000
_cell_angle_gamma   109.47100000
_symmetry_Int_Tables_number   1
_chemical_formula_structural   Fe2H76WC60(N4O3)4
_chemical_formula_sum   'Fe24 H912 W12 C720 N192 O144'
_cell_volume   19968.47135926
_cell_formula_units_Z   12
loop_
 _symmetry_equiv_pos_site_id
 _symmetry_equiv_pos_as_xyz
  1  'x, y, z'
loop_
 _atom_site_type_symbol
 _atom_site_label
 _atom_site_symmetry_multiplicity
 _atom_site_fract_x
 _atom_site_fract_y
 _atom_site_fract_z
 _atom_site_occupancy
 _atom_site_charge
Fe  Fe1  1  0.88234000  0.19117000  0.94117000  1.0 0.638786127
Fe  Fe2  1  0.75000000  0.94117000  0.55883000  1.0 0.638786127
Fe  Fe3  1  0.75000000  0.30883000  0.19117000  1.0 0.6474689555
Fe  Fe4  1  0.61766000  0.55883000  0.30883000  1.0 0.6474689555
Fe  Fe5  1  0.94117000  0.88234000  0.19117000  1.0 0.638786127
Fe  Fe6  1  0.55883000  0.75000000  0.94117000  1.0 0.6474689555
Fe  Fe7  1  0.19117000  0.75000000  0.30883000  1.0 0.638786127
Fe  Fe8  1  0.30883000  0.61766000  0.55883000  1.0 0.6474689555
Fe  Fe9  1  0.19117000  0.94117000  0.88234000  1.0 0.638786127
Fe  Fe10  1  0.94117000  0.55883000  0.75000000  1.0 0.6474689555
Fe  Fe11  1  0.30883000  0.19117000  0.75000000  1.0 0.6474689555
Fe  Fe12  1  0.55883000  0.30883000  0.61766000  1.0 0.6474689555
Fe  Fe13  1  0.11766000  0.80883000  0.05883000  1.0 0.6474689555
Fe  Fe14  1  0.25000000  0.05883000  0.44117000  1.0 0.6474689555
Fe  Fe15  1  0.25000000  0.69117000  0.80883000  1.0 0.6474689555
Fe  Fe16  1  0.38234000  0.44117000  0.69117000  1.0 0.6474689555
Fe  Fe17  1  0.05883000  0.11766000  0.80883000  1.0 0.638786127
Fe  Fe18  1  0.44117000  0.25000000  0.05883000  1.0 0.6474689555
Fe  Fe19  1  0.80883000  0.25000000  0.69117000  1.0 0.6474689555
Fe  Fe20  1  0.69117000  0.38234000  0.44117000  1.0 0.638786127
Fe  Fe21  1  0.80883000  0.05883000  0.11766000  1.0 0.6474689555
Fe  Fe22  1  0.05883000  0.44117000  0.25000000  1.0 0.6474689555
Fe  Fe23  1  0.69117000  0.80883000  0.25000000  1.0 0.638786127
Fe  Fe24  1  0.44117000  0.69117000  0.38234000  1.0 0.6474689555
H  H1  1  0.91290000  0.14320000  0.01270000  1.0 0.1186389113
H  H2  1  0.63050000  0.90020000  0.48730000  1.0 0.1186389113
H  H3  1  0.86950000  0.35680000  0.26970000  1.0 0.1186389113
H  H4  1  0.58710000  0.59980000  0.23030000  1.0 0.1186389113
H  H5  1  0.01270000  0.91290000  0.14320000  1.0 0.1186389113
H  H6  1  0.48730000  0.63050000  0.90020000  1.0 0.1186389113
H  H7  1  0.26970000  0.86950000  0.35680000  1.0 0.1186389113
H  H8  1  0.23030000  0.58710000  0.59980000  1.0 0.1186389113
H  H9  1  0.14320000  0.01270000  0.91290000  1.0 0.1186389113
H  H10  1  0.90020000  0.48730000  0.63050000  1.0 0.1186389113
H  H11  1  0.35680000  0.26970000  0.86950000  1.0 0.1186389113
H  H12  1  0.59980000  0.23030000  0.58710000  1.0 0.1186389113
H  H13  1  0.59980000  0.86950000  0.01270000  1.0 0.1186389113
H  H14  1  0.35680000  0.58710000  0.48730000  1.0 0.1186389113
H  H15  1  0.90020000  0.91290000  0.26970000  1.0 0.1186389113
H  H16  1  0.14320000  0.63050000  0.23030000  1.0 0.1186389113
H  H17  1  0.63050000  0.23030000  0.14320000  1.0 0.1186389113
H  H18  1  0.91290000  0.26970000  0.90020000  1.0 0.1186389113
H  H19  1  0.58710000  0.48730000  0.35680000  1.0 0.1186389113
H  H20  1  0.86950000  0.01270000  0.59980000  1.0 0.1186389113
H  H21  1  0.26970000  0.90020000  0.91290000  1.0 0.1186389113
H  H22  1  0.23030000  0.14320000  0.63050000  1.0 0.1186389113
H  H23  1  0.01270000  0.59980000  0.86950000  1.0 0.1186389113
H  H24  1  0.48730000  0.35680000  0.58710000  1.0 0.1186389113
H  H25  1  0.08710000  0.85680000  0.98730000  1.0 0.1186389113
H  H26  1  0.36950000  0.09980000  0.51270000  1.0 0.1186389113
H  H27  1  0.13050000  0.64320000  0.73030000  1.0 0.1186389113
H  H28  1  0.41290000  0.40020000  0.76970000  1.0 0.1186389113
H  H29  1  0.98730000  0.08710000  0.85680000  1.0 0.1186389113
H  H30  1  0.51270000  0.36950000  0.09980000  1.0 0.1186389113
H  H31  1  0.73030000  0.13050000  0.64320000  1.0 0.1186389113
H  H32  1  0.76970000  0.41290000  0.40020000  1.0 0.1186389113
H  H33  1  0.85680000  0.98730000  0.08710000  1.0 0.1186389113
H  H34  1  0.09980000  0.51270000  0.36950000  1.0 0.1186389113
H  H35  1  0.64320000  0.73030000  0.13050000  1.0 0.1186389113
H  H36  1  0.40020000  0.76970000  0.41290000  1.0 0.1186389113
H  H37  1  0.40020000  0.13050000  0.98730000  1.0 0.1186389113
H  H38  1  0.64320000  0.41290000  0.51270000  1.0 0.1186389113
H  H39  1  0.09980000  0.08710000  0.73030000  1.0 0.1186389113
H  H40  1  0.85680000  0.36950000  0.76970000  1.0 0.1186389113
H  H41  1  0.36950000  0.76970000  0.85680000  1.0 0.1186389113
H  H42  1  0.08710000  0.73030000  0.09980000  1.0 0.1186389113
H  H43  1  0.41290000  0.51270000  0.64320000  1.0 0.1186389113
H  H44  1  0.13050000  0.98730000  0.40020000  1.0 0.1186389113
H  H45  1  0.73030000  0.09980000  0.08710000  1.0 0.1186389113
H  H46  1  0.76970000  0.85680000  0.36950000  1.0 0.1186389113
H  H47  1  0.98730000  0.40020000  0.13050000  1.0 0.1186389113
H  H48  1  0.51270000  0.64320000  0.41290000  1.0 0.1186389113
H  H49  1  0.05220000  0.13960000  0.02880000  1.0 0.1093049845
H  H50  1  0.61080000  0.02340000  0.47120000  1.0 0.1093049845
H  H51  1  0.88920000  0.36040000  0.41260000  1.0 0.1093049845
H  H52  1  0.44780000  0.47660000  0.08740000  1.0 0.1093049845
H  H53  1  0.02880000  0.05220000  0.13960000  1.0 0.1093049845
H  H54  1  0.47120000  0.61080000  0.02340000  1.0 0.1093049845
H  H55  1  0.41260000  0.88920000  0.36040000  1.0 0.1093049845
H  H56  1  0.08740000  0.44780000  0.47660000  1.0 0.1093049845
H  H57  1  0.13960000  0.02880000  0.05220000  1.0 0.1093049845
H  H58  1  0.02340000  0.47120000  0.61080000  1.0 0.1093049845
H  H59  1  0.36040000  0.41260000  0.88920000  1.0 0.1093049845
H  H60  1  0.47660000  0.08740000  0.44780000  1.0 0.1093049845
H  H61  1  0.47660000  0.88920000  0.02880000  1.0 0.1093049845
H  H62  1  0.36040000  0.44780000  0.47120000  1.0 0.1093049845
H  H63  1  0.02340000  0.05220000  0.41260000  1.0 0.1093049845
H  H64  1  0.13960000  0.61080000  0.08740000  1.0 0.1093049845
H  H65  1  0.61080000  0.08740000  0.13960000  1.0 0.1093049845
H  H66  1  0.05220000  0.41260000  0.02340000  1.0 0.1093049845
H  H67  1  0.44780000  0.47120000  0.36040000  1.0 0.1093049845
H  H68  1  0.88920000  0.02880000  0.47660000  1.0 0.1093049845
H  H69  1  0.41260000  0.02340000  0.05220000  1.0 0.1093049845
H  H70  1  0.08740000  0.13960000  0.61080000  1.0 0.1093049845
H  H71  1  0.02880000  0.47660000  0.88920000  1.0 0.1093049845
H  H72  1  0.47120000  0.36040000  0.44780000  1.0 0.1093049845
H  H73  1  0.94780000  0.86040000  0.97120000  1.0 0.1093049845
H  H74  1  0.38920000  0.97660000  0.52880000  1.0 0.1093049845
H  H75  1  0.11080000  0.63960000  0.58740000  1.0 0.1093049845
H  H76  1  0.55220000  0.52340000  0.91260000  1.0 0.1093049845
H  H77  1  0.97120000  0.94780000  0.86040000  1.0 0.1093049845
H  H78  1  0.52880000  0.38920000  0.97660000  1.0 0.1093049845
H  H79  1  0.58740000  0.11080000  0.63960000  1.0 0.1093049845
H  H80  1  0.91260000  0.55220000  0.52340000  1.0 0.1093049845
H  H81  1  0.86040000  0.97120000  0.94780000  1.0 0.1093049845
H  H82  1  0.97660000  0.52880000  0.38920000  1.0 0.1093049845
H  H83  1  0.63960000  0.58740000  0.11080000  1.0 0.1093049845
H  H84  1  0.52340000  0.91260000  0.55220000  1.0 0.1093049845
H  H85  1  0.52340000  0.11080000  0.97120000  1.0 0.1093049845
H  H86  1  0.63960000  0.55220000  0.52880000  1.0 0.1093049845
H  H87  1  0.97660000  0.94780000  0.58740000  1.0 0.1093049845
H  H88  1  0.86040000  0.38920000  0.91260000  1.0 0.1093049845
H  H89  1  0.38920000  0.91260000  0.86040000  1.0 0.1093049845
H  H90  1  0.94780000  0.58740000  0.97660000  1.0 0.1093049845
H  H91  1  0.55220000  0.52880000  0.63960000  1.0 0.1093049845
H  H92  1  0.11080000  0.97120000  0.52340000  1.0 0.1093049845
H  H93  1  0.58740000  0.97660000  0.94780000  1.0 0.1093049845
H  H94  1  0.91260000  0.86040000  0.38920000  1.0 0.1093049845
H  H95  1  0.97120000  0.52340000  0.11080000  1.0 0.1093049845
H  H96  1  0.52880000  0.63960000  0.55220000  1.0 0.1093049845
H  H97  1  0.05210000  0.17660000  0.96990000  1.0 0.1186389113
H  H98  1  0.70670000  0.08220000  0.53010000  1.0 0.1186389113
H  H99  1  0.79330000  0.32340000  0.37550000  1.0 0.1186389113
H  H100  1  0.44790000  0.41780000  0.12450000  1.0 0.1186389113
H  H101  1  0.96990000  0.05210000  0.17660000  1.0 0.1186389113
H  H102  1  0.53010000  0.70670000  0.08220000  1.0 0.1186389113
H  H103  1  0.37550000  0.79330000  0.32340000  1.0 0.1186389113
H  H104  1  0.12450000  0.44790000  0.41780000  1.0 0.1186389113
H  H105  1  0.17660000  0.96990000  0.05210000  1.0 0.1186389113
H  H106  1  0.08220000  0.53010000  0.70670000  1.0 0.1186389113
H  H107  1  0.32340000  0.37550000  0.79330000  1.0 0.1186389113
H  H108  1  0.41780000  0.12450000  0.44790000  1.0 0.1186389113
H  H109  1  0.41780000  0.79330000  0.96990000  1.0 0.1186389113
H  H110  1  0.32340000  0.44790000  0.53010000  1.0 0.1186389113
H  H111  1  0.08220000  0.05210000  0.37550000  1.0 0.1186389113
H  H112  1  0.17660000  0.70670000  0.12450000  1.0 0.1186389113
H  H113  1  0.70670000  0.12450000  0.17660000  1.0 0.1186389113
H  H114  1  0.05210000  0.37550000  0.08220000  1.0 0.1186389113
H  H115  1  0.44790000  0.53010000  0.32340000  1.0 0.1186389113
H  H116  1  0.79330000  0.96990000  0.41780000  1.0 0.1186389113
H  H117  1  0.37550000  0.08220000  0.05210000  1.0 0.1186389113
H  H118  1  0.12450000  0.17660000  0.70670000  1.0 0.1186389113
H  H119  1  0.96990000  0.41780000  0.79330000  1.0 0.1186389113
H  H120  1  0.53010000  0.32340000  0.44790000  1.0 0.1186389113
H  H121  1  0.94790000  0.82340000  0.03010000  1.0 0.1186389113
H  H122  1  0.29330000  0.91780000  0.46990000  1.0 0.1186389113
H  H123  1  0.20670000  0.67660000  0.62450000  1.0 0.1186389113
H  H124  1  0.55210000  0.58220000  0.87550000  1.0 0.1186389113
H  H125  1  0.03010000  0.94790000  0.82340000  1.0 0.1186389113
H  H126  1  0.46990000  0.29330000  0.91780000  1.0 0.1186389113
H  H127  1  0.62450000  0.20670000  0.67660000  1.0 0.1186389113
H  H128  1  0.87550000  0.55210000  0.58220000  1.0 0.1186389113
H  H129  1  0.82340000  0.03010000  0.94790000  1.0 0.1186389113
H  H130  1  0.91780000  0.46990000  0.29330000  1.0 0.1186389113
H  H131  1  0.67660000  0.62450000  0.20670000  1.0 0.1186389113
H  H132  1  0.58220000  0.87550000  0.55210000  1.0 0.1186389113
H  H133  1  0.58220000  0.20670000  0.03010000  1.0 0.1186389113
H  H134  1  0.67660000  0.55210000  0.46990000  1.0 0.1186389113
H  H135  1  0.91780000  0.94790000  0.62450000  1.0 0.1186389113
H  H136  1  0.82340000  0.29330000  0.87550000  1.0 0.1186389113
H  H137  1  0.29330000  0.87550000  0.82340000  1.0 0.1186389113
H  H138  1  0.94790000  0.62450000  0.91780000  1.0 0.1186389113
H  H139  1  0.55210000  0.46990000  0.67660000  1.0 0.1186389113
H  H140  1  0.20670000  0.03010000  0.58220000  1.0 0.1186389113
H  H141  1  0.62450000  0.91780000  0.94790000  1.0 0.1186389113
H  H142  1  0.87550000  0.82340000  0.29330000  1.0 0.1186389113
H  H143  1  0.03010000  0.58220000  0.20670000  1.0 0.1186389113
H  H144  1  0.46990000  0.67660000  0.55210000  1.0 0.1186389113
H  H145  1  0.98350000  0.19670000  0.93580000  1.0 0.1186389113
H  H146  1  0.76090000  0.04770000  0.56420000  1.0 0.1186389113
H  H147  1  0.73910000  0.30330000  0.28680000  1.0 0.1186389113
H  H148  1  0.51650000  0.45230000  0.21320000  1.0 0.1186389113
H  H149  1  0.93580000  0.98350000  0.19670000  1.0 0.1186389113
H  H150  1  0.56420000  0.76090000  0.04770000  1.0 0.1186389113
H  H151  1  0.28680000  0.73910000  0.30330000  1.0 0.1186389113
H  H152  1  0.21320000  0.51650000  0.45230000  1.0 0.1186389113
H  H153  1  0.19670000  0.93580000  0.98350000  1.0 0.1186389113
H  H154  1  0.04770000  0.56420000  0.76090000  1.0 0.1186389113
H  H155  1  0.30330000  0.28680000  0.73910000  1.0 0.1186389113
H  H156  1  0.45230000  0.21320000  0.51650000  1.0 0.1186389113
H  H157  1  0.45230000  0.73910000  0.93580000  1.0 0.1186389113
H  H158  1  0.30330000  0.51650000  0.56420000  1.0 0.1186389113
H  H159  1  0.04770000  0.98350000  0.28680000  1.0 0.1186389113
H  H160  1  0.19670000  0.76090000  0.21320000  1.0 0.1186389113
H  H161  1  0.76090000  0.21320000  0.19670000  1.0 0.1186389113
H  H162  1  0.98350000  0.28680000  0.04770000  1.0 0.1186389113
H  H163  1  0.51650000  0.56420000  0.30330000  1.0 0.1186389113
H  H164  1  0.73910000  0.93580000  0.45230000  1.0 0.1186389113
H  H165  1  0.28680000  0.04770000  0.98350000  1.0 0.1186389113
H  H166  1  0.21320000  0.19670000  0.76090000  1.0 0.1186389113
H  H167  1  0.93580000  0.45230000  0.73910000  1.0 0.1186389113
H  H168  1  0.56420000  0.30330000  0.51650000  1.0 0.1186389113
H  H169  1  0.01650000  0.80330000  0.06420000  1.0 0.1186389113
H  H170  1  0.23910000  0.95230000  0.43580000  1.0 0.1186389113
H  H171  1  0.26090000  0.69670000  0.71320000  1.0 0.1186389113
H  H172  1  0.48350000  0.54770000  0.78680000  1.0 0.1186389113
H  H173  1  0.06420000  0.01650000  0.80330000  1.0 0.1186389113
H  H174  1  0.43580000  0.23910000  0.95230000  1.0 0.1186389113
H  H175  1  0.71320000  0.26090000  0.69670000  1.0 0.1186389113
H  H176  1  0.78680000  0.48350000  0.54770000  1.0 0.1186389113
H  H177  1  0.80330000  0.06420000  0.01650000  1.0 0.1186389113
H  H178  1  0.95230000  0.43580000  0.23910000  1.0 0.1186389113
H  H179  1  0.69670000  0.71320000  0.26090000  1.0 0.1186389113
H  H180  1  0.54770000  0.78680000  0.48350000  1.0 0.1186389113
H  H181  1  0.54770000  0.26090000  0.06420000  1.0 0.1186389113
H  H182  1  0.69670000  0.48350000  0.43580000  1.0 0.1186389113
H  H183  1  0.95230000  0.01650000  0.71320000  1.0 0.1186389113
H  H184  1  0.80330000  0.23910000  0.78680000  1.0 0.1186389113
H  H185  1  0.23910000  0.78680000  0.80330000  1.0 0.1186389113
H  H186  1  0.01650000  0.71320000  0.95230000  1.0 0.1186389113
H  H187  1  0.48350000  0.43580000  0.69670000  1.0 0.1186389113
H  H188  1  0.26090000  0.06420000  0.54770000  1.0 0.1186389113
H  H189  1  0.71320000  0.95230000  0.01650000  1.0 0.1186389113
H  H190  1  0.78680000  0.80330000  0.23910000  1.0 0.1186389113
H  H191  1  0.06420000  0.54770000  0.26090000  1.0 0.1186389113
H  H192  1  0.43580000  0.69670000  0.48350000  1.0 0.1186389113
H  H193  1  0.78230000  0.14960000  0.83270000  1.0 0.1186389113
H  H194  1  0.81690000  0.94960000  0.66730000  1.0 0.1186389113
H  H195  1  0.68310000  0.35040000  0.13270000  1.0 0.1186389113
H  H196  1  0.71770000  0.55040000  0.36730000  1.0 0.1186389113
H  H197  1  0.83270000  0.78230000  0.14960000  1.0 0.1186389113
H  H198  1  0.66730000  0.81690000  0.94960000  1.0 0.1186389113
H  H199  1  0.13270000  0.68310000  0.35040000  1.0 0.1186389113
H  H200  1  0.36730000  0.71770000  0.55040000  1.0 0.1186389113
H  H201  1  0.14960000  0.83270000  0.78230000  1.0 0.1186389113
H  H202  1  0.94960000  0.66730000  0.81690000  1.0 0.1186389113
H  H203  1  0.35040000  0.13270000  0.68310000  1.0 0.1186389113
H  H204  1  0.55040000  0.36730000  0.71770000  1.0 0.1186389113
H  H205  1  0.55040000  0.68310000  0.83270000  1.0 0.1186389113
H  H206  1  0.35040000  0.71770000  0.66730000  1.0 0.1186389113
H  H207  1  0.94960000  0.78230000  0.13270000  1.0 0.1186389113
H  H208  1  0.14960000  0.81690000  0.36730000  1.0 0.1186389113
H  H209  1  0.81690000  0.36730000  0.14960000  1.0 0.1186389113
H  H210  1  0.78230000  0.13270000  0.94960000  1.0 0.1186389113
H  H211  1  0.71770000  0.66730000  0.35040000  1.0 0.1186389113
H  H212  1  0.68310000  0.83270000  0.55040000  1.0 0.1186389113
H  H213  1  0.13270000  0.94960000  0.78230000  1.0 0.1186389113
H  H214  1  0.36730000  0.14960000  0.81690000  1.0 0.1186389113
H  H215  1  0.83270000  0.55040000  0.68310000  1.0 0.1186389113
H  H216  1  0.66730000  0.35040000  0.71770000  1.0 0.1186389113
H  H217  1  0.21770000  0.85040000  0.16730000  1.0 0.1186389113
H  H218  1  0.18310000  0.05040000  0.33270000  1.0 0.1186389113
H  H219  1  0.31690000  0.64960000  0.86730000  1.0 0.1186389113
H  H220  1  0.28230000  0.44960000  0.63270000  1.0 0.1186389113
H  H221  1  0.16730000  0.21770000  0.85040000  1.0 0.1186389113
H  H222  1  0.33270000  0.18310000  0.05040000  1.0 0.1186389113
H  H223  1  0.86730000  0.31690000  0.64960000  1.0 0.1186389113
H  H224  1  0.63270000  0.28230000  0.44960000  1.0 0.1186389113
H  H225  1  0.85040000  0.16730000  0.21770000  1.0 0.1186389113
H  H226  1  0.05040000  0.33270000  0.18310000  1.0 0.1186389113
H  H227  1  0.64960000  0.86730000  0.31690000  1.0 0.1186389113
H  H228  1  0.44960000  0.63270000  0.28230000  1.0 0.1186389113
H  H229  1  0.44960000  0.31690000  0.16730000  1.0 0.1186389113
H  H230  1  0.64960000  0.28230000  0.33270000  1.0 0.1186389113
H  H231  1  0.05040000  0.21770000  0.86730000  1.0 0.1186389113
H  H232  1  0.85040000  0.18310000  0.63270000  1.0 0.1186389113
H  H233  1  0.18310000  0.63270000  0.85040000  1.0 0.1186389113
H  H234  1  0.21770000  0.86730000  0.05040000  1.0 0.1186389113
H  H235  1  0.28230000  0.33270000  0.64960000  1.0 0.1186389113
H  H236  1  0.31690000  0.16730000  0.44960000  1.0 0.1186389113
H  H237  1  0.86730000  0.05040000  0.21770000  1.0 0.1186389113
H  H238  1  0.63270000  0.85040000  0.18310000  1.0 0.1186389113
H  H239  1  0.16730000  0.44960000  0.31690000  1.0 0.1186389113
H  H240  1  0.33270000  0.64960000  0.28230000  1.0 0.1186389113
H  H241  1  0.69990000  0.22890000  0.86660000  1.0 0.1186389113
H  H242  1  0.86230000  0.83330000  0.63340000  1.0 0.1186389113
H  H243  1  0.63770000  0.27110000  0.97100000  1.0 0.1186389113
H  H244  1  0.80010000  0.66666667  0.52900000  1.0 0.1186389113
H  H245  1  0.86660000  0.69990000  0.22890000  1.0 0.1186389113
H  H246  1  0.63340000  0.86230000  0.83330000  1.0 0.1186389113
H  H247  1  0.97100000  0.63770000  0.27110000  1.0 0.1186389113
H  H248  1  0.52900000  0.80010000  0.66666667  1.0 0.1186389113
H  H249  1  0.22890000  0.86660000  0.69990000  1.0 0.1186389113
H  H250  1  0.83330000  0.63340000  0.86230000  1.0 0.1186389113
H  H251  1  0.27110000  0.97100000  0.63770000  1.0 0.1186389113
H  H252  1  0.66666667  0.52900000  0.80010000  1.0 0.1186389113
H  H253  1  0.66666667  0.63770000  0.86660000  1.0 0.1186389113
H  H254  1  0.27110000  0.80010000  0.63340000  1.0 0.1186389113
H  H255  1  0.83330000  0.69990000  0.97100000  1.0 0.1186389113
H  H256  1  0.22890000  0.86230000  0.52900000  1.0 0.1186389113
H  H257  1  0.86230000  0.52900000  0.22890000  1.0 0.1186389113
H  H258  1  0.69990000  0.97100000  0.83330000  1.0 0.1186389113
H  H259  1  0.80010000  0.63340000  0.27110000  1.0 0.1186389113
H  H260  1  0.63770000  0.86660000  0.66666667  1.0 0.1186389113
H  H261  1  0.97100000  0.83330000  0.69990000  1.0 0.1186389113
H  H262  1  0.52900000  0.22890000  0.86230000  1.0 0.1186389113
H  H263  1  0.86660000  0.66666667  0.63770000  1.0 0.1186389113
H  H264  1  0.63340000  0.27110000  0.80010000  1.0 0.1186389113
H  H265  1  0.30010000  0.77110000  0.13340000  1.0 0.1186389113
H  H266  1  0.13770000  0.16670000  0.36660000  1.0 0.1186389113
H  H267  1  0.36230000  0.72890000  0.02900000  1.0 0.1186389113
H  H268  1  0.19990000  0.33333333  0.47100000  1.0 0.1186389113
H  H269  1  0.13340000  0.30010000  0.77110000  1.0 0.1186389113
H  H270  1  0.36660000  0.13770000  0.16670000  1.0 0.1186389113
H  H271  1  0.02900000  0.36230000  0.72890000  1.0 0.1186389113
H  H272  1  0.47100000  0.19990000  0.33333333  1.0 0.1186389113
H  H273  1  0.77110000  0.13340000  0.30010000  1.0 0.1186389113
H  H274  1  0.16670000  0.36660000  0.13770000  1.0 0.1186389113
H  H275  1  0.72890000  0.02900000  0.36230000  1.0 0.1186389113
H  H276  1  0.33333333  0.47100000  0.19990000  1.0 0.1186389113
H  H277  1  0.33333333  0.36230000  0.13340000  1.0 0.1186389113
H  H278  1  0.72890000  0.19990000  0.36660000  1.0 0.1186389113
H  H279  1  0.16670000  0.30010000  0.02900000  1.0 0.1186389113
H  H280  1  0.77110000  0.13770000  0.47100000  1.0 0.1186389113
H  H281  1  0.13770000  0.47100000  0.77110000  1.0 0.1186389113
H  H282  1  0.30010000  0.02900000  0.16670000  1.0 0.1186389113
H  H283  1  0.19990000  0.36660000  0.72890000  1.0 0.1186389113
H  H284  1  0.36230000  0.13340000  0.33333333  1.0 0.1186389113
H  H285  1  0.02900000  0.16670000  0.30010000  1.0 0.1186389113
H  H286  1  0.47100000  0.77110000  0.13770000  1.0 0.1186389113
H  H287  1  0.13340000  0.33333333  0.36230000  1.0 0.1186389113
H  H288  1  0.36660000  0.72890000  0.19990000  1.0 0.1186389113
H  H289  1  0.77040000  0.28420000  0.95600000  1.0 0.1269912396
H  H290  1  0.82820000  0.81440000  0.54400000  1.0 0.1269912396
H  H291  1  0.67180000  0.21580000  0.98620000  1.0 0.1269912396
H  H292  1  0.72960000  0.68560000  0.51380000  1.0 0.1269912396
H  H293  1  0.95600000  0.77040000  0.28420000  1.0 0.1269912396
H  H294  1  0.54400000  0.82820000  0.81440000  1.0 0.1269912396
H  H295  1  0.98620000  0.67180000  0.21580000  1.0 0.1269912396
H  H296  1  0.51380000  0.72960000  0.68560000  1.0 0.1269912396
H  H297  1  0.28420000  0.95600000  0.77040000  1.0 0.1269912396
H  H298  1  0.81440000  0.54400000  0.82820000  1.0 0.1269912396
H  H299  1  0.21580000  0.98620000  0.67180000  1.0 0.1269912396
H  H300  1  0.68560000  0.51380000  0.72960000  1.0 0.1269912396
H  H301  1  0.68560000  0.67180000  0.95600000  1.0 0.1269912396
H  H302  1  0.21580000  0.72960000  0.54400000  1.0 0.1269912396
H  H303  1  0.81440000  0.77040000  0.98620000  1.0 0.1269912396
H  H304  1  0.28420000  0.82820000  0.51380000  1.0 0.1269912396
H  H305  1  0.82820000  0.51380000  0.28420000  1.0 0.1269912396
H  H306  1  0.77040000  0.98620000  0.81440000  1.0 0.1269912396
H  H307  1  0.72960000  0.54400000  0.21580000  1.0 0.1269912396
H  H308  1  0.67180000  0.95600000  0.68560000  1.0 0.1269912396
H  H309  1  0.98620000  0.81440000  0.77040000  1.0 0.1269912396
H  H310  1  0.51380000  0.28420000  0.82820000  1.0 0.1269912396
H  H311  1  0.95600000  0.68560000  0.67180000  1.0 0.1269912396
H  H312  1  0.54400000  0.21580000  0.72960000  1.0 0.1269912396
H  H313  1  0.22960000  0.71580000  0.04400000  1.0 0.1269912396
H  H314  1  0.17180000  0.18560000  0.45600000  1.0 0.1269912396
H  H315  1  0.32820000  0.78420000  0.01380000  1.0 0.1269912396
H  H316  1  0.27040000  0.31440000  0.48620000  1.0 0.1269912396
H  H317  1  0.04400000  0.22960000  0.71580000  1.0 0.1269912396
H  H318  1  0.45600000  0.17180000  0.18560000  1.0 0.1269912396
H  H319  1  0.01380000  0.32820000  0.78420000  1.0 0.1269912396
H  H320  1  0.48620000  0.27040000  0.31440000  1.0 0.1269912396
H  H321  1  0.71580000  0.04400000  0.22960000  1.0 0.1269912396
H  H322  1  0.18560000  0.45600000  0.17180000  1.0 0.1269912396
H  H323  1  0.78420000  0.01380000  0.32820000  1.0 0.1269912396
H  H324  1  0.31440000  0.48620000  0.27040000  1.0 0.1269912396
H  H325  1  0.31440000  0.32820000  0.04400000  1.0 0.1269912396
H  H326  1  0.78420000  0.27040000  0.45600000  1.0 0.1269912396
H  H327  1  0.18560000  0.22960000  0.01380000  1.0 0.1269912396
H  H328  1  0.71580000  0.17180000  0.48620000  1.0 0.1269912396
H  H329  1  0.17180000  0.48620000  0.71580000  1.0 0.1269912396
H  H330  1  0.22960000  0.01380000  0.18560000  1.0 0.1269912396
H  H331  1  0.27040000  0.45600000  0.78420000  1.0 0.1269912396
H  H332  1  0.32820000  0.04400000  0.31440000  1.0 0.1269912396
H  H333  1  0.01380000  0.18560000  0.22960000  1.0 0.1269912396
H  H334  1  0.48620000  0.71580000  0.17180000  1.0 0.1269912396
H  H335  1  0.04400000  0.31440000  0.32820000  1.0 0.1269912396
H  H336  1  0.45600000  0.78420000  0.27040000  1.0 0.1269912396
H  H337  1  0.84550000  0.27240000  0.98430000  1.0 0.1093049845
H  H338  1  0.78810000  0.86120000  0.51570000  1.0 0.1093049845
H  H339  1  0.71190000  0.22760000  0.07310000  1.0 0.1093049845
H  H340  1  0.65450000  0.63880000  0.42690000  1.0 0.1093049845
H  H341  1  0.98430000  0.84550000  0.27240000  1.0 0.1093049845
H  H342  1  0.51570000  0.78810000  0.86120000  1.0 0.1093049845
H  H343  1  0.07310000  0.71190000  0.22760000  1.0 0.1093049845
H  H344  1  0.42690000  0.65450000  0.63880000  1.0 0.1093049845
H  H345  1  0.27240000  0.98430000  0.84550000  1.0 0.1093049845
H  H346  1  0.86120000  0.51570000  0.78810000  1.0 0.1093049845
H  H347  1  0.22760000  0.07310000  0.71190000  1.0 0.1093049845
H  H348  1  0.63880000  0.42690000  0.65450000  1.0 0.1093049845
H  H349  1  0.63880000  0.71190000  0.98430000  1.0 0.1093049845
H  H350  1  0.22760000  0.65450000  0.51570000  1.0 0.1093049845
H  H351  1  0.86120000  0.84550000  0.07310000  1.0 0.1093049845
H  H352  1  0.27240000  0.78810000  0.42690000  1.0 0.1093049845
H  H353  1  0.78810000  0.42690000  0.27240000  1.0 0.1093049845
H  H354  1  0.84550000  0.07310000  0.86120000  1.0 0.1093049845
H  H355  1  0.65450000  0.51570000  0.22760000  1.0 0.1093049845
H  H356  1  0.71190000  0.98430000  0.63880000  1.0 0.1093049845
H  H357  1  0.07310000  0.86120000  0.84550000  1.0 0.1093049845
H  H358  1  0.42690000  0.27240000  0.78810000  1.0 0.1093049845
H  H359  1  0.98430000  0.63880000  0.71190000  1.0 0.1093049845
H  H360  1  0.51570000  0.22760000  0.65450000  1.0 0.1093049845
H  H361  1  0.15450000  0.72760000  0.01570000  1.0 0.1093049845
H  H362  1  0.21190000  0.13880000  0.48430000  1.0 0.1093049845
H  H363  1  0.28810000  0.77240000  0.92690000  1.0 0.1093049845
H  H364  1  0.34550000  0.36120000  0.57310000  1.0 0.1093049845
H  H365  1  0.01570000  0.15450000  0.72760000  1.0 0.1093049845
H  H366  1  0.48430000  0.21190000  0.13880000  1.0 0.1093049845
H  H367  1  0.92690000  0.28810000  0.77240000  1.0 0.1093049845
H  H368  1  0.57310000  0.34550000  0.36120000  1.0 0.1093049845
H  H369  1  0.72760000  0.01570000  0.15450000  1.0 0.1093049845
H  H370  1  0.13880000  0.48430000  0.21190000  1.0 0.1093049845
H  H371  1  0.77240000  0.92690000  0.28810000  1.0 0.1093049845
H  H372  1  0.36120000  0.57310000  0.34550000  1.0 0.1093049845
H  H373  1  0.36120000  0.28810000  0.01570000  1.0 0.1093049845
H  H374  1  0.77240000  0.34550000  0.48430000  1.0 0.1093049845
H  H375  1  0.13880000  0.15450000  0.92690000  1.0 0.1093049845
H  H376  1  0.72760000  0.21190000  0.57310000  1.0 0.1093049845
H  H377  1  0.21190000  0.57310000  0.72760000  1.0 0.1093049845
H  H378  1  0.15450000  0.92690000  0.13880000  1.0 0.1093049845
H  H379  1  0.34550000  0.48430000  0.77240000  1.0 0.1093049845
H  H380  1  0.28810000  0.01570000  0.36120000  1.0 0.1093049845
H  H381  1  0.92690000  0.13880000  0.15450000  1.0 0.1093049845
H  H382  1  0.57310000  0.72760000  0.21190000  1.0 0.1093049845
H  H383  1  0.01570000  0.36120000  0.28810000  1.0 0.1093049845
H  H384  1  0.48430000  0.77240000  0.34550000  1.0 0.1093049845
H  H385  1  0.98790000  0.14560000  0.09890000  1.0 0.0866101685
H  H386  1  0.54670000  0.88900000  0.40110000  1.0 0.0866101685
H  H387  1  0.95330000  0.35440000  0.34230000  1.0 0.0866101685
H  H388  1  0.51210000  0.61100000  0.15770000  1.0 0.0866101685
H  H389  1  0.09890000  0.98790000  0.14560000  1.0 0.0866101685
H  H390  1  0.40110000  0.54670000  0.88900000  1.0 0.0866101685
H  H391  1  0.34230000  0.95330000  0.35440000  1.0 0.0866101685
H  H392  1  0.15770000  0.51210000  0.61100000  1.0 0.0866101685
H  H393  1  0.14560000  0.09890000  0.98790000  1.0 0.0866101685
H  H394  1  0.88900000  0.40110000  0.54670000  1.0 0.0866101685
H  H395  1  0.35440000  0.34230000  0.95330000  1.0 0.0866101685
H  H396  1  0.61100000  0.15770000  0.51210000  1.0 0.0866101685
H  H397  1  0.61100000  0.95330000  0.09890000  1.0 0.0866101685
H  H398  1  0.35440000  0.51210000  0.40110000  1.0 0.0866101685
H  H399  1  0.88900000  0.98790000  0.34230000  1.0 0.0866101685
H  H400  1  0.14560000  0.54670000  0.15770000  1.0 0.0866101685
H  H401  1  0.54670000  0.15770000  0.14560000  1.0 0.0866101685
H  H402  1  0.98790000  0.34230000  0.88900000  1.0 0.0866101685
H  H403  1  0.51210000  0.40110000  0.35440000  1.0 0.0866101685
H  H404  1  0.95330000  0.09890000  0.61100000  1.0 0.0866101685
H  H405  1  0.34230000  0.88900000  0.98790000  1.0 0.0866101685
H  H406  1  0.15770000  0.14560000  0.54670000  1.0 0.0866101685
H  H407  1  0.09890000  0.61100000  0.95330000  1.0 0.0866101685
H  H408  1  0.40110000  0.35440000  0.51210000  1.0 0.0866101685
H  H409  1  0.01210000  0.85440000  0.90110000  1.0 0.0866101685
H  H410  1  0.45330000  0.11100000  0.59890000  1.0 0.0866101685
H  H411  1  0.04670000  0.64560000  0.65770000  1.0 0.0866101685
H  H412  1  0.48790000  0.38900000  0.84230000  1.0 0.0866101685
H  H413  1  0.90110000  0.01210000  0.85440000  1.0 0.0866101685
H  H414  1  0.59890000  0.45330000  0.11100000  1.0 0.0866101685
H  H415  1  0.65770000  0.04670000  0.64560000  1.0 0.0866101685
H  H416  1  0.84230000  0.48790000  0.38900000  1.0 0.0866101685
H  H417  1  0.85440000  0.90110000  0.01210000  1.0 0.0866101685
H  H418  1  0.11100000  0.59890000  0.45330000  1.0 0.0866101685
H  H419  1  0.64560000  0.65770000  0.04670000  1.0 0.0866101685
H  H420  1  0.38900000  0.84230000  0.48790000  1.0 0.0866101685
H  H421  1  0.38900000  0.04670000  0.90110000  1.0 0.0866101685
H  H422  1  0.64560000  0.48790000  0.59890000  1.0 0.0866101685
H  H423  1  0.11100000  0.01210000  0.65770000  1.0 0.0866101685
H  H424  1  0.85440000  0.45330000  0.84230000  1.0 0.0866101685
H  H425  1  0.45330000  0.84230000  0.85440000  1.0 0.0866101685
H  H426  1  0.01210000  0.65770000  0.11100000  1.0 0.0866101685
H  H427  1  0.48790000  0.59890000  0.64560000  1.0 0.0866101685
H  H428  1  0.04670000  0.90110000  0.38900000  1.0 0.0866101685
H  H429  1  0.65770000  0.11100000  0.01210000  1.0 0.0866101685
H  H430  1  0.84230000  0.85440000  0.45330000  1.0 0.0866101685
H  H431  1  0.90110000  0.38900000  0.04670000  1.0 0.0866101685
H  H432  1  0.59890000  0.64560000  0.48790000  1.0 0.0866101685
H  H433  1  0.94540000  0.08570000  0.05190000  1.0 0.0371909547
H  H434  1  0.53380000  0.89350000  0.44810000  1.0 0.0371909547
H  H435  1  0.96620000  0.41430000  0.35970000  1.0 0.0371909547
H  H436  1  0.55460000  0.60650000  0.14030000  1.0 0.0371909547
H  H437  1  0.05190000  0.94540000  0.08570000  1.0 0.0371909547
H  H438  1  0.44810000  0.53380000  0.89350000  1.0 0.0371909547
H  H439  1  0.35970000  0.96620000  0.41430000  1.0 0.0371909547
H  H440  1  0.14030000  0.55460000  0.60650000  1.0 0.0371909547
H  H441  1  0.08570000  0.05190000  0.94540000  1.0 0.0371909547
H  H442  1  0.89350000  0.44810000  0.53380000  1.0 0.0371909547
H  H443  1  0.41430000  0.35970000  0.96620000  1.0 0.0371909547
H  H444  1  0.60650000  0.14030000  0.55460000  1.0 0.0371909547
H  H445  1  0.60650000  0.96620000  0.05190000  1.0 0.0371909547
H  H446  1  0.41430000  0.55460000  0.44810000  1.0 0.0371909547
H  H447  1  0.89350000  0.94540000  0.35970000  1.0 0.0371909547
H  H448  1  0.08570000  0.53380000  0.14030000  1.0 0.0371909547
H  H449  1  0.53380000  0.14030000  0.08570000  1.0 0.0371909547
H  H450  1  0.94540000  0.35970000  0.89350000  1.0 0.0371909547
H  H451  1  0.55460000  0.44810000  0.41430000  1.0 0.0371909547
H  H452  1  0.96620000  0.05190000  0.60650000  1.0 0.0371909547
H  H453  1  0.35970000  0.89350000  0.94540000  1.0 0.0371909547
H  H454  1  0.14030000  0.08570000  0.53380000  1.0 0.0371909547
H  H455  1  0.05190000  0.60650000  0.96620000  1.0 0.0371909547
H  H456  1  0.44810000  0.41430000  0.55460000  1.0 0.0371909547
H  H457  1  0.05460000  0.91430000  0.94810000  1.0 0.0371909547
H  H458  1  0.46620000  0.10650000  0.55190000  1.0 0.0371909547
H  H459  1  0.03380000  0.58570000  0.64030000  1.0 0.0371909547
H  H460  1  0.44540000  0.39350000  0.85970000  1.0 0.0371909547
H  H461  1  0.94810000  0.05460000  0.91430000  1.0 0.0371909547
H  H462  1  0.55190000  0.46620000  0.10650000  1.0 0.0371909547
H  H463  1  0.64030000  0.03380000  0.58570000  1.0 0.0371909547
H  H464  1  0.85970000  0.44540000  0.39350000  1.0 0.0371909547
H  H465  1  0.91430000  0.94810000  0.05460000  1.0 0.0371909547
H  H466  1  0.10650000  0.55190000  0.46620000  1.0 0.0371909547
H  H467  1  0.58570000  0.64030000  0.03380000  1.0 0.0371909547
H  H468  1  0.39350000  0.85970000  0.44540000  1.0 0.0371909547
H  H469  1  0.39350000  0.03380000  0.94810000  1.0 0.0371909547
H  H470  1  0.58570000  0.44540000  0.55190000  1.0 0.0371909547
H  H471  1  0.10650000  0.05460000  0.64030000  1.0 0.0371909547
H  H472  1  0.91430000  0.46620000  0.85970000  1.0 0.0371909547
H  H473  1  0.46620000  0.85970000  0.91430000  1.0 0.0371909547
H  H474  1  0.05460000  0.64030000  0.10650000  1.0 0.0371909547
H  H475  1  0.44540000  0.55190000  0.58570000  1.0 0.0371909547
H  H476  1  0.03380000  0.94810000  0.39350000  1.0 0.0371909547
H  H477  1  0.64030000  0.10650000  0.05460000  1.0 0.0371909547
H  H478  1  0.85970000  0.91430000  0.46620000  1.0 0.0371909547
H  H479  1  0.94810000  0.39350000  0.03380000  1.0 0.0371909547
H  H480  1  0.55190000  0.58570000  0.44540000  1.0 0.0371909547
H  H481  1  0.65340000  0.15150000  0.78630000  1.0 0.0786510936
H  H482  1  0.86520000  0.86710000  0.71370000  1.0 0.0786510936
H  H483  1  0.63480000  0.34850000  0.00190000  1.0 0.0786510936
H  H484  1  0.84660000  0.63290000  0.49810000  1.0 0.0786510936
H  H485  1  0.78630000  0.65340000  0.15150000  1.0 0.0786510936
H  H486  1  0.71370000  0.86520000  0.86710000  1.0 0.0786510936
H  H487  1  0.00190000  0.63480000  0.34850000  1.0 0.0786510936
H  H488  1  0.49810000  0.84660000  0.63290000  1.0 0.0786510936
H  H489  1  0.15150000  0.78630000  0.65340000  1.0 0.0786510936
H  H490  1  0.86710000  0.71370000  0.86520000  1.0 0.0786510936
H  H491  1  0.34850000  0.00190000  0.63480000  1.0 0.0786510936
H  H492  1  0.63290000  0.49810000  0.84660000  1.0 0.0786510936
H  H493  1  0.63290000  0.63480000  0.78630000  1.0 0.0786510936
H  H494  1  0.34850000  0.84660000  0.71370000  1.0 0.0786510936
H  H495  1  0.86710000  0.65340000  0.00190000  1.0 0.0786510936
H  H496  1  0.15150000  0.86520000  0.49810000  1.0 0.0786510936
H  H497  1  0.86520000  0.49810000  0.15150000  1.0 0.0786510936
H  H498  1  0.65340000  0.00190000  0.86710000  1.0 0.0786510936
H  H499  1  0.84660000  0.71370000  0.34850000  1.0 0.0786510936
H  H500  1  0.63480000  0.78630000  0.63290000  1.0 0.0786510936
H  H501  1  0.00190000  0.86710000  0.65340000  1.0 0.0786510936
H  H502  1  0.49810000  0.15150000  0.86520000  1.0 0.0786510936
H  H503  1  0.78630000  0.63290000  0.63480000  1.0 0.0786510936
H  H504  1  0.71370000  0.34850000  0.84660000  1.0 0.0786510936
H  H505  1  0.34660000  0.84850000  0.21370000  1.0 0.0786510936
H  H506  1  0.13480000  0.13290000  0.28630000  1.0 0.0786510936
H  H507  1  0.36520000  0.65150000  0.99810000  1.0 0.0786510936
H  H508  1  0.15340000  0.36710000  0.50190000  1.0 0.0786510936
H  H509  1  0.21370000  0.34660000  0.84850000  1.0 0.0786510936
H  H510  1  0.28630000  0.13480000  0.13290000  1.0 0.0786510936
H  H511  1  0.99810000  0.36520000  0.65150000  1.0 0.0786510936
H  H512  1  0.50190000  0.15340000  0.36710000  1.0 0.0786510936
H  H513  1  0.84850000  0.21370000  0.34660000  1.0 0.0786510936
H  H514  1  0.13290000  0.28630000  0.13480000  1.0 0.0786510936
H  H515  1  0.65150000  0.99810000  0.36520000  1.0 0.0786510936
H  H516  1  0.36710000  0.50190000  0.15340000  1.0 0.0786510936
H  H517  1  0.36710000  0.36520000  0.21370000  1.0 0.0786510936
H  H518  1  0.65150000  0.15340000  0.28630000  1.0 0.0786510936
H  H519  1  0.13290000  0.34660000  0.99810000  1.0 0.0786510936
H  H520  1  0.84850000  0.13480000  0.50190000  1.0 0.0786510936
H  H521  1  0.13480000  0.50190000  0.84850000  1.0 0.0786510936
H  H522  1  0.34660000  0.99810000  0.13290000  1.0 0.0786510936
H  H523  1  0.15340000  0.28630000  0.65150000  1.0 0.0786510936
H  H524  1  0.36520000  0.21370000  0.36710000  1.0 0.0786510936
H  H525  1  0.99810000  0.13290000  0.34660000  1.0 0.0786510936
H  H526  1  0.50190000  0.84850000  0.13480000  1.0 0.0786510936
H  H527  1  0.21370000  0.36710000  0.36520000  1.0 0.0786510936
H  H528  1  0.28630000  0.65150000  0.15340000  1.0 0.0786510936
H  H529  1  0.69310000  0.16290000  0.76080000  1.0 0.0786510936
H  H530  1  0.90210000  0.93230000  0.73920000  1.0 0.0786510936
H  H531  1  0.59790000  0.33710000  0.03020000  1.0 0.0786510936
H  H532  1  0.80690000  0.56770000  0.46980000  1.0 0.0786510936
H  H533  1  0.76080000  0.69310000  0.16290000  1.0 0.0786510936
H  H534  1  0.73920000  0.90210000  0.93230000  1.0 0.0786510936
H  H535  1  0.03020000  0.59790000  0.33710000  1.0 0.0786510936
H  H536  1  0.46980000  0.80690000  0.56770000  1.0 0.0786510936
H  H537  1  0.16290000  0.76080000  0.69310000  1.0 0.0786510936
H  H538  1  0.93230000  0.73920000  0.90210000  1.0 0.0786510936
H  H539  1  0.33710000  0.03020000  0.59790000  1.0 0.0786510936
H  H540  1  0.56770000  0.46980000  0.80690000  1.0 0.0786510936
H  H541  1  0.56770000  0.59790000  0.76080000  1.0 0.0786510936
H  H542  1  0.33710000  0.80690000  0.73920000  1.0 0.0786510936
H  H543  1  0.93230000  0.69310000  0.03020000  1.0 0.0786510936
H  H544  1  0.16290000  0.90210000  0.46980000  1.0 0.0786510936
H  H545  1  0.90210000  0.46980000  0.16290000  1.0 0.0786510936
H  H546  1  0.69310000  0.03020000  0.93230000  1.0 0.0786510936
H  H547  1  0.80690000  0.73920000  0.33710000  1.0 0.0786510936
H  H548  1  0.59790000  0.76080000  0.56770000  1.0 0.0786510936
H  H549  1  0.03020000  0.93230000  0.69310000  1.0 0.0786510936
H  H550  1  0.46980000  0.16290000  0.90210000  1.0 0.0786510936
H  H551  1  0.76080000  0.56770000  0.59790000  1.0 0.0786510936
H  H552  1  0.73920000  0.33710000  0.80690000  1.0 0.0786510936
H  H553  1  0.30690000  0.83710000  0.23920000  1.0 0.0786510936
H  H554  1  0.09790000  0.06770000  0.26080000  1.0 0.0786510936
H  H555  1  0.40210000  0.66290000  0.96980000  1.0 0.0786510936
H  H556  1  0.19310000  0.43230000  0.53020000  1.0 0.0786510936
H  H557  1  0.23920000  0.30690000  0.83710000  1.0 0.0786510936
H  H558  1  0.26080000  0.09790000  0.06770000  1.0 0.0786510936
H  H559  1  0.96980000  0.40210000  0.66290000  1.0 0.0786510936
H  H560  1  0.53020000  0.19310000  0.43230000  1.0 0.0786510936
H  H561  1  0.83710000  0.23920000  0.30690000  1.0 0.0786510936
H  H562  1  0.06770000  0.26080000  0.09790000  1.0 0.0786510936
H  H563  1  0.66290000  0.96980000  0.40210000  1.0 0.0786510936
H  H564  1  0.43230000  0.53020000  0.19310000  1.0 0.0786510936
H  H565  1  0.43230000  0.40210000  0.23920000  1.0 0.0786510936
H  H566  1  0.66290000  0.19310000  0.26080000  1.0 0.0786510936
H  H567  1  0.06770000  0.30690000  0.96980000  1.0 0.0786510936
H  H568  1  0.83710000  0.09790000  0.53020000  1.0 0.0786510936
H  H569  1  0.09790000  0.53020000  0.83710000  1.0 0.0786510936
H  H570  1  0.30690000  0.96980000  0.06770000  1.0 0.0786510936
H  H571  1  0.19310000  0.26080000  0.66290000  1.0 0.0786510936
H  H572  1  0.40210000  0.23920000  0.43230000  1.0 0.0786510936
H  H573  1  0.96980000  0.06770000  0.30690000  1.0 0.0786510936
H  H574  1  0.53020000  0.83710000  0.09790000  1.0 0.0786510936
H  H575  1  0.23920000  0.43230000  0.40210000  1.0 0.0786510936
H  H576  1  0.26080000  0.66290000  0.19310000  1.0 0.0786510936
H  H577  1  0.67100000  0.06240000  0.74940000  1.0 0.336062687
H  H578  1  0.81300000  0.92160000  0.75060000  1.0 0.336062687
H  H579  1  0.68700000  0.43760000  0.10860000  1.0 0.336062687
H  H580  1  0.82900000  0.57840000  0.39140000  1.0 0.336062687
H  H581  1  0.74940000  0.67100000  0.06240000  1.0 0.336062687
H  H582  1  0.75060000  0.81300000  0.92160000  1.0 0.336062687
H  H583  1  0.10860000  0.68700000  0.43760000  1.0 0.336062687
H  H584  1  0.39140000  0.82900000  0.57840000  1.0 0.336062687
H  H585  1  0.06240000  0.74940000  0.67100000  1.0 0.336062687
H  H586  1  0.92160000  0.75060000  0.81300000  1.0 0.336062687
H  H587  1  0.43760000  0.10860000  0.68700000  1.0 0.336062687
H  H588  1  0.57840000  0.39140000  0.82900000  1.0 0.336062687
H  H589  1  0.57840000  0.68700000  0.74940000  1.0 0.336062687
H  H590  1  0.43760000  0.82900000  0.75060000  1.0 0.336062687
H  H591  1  0.92160000  0.67100000  0.10860000  1.0 0.336062687
H  H592  1  0.06240000  0.81300000  0.39140000  1.0 0.336062687
H  H593  1  0.81300000  0.39140000  0.06240000  1.0 0.336062687
H  H594  1  0.67100000  0.10860000  0.92160000  1.0 0.336062687
H  H595  1  0.82900000  0.75060000  0.43760000  1.0 0.336062687
H  H596  1  0.68700000  0.74940000  0.57840000  1.0 0.336062687
H  H597  1  0.10860000  0.92160000  0.67100000  1.0 0.336062687
H  H598  1  0.39140000  0.06240000  0.81300000  1.0 0.336062687
H  H599  1  0.74940000  0.57840000  0.68700000  1.0 0.336062687
H  H600  1  0.75060000  0.43760000  0.82900000  1.0 0.336062687
H  H601  1  0.32900000  0.93760000  0.25060000  1.0 0.336062687
H  H602  1  0.18700000  0.07840000  0.24940000  1.0 0.336062687
H  H603  1  0.31300000  0.56240000  0.89140000  1.0 0.336062687
H  H604  1  0.17100000  0.42160000  0.60860000  1.0 0.336062687
H  H605  1  0.25060000  0.32900000  0.93760000  1.0 0.336062687
H  H606  1  0.24940000  0.18700000  0.07840000  1.0 0.336062687
H  H607  1  0.89140000  0.31300000  0.56240000  1.0 0.336062687
H  H608  1  0.60860000  0.17100000  0.42160000  1.0 0.336062687
H  H609  1  0.93760000  0.25060000  0.32900000  1.0 0.336062687
H  H610  1  0.07840000  0.24940000  0.18700000  1.0 0.336062687
H  H611  1  0.56240000  0.89140000  0.31300000  1.0 0.336062687
H  H612  1  0.42160000  0.60860000  0.17100000  1.0 0.336062687
H  H613  1  0.42160000  0.31300000  0.25060000  1.0 0.336062687
H  H614  1  0.56240000  0.17100000  0.24940000  1.0 0.336062687
H  H615  1  0.07840000  0.32900000  0.89140000  1.0 0.336062687
H  H616  1  0.93760000  0.18700000  0.60860000  1.0 0.336062687
H  H617  1  0.18700000  0.60860000  0.93760000  1.0 0.336062687
H  H618  1  0.32900000  0.89140000  0.07840000  1.0 0.336062687
H  H619  1  0.17100000  0.24940000  0.56240000  1.0 0.336062687
H  H620  1  0.31300000  0.25060000  0.42160000  1.0 0.336062687
H  H621  1  0.89140000  0.07840000  0.32900000  1.0 0.336062687
H  H622  1  0.60860000  0.93760000  0.18700000  1.0 0.336062687
H  H623  1  0.25060000  0.42160000  0.31300000  1.0 0.336062687
H  H624  1  0.24940000  0.56240000  0.17100000  1.0 0.336062687
H  H625  1  0.03300000  0.08010000  0.06910000  1.0 0.2426162324
H  H626  1  0.51100000  0.96390000  0.43090000  1.0 0.2426162324
H  H627  1  0.98900000  0.41990000  0.45290000  1.0 0.2426162324
H  H628  1  0.46700000  0.53610000  0.04710000  1.0 0.2426162324
H  H629  1  0.06910000  0.03300000  0.08010000  1.0 0.2426162324
H  H630  1  0.43090000  0.51100000  0.96390000  1.0 0.2426162324
H  H631  1  0.45290000  0.98900000  0.41990000  1.0 0.2426162324
H  H632  1  0.04710000  0.46700000  0.53610000  1.0 0.2426162324
H  H633  1  0.08010000  0.06910000  0.03300000  1.0 0.2426162324
H  H634  1  0.96390000  0.43090000  0.51100000  1.0 0.2426162324
H  H635  1  0.41990000  0.45290000  0.98900000  1.0 0.2426162324
H  H636  1  0.53610000  0.04710000  0.46700000  1.0 0.2426162324
H  H637  1  0.53610000  0.98900000  0.06910000  1.0 0.2426162324
H  H638  1  0.41990000  0.46700000  0.43090000  1.0 0.2426162324
H  H639  1  0.96390000  0.03300000  0.45290000  1.0 0.2426162324
H  H640  1  0.08010000  0.51100000  0.04710000  1.0 0.2426162324
H  H641  1  0.51100000  0.04710000  0.08010000  1.0 0.2426162324
H  H642  1  0.03300000  0.45290000  0.96390000  1.0 0.2426162324
H  H643  1  0.46700000  0.43090000  0.41990000  1.0 0.2426162324
H  H644  1  0.98900000  0.06910000  0.53610000  1.0 0.2426162324
H  H645  1  0.45290000  0.96390000  0.03300000  1.0 0.2426162324
H  H646  1  0.04710000  0.08010000  0.51100000  1.0 0.2426162324
H  H647  1  0.06910000  0.53610000  0.98900000  1.0 0.2426162324
H  H648  1  0.43090000  0.41990000  0.46700000  1.0 0.2426162324
H  H649  1  0.96700000  0.91990000  0.93090000  1.0 0.2426162324
H  H650  1  0.48900000  0.03610000  0.56910000  1.0 0.2426162324
H  H651  1  0.01100000  0.58010000  0.54710000  1.0 0.2426162324
H  H652  1  0.53300000  0.46390000  0.95290000  1.0 0.2426162324
H  H653  1  0.93090000  0.96700000  0.91990000  1.0 0.2426162324
H  H654  1  0.56910000  0.48900000  0.03610000  1.0 0.2426162324
H  H655  1  0.54710000  0.01100000  0.58010000  1.0 0.2426162324
H  H656  1  0.95290000  0.53300000  0.46390000  1.0 0.2426162324
H  H657  1  0.91990000  0.93090000  0.96700000  1.0 0.2426162324
H  H658  1  0.03610000  0.56910000  0.48900000  1.0 0.2426162324
H  H659  1  0.58010000  0.54710000  0.01100000  1.0 0.2426162324
H  H660  1  0.46390000  0.95290000  0.53300000  1.0 0.2426162324
H  H661  1  0.46390000  0.01100000  0.93090000  1.0 0.2426162324
H  H662  1  0.58010000  0.53300000  0.56910000  1.0 0.2426162324
H  H663  1  0.03610000  0.96700000  0.54710000  1.0 0.2426162324
H  H664  1  0.91990000  0.48900000  0.95290000  1.0 0.2426162324
H  H665  1  0.48900000  0.95290000  0.91990000  1.0 0.2426162324
H  H666  1  0.96700000  0.54710000  0.03610000  1.0 0.2426162324
H  H667  1  0.53300000  0.56910000  0.58010000  1.0 0.2426162324
H  H668  1  0.01100000  0.93090000  0.46390000  1.0 0.2426162324
H  H669  1  0.54710000  0.03610000  0.96700000  1.0 0.2426162324
H  H670  1  0.95290000  0.91990000  0.48900000  1.0 0.2426162324
H  H671  1  0.93090000  0.46390000  0.01100000  1.0 0.2426162324
H  H672  1  0.56910000  0.58010000  0.53300000  1.0 0.2426162324
H  H673  1  0.94510000  0.10320000  0.06290000  1.0 0.0336057214
H  H674  1  0.54030000  0.88220000  0.43710000  1.0 0.0336057214
H  H675  1  0.95970000  0.39680000  0.34190000  1.0 0.0336057214
H  H676  1  0.55490000  0.61780000  0.15810000  1.0 0.0336057214
H  H677  1  0.06290000  0.94510000  0.10320000  1.0 0.0336057214
H  H678  1  0.43710000  0.54030000  0.88220000  1.0 0.0336057214
H  H679  1  0.34190000  0.95970000  0.39680000  1.0 0.0336057214
H  H680  1  0.15810000  0.55490000  0.61780000  1.0 0.0336057214
H  H681  1  0.10320000  0.06290000  0.94510000  1.0 0.0336057214
H  H682  1  0.88220000  0.43710000  0.54030000  1.0 0.0336057214
H  H683  1  0.39680000  0.34190000  0.95970000  1.0 0.0336057214
H  H684  1  0.61780000  0.15810000  0.55490000  1.0 0.0336057214
H  H685  1  0.61780000  0.95970000  0.06290000  1.0 0.0336057214
H  H686  1  0.39680000  0.55490000  0.43710000  1.0 0.0336057214
H  H687  1  0.88220000  0.94510000  0.34190000  1.0 0.0336057214
H  H688  1  0.10320000  0.54030000  0.15810000  1.0 0.0336057214
H  H689  1  0.54030000  0.15810000  0.10320000  1.0 0.0336057214
H  H690  1  0.94510000  0.34190000  0.88220000  1.0 0.0336057214
H  H691  1  0.55490000  0.43710000  0.39680000  1.0 0.0336057214
H  H692  1  0.95970000  0.06290000  0.61780000  1.0 0.0336057214
H  H693  1  0.34190000  0.88220000  0.94510000  1.0 0.0336057214
H  H694  1  0.15810000  0.10320000  0.54030000  1.0 0.0336057214
H  H695  1  0.06290000  0.61780000  0.95970000  1.0 0.0336057214
H  H696  1  0.43710000  0.39680000  0.55490000  1.0 0.0336057214
H  H697  1  0.05490000  0.89680000  0.93710000  1.0 0.0336057214
H  H698  1  0.45970000  0.11780000  0.56290000  1.0 0.0336057214
H  H699  1  0.04030000  0.60320000  0.65810000  1.0 0.0336057214
H  H700  1  0.44510000  0.38220000  0.84190000  1.0 0.0336057214
H  H701  1  0.93710000  0.05490000  0.89680000  1.0 0.0336057214
H  H702  1  0.56290000  0.45970000  0.11780000  1.0 0.0336057214
H  H703  1  0.65810000  0.04030000  0.60320000  1.0 0.0336057214
H  H704  1  0.84190000  0.44510000  0.38220000  1.0 0.0336057214
H  H705  1  0.89680000  0.93710000  0.05490000  1.0 0.0336057214
H  H706  1  0.11780000  0.56290000  0.45970000  1.0 0.0336057214
H  H707  1  0.60320000  0.65810000  0.04030000  1.0 0.0336057214
H  H708  1  0.38220000  0.84190000  0.44510000  1.0 0.0336057214
H  H709  1  0.38220000  0.04030000  0.93710000  1.0 0.0336057214
H  H710  1  0.60320000  0.44510000  0.56290000  1.0 0.0336057214
H  H711  1  0.11780000  0.05490000  0.65810000  1.0 0.0336057214
H  H712  1  0.89680000  0.45970000  0.84190000  1.0 0.0336057214
H  H713  1  0.45970000  0.84190000  0.89680000  1.0 0.0336057214
H  H714  1  0.05490000  0.65810000  0.11780000  1.0 0.0336057214
H  H715  1  0.44510000  0.56290000  0.60320000  1.0 0.0336057214
H  H716  1  0.04030000  0.93710000  0.38220000  1.0 0.0336057214
H  H717  1  0.65810000  0.11780000  0.05490000  1.0 0.0336057214
H  H718  1  0.84190000  0.89680000  0.45970000  1.0 0.0336057214
H  H719  1  0.93710000  0.38220000  0.04030000  1.0 0.0336057214
H  H720  1  0.56290000  0.60320000  0.44510000  1.0 0.0336057214
H  H721  1  0.98740000  0.08560000  0.05860000  1.0 0.1027175845
H  H722  1  0.52700000  0.92880000  0.44140000  1.0 0.1027175845
H  H723  1  0.97300000  0.41440000  0.40180000  1.0 0.1027175845
H  H724  1  0.51260000  0.57120000  0.09820000  1.0 0.1027175845
H  H725  1  0.05860000  0.98740000  0.08560000  1.0 0.1027175845
H  H726  1  0.44140000  0.52700000  0.92880000  1.0 0.1027175845
H  H727  1  0.40180000  0.97300000  0.41440000  1.0 0.1027175845
H  H728  1  0.09820000  0.51260000  0.57120000  1.0 0.1027175845
H  H729  1  0.08560000  0.05860000  0.98740000  1.0 0.1027175845
H  H730  1  0.92880000  0.44140000  0.52700000  1.0 0.1027175845
H  H731  1  0.41440000  0.40180000  0.97300000  1.0 0.1027175845
H  H732  1  0.57120000  0.09820000  0.51260000  1.0 0.1027175845
H  H733  1  0.57120000  0.97300000  0.05860000  1.0 0.1027175845
H  H734  1  0.41440000  0.51260000  0.44140000  1.0 0.1027175845
H  H735  1  0.92880000  0.98740000  0.40180000  1.0 0.1027175845
H  H736  1  0.08560000  0.52700000  0.09820000  1.0 0.1027175845
H  H737  1  0.52700000  0.09820000  0.08560000  1.0 0.1027175845
H  H738  1  0.98740000  0.40180000  0.92880000  1.0 0.1027175845
H  H739  1  0.51260000  0.44140000  0.41440000  1.0 0.1027175845
H  H740  1  0.97300000  0.05860000  0.57120000  1.0 0.1027175845
H  H741  1  0.40180000  0.92880000  0.98740000  1.0 0.1027175845
H  H742  1  0.09820000  0.08560000  0.52700000  1.0 0.1027175845
H  H743  1  0.05860000  0.57120000  0.97300000  1.0 0.1027175845
H  H744  1  0.44140000  0.41440000  0.51260000  1.0 0.1027175845
H  H745  1  0.01260000  0.91440000  0.94140000  1.0 0.1027175845
H  H746  1  0.47300000  0.07120000  0.55860000  1.0 0.1027175845
H  H747  1  0.02700000  0.58560000  0.59820000  1.0 0.1027175845
H  H748  1  0.48740000  0.42880000  0.90180000  1.0 0.1027175845
H  H749  1  0.94140000  0.01260000  0.91440000  1.0 0.1027175845
H  H750  1  0.55860000  0.47300000  0.07120000  1.0 0.1027175845
H  H751  1  0.59820000  0.02700000  0.58560000  1.0 0.1027175845
H  H752  1  0.90180000  0.48740000  0.42880000  1.0 0.1027175845
H  H753  1  0.91440000  0.94140000  0.01260000  1.0 0.1027175845
H  H754  1  0.07120000  0.55860000  0.47300000  1.0 0.1027175845
H  H755  1  0.58560000  0.59820000  0.02700000  1.0 0.1027175845
H  H756  1  0.42880000  0.90180000  0.48740000  1.0 0.1027175845
H  H757  1  0.42880000  0.02700000  0.94140000  1.0 0.1027175845
H  H758  1  0.58560000  0.48740000  0.55860000  1.0 0.1027175845
H  H759  1  0.07120000  0.01260000  0.59820000  1.0 0.1027175845
H  H760  1  0.91440000  0.47300000  0.90180000  1.0 0.1027175845
H  H761  1  0.47300000  0.90180000  0.91440000  1.0 0.1027175845
H  H762  1  0.01260000  0.59820000  0.07120000  1.0 0.1027175845
H  H763  1  0.48740000  0.55860000  0.58560000  1.0 0.1027175845
H  H764  1  0.02700000  0.94140000  0.42880000  1.0 0.1027175845
H  H765  1  0.59820000  0.07120000  0.01260000  1.0 0.1027175845
H  H766  1  0.90180000  0.91440000  0.47300000  1.0 0.1027175845
H  H767  1  0.94140000  0.42880000  0.02700000  1.0 0.1027175845
H  H768  1  0.55860000  0.58560000  0.48740000  1.0 0.1027175845
H  H769  1  0.66260000  0.15850000  0.77410000  1.0 0.0720937474
H  H770  1  0.88440000  0.88850000  0.72590000  1.0 0.0720937474
H  H771  1  0.61560000  0.34150000  0.00410000  1.0 0.0720937474
H  H772  1  0.83740000  0.61150000  0.49590000  1.0 0.0720937474
H  H773  1  0.77410000  0.66260000  0.15850000  1.0 0.0720937474
H  H774  1  0.72590000  0.88440000  0.88850000  1.0 0.0720937474
H  H775  1  0.00410000  0.61560000  0.34150000  1.0 0.0720937474
H  H776  1  0.49590000  0.83740000  0.61150000  1.0 0.0720937474
H  H777  1  0.15850000  0.77410000  0.66260000  1.0 0.0720937474
H  H778  1  0.88850000  0.72590000  0.88440000  1.0 0.0720937474
H  H779  1  0.34150000  0.00410000  0.61560000  1.0 0.0720937474
H  H780  1  0.61150000  0.49590000  0.83740000  1.0 0.0720937474
H  H781  1  0.61150000  0.61560000  0.77410000  1.0 0.0720937474
H  H782  1  0.34150000  0.83740000  0.72590000  1.0 0.0720937474
H  H783  1  0.88850000  0.66260000  0.00410000  1.0 0.0720937474
H  H784  1  0.15850000  0.88440000  0.49590000  1.0 0.0720937474
H  H785  1  0.88440000  0.49590000  0.15850000  1.0 0.0720937474
H  H786  1  0.66260000  0.00410000  0.88850000  1.0 0.0720937474
H  H787  1  0.83740000  0.72590000  0.34150000  1.0 0.0720937474
H  H788  1  0.61560000  0.77410000  0.61150000  1.0 0.0720937474
H  H789  1  0.00410000  0.88850000  0.66260000  1.0 0.0720937474
H  H790  1  0.49590000  0.15850000  0.88440000  1.0 0.0720937474
H  H791  1  0.77410000  0.61150000  0.61560000  1.0 0.0720937474
H  H792  1  0.72590000  0.34150000  0.83740000  1.0 0.0720937474
H  H793  1  0.33740000  0.84150000  0.22590000  1.0 0.0720937474
H  H794  1  0.11560000  0.11150000  0.27410000  1.0 0.0720937474
H  H795  1  0.38440000  0.65850000  0.99590000  1.0 0.0720937474
H  H796  1  0.16260000  0.38850000  0.50410000  1.0 0.0720937474
H  H797  1  0.22590000  0.33740000  0.84150000  1.0 0.0720937474
H  H798  1  0.27410000  0.11560000  0.11150000  1.0 0.0720937474
H  H799  1  0.99590000  0.38440000  0.65850000  1.0 0.0720937474
H  H800  1  0.50410000  0.16260000  0.38850000  1.0 0.0720937474
H  H801  1  0.84150000  0.22590000  0.33740000  1.0 0.0720937474
H  H802  1  0.11150000  0.27410000  0.11560000  1.0 0.0720937474
H  H803  1  0.65850000  0.99590000  0.38440000  1.0 0.0720937474
H  H804  1  0.38850000  0.50410000  0.16260000  1.0 0.0720937474
H  H805  1  0.38850000  0.38440000  0.22590000  1.0 0.0720937474
H  H806  1  0.65850000  0.16260000  0.27410000  1.0 0.0720937474
H  H807  1  0.11150000  0.33740000  0.99590000  1.0 0.0720937474
H  H808  1  0.84150000  0.11560000  0.50410000  1.0 0.0720937474
H  H809  1  0.11560000  0.50410000  0.84150000  1.0 0.0720937474
H  H810  1  0.33740000  0.99590000  0.11150000  1.0 0.0720937474
H  H811  1  0.16260000  0.27410000  0.65850000  1.0 0.0720937474
H  H812  1  0.38440000  0.22590000  0.38850000  1.0 0.0720937474
H  H813  1  0.99590000  0.11150000  0.33740000  1.0 0.0720937474
H  H814  1  0.50410000  0.84150000  0.11560000  1.0 0.0720937474
H  H815  1  0.22590000  0.38850000  0.38440000  1.0 0.0720937474
H  H816  1  0.27410000  0.65850000  0.16260000  1.0 0.0720937474
H  H817  1  0.71150000  0.16140000  0.76090000  1.0 0.0786510936
H  H818  1  0.90050000  0.95060000  0.73910000  1.0 0.0786510936
H  H819  1  0.59950000  0.33860000  0.05010000  1.0 0.0786510936
H  H820  1  0.78850000  0.54940000  0.44990000  1.0 0.0786510936
H  H821  1  0.76090000  0.71150000  0.16140000  1.0 0.0786510936
H  H822  1  0.73910000  0.90050000  0.95060000  1.0 0.0786510936
H  H823  1  0.05010000  0.59950000  0.33860000  1.0 0.0786510936
H  H824  1  0.44990000  0.78850000  0.54940000  1.0 0.0786510936
H  H825  1  0.16140000  0.76090000  0.71150000  1.0 0.0786510936
H  H826  1  0.95060000  0.73910000  0.90050000  1.0 0.0786510936
H  H827  1  0.33860000  0.05010000  0.59950000  1.0 0.0786510936
H  H828  1  0.54940000  0.44990000  0.78850000  1.0 0.0786510936
H  H829  1  0.54940000  0.59950000  0.76090000  1.0 0.0786510936
H  H830  1  0.33860000  0.78850000  0.73910000  1.0 0.0786510936
H  H831  1  0.95060000  0.71150000  0.05010000  1.0 0.0786510936
H  H832  1  0.16140000  0.90050000  0.44990000  1.0 0.0786510936
H  H833  1  0.90050000  0.44990000  0.16140000  1.0 0.0786510936
H  H834  1  0.71150000  0.05010000  0.95060000  1.0 0.0786510936
H  H835  1  0.78850000  0.73910000  0.33860000  1.0 0.0786510936
H  H836  1  0.59950000  0.76090000  0.54940000  1.0 0.0786510936
H  H837  1  0.05010000  0.95060000  0.71150000  1.0 0.0786510936
H  H838  1  0.44990000  0.16140000  0.90050000  1.0 0.0786510936
H  H839  1  0.76090000  0.54940000  0.59950000  1.0 0.0786510936
H  H840  1  0.73910000  0.33860000  0.78850000  1.0 0.0786510936
H  H841  1  0.28850000  0.83860000  0.23910000  1.0 0.0786510936
H  H842  1  0.09950000  0.04940000  0.26090000  1.0 0.0786510936
H  H843  1  0.40050000  0.66140000  0.94990000  1.0 0.0786510936
H  H844  1  0.21150000  0.45060000  0.55010000  1.0 0.0786510936
H  H845  1  0.23910000  0.28850000  0.83860000  1.0 0.0786510936
H  H846  1  0.26090000  0.09950000  0.04940000  1.0 0.0786510936
H  H847  1  0.94990000  0.40050000  0.66140000  1.0 0.0786510936
H  H848  1  0.55010000  0.21150000  0.45060000  1.0 0.0786510936
H  H849  1  0.83860000  0.23910000  0.28850000  1.0 0.0786510936
H  H850  1  0.04940000  0.26090000  0.09950000  1.0 0.0786510936
H  H851  1  0.66140000  0.94990000  0.40050000  1.0 0.0786510936
H  H852  1  0.45060000  0.55010000  0.21150000  1.0 0.0786510936
H  H853  1  0.45060000  0.40050000  0.23910000  1.0 0.0786510936
H  H854  1  0.66140000  0.21150000  0.26090000  1.0 0.0786510936
H  H855  1  0.04940000  0.28850000  0.94990000  1.0 0.0786510936
H  H856  1  0.83860000  0.09950000  0.55010000  1.0 0.0786510936
H  H857  1  0.09950000  0.55010000  0.83860000  1.0 0.0786510936
H  H858  1  0.28850000  0.94990000  0.04940000  1.0 0.0786510936
H  H859  1  0.21150000  0.26090000  0.66140000  1.0 0.0786510936
H  H860  1  0.40050000  0.23910000  0.45060000  1.0 0.0786510936
H  H861  1  0.94990000  0.04940000  0.28850000  1.0 0.0786510936
H  H862  1  0.55010000  0.83860000  0.09950000  1.0 0.0786510936
H  H863  1  0.23910000  0.45060000  0.40050000  1.0 0.0786510936
H  H864  1  0.26090000  0.66140000  0.21150000  1.0 0.0786510936
H  H865  1  0.00530000  0.16070000  0.13980000  1.0 0.2337801704
H  H866  1  0.52090000  0.86550000  0.36020000  1.0 0.2337801704
H  H867  1  0.97910000  0.33930000  0.34460000  1.0 0.2337801704
H  H868  1  0.49470000  0.63450000  0.15540000  1.0 0.2337801704
H  H869  1  0.13980000  0.00530000  0.16070000  1.0 0.2337801704
H  H870  1  0.36020000  0.52090000  0.86550000  1.0 0.2337801704
H  H871  1  0.34460000  0.97910000  0.33930000  1.0 0.2337801704
H  H872  1  0.15540000  0.49470000  0.63450000  1.0 0.2337801704
H  H873  1  0.16070000  0.13980000  0.00530000  1.0 0.2337801704
H  H874  1  0.86550000  0.36020000  0.52090000  1.0 0.2337801704
H  H875  1  0.33930000  0.34460000  0.97910000  1.0 0.2337801704
H  H876  1  0.63450000  0.15540000  0.49470000  1.0 0.2337801704
H  H877  1  0.63450000  0.97910000  0.13980000  1.0 0.2337801704
H  H878  1  0.33930000  0.49470000  0.36020000  1.0 0.2337801704
H  H879  1  0.86550000  0.00530000  0.34460000  1.0 0.2337801704
H  H880  1  0.16070000  0.52090000  0.15540000  1.0 0.2337801704
H  H881  1  0.52090000  0.15540000  0.16070000  1.0 0.2337801704
H  H882  1  0.00530000  0.34460000  0.86550000  1.0 0.2337801704
H  H883  1  0.49470000  0.36020000  0.33930000  1.0 0.2337801704
H  H884  1  0.97910000  0.13980000  0.63450000  1.0 0.2337801704
H  H885  1  0.34460000  0.86550000  0.00530000  1.0 0.2337801704
H  H886  1  0.15540000  0.16070000  0.52090000  1.0 0.2337801704
H  H887  1  0.13980000  0.63450000  0.97910000  1.0 0.2337801704
H  H888  1  0.36020000  0.33930000  0.49470000  1.0 0.2337801704
H  H889  1  0.99470000  0.83930000  0.86020000  1.0 0.2337801704
H  H890  1  0.47910000  0.13450000  0.63980000  1.0 0.2337801704
H  H891  1  0.02090000  0.66070000  0.65540000  1.0 0.2337801704
H  H892  1  0.50530000  0.36550000  0.84460000  1.0 0.2337801704
H  H893  1  0.86020000  0.99470000  0.83930000  1.0 0.2337801704
H  H894  1  0.63980000  0.47910000  0.13450000  1.0 0.2337801704
H  H895  1  0.65540000  0.02090000  0.66070000  1.0 0.2337801704
H  H896  1  0.84460000  0.50530000  0.36550000  1.0 0.2337801704
H  H897  1  0.83930000  0.86020000  0.99470000  1.0 0.2337801704
H  H898  1  0.13450000  0.63980000  0.47910000  1.0 0.2337801704
H  H899  1  0.66070000  0.65540000  0.02090000  1.0 0.2337801704
H  H900  1  0.36550000  0.84460000  0.50530000  1.0 0.2337801704
H  H901  1  0.36550000  0.02090000  0.86020000  1.0 0.2337801704
H  H902  1  0.66070000  0.50530000  0.63980000  1.0 0.2337801704
H  H903  1  0.13450000  0.99470000  0.65540000  1.0 0.2337801704
H  H904  1  0.83930000  0.47910000  0.84460000  1.0 0.2337801704
H  H905  1  0.47910000  0.84460000  0.83930000  1.0 0.2337801704
H  H906  1  0.99470000  0.65540000  0.13450000  1.0 0.2337801704
H  H907  1  0.50530000  0.63980000  0.66070000  1.0 0.2337801704
H  H908  1  0.02090000  0.86020000  0.36550000  1.0 0.2337801704
H  H909  1  0.65540000  0.13450000  0.99470000  1.0 0.2337801704
H  H910  1  0.84460000  0.83930000  0.47910000  1.0 0.2337801704
H  H911  1  0.86020000  0.36550000  0.02090000  1.0 0.2337801704
H  H912  1  0.63980000  0.66070000  0.50530000  1.0 0.2337801704
W  W1  1  0.87500000  0.12500000  0.75000000  1.0 0.3884575565
W  W2  1  0.62500000  0.37500000  0.25000000  1.0 0.3884575565
W  W3  1  0.75000000  0.87500000  0.12500000  1.0 0.3884575565
W  W4  1  0.25000000  0.62500000  0.37500000  1.0 0.3838943714
W  W5  1  0.12500000  0.75000000  0.87500000  1.0 0.3838943714
W  W6  1  0.37500000  0.25000000  0.62500000  1.0 0.3884575565
W  W7  1  0.37500000  0.62500000  0.75000000  1.0 0.3884575565
W  W8  1  0.12500000  0.87500000  0.25000000  1.0 0.3838943714
W  W9  1  0.87500000  0.25000000  0.12500000  1.0 0.3967612956
W  W10  1  0.62500000  0.75000000  0.37500000  1.0 0.3884575565
W  W11  1  0.25000000  0.12500000  0.87500000  1.0 0.3884575565
W  W12  1  0.75000000  0.37500000  0.62500000  1.0 0.3884575565
C  C1  1  0.79110000  0.09350000  0.73560000  1.0 0.0041042267
C  C2  1  0.85790000  0.05550000  0.76440000  1.0 0.0041042267
C  C3  1  0.64210000  0.40650000  0.19760000  1.0 0.0129291734
C  C4  1  0.70890000  0.44450000  0.30240000  1.0 0.0041042267
C  C5  1  0.73560000  0.79110000  0.09350000  1.0 0.0041042267
C  C6  1  0.76440000  0.85790000  0.05550000  1.0 0.0129291734
C  C7  1  0.19760000  0.64210000  0.40650000  1.0 0.0041042267
C  C8  1  0.30240000  0.70890000  0.44450000  1.0 0.0041042267
C  C9  1  0.09350000  0.73560000  0.79110000  1.0 0.0041042267
C  C10  1  0.05550000  0.76440000  0.85790000  1.0 0.0041042267
C  C11  1  0.40650000  0.19760000  0.64210000  1.0 0.0041042267
C  C12  1  0.44450000  0.30240000  0.70890000  1.0 0.0041042267
C  C13  1  0.44450000  0.64210000  0.73560000  1.0 0.0041042267
C  C14  1  0.40650000  0.70890000  0.76440000  1.0 0.0041042267
C  C15  1  0.05550000  0.79110000  0.19760000  1.0 0.0129291734
C  C16  1  0.09350000  0.85790000  0.30240000  1.0 0.0041042267
C  C17  1  0.85790000  0.30240000  0.09350000  1.0 0.0041042267
C  C18  1  0.79110000  0.19760000  0.05550000  1.0 0.0041042267
C  C19  1  0.70890000  0.76440000  0.40650000  1.0 0.0129291734
C  C20  1  0.64210000  0.73560000  0.44450000  1.0 0.0041042267
C  C21  1  0.19760000  0.05550000  0.79110000  1.0 0.0041042267
C  C22  1  0.30240000  0.09350000  0.85790000  1.0 0.0041042267
C  C23  1  0.73560000  0.44450000  0.64210000  1.0 0.0041042267
C  C24  1  0.76440000  0.40650000  0.70890000  1.0 0.0041042267
C  C25  1  0.20890000  0.90650000  0.26440000  1.0 0.0041042267
C  C26  1  0.14210000  0.94450000  0.23560000  1.0 0.0129291734
C  C27  1  0.35790000  0.59350000  0.80240000  1.0 0.0041042267
C  C28  1  0.29110000  0.55550000  0.69760000  1.0 0.0041042267
C  C29  1  0.26440000  0.20890000  0.90650000  1.0 0.0041042267
C  C30  1  0.23560000  0.14210000  0.94450000  1.0 0.0041042267
C  C31  1  0.80240000  0.35790000  0.59350000  1.0 0.0041042267
C  C32  1  0.69760000  0.29110000  0.55550000  1.0 0.0041042267
C  C33  1  0.90650000  0.26440000  0.20890000  1.0 0.0041042267
C  C34  1  0.94450000  0.23560000  0.14210000  1.0 0.0041042267
C  C35  1  0.59350000  0.80240000  0.35790000  1.0 0.0041042267
C  C36  1  0.55550000  0.69760000  0.29110000  1.0 0.0041042267
C  C37  1  0.55550000  0.35790000  0.26440000  1.0 0.0129291734
C  C38  1  0.59350000  0.29110000  0.23560000  1.0 0.0041042267
C  C39  1  0.94450000  0.20890000  0.80240000  1.0 0.0041042267
C  C40  1  0.90650000  0.14210000  0.69760000  1.0 0.0041042267
C  C41  1  0.14210000  0.69760000  0.90650000  1.0 0.0041042267
C  C42  1  0.20890000  0.80240000  0.94450000  1.0 0.0041042267
C  C43  1  0.29110000  0.23560000  0.59350000  1.0 0.0041042267
C  C44  1  0.35790000  0.26440000  0.55550000  1.0 0.0041042267
C  C45  1  0.80240000  0.94450000  0.20890000  1.0 0.0129291734
C  C46  1  0.69760000  0.90650000  0.14210000  1.0 0.0129291734
C  C47  1  0.26440000  0.55550000  0.35790000  1.0 0.0041042267
C  C48  1  0.23560000  0.59350000  0.29110000  1.0 0.0041042267
C  C49  1  0.88280000  0.15660000  0.83040000  1.0 0.0174340568
C  C50  1  0.82620000  0.05240000  0.66960000  1.0 0.0174340568
C  C51  1  0.67380000  0.34340000  0.22620000  1.0 0.0174340568
C  C52  1  0.61720000  0.44760000  0.27380000  1.0 0.0174340568
C  C53  1  0.83040000  0.88280000  0.15660000  1.0 0.0174340568
C  C54  1  0.66960000  0.82620000  0.05240000  1.0 0.0174340568
C  C55  1  0.22620000  0.67380000  0.34340000  1.0 0.0174340568
C  C56  1  0.27380000  0.61720000  0.44760000  1.0 0.0174340568
C  C57  1  0.15660000  0.83040000  0.88280000  1.0 0.0174340568
C  C58  1  0.05240000  0.66960000  0.82620000  1.0 0.0174340568
C  C59  1  0.34340000  0.22620000  0.67380000  1.0 0.0174340568
C  C60  1  0.44760000  0.27380000  0.61720000  1.0 0.0174340568
C  C61  1  0.44760000  0.67380000  0.83040000  1.0 0.0174340568
C  C62  1  0.34340000  0.61720000  0.66960000  1.0 0.0174340568
C  C63  1  0.05240000  0.88280000  0.22620000  1.0 0.0174340568
C  C64  1  0.15660000  0.82620000  0.27380000  1.0 0.0174340568
C  C65  1  0.82620000  0.27380000  0.15660000  1.0 0.0174340568
C  C66  1  0.88280000  0.22620000  0.05240000  1.0 0.0174340568
C  C67  1  0.61720000  0.66960000  0.34340000  1.0 0.0174340568
C  C68  1  0.67380000  0.83040000  0.44760000  1.0 0.0174340568
C  C69  1  0.22620000  0.05240000  0.88280000  1.0 0.0174340568
C  C70  1  0.27380000  0.15660000  0.82620000  1.0 0.0174340568
C  C71  1  0.83040000  0.44760000  0.67380000  1.0 0.0174340568
C  C72  1  0.66960000  0.34340000  0.61720000  1.0 0.0174340568
C  C73  1  0.11720000  0.84340000  0.16960000  1.0 0.0174340568
C  C74  1  0.17380000  0.94760000  0.33040000  1.0 0.0174340568
C  C75  1  0.32620000  0.65660000  0.77380000  1.0 0.0174340568
C  C76  1  0.38280000  0.55240000  0.72620000  1.0 0.0174340568
C  C77  1  0.16960000  0.11720000  0.84340000  1.0 0.0174340568
C  C78  1  0.33040000  0.17380000  0.94760000  1.0 0.0174340568
C  C79  1  0.77380000  0.32620000  0.65660000  1.0 0.0174340568
C  C80  1  0.72620000  0.38280000  0.55240000  1.0 0.0174340568
C  C81  1  0.84340000  0.16960000  0.11720000  1.0 0.0174340568
C  C82  1  0.94760000  0.33040000  0.17380000  1.0 0.0174340568
C  C83  1  0.65660000  0.77380000  0.32620000  1.0 0.0174340568
C  C84  1  0.55240000  0.72620000  0.38280000  1.0 0.0174340568
C  C85  1  0.55240000  0.32620000  0.16960000  1.0 0.0174340568
C  C86  1  0.65660000  0.38280000  0.33040000  1.0 0.0174340568
C  C87  1  0.94760000  0.11720000  0.77380000  1.0 0.0174340568
C  C88  1  0.84340000  0.17380000  0.72620000  1.0 0.0174340568
C  C89  1  0.17380000  0.72620000  0.84340000  1.0 0.0174340568
C  C90  1  0.11720000  0.77380000  0.94760000  1.0 0.0174340568
C  C91  1  0.38280000  0.33040000  0.65660000  1.0 0.0174340568
C  C92  1  0.32620000  0.16960000  0.55240000  1.0 0.0174340568
C  C93  1  0.77380000  0.94760000  0.11720000  1.0 0.0174340568
C  C94  1  0.72620000  0.84340000  0.17380000  1.0 0.0174340568
C  C95  1  0.16960000  0.55240000  0.32620000  1.0 0.0174340568
C  C96  1  0.33040000  0.65660000  0.38280000  1.0 0.0174340568
C  C97  1  0.94200000  0.15050000  0.00430000  1.0 -0.0179277572
C  C98  1  0.64620000  0.93770000  0.49570000  1.0 -0.0179277572
C  C99  1  0.85380000  0.34950000  0.29150000  1.0 -0.0179277572
C  C100  1  0.55800000  0.56230000  0.20850000  1.0 -0.0179277572
C  C101  1  0.00430000  0.94200000  0.15050000  1.0 -0.0179277572
C  C102  1  0.49570000  0.64620000  0.93770000  1.0 -0.0179277572
C  C103  1  0.29150000  0.85380000  0.34950000  1.0 -0.0179277572
C  C104  1  0.20850000  0.55800000  0.56230000  1.0 -0.0179277572
C  C105  1  0.15050000  0.00430000  0.94200000  1.0 -0.0179277572
C  C106  1  0.93770000  0.49570000  0.64620000  1.0 -0.0179277572
C  C107  1  0.34950000  0.29150000  0.85380000  1.0 -0.0179277572
C  C108  1  0.56230000  0.20850000  0.55800000  1.0 -0.0179277572
C  C109  1  0.56230000  0.85380000  0.00430000  1.0 -0.0179277572
C  C110  1  0.34950000  0.55800000  0.49570000  1.0 -0.0179277572
C  C111  1  0.93770000  0.94200000  0.29150000  1.0 -0.0179277572
C  C112  1  0.15050000  0.64620000  0.20850000  1.0 -0.0179277572
C  C113  1  0.64620000  0.20850000  0.15050000  1.0 -0.0179277572
C  C114  1  0.94200000  0.29150000  0.93770000  1.0 -0.0179277572
C  C115  1  0.55800000  0.49570000  0.34950000  1.0 -0.0179277572
C  C116  1  0.85380000  0.00430000  0.56230000  1.0 -0.0179277572
C  C117  1  0.29150000  0.93770000  0.94200000  1.0 -0.0179277572
C  C118  1  0.20850000  0.15050000  0.64620000  1.0 -0.0179277572
C  C119  1  0.00430000  0.56230000  0.85380000  1.0 -0.0179277572
C  C120  1  0.49570000  0.34950000  0.55800000  1.0 -0.0179277572
C  C121  1  0.05800000  0.84950000  0.99570000  1.0 -0.0179277572
C  C122  1  0.35380000  0.06230000  0.50430000  1.0 -0.0179277572
C  C123  1  0.14620000  0.65050000  0.70850000  1.0 -0.0179277572
C  C124  1  0.44200000  0.43770000  0.79150000  1.0 -0.0179277572
C  C125  1  0.99570000  0.05800000  0.84950000  1.0 -0.0179277572
C  C126  1  0.50430000  0.35380000  0.06230000  1.0 -0.0179277572
C  C127  1  0.70850000  0.14620000  0.65050000  1.0 -0.0179277572
C  C128  1  0.79150000  0.44200000  0.43770000  1.0 -0.0179277572
C  C129  1  0.84950000  0.99570000  0.05800000  1.0 -0.0179277572
C  C130  1  0.06230000  0.50430000  0.35380000  1.0 -0.0179277572
C  C131  1  0.65050000  0.70850000  0.14620000  1.0 -0.0179277572
C  C132  1  0.43770000  0.79150000  0.44200000  1.0 -0.0179277572
C  C133  1  0.43770000  0.14620000  0.99570000  1.0 -0.0179277572
C  C134  1  0.65050000  0.44200000  0.50430000  1.0 -0.0179277572
C  C135  1  0.06230000  0.05800000  0.70850000  1.0 -0.0179277572
C  C136  1  0.84950000  0.35380000  0.79150000  1.0 -0.0179277572
C  C137  1  0.35380000  0.79150000  0.84950000  1.0 -0.0179277572
C  C138  1  0.05800000  0.70850000  0.06230000  1.0 -0.0179277572
C  C139  1  0.44200000  0.50430000  0.65050000  1.0 -0.0179277572
C  C140  1  0.14620000  0.99570000  0.43770000  1.0 -0.0179277572
C  C141  1  0.70850000  0.06230000  0.05800000  1.0 -0.0179277572
C  C142  1  0.79150000  0.84950000  0.35380000  1.0 -0.0179277572
C  C143  1  0.99570000  0.43770000  0.14620000  1.0 -0.0179277572
C  C144  1  0.50430000  0.65050000  0.44200000  1.0 -0.0179277572
C  C145  1  0.98300000  0.13880000  0.02800000  1.0 -0.0879964296
C  C146  1  0.61080000  0.95500000  0.47200000  1.0 -0.0879964296
C  C147  1  0.88920000  0.36120000  0.34420000  1.0 -0.0879964296
C  C148  1  0.51700000  0.54500000  0.15580000  1.0 -0.0879964296
C  C149  1  0.02800000  0.98300000  0.13880000  1.0 -0.0879964296
C  C150  1  0.47200000  0.61080000  0.95500000  1.0 -0.0879964296
C  C151  1  0.34420000  0.88920000  0.36120000  1.0 -0.0879964296
C  C152  1  0.15580000  0.51700000  0.54500000  1.0 -0.0879964296
C  C153  1  0.13880000  0.02800000  0.98300000  1.0 -0.0879964296
C  C154  1  0.95500000  0.47200000  0.61080000  1.0 -0.0879964296
C  C155  1  0.36120000  0.34420000  0.88920000  1.0 -0.0879964296
C  C156  1  0.54500000  0.15580000  0.51700000  1.0 -0.0879964296
C  C157  1  0.54500000  0.88920000  0.02800000  1.0 -0.0879964296
C  C158  1  0.36120000  0.51700000  0.47200000  1.0 -0.0879964296
C  C159  1  0.95500000  0.98300000  0.34420000  1.0 -0.0879964296
C  C160  1  0.13880000  0.61080000  0.15580000  1.0 -0.0879964296
C  C161  1  0.61080000  0.15580000  0.13880000  1.0 -0.0879964296
C  C162  1  0.98300000  0.34420000  0.95500000  1.0 -0.0879964296
C  C163  1  0.51700000  0.47200000  0.36120000  1.0 -0.0879964296
C  C164  1  0.88920000  0.02800000  0.54500000  1.0 -0.0879964296
C  C165  1  0.34420000  0.95500000  0.98300000  1.0 -0.0879964296
C  C166  1  0.15580000  0.13880000  0.61080000  1.0 -0.0879964296
C  C167  1  0.02800000  0.54500000  0.88920000  1.0 -0.0879964296
C  C168  1  0.47200000  0.36120000  0.51700000  1.0 -0.0879964296
C  C169  1  0.01700000  0.86120000  0.97200000  1.0 -0.0879964296
C  C170  1  0.38920000  0.04500000  0.52800000  1.0 -0.0879964296
C  C171  1  0.11080000  0.63880000  0.65580000  1.0 -0.0879964296
C  C172  1  0.48300000  0.45500000  0.84420000  1.0 -0.0879964296
C  C173  1  0.97200000  0.01700000  0.86120000  1.0 -0.0879964296
C  C174  1  0.52800000  0.38920000  0.04500000  1.0 -0.0879964296
C  C175  1  0.65580000  0.11080000  0.63880000  1.0 -0.0879964296
C  C176  1  0.84420000  0.48300000  0.45500000  1.0 -0.0879964296
C  C177  1  0.86120000  0.97200000  0.01700000  1.0 -0.0879964296
C  C178  1  0.04500000  0.52800000  0.38920000  1.0 -0.0879964296
C  C179  1  0.63880000  0.65580000  0.11080000  1.0 -0.0879964296
C  C180  1  0.45500000  0.84420000  0.48300000  1.0 -0.0879964296
C  C181  1  0.45500000  0.11080000  0.97200000  1.0 -0.0879964296
C  C182  1  0.63880000  0.48300000  0.52800000  1.0 -0.0879964296
C  C183  1  0.04500000  0.01700000  0.65580000  1.0 -0.0879964296
C  C184  1  0.86120000  0.38920000  0.84420000  1.0 -0.0879964296
C  C185  1  0.38920000  0.84420000  0.86120000  1.0 -0.0879964296
C  C186  1  0.01700000  0.65580000  0.04500000  1.0 -0.0879964296
C  C187  1  0.48300000  0.52800000  0.63880000  1.0 -0.0879964296
C  C188  1  0.11080000  0.97200000  0.45500000  1.0 -0.0879964296
C  C189  1  0.65580000  0.04500000  0.01700000  1.0 -0.0879964296
C  C190  1  0.84420000  0.86120000  0.38920000  1.0 -0.0879964296
C  C191  1  0.97200000  0.45500000  0.11080000  1.0 -0.0879964296
C  C192  1  0.52800000  0.63880000  0.48300000  1.0 -0.0879964296
C  C193  1  0.02410000  0.14800000  0.01450000  1.0 -0.1735569699
C  C194  1  0.63350000  0.00960000  0.48550000  1.0 -0.1735569699
C  C195  1  0.86650000  0.35200000  0.37610000  1.0 -0.1735569699
C  C196  1  0.47590000  0.49040000  0.12390000  1.0 -0.1735569699
C  C197  1  0.01450000  0.02410000  0.14800000  1.0 -0.1735569699
C  C198  1  0.48550000  0.63350000  0.00960000  1.0 -0.1735569699
C  C199  1  0.37610000  0.86650000  0.35200000  1.0 -0.1735569699
C  C200  1  0.12390000  0.47590000  0.49040000  1.0 -0.1735569699
C  C201  1  0.14800000  0.01450000  0.02410000  1.0 -0.1735569699
C  C202  1  0.00960000  0.48550000  0.63350000  1.0 -0.1735569699
C  C203  1  0.35200000  0.37610000  0.86650000  1.0 -0.1735569699
C  C204  1  0.49040000  0.12390000  0.47590000  1.0 -0.1735569699
C  C205  1  0.49040000  0.86650000  0.01450000  1.0 -0.1735569699
C  C206  1  0.35200000  0.47590000  0.48550000  1.0 -0.1735569699
C  C207  1  0.00960000  0.02410000  0.37610000  1.0 -0.1735569699
C  C208  1  0.14800000  0.63350000  0.12390000  1.0 -0.1735569699
C  C209  1  0.63350000  0.12390000  0.14800000  1.0 -0.1735569699
C  C210  1  0.02410000  0.37610000  0.00960000  1.0 -0.1735569699
C  C211  1  0.47590000  0.48550000  0.35200000  1.0 -0.1735569699
C  C212  1  0.86650000  0.01450000  0.49040000  1.0 -0.1735569699
C  C213  1  0.37610000  0.00960000  0.02410000  1.0 -0.1735569699
C  C214  1  0.12390000  0.14800000  0.63350000  1.0 -0.1735569699
C  C215  1  0.01450000  0.49040000  0.86650000  1.0 -0.1735569699
C  C216  1  0.48550000  0.35200000  0.47590000  1.0 -0.1735569699
C  C217  1  0.97590000  0.85200000  0.98550000  1.0 -0.1735569699
C  C218  1  0.36650000  0.99040000  0.51450000  1.0 -0.1735569699
C  C219  1  0.13350000  0.64800000  0.62390000  1.0 -0.1735569699
C  C220  1  0.52410000  0.50960000  0.87610000  1.0 -0.1735569699
C  C221  1  0.98550000  0.97590000  0.85200000  1.0 -0.1735569699
C  C222  1  0.51450000  0.36650000  0.99040000  1.0 -0.1735569699
C  C223  1  0.62390000  0.13350000  0.64800000  1.0 -0.1735569699
C  C224  1  0.87610000  0.52410000  0.50960000  1.0 -0.1735569699
C  C225  1  0.85200000  0.98550000  0.97590000  1.0 -0.1735569699
C  C226  1  0.99040000  0.51450000  0.36650000  1.0 -0.1735569699
C  C227  1  0.64800000  0.62390000  0.13350000  1.0 -0.1735569699
C  C228  1  0.50960000  0.87610000  0.52410000  1.0 -0.1735569699
C  C229  1  0.50960000  0.13350000  0.98550000  1.0 -0.1735569699
C  C230  1  0.64800000  0.52410000  0.51450000  1.0 -0.1735569699
C  C231  1  0.99040000  0.97590000  0.62390000  1.0 -0.1735569699
C  C232  1  0.85200000  0.36650000  0.87610000  1.0 -0.1735569699
C  C233  1  0.36650000  0.87610000  0.85200000  1.0 -0.1735569699
C  C234  1  0.97590000  0.62390000  0.99040000  1.0 -0.1735569699
C  C235  1  0.52410000  0.51450000  0.64800000  1.0 -0.1735569699
C  C236  1  0.13350000  0.98550000  0.50960000  1.0 -0.1735569699
C  C237  1  0.62390000  0.99040000  0.97590000  1.0 -0.1735569699
C  C238  1  0.87610000  0.85200000  0.36650000  1.0 -0.1735569699
C  C239  1  0.98550000  0.50960000  0.13350000  1.0 -0.1735569699
C  C240  1  0.51450000  0.64800000  0.52410000  1.0 -0.1735569699
C  C241  1  0.02400000  0.16970000  0.97950000  1.0 -0.2058109206
C  C242  1  0.69020000  0.04450000  0.52050000  1.0 -0.2047064181
C  C243  1  0.80980000  0.33030000  0.35430000  1.0 -0.2058109206
C  C244  1  0.47600000  0.45550000  0.14570000  1.0 -0.2058109206
C  C245  1  0.97950000  0.02400000  0.16970000  1.0 -0.2047064181
C  C246  1  0.52050000  0.69020000  0.04450000  1.0 -0.2058109206
C  C247  1  0.35430000  0.80980000  0.33030000  1.0 -0.2058109206
C  C248  1  0.14570000  0.47600000  0.45550000  1.0 -0.2058109206
C  C249  1  0.16970000  0.97950000  0.02400000  1.0 -0.2058109206
C  C250  1  0.04450000  0.52050000  0.69020000  1.0 -0.2058109206
C  C251  1  0.33030000  0.35430000  0.80980000  1.0 -0.2058109206
C  C252  1  0.45550000  0.14570000  0.47600000  1.0 -0.2047064181
C  C253  1  0.45550000  0.80980000  0.97950000  1.0 -0.2058109206
C  C254  1  0.33030000  0.47600000  0.52050000  1.0 -0.2058109206
C  C255  1  0.04450000  0.02400000  0.35430000  1.0 -0.2058109206
C  C256  1  0.16970000  0.69020000  0.14570000  1.0 -0.2058109206
C  C257  1  0.69020000  0.14570000  0.16970000  1.0 -0.2047064181
C  C258  1  0.02400000  0.35430000  0.04450000  1.0 -0.2058109206
C  C259  1  0.47600000  0.52050000  0.33030000  1.0 -0.2058109206
C  C260  1  0.80980000  0.97950000  0.45550000  1.0 -0.2058109206
C  C261  1  0.35430000  0.04450000  0.02400000  1.0 -0.2047064181
C  C262  1  0.14570000  0.16970000  0.69020000  1.0 -0.2058109206
C  C263  1  0.97950000  0.45550000  0.80980000  1.0 -0.2047064181
C  C264  1  0.52050000  0.33030000  0.47600000  1.0 -0.2058109206
C  C265  1  0.97600000  0.83030000  0.02050000  1.0 -0.2047064181
C  C266  1  0.30980000  0.95550000  0.47950000  1.0 -0.2058109206
C  C267  1  0.19020000  0.66970000  0.64570000  1.0 -0.2058109206
C  C268  1  0.52400000  0.54450000  0.85430000  1.0 -0.2058109206
C  C269  1  0.02050000  0.97600000  0.83030000  1.0 -0.2058109206
C  C270  1  0.47950000  0.30980000  0.95550000  1.0 -0.2058109206
C  C271  1  0.64570000  0.19020000  0.66970000  1.0 -0.2058109206
C  C272  1  0.85430000  0.52400000  0.54450000  1.0 -0.2047064181
C  C273  1  0.83030000  0.02050000  0.97600000  1.0 -0.2047064181
C  C274  1  0.95550000  0.47950000  0.30980000  1.0 -0.2047064181
C  C275  1  0.66970000  0.64570000  0.19020000  1.0 -0.2058109206
C  C276  1  0.54450000  0.85430000  0.52400000  1.0 -0.2058109206
C  C277  1  0.54450000  0.19020000  0.02050000  1.0 -0.2047064181
C  C278  1  0.66970000  0.52400000  0.47950000  1.0 -0.2047064181
C  C279  1  0.95550000  0.97600000  0.64570000  1.0 -0.2058109206
C  C280  1  0.83030000  0.30980000  0.85430000  1.0 -0.2047064181
C  C281  1  0.30980000  0.85430000  0.83030000  1.0 -0.2058109206
C  C282  1  0.97600000  0.64570000  0.95550000  1.0 -0.2047064181
C  C283  1  0.52400000  0.47950000  0.66970000  1.0 -0.2058109206
C  C284  1  0.19020000  0.02050000  0.54450000  1.0 -0.2058109206
C  C285  1  0.64570000  0.95550000  0.97600000  1.0 -0.2058109206
C  C286  1  0.85430000  0.83030000  0.30980000  1.0 -0.2058109206
C  C287  1  0.02050000  0.54450000  0.19020000  1.0 -0.2058109206
C  C288  1  0.47950000  0.66970000  0.52400000  1.0 -0.2058109206
C  C289  1  0.98270000  0.18110000  0.95900000  1.0 0.0174340568
C  C290  1  0.72210000  0.02370000  0.54100000  1.0 0.0174340568
C  C291  1  0.77790000  0.31890000  0.30160000  1.0 0.0174340568
C  C292  1  0.51730000  0.47630000  0.19840000  1.0 0.0174340568
C  C293  1  0.95900000  0.98270000  0.18110000  1.0 0.0174340568
C  C294  1  0.54100000  0.72210000  0.02370000  1.0 0.0174340568
C  C295  1  0.30160000  0.77790000  0.31890000  1.0 0.0174340568
C  C296  1  0.19840000  0.51730000  0.47630000  1.0 0.0174340568
C  C297  1  0.18110000  0.95900000  0.98270000  1.0 0.0174340568
C  C298  1  0.02370000  0.54100000  0.72210000  1.0 0.0174340568
C  C299  1  0.31890000  0.30160000  0.77790000  1.0 0.0174340568
C  C300  1  0.47630000  0.19840000  0.51730000  1.0 0.0174340568
C  C301  1  0.47630000  0.77790000  0.95900000  1.0 0.0174340568
C  C302  1  0.31890000  0.51730000  0.54100000  1.0 0.0174340568
C  C303  1  0.02370000  0.98270000  0.30160000  1.0 0.0174340568
C  C304  1  0.18110000  0.72210000  0.19840000  1.0 0.0174340568
C  C305  1  0.72210000  0.19840000  0.18110000  1.0 0.0174340568
C  C306  1  0.98270000  0.30160000  0.02370000  1.0 0.0174340568
C  C307  1  0.51730000  0.54100000  0.31890000  1.0 0.0174340568
C  C308  1  0.77790000  0.95900000  0.47630000  1.0 0.0174340568
C  C309  1  0.30160000  0.02370000  0.98270000  1.0 0.0174340568
C  C310  1  0.19840000  0.18110000  0.72210000  1.0 0.0174340568
C  C311  1  0.95900000  0.47630000  0.77790000  1.0 0.0174340568
C  C312  1  0.54100000  0.31890000  0.51730000  1.0 0.0174340568
C  C313  1  0.01730000  0.81890000  0.04100000  1.0 0.0174340568
C  C314  1  0.27790000  0.97630000  0.45900000  1.0 0.0174340568
C  C315  1  0.22210000  0.68110000  0.69840000  1.0 0.0174340568
C  C316  1  0.48270000  0.52370000  0.80160000  1.0 0.0174340568
C  C317  1  0.04100000  0.01730000  0.81890000  1.0 0.0174340568
C  C318  1  0.45900000  0.27790000  0.97630000  1.0 0.0174340568
C  C319  1  0.69840000  0.22210000  0.68110000  1.0 0.0174340568
C  C320  1  0.80160000  0.48270000  0.52370000  1.0 0.0174340568
C  C321  1  0.81890000  0.04100000  0.01730000  1.0 0.0174340568
C  C322  1  0.97630000  0.45900000  0.27790000  1.0 0.0174340568
C  C323  1  0.68110000  0.69840000  0.22210000  1.0 0.0174340568
C  C324  1  0.52370000  0.80160000  0.48270000  1.0 0.0174340568
C  C325  1  0.52370000  0.22210000  0.04100000  1.0 0.0174340568
C  C326  1  0.68110000  0.48270000  0.45900000  1.0 0.0174340568
C  C327  1  0.97630000  0.01730000  0.69840000  1.0 0.0174340568
C  C328  1  0.81890000  0.27790000  0.80160000  1.0 0.0174340568
C  C329  1  0.27790000  0.80160000  0.81890000  1.0 0.0174340568
C  C330  1  0.01730000  0.69840000  0.97630000  1.0 0.0174340568
C  C331  1  0.48270000  0.45900000  0.68110000  1.0 0.0174340568
C  C332  1  0.22210000  0.04100000  0.52370000  1.0 0.0174340568
C  C333  1  0.69840000  0.97630000  0.01730000  1.0 0.0174340568
C  C334  1  0.80160000  0.81890000  0.27790000  1.0 0.0174340568
C  C335  1  0.04100000  0.52370000  0.22210000  1.0 0.0174340568
C  C336  1  0.45900000  0.68110000  0.48270000  1.0 0.0174340568
C  C337  1  0.78020000  0.17690000  0.85870000  1.0 -0.0353974402
C  C338  1  0.81820000  0.92150000  0.64130000  1.0 -0.0302677729
C  C339  1  0.68180000  0.32310000  0.10330000  1.0 -0.0302677729
C  C340  1  0.71980000  0.57850000  0.39670000  1.0 -0.0302677729
C  C341  1  0.85870000  0.78020000  0.17690000  1.0 -0.0302677729
C  C342  1  0.64130000  0.81820000  0.92150000  1.0 -0.0353974402
C  C343  1  0.10330000  0.68180000  0.32310000  1.0 -0.0302677729
C  C344  1  0.39670000  0.71980000  0.57850000  1.0 -0.0353974402
C  C345  1  0.17690000  0.85870000  0.78020000  1.0 -0.0302677729
C  C346  1  0.92150000  0.64130000  0.81820000  1.0 -0.0353974402
C  C347  1  0.32310000  0.10330000  0.68180000  1.0 -0.0353974402
C  C348  1  0.57850000  0.39670000  0.71980000  1.0 -0.0353974402
C  C349  1  0.57850000  0.68180000  0.85870000  1.0 -0.0353974402
C  C350  1  0.32310000  0.71980000  0.64130000  1.0 -0.0353974402
C  C351  1  0.92150000  0.78020000  0.10330000  1.0 -0.0302677729
C  C352  1  0.17690000  0.81820000  0.39670000  1.0 -0.0302677729
C  C353  1  0.81820000  0.39670000  0.17690000  1.0 -0.0302677729
C  C354  1  0.78020000  0.10330000  0.92150000  1.0 -0.0353974402
C  C355  1  0.71980000  0.64130000  0.32310000  1.0 -0.0302677729
C  C356  1  0.68180000  0.85870000  0.57850000  1.0 -0.0302677729
C  C357  1  0.10330000  0.92150000  0.78020000  1.0 -0.0353974402
C  C358  1  0.39670000  0.17690000  0.81820000  1.0 -0.0353974402
C  C359  1  0.85870000  0.57850000  0.68180000  1.0 -0.0302677729
C  C360  1  0.64130000  0.32310000  0.71980000  1.0 -0.0302677729
C  C361  1  0.21980000  0.82310000  0.14130000  1.0 -0.0302677729
C  C362  1  0.18180000  0.07850000  0.35870000  1.0 -0.0302677729
C  C363  1  0.31820000  0.67690000  0.89670000  1.0 -0.0353974402
C  C364  1  0.28020000  0.42150000  0.60330000  1.0 -0.0353974402
C  C365  1  0.14130000  0.21980000  0.82310000  1.0 -0.0302677729
C  C366  1  0.35870000  0.18180000  0.07850000  1.0 -0.0302677729
C  C367  1  0.89670000  0.31820000  0.67690000  1.0 -0.0302677729
C  C368  1  0.60330000  0.28020000  0.42150000  1.0 -0.0302677729
C  C369  1  0.82310000  0.14130000  0.21980000  1.0 -0.0302677729
C  C370  1  0.07850000  0.35870000  0.18180000  1.0 -0.0353974402
C  C371  1  0.67690000  0.89670000  0.31820000  1.0 -0.0302677729
C  C372  1  0.42150000  0.60330000  0.28020000  1.0 -0.0353974402
C  C373  1  0.42150000  0.31820000  0.14130000  1.0 -0.0353974402
C  C374  1  0.67690000  0.28020000  0.35870000  1.0 -0.0302677729
C  C375  1  0.07850000  0.21980000  0.89670000  1.0 -0.0302677729
C  C376  1  0.82310000  0.18180000  0.60330000  1.0 -0.0302677729
C  C377  1  0.18180000  0.60330000  0.82310000  1.0 -0.0353974402
C  C378  1  0.21980000  0.89670000  0.07850000  1.0 -0.0353974402
C  C379  1  0.28020000  0.35870000  0.67690000  1.0 -0.0353974402
C  C380  1  0.31820000  0.14130000  0.42150000  1.0 -0.0302677729
C  C381  1  0.89670000  0.07850000  0.21980000  1.0 -0.0302677729
C  C382  1  0.60330000  0.82310000  0.18180000  1.0 -0.0302677729
C  C383  1  0.14130000  0.42150000  0.31820000  1.0 -0.0353974402
C  C384  1  0.35870000  0.67690000  0.28020000  1.0 -0.0353974402
C  C385  1  0.73490000  0.18460000  0.84210000  1.0 0.1186389113
C  C386  1  0.84250000  0.89280000  0.65790000  1.0 0.1186389113
C  C387  1  0.65750000  0.31540000  0.05030000  1.0 0.1186389113
C  C388  1  0.76510000  0.60720000  0.44970000  1.0 0.1186389113
C  C389  1  0.84210000  0.73490000  0.18460000  1.0 0.1186389113
C  C390  1  0.65790000  0.84250000  0.89280000  1.0 0.1186389113
C  C391  1  0.05030000  0.65750000  0.31540000  1.0 0.1186389113
C  C392  1  0.44970000  0.76510000  0.60720000  1.0 0.1186389113
C  C393  1  0.18460000  0.84210000  0.73490000  1.0 0.1186389113
C  C394  1  0.89280000  0.65790000  0.84250000  1.0 0.1186389113
C  C395  1  0.31540000  0.05030000  0.65750000  1.0 0.1186389113
C  C396  1  0.60720000  0.44970000  0.76510000  1.0 0.1186389113
C  C397  1  0.60720000  0.65750000  0.84210000  1.0 0.1186389113
C  C398  1  0.31540000  0.76510000  0.65790000  1.0 0.1186389113
C  C399  1  0.89280000  0.73490000  0.05030000  1.0 0.1186389113
C  C400  1  0.18460000  0.84250000  0.44970000  1.0 0.1186389113
C  C401  1  0.84250000  0.44970000  0.18460000  1.0 0.1186389113
C  C402  1  0.73490000  0.05030000  0.89280000  1.0 0.1186389113
C  C403  1  0.76510000  0.65790000  0.31540000  1.0 0.1186389113
C  C404  1  0.65750000  0.84210000  0.60720000  1.0 0.1186389113
C  C405  1  0.05030000  0.89280000  0.73490000  1.0 0.1186389113
C  C406  1  0.44970000  0.18460000  0.84250000  1.0 0.1186389113
C  C407  1  0.84210000  0.60720000  0.65750000  1.0 0.1186389113
C  C408  1  0.65790000  0.31540000  0.76510000  1.0 0.1186389113
C  C409  1  0.26510000  0.81540000  0.15790000  1.0 0.1186389113
C  C410  1  0.15750000  0.10720000  0.34210000  1.0 0.1186389113
C  C411  1  0.34250000  0.68460000  0.94970000  1.0 0.1186389113
C  C412  1  0.23490000  0.39280000  0.55030000  1.0 0.1186389113
C  C413  1  0.15790000  0.26510000  0.81540000  1.0 0.1186389113
C  C414  1  0.34210000  0.15750000  0.10720000  1.0 0.1186389113
C  C415  1  0.94970000  0.34250000  0.68460000  1.0 0.1186389113
C  C416  1  0.55030000  0.23490000  0.39280000  1.0 0.1186389113
C  C417  1  0.81540000  0.15790000  0.26510000  1.0 0.1186389113
C  C418  1  0.10720000  0.34210000  0.15750000  1.0 0.1186389113
C  C419  1  0.68460000  0.94970000  0.34250000  1.0 0.1186389113
C  C420  1  0.39280000  0.55030000  0.23490000  1.0 0.1186389113
C  C421  1  0.39280000  0.34250000  0.15790000  1.0 0.1186389113
C  C422  1  0.68460000  0.23490000  0.34210000  1.0 0.1186389113
C  C423  1  0.10720000  0.26510000  0.94970000  1.0 0.1186389113
C  C424  1  0.81540000  0.15750000  0.55030000  1.0 0.1186389113
C  C425  1  0.15750000  0.55030000  0.81540000  1.0 0.1186389113
C  C426  1  0.26510000  0.94970000  0.10720000  1.0 0.1186389113
C  C427  1  0.23490000  0.34210000  0.68460000  1.0 0.1186389113
C  C428  1  0.34250000  0.15790000  0.39280000  1.0 0.1186389113
C  C429  1  0.94970000  0.10720000  0.26510000  1.0 0.1186389113
C  C430  1  0.55030000  0.81540000  0.15750000  1.0 0.1186389113
C  C431  1  0.15790000  0.39280000  0.34250000  1.0 0.1186389113
C  C432  1  0.34210000  0.68460000  0.23490000  1.0 0.1186389113
C  C433  1  0.73120000  0.22420000  0.87840000  1.0 -0.1420078005
C  C434  1  0.84580000  0.85280000  0.62160000  1.0 -0.1420078005
C  C435  1  0.65420000  0.27580000  0.00700000  1.0 -0.1420078005
C  C436  1  0.76880000  0.64720000  0.49300000  1.0 -0.1420078005
C  C437  1  0.87840000  0.73120000  0.22420000  1.0 -0.1420078005
C  C438  1  0.62160000  0.84580000  0.85280000  1.0 -0.1420078005
C  C439  1  0.00700000  0.65420000  0.27580000  1.0 -0.1420078005
C  C440  1  0.49300000  0.76880000  0.64720000  1.0 -0.1420078005
C  C441  1  0.22420000  0.87840000  0.73120000  1.0 -0.1420078005
C  C442  1  0.85280000  0.62160000  0.84580000  1.0 -0.1420078005
C  C443  1  0.27580000  0.00700000  0.65420000  1.0 -0.1420078005
C  C444  1  0.64720000  0.49300000  0.76880000  1.0 -0.1420078005
C  C445  1  0.64720000  0.65420000  0.87840000  1.0 -0.1420078005
C  C446  1  0.27580000  0.76880000  0.62160000  1.0 -0.1420078005
C  C447  1  0.85280000  0.73120000  0.00700000  1.0 -0.1420078005
C  C448  1  0.22420000  0.84580000  0.49300000  1.0 -0.1420078005
C  C449  1  0.84580000  0.49300000  0.22420000  1.0 -0.1420078005
C  C450  1  0.73120000  0.00700000  0.85280000  1.0 -0.1420078005
C  C451  1  0.76880000  0.62160000  0.27580000  1.0 -0.1420078005
C  C452  1  0.65420000  0.87840000  0.64720000  1.0 -0.1420078005
C  C453  1  0.00700000  0.85280000  0.73120000  1.0 -0.1420078005
C  C454  1  0.49300000  0.22420000  0.84580000  1.0 -0.1420078005
C  C455  1  0.87840000  0.64720000  0.65420000  1.0 -0.1420078005
C  C456  1  0.62160000  0.27580000  0.76880000  1.0 -0.1420078005
C  C457  1  0.26880000  0.77580000  0.12160000  1.0 -0.1420078005
C  C458  1  0.15420000  0.14720000  0.37840000  1.0 -0.1420078005
C  C459  1  0.34580000  0.72420000  0.99300000  1.0 -0.1420078005
C  C460  1  0.23120000  0.35280000  0.50700000  1.0 -0.1420078005
C  C461  1  0.12160000  0.26880000  0.77580000  1.0 -0.1420078005
C  C462  1  0.37840000  0.15420000  0.14720000  1.0 -0.1420078005
C  C463  1  0.99300000  0.34580000  0.72420000  1.0 -0.1420078005
C  C464  1  0.50700000  0.23120000  0.35280000  1.0 -0.1420078005
C  C465  1  0.77580000  0.12160000  0.26880000  1.0 -0.1420078005
C  C466  1  0.14720000  0.37840000  0.15420000  1.0 -0.1420078005
C  C467  1  0.72420000  0.99300000  0.34580000  1.0 -0.1420078005
C  C468  1  0.35280000  0.50700000  0.23120000  1.0 -0.1420078005
C  C469  1  0.35280000  0.34580000  0.12160000  1.0 -0.1420078005
C  C470  1  0.72420000  0.23120000  0.37840000  1.0 -0.1420078005
C  C471  1  0.14720000  0.26880000  0.99300000  1.0 -0.1420078005
C  C472  1  0.77580000  0.15420000  0.50700000  1.0 -0.1420078005
C  C473  1  0.15420000  0.50700000  0.77580000  1.0 -0.1420078005
C  C474  1  0.26880000  0.99300000  0.14720000  1.0 -0.1420078005
C  C475  1  0.23120000  0.37840000  0.72420000  1.0 -0.1420078005
C  C476  1  0.34580000  0.12160000  0.35280000  1.0 -0.1420078005
C  C477  1  0.99300000  0.14720000  0.26880000  1.0 -0.1420078005
C  C478  1  0.50700000  0.77580000  0.15420000  1.0 -0.1420078005
C  C479  1  0.12160000  0.35280000  0.34580000  1.0 -0.1420078005
C  C480  1  0.37840000  0.72420000  0.23120000  1.0 -0.1420078005
C  C481  1  0.77210000  0.25620000  0.93030000  1.0 -0.1513121138
C  C482  1  0.82590000  0.84180000  0.56970000  1.0 -0.1513121138
C  C483  1  0.67410000  0.24380000  0.01590000  1.0 -0.1513121138
C  C484  1  0.72790000  0.65820000  0.48410000  1.0 -0.1513121138
C  C485  1  0.93030000  0.77210000  0.25620000  1.0 -0.1513121138
C  C486  1  0.56970000  0.82590000  0.84180000  1.0 -0.1513121138
C  C487  1  0.01590000  0.67410000  0.24380000  1.0 -0.1513121138
C  C488  1  0.48410000  0.72790000  0.65820000  1.0 -0.1513121138
C  C489  1  0.25620000  0.93030000  0.77210000  1.0 -0.1513121138
C  C490  1  0.84180000  0.56970000  0.82590000  1.0 -0.1513121138
C  C491  1  0.24380000  0.01590000  0.67410000  1.0 -0.1513121138
C  C492  1  0.65820000  0.48410000  0.72790000  1.0 -0.1513121138
C  C493  1  0.65820000  0.67410000  0.93030000  1.0 -0.1513121138
C  C494  1  0.24380000  0.72790000  0.56970000  1.0 -0.1513121138
C  C495  1  0.84180000  0.77210000  0.01590000  1.0 -0.1513121138
C  C496  1  0.25620000  0.82590000  0.48410000  1.0 -0.1513121138
C  C497  1  0.82590000  0.48410000  0.25620000  1.0 -0.1513121138
C  C498  1  0.77210000  0.01590000  0.84180000  1.0 -0.1513121138
C  C499  1  0.72790000  0.56970000  0.24380000  1.0 -0.1513121138
C  C500  1  0.67410000  0.93030000  0.65820000  1.0 -0.1513121138
C  C501  1  0.01590000  0.84180000  0.77210000  1.0 -0.1513121138
C  C502  1  0.48410000  0.25620000  0.82590000  1.0 -0.1513121138
C  C503  1  0.93030000  0.65820000  0.67410000  1.0 -0.1513121138
C  C504  1  0.56970000  0.24380000  0.72790000  1.0 -0.1513121138
C  C505  1  0.22790000  0.74380000  0.06970000  1.0 -0.1513121138
C  C506  1  0.17410000  0.15820000  0.43030000  1.0 -0.1513121138
C  C507  1  0.32590000  0.75620000  0.98410000  1.0 -0.1513121138
C  C508  1  0.27210000  0.34180000  0.51590000  1.0 -0.1513121138
C  C509  1  0.06970000  0.22790000  0.74380000  1.0 -0.1513121138
C  C510  1  0.43030000  0.17410000  0.15820000  1.0 -0.1513121138
C  C511  1  0.98410000  0.32590000  0.75620000  1.0 -0.1513121138
C  C512  1  0.51590000  0.27210000  0.34180000  1.0 -0.1513121138
C  C513  1  0.74380000  0.06970000  0.22790000  1.0 -0.1513121138
C  C514  1  0.15820000  0.43030000  0.17410000  1.0 -0.1513121138
C  C515  1  0.75620000  0.98410000  0.32590000  1.0 -0.1513121138
C  C516  1  0.34180000  0.51590000  0.27210000  1.0 -0.1513121138
C  C517  1  0.34180000  0.32590000  0.06970000  1.0 -0.1513121138
C  C518  1  0.75620000  0.27210000  0.43030000  1.0 -0.1513121138
C  C519  1  0.15820000  0.22790000  0.98410000  1.0 -0.1513121138
C  C520  1  0.74380000  0.17410000  0.51590000  1.0 -0.1513121138
C  C521  1  0.17410000  0.51590000  0.74380000  1.0 -0.1513121138
C  C522  1  0.22790000  0.98410000  0.15820000  1.0 -0.1513121138
C  C523  1  0.27210000  0.43030000  0.75620000  1.0 -0.1513121138
C  C524  1  0.32590000  0.06970000  0.34180000  1.0 -0.1513121138
C  C525  1  0.98410000  0.15820000  0.22790000  1.0 -0.1513121138
C  C526  1  0.51590000  0.74380000  0.17410000  1.0 -0.1513121138
C  C527  1  0.06970000  0.34180000  0.32590000  1.0 -0.1513121138
C  C528  1  0.43030000  0.75620000  0.27210000  1.0 -0.1513121138
C  C529  1  0.81660000  0.24880000  0.94700000  1.0 0.0129291734
C  C530  1  0.80180000  0.86960000  0.55300000  1.0 0.0129291734
C  C531  1  0.69820000  0.25120000  0.06780000  1.0 0.0129291734
C  C532  1  0.68340000  0.63040000  0.43220000  1.0 0.0129291734
C  C533  1  0.94700000  0.81660000  0.24880000  1.0 0.0129291734
C  C534  1  0.55300000  0.80180000  0.86960000  1.0 0.0129291734
C  C535  1  0.06780000  0.69820000  0.25120000  1.0 0.0129291734
C  C536  1  0.43220000  0.68340000  0.63040000  1.0 0.0129291734
C  C537  1  0.24880000  0.94700000  0.81660000  1.0 0.0129291734
C  C538  1  0.86960000  0.55300000  0.80180000  1.0 0.0129291734
C  C539  1  0.25120000  0.06780000  0.69820000  1.0 0.0129291734
C  C540  1  0.63040000  0.43220000  0.68340000  1.0 0.0129291734
C  C541  1  0.63040000  0.69820000  0.94700000  1.0 0.0129291734
C  C542  1  0.25120000  0.68340000  0.55300000  1.0 0.0129291734
C  C543  1  0.86960000  0.81660000  0.06780000  1.0 0.0129291734
C  C544  1  0.24880000  0.80180000  0.43220000  1.0 0.0129291734
C  C545  1  0.80180000  0.43220000  0.24880000  1.0 0.0129291734
C  C546  1  0.81660000  0.06780000  0.86960000  1.0 0.0129291734
C  C547  1  0.68340000  0.55300000  0.25120000  1.0 0.0129291734
C  C548  1  0.69820000  0.94700000  0.63040000  1.0 0.0129291734
C  C549  1  0.06780000  0.86960000  0.81660000  1.0 0.0129291734
C  C550  1  0.43220000  0.24880000  0.80180000  1.0 0.0129291734
C  C551  1  0.94700000  0.63040000  0.69820000  1.0 0.0129291734
C  C552  1  0.55300000  0.25120000  0.68340000  1.0 0.0129291734
C  C553  1  0.18340000  0.75120000  0.05300000  1.0 0.0129291734
C  C554  1  0.19820000  0.13040000  0.44700000  1.0 0.0129291734
C  C555  1  0.30180000  0.74880000  0.93220000  1.0 0.0129291734
C  C556  1  0.31660000  0.36960000  0.56780000  1.0 0.0129291734
C  C557  1  0.05300000  0.18340000  0.75120000  1.0 0.0129291734
C  C558  1  0.44700000  0.19820000  0.13040000  1.0 0.0174340568
C  C559  1  0.93220000  0.30180000  0.74880000  1.0 0.0129291734
C  C560  1  0.56780000  0.31660000  0.36960000  1.0 0.0129291734
C  C561  1  0.75120000  0.05300000  0.18340000  1.0 0.0129291734
C  C562  1  0.13040000  0.44700000  0.19820000  1.0 0.0129291734
C  C563  1  0.74880000  0.93220000  0.30180000  1.0 0.0129291734
C  C564  1  0.36960000  0.56780000  0.31660000  1.0 0.0129291734
C  C565  1  0.36960000  0.30180000  0.05300000  1.0 0.0129291734
C  C566  1  0.74880000  0.31660000  0.44700000  1.0 0.0129291734
C  C567  1  0.13040000  0.18340000  0.93220000  1.0 0.0129291734
C  C568  1  0.75120000  0.19820000  0.56780000  1.0 0.0129291734
C  C569  1  0.19820000  0.56780000  0.75120000  1.0 0.0129291734
C  C570  1  0.18340000  0.93220000  0.13040000  1.0 0.0129291734
C  C571  1  0.31660000  0.44700000  0.74880000  1.0 0.0129291734
C  C572  1  0.30180000  0.05300000  0.36960000  1.0 0.0129291734
C  C573  1  0.93220000  0.13040000  0.18340000  1.0 0.0129291734
C  C574  1  0.56780000  0.75120000  0.19820000  1.0 0.0129291734
C  C575  1  0.05300000  0.36960000  0.30180000  1.0 0.0129291734
C  C576  1  0.44700000  0.74880000  0.31660000  1.0 0.0129291734
C  C577  1  0.98090000  0.11600000  0.06690000  1.0 -0.0302677729
C  C578  1  0.54910000  0.91400000  0.43310000  1.0 -0.0302677729
C  C579  1  0.95090000  0.38400000  0.36490000  1.0 -0.0302677729
C  C580  1  0.51910000  0.58600000  0.13510000  1.0 -0.0302677729
C  C581  1  0.06690000  0.98090000  0.11600000  1.0 -0.0302677729
C  C582  1  0.43310000  0.54910000  0.91400000  1.0 -0.0302677729
C  C583  1  0.36490000  0.95090000  0.38400000  1.0 -0.0302677729
C  C584  1  0.13510000  0.51910000  0.58600000  1.0 -0.0302677729
C  C585  1  0.11600000  0.06690000  0.98090000  1.0 -0.0302677729
C  C586  1  0.91400000  0.43310000  0.54910000  1.0 -0.0302677729
C  C587  1  0.38400000  0.36490000  0.95090000  1.0 -0.0302677729
C  C588  1  0.58600000  0.13510000  0.51910000  1.0 -0.0302677729
C  C589  1  0.58600000  0.95090000  0.06690000  1.0 -0.0302677729
C  C590  1  0.38400000  0.51910000  0.43310000  1.0 -0.0302677729
C  C591  1  0.91400000  0.98090000  0.36490000  1.0 -0.0302677729
C  C592  1  0.11600000  0.54910000  0.13510000  1.0 -0.0302677729
C  C593  1  0.54910000  0.13510000  0.11600000  1.0 -0.0302677729
C  C594  1  0.98090000  0.36490000  0.91400000  1.0 -0.0302677729
C  C595  1  0.51910000  0.43310000  0.38400000  1.0 -0.0302677729
C  C596  1  0.95090000  0.06690000  0.58600000  1.0 -0.0302677729
C  C597  1  0.36490000  0.91400000  0.98090000  1.0 -0.0302677729
C  C598  1  0.13510000  0.11600000  0.54910000  1.0 -0.0302677729
C  C599  1  0.06690000  0.58600000  0.95090000  1.0 -0.0302677729
C  C600  1  0.43310000  0.38400000  0.51910000  1.0 -0.0302677729
C  C601  1  0.01910000  0.88400000  0.93310000  1.0 -0.0302677729
C  C602  1  0.45090000  0.08600000  0.56690000  1.0 -0.0302677729
C  C603  1  0.04910000  0.61600000  0.63510000  1.0 -0.0302677729
C  C604  1  0.48090000  0.41400000  0.86490000  1.0 -0.0302677729
C  C605  1  0.93310000  0.01910000  0.88400000  1.0 -0.0302677729
C  C606  1  0.56690000  0.45090000  0.08600000  1.0 -0.0302677729
C  C607  1  0.63510000  0.04910000  0.61600000  1.0 -0.0302677729
C  C608  1  0.86490000  0.48090000  0.41400000  1.0 -0.0302677729
C  C609  1  0.88400000  0.93310000  0.01910000  1.0 -0.0302677729
C  C610  1  0.08600000  0.56690000  0.45090000  1.0 -0.0302677729
C  C611  1  0.61600000  0.63510000  0.04910000  1.0 -0.0302677729
C  C612  1  0.41400000  0.86490000  0.48090000  1.0 -0.0302677729
C  C613  1  0.41400000  0.04910000  0.93310000  1.0 -0.0302677729
C  C614  1  0.61600000  0.48090000  0.56690000  1.0 -0.0302677729
C  C615  1  0.08600000  0.01910000  0.63510000  1.0 -0.0302677729
C  C616  1  0.88400000  0.45090000  0.86490000  1.0 -0.0302677729
C  C617  1  0.45090000  0.86490000  0.88400000  1.0 -0.0302677729
C  C618  1  0.01910000  0.63510000  0.08600000  1.0 -0.0302677729
C  C619  1  0.48090000  0.56690000  0.61600000  1.0 -0.0302677729
C  C620  1  0.04910000  0.93310000  0.41400000  1.0 -0.0302677729
C  C621  1  0.63510000  0.08600000  0.01910000  1.0 -0.0302677729
C  C622  1  0.86490000  0.88400000  0.45090000  1.0 -0.0302677729
C  C623  1  0.93310000  0.41400000  0.04910000  1.0 -0.0302677729
C  C624  1  0.56690000  0.61600000  0.48090000  1.0 -0.0302677729
C  C625  1  0.68560000  0.14910000  0.78510000  1.0 -0.1913083492
C  C626  1  0.86400000  0.90050000  0.71490000  1.0 -0.1913083492
C  C627  1  0.63600000  0.35090000  0.03650000  1.0 -0.1913083492
C  C628  1  0.81440000  0.59950000  0.46350000  1.0 -0.1913083492
C  C629  1  0.78510000  0.68560000  0.14910000  1.0 -0.1913083492
C  C630  1  0.71490000  0.86400000  0.90050000  1.0 -0.1913083492
C  C631  1  0.03650000  0.63600000  0.35090000  1.0 -0.1913083492
C  C632  1  0.46350000  0.81440000  0.59950000  1.0 -0.1913083492
C  C633  1  0.14910000  0.78510000  0.68560000  1.0 -0.1913083492
C  C634  1  0.90050000  0.71490000  0.86400000  1.0 -0.1913083492
C  C635  1  0.35090000  0.03650000  0.63600000  1.0 -0.1913083492
C  C636  1  0.59950000  0.46350000  0.81440000  1.0 -0.1913083492
C  C637  1  0.59950000  0.63600000  0.78510000  1.0 -0.1913083492
C  C638  1  0.35090000  0.81440000  0.71490000  1.0 -0.1913083492
C  C639  1  0.90050000  0.68560000  0.03650000  1.0 -0.1913083492
C  C640  1  0.14910000  0.86400000  0.46350000  1.0 -0.1913083492
C  C641  1  0.86400000  0.46350000  0.14910000  1.0 -0.1913083492
C  C642  1  0.68560000  0.03650000  0.90050000  1.0 -0.1913083492
C  C643  1  0.81440000  0.71490000  0.35090000  1.0 -0.1913083492
C  C644  1  0.63600000  0.78510000  0.59950000  1.0 -0.1913083492
C  C645  1  0.03650000  0.90050000  0.68560000  1.0 -0.1913083492
C  C646  1  0.46350000  0.14910000  0.86400000  1.0 -0.1913083492
C  C647  1  0.78510000  0.59950000  0.63600000  1.0 -0.1913083492
C  C648  1  0.71490000  0.35090000  0.81440000  1.0 -0.1913083492
C  C649  1  0.31440000  0.85090000  0.21490000  1.0 -0.1913083492
C  C650  1  0.13600000  0.09950000  0.28510000  1.0 -0.1913083492
C  C651  1  0.36400000  0.64910000  0.96350000  1.0 -0.1913083492
C  C652  1  0.18560000  0.40050000  0.53650000  1.0 -0.1913083492
C  C653  1  0.21490000  0.31440000  0.85090000  1.0 -0.1913083492
C  C654  1  0.28510000  0.13600000  0.09950000  1.0 -0.1913083492
C  C655  1  0.96350000  0.36400000  0.64910000  1.0 -0.1913083492
C  C656  1  0.53650000  0.18560000  0.40050000  1.0 -0.1913083492
C  C657  1  0.85090000  0.21490000  0.31440000  1.0 -0.1913083492
C  C658  1  0.09950000  0.28510000  0.13600000  1.0 -0.1913083492
C  C659  1  0.64910000  0.96350000  0.36400000  1.0 -0.1913083492
C  C660  1  0.40050000  0.53650000  0.18560000  1.0 -0.1913083492
C  C661  1  0.40050000  0.36400000  0.21490000  1.0 -0.1913083492
C  C662  1  0.64910000  0.18560000  0.28510000  1.0 -0.1913083492
C  C663  1  0.09950000  0.31440000  0.96350000  1.0 -0.1913083492
C  C664  1  0.85090000  0.13600000  0.53650000  1.0 -0.1913083492
C  C665  1  0.13600000  0.53650000  0.85090000  1.0 -0.1913083492
C  C666  1  0.31440000  0.96350000  0.09950000  1.0 -0.1913083492
C  C667  1  0.18560000  0.28510000  0.64910000  1.0 -0.1913083492
C  C668  1  0.36400000  0.21490000  0.40050000  1.0 -0.1913083492
C  C669  1  0.96350000  0.09950000  0.31440000  1.0 -0.1913083492
C  C670  1  0.53650000  0.85090000  0.13600000  1.0 -0.1913083492
C  C671  1  0.21490000  0.40050000  0.36400000  1.0 -0.1913083492
C  C672  1  0.28510000  0.64910000  0.18560000  1.0 -0.1913083492
C  C673  1  0.69380000  0.15100000  0.78160000  1.0 -0.1913083492
C  C674  1  0.86940000  0.91220000  0.71840000  1.0 -0.1913083492
C  C675  1  0.63060000  0.34900000  0.04280000  1.0 -0.1913083492
C  C676  1  0.80620000  0.58780000  0.45720000  1.0 -0.1913083492
C  C677  1  0.78160000  0.69380000  0.15100000  1.0 -0.1913083492
C  C678  1  0.71840000  0.86940000  0.91220000  1.0 -0.1913083492
C  C679  1  0.04280000  0.63060000  0.34900000  1.0 -0.1913083492
C  C680  1  0.45720000  0.80620000  0.58780000  1.0 -0.1913083492
C  C681  1  0.15100000  0.78160000  0.69380000  1.0 -0.1913083492
C  C682  1  0.91220000  0.71840000  0.86940000  1.0 -0.1913083492
C  C683  1  0.34900000  0.04280000  0.63060000  1.0 -0.1913083492
C  C684  1  0.58780000  0.45720000  0.80620000  1.0 -0.1913083492
C  C685  1  0.58780000  0.63060000  0.78160000  1.0 -0.1913083492
C  C686  1  0.34900000  0.80620000  0.71840000  1.0 -0.1913083492
C  C687  1  0.91220000  0.69380000  0.04280000  1.0 -0.1913083492
C  C688  1  0.15100000  0.86940000  0.45720000  1.0 -0.1913083492
C  C689  1  0.86940000  0.45720000  0.15100000  1.0 -0.1913083492
C  C690  1  0.69380000  0.04280000  0.91220000  1.0 -0.1913083492
C  C691  1  0.80620000  0.71840000  0.34900000  1.0 -0.1913083492
C  C692  1  0.63060000  0.78160000  0.58780000  1.0 -0.1913083492
C  C693  1  0.04280000  0.91220000  0.69380000  1.0 -0.1913083492
C  C694  1  0.45720000  0.15100000  0.86940000  1.0 -0.1913083492
C  C695  1  0.78160000  0.58780000  0.63060000  1.0 -0.1913083492
C  C696  1  0.71840000  0.34900000  0.80620000  1.0 -0.1913083492
C  C697  1  0.30620000  0.84900000  0.21840000  1.0 -0.1913083492
C  C698  1  0.13060000  0.08780000  0.28160000  1.0 -0.1913083492
C  C699  1  0.36940000  0.65100000  0.95720000  1.0 -0.1913083492
C  C700  1  0.19380000  0.41220000  0.54280000  1.0 -0.1913083492
C  C701  1  0.21840000  0.30620000  0.84900000  1.0 -0.1913083492
C  C702  1  0.28160000  0.13060000  0.08780000  1.0 -0.1913083492
C  C703  1  0.95720000  0.36940000  0.65100000  1.0 -0.1913083492
C  C704  1  0.54280000  0.19380000  0.41220000  1.0 -0.1913083492
C  C705  1  0.84900000  0.21840000  0.30620000  1.0 -0.1913083492
C  C706  1  0.08780000  0.28160000  0.13060000  1.0 -0.1913083492
C  C707  1  0.65100000  0.95720000  0.36940000  1.0 -0.1913083492
C  C708  1  0.41220000  0.54280000  0.19380000  1.0 -0.1913083492
C  C709  1  0.41220000  0.36940000  0.21840000  1.0 -0.1913083492
C  C710  1  0.65100000  0.19380000  0.28160000  1.0 -0.1913083492
C  C711  1  0.08780000  0.30620000  0.95720000  1.0 -0.1913083492
C  C712  1  0.84900000  0.13060000  0.54280000  1.0 -0.1913083492
C  C713  1  0.13060000  0.54280000  0.84900000  1.0 -0.1913083492
C  C714  1  0.30620000  0.95720000  0.08780000  1.0 -0.1913083492
C  C715  1  0.19380000  0.28160000  0.65100000  1.0 -0.1913083492
C  C716  1  0.36940000  0.21840000  0.41220000  1.0 -0.1913083492
C  C717  1  0.95720000  0.08780000  0.30620000  1.0 -0.1913083492
C  C718  1  0.54280000  0.84900000  0.13060000  1.0 -0.1913083492
C  C719  1  0.21840000  0.41220000  0.36940000  1.0 -0.1913083492
C  C720  1  0.28160000  0.65100000  0.19380000  1.0 -0.1913083492
N  N1  1  0.74720000  0.07820000  0.72900000  1.0 -0.3922677215
N  N2  1  0.84920000  0.01820000  0.77100000  1.0 -0.3922677215
N  N3  1  0.65080000  0.42180000  0.16900000  1.0 -0.3922677215
N  N4  1  0.75280000  0.48180000  0.33100000  1.0 -0.3922677215
N  N5  1  0.72900000  0.74720000  0.07820000  1.0 -0.3922677215
N  N6  1  0.77100000  0.84920000  0.01820000  1.0 -0.3922677215
N  N7  1  0.16900000  0.65080000  0.42180000  1.0 -0.3922677215
N  N8  1  0.33100000  0.75280000  0.48180000  1.0 -0.3922677215
N  N9  1  0.07820000  0.72900000  0.74720000  1.0 -0.3922677215
N  N10  1  0.01820000  0.77100000  0.84920000  1.0 -0.3922677215
N  N11  1  0.42180000  0.16900000  0.65080000  1.0 -0.3922677215
N  N12  1  0.48180000  0.33100000  0.75280000  1.0 -0.3922677215
N  N13  1  0.48180000  0.65080000  0.72900000  1.0 -0.3922677215
N  N14  1  0.42180000  0.75280000  0.77100000  1.0 -0.3922677215
N  N15  1  0.01820000  0.74720000  0.16900000  1.0 -0.3922677215
N  N16  1  0.07820000  0.84920000  0.33100000  1.0 -0.3922677215
N  N17  1  0.84920000  0.33100000  0.07820000  1.0 -0.3922677215
N  N18  1  0.74720000  0.16900000  0.01820000  1.0 -0.3922677215
N  N19  1  0.75280000  0.77100000  0.42180000  1.0 -0.3922677215
N  N20  1  0.65080000  0.72900000  0.48180000  1.0 -0.3922677215
N  N21  1  0.16900000  0.01820000  0.74720000  1.0 -0.3922677215
N  N22  1  0.33100000  0.07820000  0.84920000  1.0 -0.3922677215
N  N23  1  0.72900000  0.48180000  0.65080000  1.0 -0.3922677215
N  N24  1  0.77100000  0.42180000  0.75280000  1.0 -0.3922677215
N  N25  1  0.25280000  0.92180000  0.27100000  1.0 -0.3922677215
N  N26  1  0.15080000  0.98180000  0.22900000  1.0 -0.3922677215
N  N27  1  0.34920000  0.57820000  0.83100000  1.0 -0.3922677215
N  N28  1  0.24720000  0.51820000  0.66900000  1.0 -0.3922677215
N  N29  1  0.27100000  0.25280000  0.92180000  1.0 -0.3922677215
N  N30  1  0.22900000  0.15080000  0.98180000  1.0 -0.3922677215
N  N31  1  0.83100000  0.34920000  0.57820000  1.0 -0.3922677215
N  N32  1  0.66900000  0.24720000  0.51820000  1.0 -0.3922677215
N  N33  1  0.92180000  0.27100000  0.25280000  1.0 -0.3922677215
N  N34  1  0.98180000  0.22900000  0.15080000  1.0 -0.3922677215
N  N35  1  0.57820000  0.83100000  0.34920000  1.0 -0.3922677215
N  N36  1  0.51820000  0.66900000  0.24720000  1.0 -0.3922677215
N  N37  1  0.51820000  0.34920000  0.27100000  1.0 -0.3922677215
N  N38  1  0.57820000  0.24720000  0.22900000  1.0 -0.3922677215
N  N39  1  0.98180000  0.25280000  0.83100000  1.0 -0.3922677215
N  N40  1  0.92180000  0.15080000  0.66900000  1.0 -0.3922677215
N  N41  1  0.15080000  0.66900000  0.92180000  1.0 -0.3922677215
N  N42  1  0.25280000  0.83100000  0.98180000  1.0 -0.3922677215
N  N43  1  0.24720000  0.22900000  0.57820000  1.0 -0.3922677215
N  N44  1  0.34920000  0.27100000  0.51820000  1.0 -0.3922677215
N  N45  1  0.83100000  0.98180000  0.25280000  1.0 -0.3922677215
N  N46  1  0.66900000  0.92180000  0.15080000  1.0 -0.3922677215
N  N47  1  0.27100000  0.51820000  0.34920000  1.0 -0.3922677215
N  N48  1  0.22900000  0.57820000  0.24720000  1.0 -0.3922677215
N  N49  1  0.88370000  0.16980000  0.87190000  1.0 -0.3200918276
N  N50  1  0.79790000  0.01180000  0.62810000  1.0 -0.3200918276
N  N51  1  0.70210000  0.33020000  0.21390000  1.0 -0.3200918276
N  N52  1  0.61630000  0.48820000  0.28610000  1.0 -0.3200918276
N  N53  1  0.87190000  0.88370000  0.16980000  1.0 -0.3200918276
N  N54  1  0.62810000  0.79790000  0.01180000  1.0 -0.3200918276
N  N55  1  0.21390000  0.70210000  0.33020000  1.0 -0.3200918276
N  N56  1  0.28610000  0.61630000  0.48820000  1.0 -0.3200918276
N  N57  1  0.16980000  0.87190000  0.88370000  1.0 -0.3200918276
N  N58  1  0.01180000  0.62810000  0.79790000  1.0 -0.3200918276
N  N59  1  0.33020000  0.21390000  0.70210000  1.0 -0.3200918276
N  N60  1  0.48820000  0.28610000  0.61630000  1.0 -0.3200918276
N  N61  1  0.48820000  0.70210000  0.87190000  1.0 -0.3200918276
N  N62  1  0.33020000  0.61630000  0.62810000  1.0 -0.3200918276
N  N63  1  0.01180000  0.88370000  0.21390000  1.0 -0.3200918276
N  N64  1  0.16980000  0.79790000  0.28610000  1.0 -0.3200918276
N  N65  1  0.79790000  0.28610000  0.16980000  1.0 -0.3200918276
N  N66  1  0.88370000  0.21390000  0.01180000  1.0 -0.3200918276
N  N67  1  0.61630000  0.62810000  0.33020000  1.0 -0.3200918276
N  N68  1  0.70210000  0.87190000  0.48820000  1.0 -0.3200918276
N  N69  1  0.21390000  0.01180000  0.88370000  1.0 -0.3200918276
N  N70  1  0.28610000  0.16980000  0.79790000  1.0 -0.3200918276
N  N71  1  0.87190000  0.48820000  0.70210000  1.0 -0.3200918276
N  N72  1  0.62810000  0.33020000  0.61630000  1.0 -0.3200918276
N  N73  1  0.11630000  0.83020000  0.12810000  1.0 -0.3200918276
N  N74  1  0.20210000  0.98820000  0.37190000  1.0 -0.3200918276
N  N75  1  0.29790000  0.66980000  0.78610000  1.0 -0.3200918276
N  N76  1  0.38370000  0.51180000  0.71390000  1.0 -0.3200918276
N  N77  1  0.12810000  0.11630000  0.83020000  1.0 -0.3200918276
N  N78  1  0.37190000  0.20210000  0.98820000  1.0 -0.3200918276
N  N79  1  0.78610000  0.29790000  0.66980000  1.0 -0.3200918276
N  N80  1  0.71390000  0.38370000  0.51180000  1.0 -0.3200918276
N  N81  1  0.83020000  0.12810000  0.11630000  1.0 -0.3200918276
N  N82  1  0.98820000  0.37190000  0.20210000  1.0 -0.3200918276
N  N83  1  0.66980000  0.78610000  0.29790000  1.0 -0.3200918276
N  N84  1  0.51180000  0.71390000  0.38370000  1.0 -0.3200918276
N  N85  1  0.51180000  0.29790000  0.12810000  1.0 -0.3200918276
N  N86  1  0.66980000  0.38370000  0.37190000  1.0 -0.3200918276
N  N87  1  0.98820000  0.11630000  0.78610000  1.0 -0.3200918276
N  N88  1  0.83020000  0.20210000  0.71390000  1.0 -0.3200918276
N  N89  1  0.20210000  0.71390000  0.83020000  1.0 -0.3200918276
N  N90  1  0.11630000  0.78610000  0.98820000  1.0 -0.3200918276
N  N91  1  0.38370000  0.37190000  0.66980000  1.0 -0.3200918276
N  N92  1  0.29790000  0.12810000  0.51180000  1.0 -0.3200918276
N  N93  1  0.78610000  0.98820000  0.11630000  1.0 -0.3200918276
N  N94  1  0.71390000  0.83020000  0.20210000  1.0 -0.3200918276
N  N95  1  0.12810000  0.51180000  0.29790000  1.0 -0.3200918276
N  N96  1  0.37190000  0.66980000  0.38370000  1.0 -0.3200918276
N  N97  1  0.94170000  0.17146000  0.97056000  1.0 -0.1513121138
N  N98  1  0.70090000  0.97114000  0.52944000  1.0 -0.1513121138
N  N99  1  0.79910000  0.32854000  0.27024000  1.0 -0.1513121138
N  N100  1  0.55830000  0.52886000  0.22976000  1.0 -0.1513121138
N  N101  1  0.97056000  0.94170000  0.17146000  1.0 -0.1513121138
N  N102  1  0.52944000  0.70090000  0.97114000  1.0 -0.1513121138
N  N103  1  0.27024000  0.79910000  0.32854000  1.0 -0.1513121138
N  N104  1  0.22976000  0.55830000  0.52886000  1.0 -0.1513121138
N  N105  1  0.17146000  0.97056000  0.94170000  1.0 -0.1513121138
N  N106  1  0.97114000  0.52944000  0.70090000  1.0 -0.1513121138
N  N107  1  0.32854000  0.27024000  0.79910000  1.0 -0.1513121138
N  N108  1  0.52886000  0.22976000  0.55830000  1.0 -0.1513121138
N  N109  1  0.52886000  0.79910000  0.97056000  1.0 -0.1513121138
N  N110  1  0.32854000  0.55830000  0.52944000  1.0 -0.1513121138
N  N111  1  0.97114000  0.94170000  0.27024000  1.0 -0.1513121138
N  N112  1  0.17146000  0.70090000  0.22976000  1.0 -0.1513121138
N  N113  1  0.70090000  0.22976000  0.17146000  1.0 -0.1513121138
N  N114  1  0.94170000  0.27024000  0.97114000  1.0 -0.1513121138
N  N115  1  0.55830000  0.52944000  0.32854000  1.0 -0.1513121138
N  N116  1  0.79910000  0.97056000  0.52886000  1.0 -0.1513121138
N  N117  1  0.27024000  0.97114000  0.94170000  1.0 -0.1513121138
N  N118  1  0.22976000  0.17146000  0.70090000  1.0 -0.1513121138
N  N119  1  0.97056000  0.52886000  0.79910000  1.0 -0.1513121138
N  N120  1  0.52944000  0.32854000  0.55830000  1.0 -0.1513121138
N  N121  1  0.05830000  0.82854000  0.02944000  1.0 -0.1513121138
N  N122  1  0.29910000  0.02886000  0.47056000  1.0 -0.1513121138
N  N123  1  0.20090000  0.67146000  0.72976000  1.0 -0.1513121138
N  N124  1  0.44170000  0.47114000  0.77024000  1.0 -0.1513121138
N  N125  1  0.02944000  0.05830000  0.82854000  1.0 -0.1513121138
N  N126  1  0.47056000  0.29910000  0.02886000  1.0 -0.1513121138
N  N127  1  0.72976000  0.20090000  0.67146000  1.0 -0.1513121138
N  N128  1  0.77024000  0.44170000  0.47114000  1.0 -0.1513121138
N  N129  1  0.82854000  0.02944000  0.05830000  1.0 -0.1513121138
N  N130  1  0.02886000  0.47056000  0.29910000  1.0 -0.1513121138
N  N131  1  0.67146000  0.72976000  0.20090000  1.0 -0.1513121138
N  N132  1  0.47114000  0.77024000  0.44170000  1.0 -0.1513121138
N  N133  1  0.47114000  0.20090000  0.02944000  1.0 -0.1513121138
N  N134  1  0.67146000  0.44170000  0.47056000  1.0 -0.1513121138
N  N135  1  0.02886000  0.05830000  0.72976000  1.0 -0.1513121138
N  N136  1  0.82854000  0.29910000  0.77024000  1.0 -0.1513121138
N  N137  1  0.29910000  0.77024000  0.82854000  1.0 -0.1513121138
N  N138  1  0.05830000  0.72976000  0.02886000  1.0 -0.1513121138
N  N139  1  0.44170000  0.47056000  0.67146000  1.0 -0.1513121138
N  N140  1  0.20090000  0.02944000  0.47114000  1.0 -0.1513121138
N  N141  1  0.72976000  0.02886000  0.05830000  1.0 -0.1513121138
N  N142  1  0.77024000  0.82854000  0.29910000  1.0 -0.1513121138
N  N143  1  0.02944000  0.47114000  0.20090000  1.0 -0.1513121138
N  N144  1  0.47056000  0.67146000  0.44170000  1.0 -0.1513121138
N  N145  1  0.82140000  0.20890000  0.91250000  1.0 -0.1561830509
N  N146  1  0.79640000  0.90890000  0.58750000  1.0 -0.1513121138
N  N147  1  0.70360000  0.29110000  0.11250000  1.0 -0.1561830509
N  N148  1  0.67860000  0.59110000  0.38750000  1.0 -0.1561830509
N  N149  1  0.91250000  0.82140000  0.20890000  1.0 -0.1513121138
N  N150  1  0.58750000  0.79640000  0.90890000  1.0 -0.1561830509
N  N151  1  0.11250000  0.70360000  0.29110000  1.0 -0.1561830509
N  N152  1  0.38750000  0.67860000  0.59110000  1.0 -0.1561830509
N  N153  1  0.20890000  0.91250000  0.82140000  1.0 -0.1561830509
N  N154  1  0.90890000  0.58750000  0.79640000  1.0 -0.1561830509
N  N155  1  0.29110000  0.11250000  0.70360000  1.0 -0.1561830509
N  N156  1  0.59110000  0.38750000  0.67860000  1.0 -0.1561830509
N  N157  1  0.59110000  0.70360000  0.91250000  1.0 -0.1561830509
N  N158  1  0.29110000  0.67860000  0.58750000  1.0 -0.1561830509
N  N159  1  0.90890000  0.82140000  0.11250000  1.0 -0.1513121138
N  N160  1  0.20890000  0.79640000  0.38750000  1.0 -0.1561830509
N  N161  1  0.79640000  0.38750000  0.20890000  1.0 -0.1561830509
N  N162  1  0.82140000  0.11250000  0.90890000  1.0 -0.1513121138
N  N163  1  0.67860000  0.58750000  0.29110000  1.0 -0.1561830509
N  N164  1  0.70360000  0.91250000  0.59110000  1.0 -0.1513121138
N  N165  1  0.11250000  0.90890000  0.82140000  1.0 -0.1561830509
N  N166  1  0.38750000  0.20890000  0.79640000  1.0 -0.1561830509
N  N167  1  0.91250000  0.59110000  0.70360000  1.0 -0.1561830509
N  N168  1  0.58750000  0.29110000  0.67860000  1.0 -0.1561830509
N  N169  1  0.17860000  0.79110000  0.08750000  1.0 -0.1561830509
N  N170  1  0.20360000  0.09110000  0.41250000  1.0 -0.1561830509
N  N171  1  0.29640000  0.70890000  0.88750000  1.0 -0.1561830509
N  N172  1  0.32140000  0.40890000  0.61250000  1.0 -0.1561830509
N  N173  1  0.08750000  0.17860000  0.79110000  1.0 -0.1513121138
N  N174  1  0.41250000  0.20360000  0.09110000  1.0 -0.1561830509
N  N175  1  0.88750000  0.29640000  0.70890000  1.0 -0.1561830509
N  N176  1  0.61250000  0.32140000  0.40890000  1.0 -0.1513121138
N  N177  1  0.79110000  0.08750000  0.17860000  1.0 -0.1561830509
N  N178  1  0.09110000  0.41250000  0.20360000  1.0 -0.1561830509
N  N179  1  0.70890000  0.88750000  0.29640000  1.0 -0.1513121138
N  N180  1  0.40890000  0.61250000  0.32140000  1.0 -0.1561830509
N  N181  1  0.40890000  0.29640000  0.08750000  1.0 -0.1561830509
N  N182  1  0.70890000  0.32140000  0.41250000  1.0 -0.1513121138
N  N183  1  0.09110000  0.17860000  0.88750000  1.0 -0.1513121138
N  N184  1  0.79110000  0.20360000  0.61250000  1.0 -0.1561830509
N  N185  1  0.20360000  0.61250000  0.79110000  1.0 -0.1561830509
N  N186  1  0.17860000  0.88750000  0.09110000  1.0 -0.1561830509
N  N187  1  0.32140000  0.41250000  0.70890000  1.0 -0.1561830509
N  N188  1  0.29640000  0.08750000  0.40890000  1.0 -0.1561830509
N  N189  1  0.88750000  0.09110000  0.17860000  1.0 -0.1561830509
N  N190  1  0.61250000  0.79110000  0.20360000  1.0 -0.1561830509
N  N191  1  0.08750000  0.40890000  0.29640000  1.0 -0.1561830509
N  N192  1  0.41250000  0.70890000  0.32140000  1.0 -0.1561830509
O  O1  1  0.67300000  0.09270000  0.76310000  1.0 -0.1913083492
O  O2  1  0.82960000  0.90990000  0.73690000  1.0 -0.1913083492
O  O3  1  0.67040000  0.40730000  0.08030000  1.0 -0.1913083492
O  O4  1  0.82700000  0.59010000  0.41970000  1.0 -0.1913083492
O  O5  1  0.76310000  0.67300000  0.09270000  1.0 -0.1913083492
O  O6  1  0.73690000  0.82960000  0.90990000  1.0 -0.1913083492
O  O7  1  0.08030000  0.67040000  0.40730000  1.0 -0.1913083492
O  O8  1  0.41970000  0.82700000  0.59010000  1.0 -0.1913083492
O  O9  1  0.09270000  0.76310000  0.67300000  1.0 -0.1913083492
O  O10  1  0.90990000  0.73690000  0.82960000  1.0 -0.1913083492
O  O11  1  0.40730000  0.08030000  0.67040000  1.0 -0.1913083492
O  O12  1  0.59010000  0.41970000  0.82700000  1.0 -0.1913083492
O  O13  1  0.59010000  0.67040000  0.76310000  1.0 -0.1913083492
O  O14  1  0.40730000  0.82700000  0.73690000  1.0 -0.1913083492
O  O15  1  0.90990000  0.67300000  0.08030000  1.0 -0.1913083492
O  O16  1  0.09270000  0.82960000  0.41970000  1.0 -0.1913083492
O  O17  1  0.82960000  0.41970000  0.09270000  1.0 -0.1913083492
O  O18  1  0.67300000  0.08030000  0.90990000  1.0 -0.1913083492
O  O19  1  0.82700000  0.73690000  0.40730000  1.0 -0.1913083492
O  O20  1  0.67040000  0.76310000  0.59010000  1.0 -0.1913083492
O  O21  1  0.08030000  0.90990000  0.67300000  1.0 -0.1913083492
O  O22  1  0.41970000  0.09270000  0.82960000  1.0 -0.1913083492
O  O23  1  0.76310000  0.59010000  0.67040000  1.0 -0.1913083492
O  O24  1  0.73690000  0.40730000  0.82700000  1.0 -0.1913083492
O  O25  1  0.32700000  0.90730000  0.23690000  1.0 -0.1913083492
O  O26  1  0.17040000  0.09010000  0.26310000  1.0 -0.1913083492
O  O27  1  0.32960000  0.59270000  0.91970000  1.0 -0.1913083492
O  O28  1  0.17300000  0.40990000  0.58030000  1.0 -0.1913083492
O  O29  1  0.23690000  0.32700000  0.90730000  1.0 -0.1913083492
O  O30  1  0.26310000  0.17040000  0.09010000  1.0 -0.1913083492
O  O31  1  0.91970000  0.32960000  0.59270000  1.0 -0.1913083492
O  O32  1  0.58030000  0.17300000  0.40990000  1.0 -0.1913083492
O  O33  1  0.90730000  0.23690000  0.32700000  1.0 -0.1913083492
O  O34  1  0.09010000  0.26310000  0.17040000  1.0 -0.1913083492
O  O35  1  0.59270000  0.91970000  0.32960000  1.0 -0.1913083492
O  O36  1  0.40990000  0.58030000  0.17300000  1.0 -0.1913083492
O  O37  1  0.40990000  0.32960000  0.23690000  1.0 -0.1913083492
O  O38  1  0.59270000  0.17300000  0.26310000  1.0 -0.1913083492
O  O39  1  0.09010000  0.32700000  0.91970000  1.0 -0.1913083492
O  O40  1  0.90730000  0.17040000  0.58030000  1.0 -0.1913083492
O  O41  1  0.17040000  0.58030000  0.90730000  1.0 -0.1913083492
O  O42  1  0.32700000  0.91970000  0.09010000  1.0 -0.1913083492
O  O43  1  0.17300000  0.26310000  0.59270000  1.0 -0.1913083492
O  O44  1  0.32960000  0.23690000  0.40990000  1.0 -0.1913083492
O  O45  1  0.91970000  0.09010000  0.32700000  1.0 -0.1913083492
O  O46  1  0.58030000  0.90730000  0.17040000  1.0 -0.1913083492
O  O47  1  0.23690000  0.40990000  0.32960000  1.0 -0.1913083492
O  O48  1  0.26310000  0.59270000  0.17300000  1.0 -0.1913083492
O  O49  1  0.01750000  0.09730000  0.08000000  1.0 -0.2458836173
O  O50  1  0.51730000  0.93750000  0.42000000  1.0 -0.2458836173
O  O51  1  0.98270000  0.40270000  0.42020000  1.0 -0.2458836173
O  O52  1  0.48250000  0.56250000  0.07980000  1.0 -0.2438241427
O  O53  1  0.08000000  0.01750000  0.09730000  1.0 -0.2458836173
O  O54  1  0.42000000  0.51730000  0.93750000  1.0 -0.2458836173
O  O55  1  0.42020000  0.98270000  0.40270000  1.0 -0.2458836173
O  O56  1  0.07980000  0.48250000  0.56250000  1.0 -0.2438241427
O  O57  1  0.09730000  0.08000000  0.01750000  1.0 -0.2438241427
O  O58  1  0.93750000  0.42000000  0.51730000  1.0 -0.2438241427
O  O59  1  0.40270000  0.42020000  0.98270000  1.0 -0.2458836173
O  O60  1  0.56250000  0.07980000  0.48250000  1.0 -0.2458836173
O  O61  1  0.56250000  0.98270000  0.08000000  1.0 -0.2458836173
O  O62  1  0.40270000  0.48250000  0.42000000  1.0 -0.2438241427
O  O63  1  0.93750000  0.01750000  0.42020000  1.0 -0.2438241427
O  O64  1  0.09730000  0.51730000  0.07980000  1.0 -0.2458836173
O  O65  1  0.51730000  0.07980000  0.09730000  1.0 -0.2458836173
O  O66  1  0.01750000  0.42020000  0.93750000  1.0 -0.2438241427
O  O67  1  0.48250000  0.42000000  0.40270000  1.0 -0.2458836173
O  O68  1  0.98270000  0.08000000  0.56250000  1.0 -0.2458836173
O  O69  1  0.42020000  0.93750000  0.01750000  1.0 -0.2458836173
O  O70  1  0.07980000  0.09730000  0.51730000  1.0 -0.2438241427
O  O71  1  0.08000000  0.56250000  0.98270000  1.0 -0.2458836173
O  O72  1  0.42000000  0.40270000  0.48250000  1.0 -0.2438241427
O  O73  1  0.98250000  0.90270000  0.92000000  1.0 -0.2458836173
O  O74  1  0.48270000  0.06250000  0.58000000  1.0 -0.2438241427
O  O75  1  0.01730000  0.59730000  0.57980000  1.0 -0.2458836173
O  O76  1  0.51750000  0.43750000  0.92020000  1.0 -0.2458836173
O  O77  1  0.92000000  0.98250000  0.90270000  1.0 -0.2438241427
O  O78  1  0.58000000  0.48270000  0.06250000  1.0 -0.2458836173
O  O79  1  0.57980000  0.01730000  0.59730000  1.0 -0.2438241427
O  O80  1  0.92020000  0.51750000  0.43750000  1.0 -0.2458836173
O  O81  1  0.90270000  0.92000000  0.98250000  1.0 -0.2458836173
O  O82  1  0.06250000  0.58000000  0.48270000  1.0 -0.2458836173
O  O83  1  0.59730000  0.57980000  0.01730000  1.0 -0.2438241427
O  O84  1  0.43750000  0.92020000  0.51750000  1.0 -0.2458836173
O  O85  1  0.43750000  0.01730000  0.92000000  1.0 -0.2438241427
O  O86  1  0.59730000  0.51750000  0.58000000  1.0 -0.2438241427
O  O87  1  0.06250000  0.98250000  0.57980000  1.0 -0.2438241427
O  O88  1  0.90270000  0.48270000  0.92020000  1.0 -0.2458836173
O  O89  1  0.48270000  0.92020000  0.90270000  1.0 -0.2458836173
O  O90  1  0.98250000  0.57980000  0.06250000  1.0 -0.2438241427
O  O91  1  0.51750000  0.58000000  0.59730000  1.0 -0.2458836173
O  O92  1  0.01730000  0.92000000  0.43750000  1.0 -0.2458836173
O  O93  1  0.57980000  0.06250000  0.98250000  1.0 -0.2458836173
O  O94  1  0.92020000  0.90270000  0.48270000  1.0 -0.2458836173
O  O95  1  0.92000000  0.43750000  0.01730000  1.0 -0.2458836173
O  O96  1  0.58000000  0.59730000  0.51750000  1.0 -0.2458836173
O  O97  1  0.02260000  0.15540000  0.12220000  1.0 -0.2318321147
O  O98  1  0.53320000  0.90040000  0.37780000  1.0 -0.2318321147
O  O99  1  0.96680000  0.34460000  0.36720000  1.0 -0.2318321147
O  O100  1  0.47740000  0.59960000  0.13280000  1.0 -0.2318321147
O  O101  1  0.12220000  0.02260000  0.15540000  1.0 -0.2318321147
O  O102  1  0.37780000  0.53320000  0.90040000  1.0 -0.2318321147
O  O103  1  0.36720000  0.96680000  0.34460000  1.0 -0.2318321147
O  O104  1  0.13280000  0.47740000  0.59960000  1.0 -0.2318321147
O  O105  1  0.15540000  0.12220000  0.02260000  1.0 -0.2318321147
O  O106  1  0.90040000  0.37780000  0.53320000  1.0 -0.2318321147
O  O107  1  0.34460000  0.36720000  0.96680000  1.0 -0.2318321147
O  O108  1  0.59960000  0.13280000  0.47740000  1.0 -0.2318321147
O  O109  1  0.59960000  0.96680000  0.12220000  1.0 -0.2318321147
O  O110  1  0.34460000  0.47740000  0.37780000  1.0 -0.2318321147
O  O111  1  0.90040000  0.02260000  0.36720000  1.0 -0.2318321147
O  O112  1  0.15540000  0.53320000  0.13280000  1.0 -0.2318321147
O  O113  1  0.53320000  0.13280000  0.15540000  1.0 -0.2318321147
O  O114  1  0.02260000  0.36720000  0.90040000  1.0 -0.2318321147
O  O115  1  0.47740000  0.37780000  0.34460000  1.0 -0.2318321147
O  O116  1  0.96680000  0.12220000  0.59960000  1.0 -0.2318321147
O  O117  1  0.36720000  0.90040000  0.02260000  1.0 -0.2318321147
O  O118  1  0.13280000  0.15540000  0.53320000  1.0 -0.2318321147
O  O119  1  0.12220000  0.59960000  0.96680000  1.0 -0.2318321147
O  O120  1  0.37780000  0.34460000  0.47740000  1.0 -0.2318321147
O  O121  1  0.97740000  0.84460000  0.87780000  1.0 -0.2318321147
O  O122  1  0.46680000  0.09960000  0.62220000  1.0 -0.2318321147
O  O123  1  0.03320000  0.65540000  0.63280000  1.0 -0.2318321147
O  O124  1  0.52260000  0.40040000  0.86720000  1.0 -0.2318321147
O  O125  1  0.87780000  0.97740000  0.84460000  1.0 -0.2318321147
O  O126  1  0.62220000  0.46680000  0.09960000  1.0 -0.2318321147
O  O127  1  0.63280000  0.03320000  0.65540000  1.0 -0.2318321147
O  O128  1  0.86720000  0.52260000  0.40040000  1.0 -0.2318321147
O  O129  1  0.84460000  0.87780000  0.97740000  1.0 -0.2318321147
O  O130  1  0.09960000  0.62220000  0.46680000  1.0 -0.2318321147
O  O131  1  0.65540000  0.63280000  0.03320000  1.0 -0.2318321147
O  O132  1  0.40040000  0.86720000  0.52260000  1.0 -0.2318321147
O  O133  1  0.40040000  0.03320000  0.87780000  1.0 -0.2318321147
O  O134  1  0.65540000  0.52260000  0.62220000  1.0 -0.2318321147
O  O135  1  0.09960000  0.97740000  0.63280000  1.0 -0.2318321147
O  O136  1  0.84460000  0.46680000  0.86720000  1.0 -0.2318321147
O  O137  1  0.46680000  0.86720000  0.84460000  1.0 -0.2318321147
O  O138  1  0.97740000  0.63280000  0.09960000  1.0 -0.2318321147
O  O139  1  0.52260000  0.62220000  0.65540000  1.0 -0.2318321147
O  O140  1  0.03320000  0.87780000  0.40040000  1.0 -0.2318321147
O  O141  1  0.63280000  0.09960000  0.97740000  1.0 -0.2318321147
O  O142  1  0.86720000  0.84460000  0.46680000  1.0 -0.2318321147
O  O143  1  0.87780000  0.40040000  0.03320000  1.0 -0.2318321147
O  O144  1  0.62220000  0.65540000  0.52260000  1.0 -0.2318321147
