# DDEC6 charges by PACMAN v1.1 (https://github.com/mtap-research/PACMAN-charge/)
data_UBIBUF_ASR_pacman
_symmetry_space_group_name_H-M   'P 1'
_cell_length_a   23.06870000
_cell_length_b   23.06870000
_cell_length_c   20.75870000
_cell_angle_alpha   90.00000000
_cell_angle_beta   90.00000000
_cell_angle_gamma   120.00000000
_symmetry_Int_Tables_number   1
_chemical_formula_structural   ZnH3C8NO4
_chemical_formula_sum   'Zn18 H54 C144 N18 O72'
_cell_volume   9567.02759823
_cell_formula_units_Z   18
loop_
 _symmetry_equiv_pos_site_id
 _symmetry_equiv_pos_as_xyz
  1  'x, y, z'
loop_
 _atom_site_type_symbol
 _atom_site_label
 _atom_site_symmetry_multiplicity
 _atom_site_fract_x
 _atom_site_fract_y
 _atom_site_fract_z
 _atom_site_occupancy
 _atom_site_charge
Zn  Zn1  1  0.18444000  0.40745000  0.18072000  1.0 0.9621217934
Zn  Zn2  1  0.59255000  0.77699000  0.18072000  1.0 0.9621217934
Zn  Zn3  1  0.22301000  0.81556000  0.18072000  1.0 0.9621217934
Zn  Zn4  1  0.81556000  0.59255000  0.81928000  1.0 0.9621217934
Zn  Zn5  1  0.40745000  0.22301000  0.81928000  1.0 0.9621217934
Zn  Zn6  1  0.77699000  0.18444000  0.81928000  1.0 0.9621217934
Zn  Zn7  1  0.11137000  0.25928000  0.15279000  1.0 0.9301982808
Zn  Zn8  1  0.74072000  0.85209000  0.15279000  1.0 0.9301982808
Zn  Zn9  1  0.14791000  0.88863000  0.15279000  1.0 0.9301982808
Zn  Zn10  1  0.88863000  0.74072000  0.84721000  1.0 0.9301982808
Zn  Zn11  1  0.25928000  0.14791000  0.84721000  1.0 0.9301982808
Zn  Zn12  1  0.85209000  0.11137000  0.84721000  1.0 0.9301982808
Zn  Zn13  1  0.07413000  0.53033000  0.48560000  1.0 0.9899702557
Zn  Zn14  1  0.46967000  0.54380000  0.48560000  1.0 0.9899702557
Zn  Zn15  1  0.45620000  0.92587000  0.48560000  1.0 0.9899702557
Zn  Zn16  1  0.92587000  0.46967000  0.51440000  1.0 0.9899702557
Zn  Zn17  1  0.53033000  0.45620000  0.51440000  1.0 0.9899702557
Zn  Zn18  1  0.54380000  0.07413000  0.51440000  1.0 0.9899702557
H  H1  1  0.05470000  0.39550000  0.33140000  1.0 0.1387323377
H  H2  1  0.60450000  0.65920000  0.33140000  1.0 0.1387323377
H  H3  1  0.34080000  0.94530000  0.33140000  1.0 0.1387323377
H  H4  1  0.94530000  0.60450000  0.66860000  1.0 0.1387323377
H  H5  1  0.39550000  0.34080000  0.66860000  1.0 0.1387323377
H  H6  1  0.65920000  0.05470000  0.66860000  1.0 0.1387323377
H  H7  1  0.86480000  0.28190000  0.40530000  1.0 0.132151663
H  H8  1  0.71810000  0.58290000  0.40530000  1.0 0.132151663
H  H9  1  0.41710000  0.13520000  0.40530000  1.0 0.132151663
H  H10  1  0.13520000  0.71810000  0.59470000  1.0 0.132151663
H  H11  1  0.28190000  0.41710000  0.59470000  1.0 0.132151663
H  H12  1  0.58290000  0.86480000  0.59470000  1.0 0.132151663
H  H13  1  0.93040000  0.20440000  0.26440000  1.0 0.132151663
H  H14  1  0.79560000  0.72600000  0.26440000  1.0 0.132151663
H  H15  1  0.27400000  0.06960000  0.26440000  1.0 0.132151663
H  H16  1  0.06960000  0.79560000  0.73560000  1.0 0.132151663
H  H17  1  0.20440000  0.27400000  0.73560000  1.0 0.132151663
H  H18  1  0.72600000  0.93040000  0.73560000  1.0 0.132151663
H  H19  1  0.77330000  0.02360000  0.25940000  1.0 0.132151663
H  H20  1  0.97640000  0.74970000  0.25940000  1.0 0.132151663
H  H21  1  0.25030000  0.22670000  0.25940000  1.0 0.132151663
H  H22  1  0.22670000  0.97640000  0.74060000  1.0 0.132151663
H  H23  1  0.02360000  0.25030000  0.74060000  1.0 0.132151663
H  H24  1  0.74970000  0.77330000  0.74060000  1.0 0.132151663
H  H25  1  0.70900000  0.10180000  0.39140000  1.0 0.1215776036
H  H26  1  0.89820000  0.60720000  0.39140000  1.0 0.1215776036
H  H27  1  0.39280000  0.29100000  0.39140000  1.0 0.1215776036
H  H28  1  0.29100000  0.89820000  0.60860000  1.0 0.1215776036
H  H29  1  0.10180000  0.39280000  0.60860000  1.0 0.1215776036
H  H30  1  0.60720000  0.70900000  0.60860000  1.0 0.1215776036
H  H31  1  0.57970000  0.91340000  0.32510000  1.0 0.132151663
H  H32  1  0.08660000  0.66630000  0.32510000  1.0 0.132151663
H  H33  1  0.33370000  0.42030000  0.32510000  1.0 0.132151663
H  H34  1  0.42030000  0.08660000  0.67490000  1.0 0.132151663
H  H35  1  0.91340000  0.33370000  0.67490000  1.0 0.132151663
H  H36  1  0.66630000  0.57970000  0.67490000  1.0 0.132151663
H  H37  1  0.36570000  0.45750000  0.07800000  1.0 0.1387323377
H  H38  1  0.54250000  0.90820000  0.07800000  1.0 0.1387323377
H  H39  1  0.09180000  0.63430000  0.07800000  1.0 0.1387323377
H  H40  1  0.63430000  0.54250000  0.92200000  1.0 0.1387323377
H  H41  1  0.45750000  0.09180000  0.92200000  1.0 0.1387323377
H  H42  1  0.90820000  0.36570000  0.92200000  1.0 0.1387323377
H  H43  1  0.45000000  0.38540000  0.95180000  1.0 0.132151663
H  H44  1  0.61460000  0.06460000  0.95180000  1.0 0.132151663
H  H45  1  0.93540000  0.55000000  0.95180000  1.0 0.132151663
H  H46  1  0.55000000  0.61460000  0.04820000  1.0 0.132151663
H  H47  1  0.38540000  0.93540000  0.04820000  1.0 0.132151663
H  H48  1  0.06460000  0.45000000  0.04820000  1.0 0.132151663
H  H49  1  0.25280000  0.27370000  0.00360000  1.0 0.1387323377
H  H50  1  0.72630000  0.97910000  0.00360000  1.0 0.1387323377
H  H51  1  0.02090000  0.74720000  0.00360000  1.0 0.1387323377
H  H52  1  0.74720000  0.72630000  0.99640000  1.0 0.1387323377
H  H53  1  0.27370000  0.02090000  0.99640000  1.0 0.1387323377
H  H54  1  0.97910000  0.25280000  0.99640000  1.0 0.1387323377
C  C1  1  0.00140000  0.30360000  0.29690000  1.0 0.0102249669
C  C2  1  0.69640000  0.69780000  0.29690000  1.0 0.0102249669
C  C3  1  0.30220000  0.99860000  0.29690000  1.0 0.0102249669
C  C4  1  0.99860000  0.69640000  0.70310000  1.0 0.0102249669
C  C5  1  0.30360000  0.30220000  0.70310000  1.0 0.0102249669
C  C6  1  0.69780000  0.00140000  0.70310000  1.0 0.0102249669
C  C7  1  0.01280000  0.35510000  0.33240000  1.0 -0.0895652157
C  C8  1  0.64490000  0.65770000  0.33240000  1.0 -0.0845445158
C  C9  1  0.34230000  0.98720000  0.33240000  1.0 -0.0845445158
C  C10  1  0.98720000  0.64490000  0.66760000  1.0 -0.0845445158
C  C11  1  0.35510000  0.34230000  0.66760000  1.0 -0.0895652157
C  C12  1  0.65770000  0.01280000  0.66760000  1.0 -0.0895652157
C  C13  1  0.96180000  0.35070000  0.37580000  1.0 -0.0636654355
C  C14  1  0.64930000  0.61110000  0.37580000  1.0 -0.0636654355
C  C15  1  0.38890000  0.03820000  0.37580000  1.0 -0.0636654355
C  C16  1  0.03820000  0.64930000  0.62420000  1.0 -0.0655561325
C  C17  1  0.35070000  0.38890000  0.62420000  1.0 -0.0636654355
C  C18  1  0.61110000  0.96180000  0.62420000  1.0 -0.0636654355
C  C19  1  0.89920000  0.28770000  0.37640000  1.0 -0.1488591309
C  C20  1  0.71230000  0.61150000  0.37640000  1.0 -0.1488591309
C  C21  1  0.38850000  0.10080000  0.37640000  1.0 -0.1488591309
C  C22  1  0.10080000  0.71230000  0.62360000  1.0 -0.1444730175
C  C23  1  0.28770000  0.38850000  0.62360000  1.0 -0.1444730175
C  C24  1  0.61150000  0.89920000  0.62360000  1.0 -0.1444730175
C  C25  1  0.88920000  0.23900000  0.33800000  1.0 0.132151663
C  C26  1  0.76100000  0.65020000  0.33800000  1.0 0.132151663
C  C27  1  0.34980000  0.11080000  0.33800000  1.0 0.1215776036
C  C28  1  0.11080000  0.76100000  0.66200000  1.0 0.1215776036
C  C29  1  0.23900000  0.34980000  0.66200000  1.0 0.1215776036
C  C30  1  0.65020000  0.88920000  0.66200000  1.0 0.132151663
C  C31  1  0.93830000  0.24000000  0.29270000  1.0 -0.1774119039
C  C32  1  0.76000000  0.69830000  0.29270000  1.0 -0.1774119039
C  C33  1  0.30170000  0.06170000  0.29270000  1.0 -0.1774119039
C  C34  1  0.06170000  0.76000000  0.70730000  1.0 -0.1774119039
C  C35  1  0.24000000  0.30170000  0.70730000  1.0 -0.1774119039
C  C36  1  0.69830000  0.93830000  0.70730000  1.0 -0.1774119039
C  C37  1  0.05620000  0.30880000  0.24460000  1.0 0.5870579668
C  C38  1  0.69120000  0.74740000  0.24460000  1.0 0.5870579668
C  C39  1  0.25260000  0.94380000  0.24460000  1.0 0.5870579668
C  C40  1  0.94380000  0.69120000  0.75540000  1.0 0.5870579668
C  C41  1  0.30880000  0.25260000  0.75540000  1.0 0.5870579668
C  C42  1  0.74740000  0.05620000  0.75540000  1.0 0.5870579668
C  C43  1  0.67570000  0.95350000  0.29190000  1.0 -0.0379975469
C  C44  1  0.04650000  0.72220000  0.29190000  1.0 -0.0379975469
C  C45  1  0.27780000  0.32430000  0.29190000  1.0 -0.0379975469
C  C46  1  0.32430000  0.04650000  0.70810000  1.0 -0.0379975469
C  C47  1  0.95350000  0.27780000  0.70810000  1.0 -0.0344023791
C  C48  1  0.72220000  0.67570000  0.70810000  1.0 -0.0379975469
C  C49  1  0.73840000  0.01750000  0.28780000  1.0 -0.1631683198
C  C50  1  0.98250000  0.72090000  0.28780000  1.0 -0.1631683198
C  C51  1  0.27910000  0.26160000  0.28780000  1.0 -0.1631683198
C  C52  1  0.26160000  0.98250000  0.71220000  1.0 -0.1631683198
C  C53  1  0.01750000  0.27910000  0.71220000  1.0 -0.1631683198
C  C54  1  0.72090000  0.73840000  0.71220000  1.0 -0.1631683198
C  C55  1  0.74470000  0.06940000  0.32790000  1.0 0.0961202979
C  C56  1  0.93060000  0.67530000  0.32790000  1.0 0.0961202979
C  C57  1  0.32470000  0.25530000  0.32790000  1.0 0.0961202979
C  C58  1  0.25530000  0.93060000  0.67210000  1.0 0.0961202979
C  C59  1  0.06940000  0.32470000  0.67210000  1.0 0.0961202979
C  C60  1  0.67530000  0.74470000  0.67210000  1.0 0.0961202979
C  C61  1  0.70000000  0.06480000  0.36470000  1.0 -0.1162846115
C  C62  1  0.93520000  0.63520000  0.36470000  1.0 -0.1162846115
C  C63  1  0.36480000  0.30000000  0.36470000  1.0 -0.1162846115
C  C64  1  0.30000000  0.93520000  0.63530000  1.0 -0.1144645971
C  C65  1  0.06480000  0.36480000  0.63530000  1.0 -0.1162846115
C  C66  1  0.63520000  0.70000000  0.63530000  1.0 -0.1144645971
C  C67  1  0.63410000  0.00430000  0.36850000  1.0 -0.0636654355
C  C68  1  0.99570000  0.62980000  0.36850000  1.0 -0.0636654355
C  C69  1  0.37020000  0.36590000  0.36850000  1.0 -0.0636654355
C  C70  1  0.36590000  0.99570000  0.63150000  1.0 -0.0636654355
C  C71  1  0.00430000  0.37020000  0.63150000  1.0 -0.0655561325
C  C72  1  0.62980000  0.63410000  0.63150000  1.0 -0.0636654355
C  C73  1  0.62330000  0.95140000  0.32810000  1.0 -0.0895652157
C  C74  1  0.04860000  0.67190000  0.32810000  1.0 -0.0895652157
C  C75  1  0.32810000  0.37670000  0.32810000  1.0 -0.0895652157
C  C76  1  0.37670000  0.04860000  0.67190000  1.0 -0.0895652157
C  C77  1  0.95140000  0.32810000  0.67190000  1.0 -0.0895652157
C  C78  1  0.67190000  0.62330000  0.67190000  1.0 -0.0895652157
C  C79  1  0.67170000  0.89990000  0.25140000  1.0 0.5723741936
C  C80  1  0.10010000  0.77180000  0.25140000  1.0 0.5723741936
C  C81  1  0.22820000  0.32830000  0.25140000  1.0 0.5723741936
C  C82  1  0.32830000  0.10010000  0.74860000  1.0 0.5723741936
C  C83  1  0.89990000  0.22820000  0.74860000  1.0 0.5723741936
C  C84  1  0.77180000  0.67170000  0.74860000  1.0 0.5723741936
C  C85  1  0.57960000  0.00150000  0.40490000  1.0 0.5814049033
C  C86  1  0.99850000  0.57810000  0.40490000  1.0 0.5814049033
C  C87  1  0.42190000  0.42040000  0.40490000  1.0 0.5814049033
C  C88  1  0.42040000  0.99850000  0.59510000  1.0 0.5814049033
C  C89  1  0.00150000  0.42190000  0.59510000  1.0 0.5814049033
C  C90  1  0.57810000  0.57960000  0.59510000  1.0 0.5814049033
C  C91  1  0.30140000  0.36670000  0.04490000  1.0 0.0025056783
C  C92  1  0.63330000  0.93470000  0.04490000  1.0 0.0025056783
C  C93  1  0.06530000  0.69860000  0.04490000  1.0 0.0025056783
C  C94  1  0.69860000  0.63330000  0.95510000  1.0 0.0025056783
C  C95  1  0.36670000  0.06530000  0.95510000  1.0 0.0025056783
C  C96  1  0.93470000  0.30140000  0.95510000  1.0 0.0025056783
C  C97  1  0.36060000  0.42380000  0.04860000  1.0 -0.1444730175
C  C98  1  0.57620000  0.93680000  0.04860000  1.0 -0.1488591309
C  C99  1  0.06320000  0.63940000  0.04860000  1.0 -0.1488591309
C  C100  1  0.63940000  0.57620000  0.95140000  1.0 -0.1444730175
C  C101  1  0.42380000  0.06320000  0.95140000  1.0 -0.1444730175
C  C102  1  0.93680000  0.36060000  0.95140000  1.0 -0.1444730175
C  C103  1  0.41580000  0.43480000  0.00950000  1.0 0.1875858916
C  C104  1  0.56520000  0.98100000  0.00950000  1.0 0.1875858916
C  C105  1  0.01900000  0.58420000  0.00950000  1.0 0.1875858916
C  C106  1  0.58420000  0.56520000  0.99050000  1.0 0.1875858916
C  C107  1  0.43480000  0.01900000  0.99050000  1.0 0.1875858916
C  C108  1  0.98100000  0.41580000  0.99050000  1.0 0.1875858916
C  C109  1  0.41150000  0.38180000  0.97230000  1.0 -0.1488591309
C  C110  1  0.61820000  0.02970000  0.97230000  1.0 -0.1488591309
C  C111  1  0.97030000  0.58850000  0.97230000  1.0 -0.1488591309
C  C112  1  0.58850000  0.61820000  0.02770000  1.0 -0.1488591309
C  C113  1  0.38180000  0.97030000  0.02770000  1.0 -0.1488591309
C  C114  1  0.02970000  0.41150000  0.02770000  1.0 -0.1488591309
C  C115  1  0.35070000  0.32500000  0.96650000  1.0 0.0102249669
C  C116  1  0.67500000  0.02570000  0.96650000  1.0 0.0102249669
C  C117  1  0.97430000  0.64930000  0.96650000  1.0 0.0102249669
C  C118  1  0.64930000  0.67500000  0.03350000  1.0 0.0102249669
C  C119  1  0.32500000  0.97430000  0.03350000  1.0 0.0102249669
C  C120  1  0.02570000  0.35070000  0.03350000  1.0 0.0102249669
C  C121  1  0.29400000  0.31480000  0.00530000  1.0 -0.1162846115
C  C122  1  0.68520000  0.97920000  0.00530000  1.0 -0.1162846115
C  C123  1  0.02080000  0.70600000  0.00530000  1.0 -0.1162846115
C  C124  1  0.70600000  0.68520000  0.99470000  1.0 -0.1162846115
C  C125  1  0.31480000  0.02080000  0.99470000  1.0 -0.1162846115
C  C126  1  0.97920000  0.29400000  0.99470000  1.0 -0.1162846115
C  C127  1  0.33220000  0.26230000  0.91790000  1.0 0.5814049033
C  C128  1  0.73770000  0.06990000  0.91790000  1.0 0.5814049033
C  C129  1  0.93010000  0.66780000  0.91790000  1.0 0.5814049033
C  C130  1  0.66780000  0.73770000  0.08210000  1.0 0.5814049033
C  C131  1  0.26230000  0.93010000  0.08210000  1.0 0.5814049033
C  C132  1  0.06990000  0.33220000  0.08210000  1.0 0.5814049033
C  C133  1  0.23820000  0.34940000  0.08980000  1.0 0.5870579668
C  C134  1  0.65060000  0.88880000  0.08980000  1.0 0.5870579668
C  C135  1  0.11120000  0.76180000  0.08980000  1.0 0.5870579668
C  C136  1  0.76180000  0.65060000  0.91020000  1.0 0.5870579668
C  C137  1  0.34940000  0.11120000  0.91020000  1.0 0.5870579668
C  C138  1  0.88880000  0.23820000  0.91020000  1.0 0.5870579668
C  C139  1  0.96730000  0.40320000  0.41670000  1.0 0.5814049033
C  C140  1  0.59680000  0.56410000  0.41670000  1.0 0.5814049033
C  C141  1  0.43590000  0.03270000  0.41670000  1.0 0.5814049033
C  C142  1  0.03270000  0.59680000  0.58330000  1.0 0.5814049033
C  C143  1  0.40320000  0.43590000  0.58330000  1.0 0.5814049033
C  C144  1  0.56410000  0.96730000  0.58330000  1.0 0.5814049033
N  N1  1  0.81980000  0.17640000  0.34710000  1.0 -0.0895652157
N  N2  1  0.82360000  0.64340000  0.34710000  1.0 -0.0895652157
N  N3  1  0.35660000  0.18020000  0.34710000  1.0 -0.0895652157
N  N4  1  0.18020000  0.82360000  0.65290000  1.0 -0.0895652157
N  N5  1  0.17640000  0.35660000  0.65290000  1.0 -0.0895652157
N  N6  1  0.64340000  0.81980000  0.65290000  1.0 -0.0895652157
N  N7  1  0.82020000  0.13560000  0.31740000  1.0 -0.0379975469
N  N8  1  0.86440000  0.68460000  0.31740000  1.0 -0.0379975469
N  N9  1  0.31540000  0.17980000  0.31740000  1.0 -0.0344023791
N  N10  1  0.17980000  0.86440000  0.68260000  1.0 -0.0379975469
N  N11  1  0.13560000  0.31540000  0.68260000  1.0 -0.0379975469
N  N12  1  0.68460000  0.82020000  0.68260000  1.0 -0.0379975469
N  N13  1  0.47610000  0.49460000  0.02110000  1.0 -0.17310051
N  N14  1  0.50540000  0.98150000  0.02110000  1.0 -0.17310051
N  N15  1  0.01850000  0.52390000  0.02110000  1.0 -0.1774119039
N  N16  1  0.52390000  0.50540000  0.97890000  1.0 -0.17310051
N  N17  1  0.49460000  0.01850000  0.97890000  1.0 -0.1774119039
N  N18  1  0.98150000  0.47610000  0.97890000  1.0 -0.17310051
O  O1  1  0.10620000  0.37130000  0.24260000  1.0 -0.5789098106
O  O2  1  0.62870000  0.73490000  0.24260000  1.0 -0.5789098106
O  O3  1  0.26510000  0.89380000  0.24260000  1.0 -0.5789098106
O  O4  1  0.89380000  0.62870000  0.75740000  1.0 -0.5789098106
O  O5  1  0.37130000  0.26510000  0.75740000  1.0 -0.5789098106
O  O6  1  0.73490000  0.10620000  0.75740000  1.0 -0.5789098106
O  O7  1  0.05260000  0.25980000  0.22480000  1.0 -0.4385176064
O  O8  1  0.74020000  0.79280000  0.22480000  1.0 -0.4385176064
O  O9  1  0.20720000  0.94740000  0.22480000  1.0 -0.4385176064
O  O10  1  0.94740000  0.74020000  0.77520000  1.0 -0.4385176064
O  O11  1  0.25980000  0.20720000  0.77520000  1.0 -0.4385176064
O  O12  1  0.79280000  0.05260000  0.77520000  1.0 -0.4385176064
O  O13  1  0.02870000  0.45090000  0.42450000  1.0 -0.5599745286
O  O14  1  0.54910000  0.57780000  0.42450000  1.0 -0.5599745286
O  O15  1  0.42220000  0.97130000  0.42450000  1.0 -0.5599745286
O  O16  1  0.97130000  0.54910000  0.57550000  1.0 -0.5599745286
O  O17  1  0.45090000  0.42220000  0.57550000  1.0 -0.5599745286
O  O18  1  0.57780000  0.02870000  0.57550000  1.0 -0.5599745286
O  O19  1  0.91940000  0.39970000  0.45010000  1.0 -0.5409103545
O  O20  1  0.60030000  0.51970000  0.45010000  1.0 -0.5409103545
O  O21  1  0.48030000  0.08060000  0.45010000  1.0 -0.5409103545
O  O22  1  0.08060000  0.60030000  0.54990000  1.0 -0.5409103545
O  O23  1  0.39970000  0.48030000  0.54990000  1.0 -0.5409103545
O  O24  1  0.51970000  0.91940000  0.54990000  1.0 -0.5409103545
O  O25  1  0.58550000  0.04780000  0.44450000  1.0 -0.5867508065
O  O26  1  0.95220000  0.53770000  0.44450000  1.0 -0.5867508065
O  O27  1  0.46230000  0.41450000  0.44450000  1.0 -0.5867508065
O  O28  1  0.41450000  0.95220000  0.55550000  1.0 -0.5867508065
O  O29  1  0.04780000  0.46230000  0.55550000  1.0 -0.5867508065
O  O30  1  0.53770000  0.58550000  0.55550000  1.0 -0.5867508065
O  O31  1  0.52520000  0.94000000  0.41570000  1.0 -0.5652304006
O  O32  1  0.06000000  0.58520000  0.41570000  1.0 -0.5599745286
O  O33  1  0.41480000  0.47480000  0.41570000  1.0 -0.5599745286
O  O34  1  0.47480000  0.06000000  0.58430000  1.0 -0.5599745286
O  O35  1  0.94000000  0.41480000  0.58430000  1.0 -0.5599745286
O  O36  1  0.58520000  0.52520000  0.58430000  1.0 -0.5652304006
O  O37  1  0.61070000  0.84800000  0.24650000  1.0 -0.5473585935
O  O38  1  0.15200000  0.76270000  0.24650000  1.0 -0.5473585935
O  O39  1  0.23730000  0.38930000  0.24650000  1.0 -0.5473585935
O  O40  1  0.38930000  0.15200000  0.75350000  1.0 -0.5473585935
O  O41  1  0.84800000  0.23730000  0.75350000  1.0 -0.5473585935
O  O42  1  0.76270000  0.61070000  0.75350000  1.0 -0.5473585935
O  O43  1  0.71900000  0.90610000  0.22340000  1.0 -0.4707862598
O  O44  1  0.09390000  0.81290000  0.22340000  1.0 -0.4707862598
O  O45  1  0.18710000  0.28100000  0.22340000  1.0 -0.4707862598
O  O46  1  0.28100000  0.09390000  0.77660000  1.0 -0.4752224398
O  O47  1  0.90610000  0.18710000  0.77660000  1.0 -0.4752224398
O  O48  1  0.81290000  0.71900000  0.77660000  1.0 -0.4707862598
O  O49  1  0.19190000  0.29410000  0.09160000  1.0 -0.4522909634
O  O50  1  0.70590000  0.89780000  0.09160000  1.0 -0.4522909634
O  O51  1  0.10220000  0.80810000  0.09160000  1.0 -0.4522909634
O  O52  1  0.80810000  0.70590000  0.90840000  1.0 -0.4522909634
O  O53  1  0.29410000  0.10220000  0.90840000  1.0 -0.4522909634
O  O54  1  0.89780000  0.19190000  0.90840000  1.0 -0.4522909634
O  O55  1  0.24710000  0.40520000  0.11600000  1.0 -0.5789098106
O  O56  1  0.59480000  0.84190000  0.11600000  1.0 -0.5789098106
O  O57  1  0.15810000  0.75290000  0.11600000  1.0 -0.5789098106
O  O58  1  0.75290000  0.59480000  0.88400000  1.0 -0.5789098106
O  O59  1  0.40520000  0.15810000  0.88400000  1.0 -0.5789098106
O  O60  1  0.84190000  0.24710000  0.88400000  1.0 -0.5789098106
O  O61  1  0.39270000  0.27700000  0.89300000  1.0 -0.6193899226
O  O62  1  0.72300000  0.11570000  0.89300000  1.0 -0.6193899226
O  O63  1  0.88430000  0.60730000  0.89300000  1.0 -0.6193899226
O  O64  1  0.60730000  0.72300000  0.10700000  1.0 -0.6193899226
O  O65  1  0.27700000  0.88430000  0.10700000  1.0 -0.6193899226
O  O66  1  0.11570000  0.39270000  0.10700000  1.0 -0.6193899226
O  O67  1  0.27920000  0.21580000  0.91310000  1.0 -0.4094530475
O  O68  1  0.78420000  0.06340000  0.91310000  1.0 -0.4094530475
O  O69  1  0.93660000  0.72080000  0.91310000  1.0 -0.4161360574
O  O70  1  0.72080000  0.78420000  0.08690000  1.0 -0.4094530475
O  O71  1  0.21580000  0.93660000  0.08690000  1.0 -0.4094530475
O  O72  1  0.06340000  0.27920000  0.08690000  1.0 -0.4094530475
