# DDEC6 charges by PACMAN v1.1 (https://github.com/mtap-research/PACMAN-charge/)
data_UBUZIE_ASR_pacman
_symmetry_space_group_name_H-M   'P 1'
_cell_length_a   26.41150000
_cell_length_b   26.41150000
_cell_length_c   30.50480000
_cell_angle_alpha   90.00000000
_cell_angle_beta   90.00000000
_cell_angle_gamma   120.00000000
_symmetry_Int_Tables_number   1
_chemical_formula_structural   Th3Cu3H25C30(N8O11)2
_chemical_formula_sum   'Th36 Cu36 H300 C360 N192 O264'
_cell_volume   18428.28616560
_cell_formula_units_Z   12
loop_
 _symmetry_equiv_pos_site_id
 _symmetry_equiv_pos_as_xyz
  1  'x, y, z'
loop_
 _atom_site_type_symbol
 _atom_site_label
 _atom_site_symmetry_multiplicity
 _atom_site_fract_x
 _atom_site_fract_y
 _atom_site_fract_z
 _atom_site_occupancy
 _atom_site_charge
Th  Th1  1  0.54312000  0.63010000  0.31578000  1.0 2.2383725151
Th  Th2  1  0.08698000  0.45688000  0.31578000  1.0 2.2383725151
Th  Th3  1  0.36990000  0.91302000  0.31578000  1.0 2.2383725151
Th  Th4  1  0.45688000  0.36990000  0.81578000  1.0 2.2383725151
Th  Th5  1  0.91302000  0.54312000  0.81578000  1.0 2.2383725151
Th  Th6  1  0.63010000  0.08698000  0.81578000  1.0 2.2383725151
Th  Th7  1  0.91302000  0.36990000  0.18422000  1.0 2.2383725151
Th  Th8  1  0.63010000  0.54312000  0.18422000  1.0 2.2383725151
Th  Th9  1  0.45688000  0.08698000  0.18422000  1.0 2.2383725151
Th  Th10  1  0.08698000  0.63010000  0.68422000  1.0 2.2383725151
Th  Th11  1  0.36990000  0.45688000  0.68422000  1.0 2.2383725151
Th  Th12  1  0.54312000  0.91302000  0.68422000  1.0 2.2383725151
Th  Th13  1  0.45688000  0.36990000  0.68422000  1.0 2.2383725151
Th  Th14  1  0.91302000  0.54312000  0.68422000  1.0 2.2383725151
Th  Th15  1  0.63010000  0.08698000  0.68422000  1.0 2.2383725151
Th  Th16  1  0.54312000  0.63010000  0.18422000  1.0 2.2383725151
Th  Th17  1  0.08698000  0.45688000  0.18422000  1.0 2.2383725151
Th  Th18  1  0.36990000  0.91302000  0.18422000  1.0 2.2383725151
Th  Th19  1  0.08698000  0.63010000  0.81578000  1.0 2.2383725151
Th  Th20  1  0.36990000  0.45688000  0.81578000  1.0 2.2383725151
Th  Th21  1  0.54312000  0.91302000  0.81578000  1.0 2.2383725151
Th  Th22  1  0.91302000  0.36990000  0.31578000  1.0 2.2383725151
Th  Th23  1  0.63010000  0.54312000  0.31578000  1.0 2.2383725151
Th  Th24  1  0.45688000  0.08698000  0.31578000  1.0 2.2383725151
Th  Th25  1  0.69564000  0.69564000  0.25000000  1.0 2.3687771067
Th  Th26  1  0.48115000  0.48115000  0.25000000  1.0 2.1982269987
Th  Th27  1  0.00000000  0.30436000  0.25000000  1.0 2.3687771067
Th  Th28  1  0.00000000  0.51885000  0.25000000  1.0 2.1982269987
Th  Th29  1  0.30436000  0.00000000  0.25000000  1.0 2.3687771067
Th  Th30  1  0.51885000  0.00000000  0.25000000  1.0 2.1982269987
Th  Th31  1  0.30436000  0.30436000  0.75000000  1.0 2.3687771067
Th  Th32  1  0.51885000  0.51885000  0.75000000  1.0 2.1982269987
Th  Th33  1  0.00000000  0.69564000  0.75000000  1.0 2.3687771067
Th  Th34  1  0.00000000  0.48115000  0.75000000  1.0 2.1982269987
Th  Th35  1  0.69564000  0.00000000  0.75000000  1.0 2.3687771067
Th  Th36  1  0.48115000  0.00000000  0.75000000  1.0 2.1982269987
Cu  Cu1  1  0.67759000  0.92979000  0.45032000  1.0 0.5943154201
Cu  Cu2  1  0.25220000  0.32241000  0.45032000  1.0 0.5943154201
Cu  Cu3  1  0.07021000  0.74780000  0.45032000  1.0 0.5943154201
Cu  Cu4  1  0.32241000  0.07021000  0.95032000  1.0 0.5958364784
Cu  Cu5  1  0.74780000  0.67759000  0.95032000  1.0 0.5943154201
Cu  Cu6  1  0.92979000  0.25220000  0.95032000  1.0 0.5958364784
Cu  Cu7  1  0.74780000  0.07021000  0.04968000  1.0 0.5958364784
Cu  Cu8  1  0.92979000  0.67759000  0.04968000  1.0 0.5943154201
Cu  Cu9  1  0.32241000  0.25220000  0.04968000  1.0 0.5943154201
Cu  Cu10  1  0.25220000  0.92979000  0.54968000  1.0 0.5943154201
Cu  Cu11  1  0.07021000  0.32241000  0.54968000  1.0 0.5958364784
Cu  Cu12  1  0.67759000  0.74780000  0.54968000  1.0 0.5943154201
Cu  Cu13  1  0.32241000  0.07021000  0.54968000  1.0 0.5958364784
Cu  Cu14  1  0.74780000  0.67759000  0.54968000  1.0 0.5943154201
Cu  Cu15  1  0.92979000  0.25220000  0.54968000  1.0 0.5958364784
Cu  Cu16  1  0.67759000  0.92979000  0.04968000  1.0 0.5943154201
Cu  Cu17  1  0.25220000  0.32241000  0.04968000  1.0 0.5943154201
Cu  Cu18  1  0.07021000  0.74780000  0.04968000  1.0 0.5943154201
Cu  Cu19  1  0.25220000  0.92979000  0.95032000  1.0 0.5943154201
Cu  Cu20  1  0.07021000  0.32241000  0.95032000  1.0 0.5958364784
Cu  Cu21  1  0.67759000  0.74780000  0.95032000  1.0 0.5943154201
Cu  Cu22  1  0.74780000  0.07021000  0.45032000  1.0 0.5958364784
Cu  Cu23  1  0.92979000  0.67759000  0.45032000  1.0 0.5943154201
Cu  Cu24  1  0.32241000  0.25220000  0.45032000  1.0 0.5943154201
Cu  Cu25  1  0.79339000  0.00000000  0.38200000  1.0 0.6543480739
Cu  Cu26  1  0.20661000  0.20661000  0.38200000  1.0 0.6543480739
Cu  Cu27  1  0.00000000  0.79339000  0.38200000  1.0 0.6543480739
Cu  Cu28  1  0.20661000  0.00000000  0.88200000  1.0 0.6543480739
Cu  Cu29  1  0.79339000  0.79339000  0.88200000  1.0 0.6543480739
Cu  Cu30  1  0.00000000  0.20661000  0.88200000  1.0 0.6543480739
Cu  Cu31  1  0.79339000  0.00000000  0.11800000  1.0 0.6543480739
Cu  Cu32  1  0.00000000  0.79339000  0.11800000  1.0 0.6543480739
Cu  Cu33  1  0.20661000  0.20661000  0.11800000  1.0 0.6543480739
Cu  Cu34  1  0.20661000  0.00000000  0.61800000  1.0 0.6581992015
Cu  Cu35  1  0.00000000  0.20661000  0.61800000  1.0 0.6581992015
Cu  Cu36  1  0.79339000  0.79339000  0.61800000  1.0 0.6543480739
H  H1  1  0.62114000  0.80876000  0.40040000  1.0 0.1097285603
H  H2  1  0.76810000  0.88210000  0.32938000  1.0 0.1031309002
H  H3  1  0.61295000  0.93653000  0.35904000  1.0 0.1214790585
H  H4  1  0.60546000  0.91245000  0.54092000  1.0 0.1097285603
H  H5  1  0.53522000  0.85641000  0.46621000  1.0 0.1214790585
H  H6  1  0.45752000  0.84896000  0.42085000  1.0 0.0626938336
H  H7  1  0.55129000  0.91133000  0.47525000  1.0 0.1214790585
H  H8  1  0.47611000  0.90445000  0.42951000  1.0 0.0626938336
H  H9  1  0.42473000  0.82944000  0.26187000  1.0 0.1287167199
H  H10  1  0.38998000  0.78337000  0.19187000  1.0 0.2251812522
H  H11  1  0.47012000  0.77804000  0.29869000  1.0 0.1214790585
H  H12  1  0.42350000  0.71448000  0.17364000  1.0 0.0883834801
H  H13  1  0.18762000  0.37886000  0.40040000  1.0 0.1097285603
H  H14  1  0.11400000  0.23190000  0.32938000  1.0 0.1031309002
H  H15  1  0.32358000  0.38705000  0.35904000  1.0 0.1214790585
H  H16  1  0.30699000  0.39454000  0.54092000  1.0 0.1097285603
H  H17  1  0.32119000  0.46478000  0.46621000  1.0 0.1214790585
H  H18  1  0.39144000  0.54248000  0.42085000  1.0 0.0626938336
H  H19  1  0.36004000  0.44871000  0.47525000  1.0 0.1214790585
H  H20  1  0.42834000  0.52389000  0.42951000  1.0 0.0626938336
H  H21  1  0.40471000  0.57527000  0.26187000  1.0 0.1287167199
H  H22  1  0.39339000  0.61002000  0.19187000  1.0 0.2251812522
H  H23  1  0.30792000  0.52988000  0.29869000  1.0 0.1214790585
H  H24  1  0.29098000  0.57650000  0.17364000  1.0 0.0883834801
H  H25  1  0.19124000  0.81238000  0.40040000  1.0 0.1097285603
H  H26  1  0.11790000  0.88600000  0.32938000  1.0 0.1031309002
H  H27  1  0.06347000  0.67642000  0.35904000  1.0 0.1214790585
H  H28  1  0.08755000  0.69301000  0.54092000  1.0 0.1097285603
H  H29  1  0.14359000  0.67881000  0.46621000  1.0 0.1214790585
H  H30  1  0.15104000  0.60856000  0.42085000  1.0 0.0626938336
H  H31  1  0.08867000  0.63996000  0.47525000  1.0 0.1214790585
H  H32  1  0.09555000  0.57166000  0.42951000  1.0 0.0626938336
H  H33  1  0.17056000  0.59529000  0.26187000  1.0 0.1287167199
H  H34  1  0.21663000  0.60661000  0.19187000  1.0 0.2251812522
H  H35  1  0.22196000  0.69208000  0.29869000  1.0 0.1214790585
H  H36  1  0.28552000  0.70902000  0.17364000  1.0 0.0883834801
H  H37  1  0.37886000  0.19124000  0.90040000  1.0 0.1097285603
H  H38  1  0.23190000  0.11790000  0.82938000  1.0 0.1031309002
H  H39  1  0.38705000  0.06347000  0.85904000  1.0 0.1214790585
H  H40  1  0.39454000  0.08755000  0.04092000  1.0 0.1097285603
H  H41  1  0.46478000  0.14359000  0.96621000  1.0 0.1214790585
H  H42  1  0.54248000  0.15104000  0.92085000  1.0 0.0626938336
H  H43  1  0.44871000  0.08867000  0.97525000  1.0 0.1214790585
H  H44  1  0.52389000  0.09555000  0.92951000  1.0 0.0626938336
H  H45  1  0.57527000  0.17056000  0.76187000  1.0 0.1287167199
H  H46  1  0.61002000  0.21663000  0.69187000  1.0 0.2251812522
H  H47  1  0.52988000  0.22196000  0.79869000  1.0 0.1214790585
H  H48  1  0.57650000  0.28552000  0.67364000  1.0 0.0883834801
H  H49  1  0.81238000  0.62114000  0.90040000  1.0 0.1097285603
H  H50  1  0.88600000  0.76810000  0.82938000  1.0 0.1031309002
H  H51  1  0.67642000  0.61295000  0.85904000  1.0 0.1214790585
H  H52  1  0.69301000  0.60546000  0.04092000  1.0 0.1097285603
H  H53  1  0.67881000  0.53522000  0.96621000  1.0 0.1214790585
H  H54  1  0.60856000  0.45752000  0.92085000  1.0 0.0626938336
H  H55  1  0.63996000  0.55129000  0.97525000  1.0 0.1214790585
H  H56  1  0.57166000  0.47611000  0.92951000  1.0 0.0626938336
H  H57  1  0.59529000  0.42473000  0.76187000  1.0 0.1287167199
H  H58  1  0.60661000  0.38998000  0.69187000  1.0 0.2251812522
H  H59  1  0.69208000  0.47012000  0.79869000  1.0 0.1214790585
H  H60  1  0.70902000  0.42350000  0.67364000  1.0 0.0883834801
H  H61  1  0.80876000  0.18762000  0.90040000  1.0 0.1097285603
H  H62  1  0.88210000  0.11400000  0.82938000  1.0 0.1031309002
H  H63  1  0.93653000  0.32358000  0.85904000  1.0 0.1214790585
H  H64  1  0.91245000  0.30699000  0.04092000  1.0 0.1097285603
H  H65  1  0.85641000  0.32119000  0.96621000  1.0 0.1214790585
H  H66  1  0.84896000  0.39144000  0.92085000  1.0 0.0626938336
H  H67  1  0.91133000  0.36004000  0.97525000  1.0 0.1214790585
H  H68  1  0.90445000  0.42834000  0.92951000  1.0 0.0626938336
H  H69  1  0.82944000  0.40471000  0.76187000  1.0 0.1287167199
H  H70  1  0.78337000  0.39339000  0.69187000  1.0 0.2251812522
H  H71  1  0.77804000  0.30792000  0.79869000  1.0 0.1214790585
H  H72  1  0.71448000  0.29098000  0.67364000  1.0 0.0883834801
H  H73  1  0.81238000  0.19124000  0.09960000  1.0 0.1097285603
H  H74  1  0.88600000  0.11790000  0.17062000  1.0 0.1031309002
H  H75  1  0.67642000  0.06347000  0.14096000  1.0 0.1214790585
H  H76  1  0.69301000  0.08755000  0.95908000  1.0 0.1097285603
H  H77  1  0.67881000  0.14359000  0.03379000  1.0 0.1214790585
H  H78  1  0.60856000  0.15104000  0.07915000  1.0 0.0626938336
H  H79  1  0.63996000  0.08867000  0.02475000  1.0 0.1214790585
H  H80  1  0.57166000  0.09555000  0.07049000  1.0 0.0626938336
H  H81  1  0.59529000  0.17056000  0.23813000  1.0 0.1287167199
H  H82  1  0.60661000  0.21663000  0.30813000  1.0 0.2251812522
H  H83  1  0.69208000  0.22196000  0.20131000  1.0 0.1214790585
H  H84  1  0.70902000  0.28552000  0.32636000  1.0 0.0883834801
H  H85  1  0.80876000  0.62114000  0.09960000  1.0 0.1097285603
H  H86  1  0.88210000  0.76810000  0.17062000  1.0 0.1031309002
H  H87  1  0.93653000  0.61295000  0.14096000  1.0 0.1214790585
H  H88  1  0.91245000  0.60546000  0.95908000  1.0 0.1097285603
H  H89  1  0.85641000  0.53522000  0.03379000  1.0 0.1214790585
H  H90  1  0.84896000  0.45752000  0.07915000  1.0 0.0626938336
H  H91  1  0.91133000  0.55129000  0.02475000  1.0 0.1214790585
H  H92  1  0.90445000  0.47611000  0.07049000  1.0 0.0626938336
H  H93  1  0.82944000  0.42473000  0.23813000  1.0 0.1287167199
H  H94  1  0.78337000  0.38998000  0.30813000  1.0 0.2251812522
H  H95  1  0.77804000  0.47012000  0.20131000  1.0 0.1214790585
H  H96  1  0.71448000  0.42350000  0.32636000  1.0 0.0883834801
H  H97  1  0.37886000  0.18762000  0.09960000  1.0 0.1097285603
H  H98  1  0.23190000  0.11400000  0.17062000  1.0 0.1031309002
H  H99  1  0.38705000  0.32358000  0.14096000  1.0 0.1214790585
H  H100  1  0.39454000  0.30699000  0.95908000  1.0 0.1097285603
H  H101  1  0.46478000  0.32119000  0.03379000  1.0 0.1214790585
H  H102  1  0.54248000  0.39144000  0.07915000  1.0 0.0626938336
H  H103  1  0.44871000  0.36004000  0.02475000  1.0 0.1214790585
H  H104  1  0.52389000  0.42834000  0.07049000  1.0 0.0626938336
H  H105  1  0.57527000  0.40471000  0.23813000  1.0 0.1287167199
H  H106  1  0.61002000  0.39339000  0.30813000  1.0 0.2251812522
H  H107  1  0.52988000  0.30792000  0.20131000  1.0 0.1214790585
H  H108  1  0.57650000  0.29098000  0.32636000  1.0 0.0883834801
H  H109  1  0.18762000  0.80876000  0.59960000  1.0 0.1097285603
H  H110  1  0.11400000  0.88210000  0.67062000  1.0 0.1031309002
H  H111  1  0.32358000  0.93653000  0.64096000  1.0 0.1214790585
H  H112  1  0.30699000  0.91245000  0.45908000  1.0 0.1097285603
H  H113  1  0.32119000  0.85641000  0.53379000  1.0 0.1214790585
H  H114  1  0.39144000  0.84896000  0.57915000  1.0 0.0626938336
H  H115  1  0.36004000  0.91133000  0.52475000  1.0 0.1214790585
H  H116  1  0.42834000  0.90445000  0.57049000  1.0 0.0626938336
H  H117  1  0.40471000  0.82944000  0.73813000  1.0 0.1287167199
H  H118  1  0.39339000  0.78337000  0.80813000  1.0 0.2251812522
H  H119  1  0.30792000  0.77804000  0.70131000  1.0 0.1214790585
H  H120  1  0.29098000  0.71448000  0.82636000  1.0 0.0883834801
H  H121  1  0.19124000  0.37886000  0.59960000  1.0 0.1097285603
H  H122  1  0.11790000  0.23190000  0.67062000  1.0 0.1031309002
H  H123  1  0.06347000  0.38705000  0.64096000  1.0 0.1214790585
H  H124  1  0.08755000  0.39454000  0.45908000  1.0 0.1097285603
H  H125  1  0.14359000  0.46478000  0.53379000  1.0 0.1214790585
H  H126  1  0.15104000  0.54248000  0.57915000  1.0 0.0626938336
H  H127  1  0.08867000  0.44871000  0.52475000  1.0 0.1214790585
H  H128  1  0.09555000  0.52389000  0.57049000  1.0 0.0626938336
H  H129  1  0.17056000  0.57527000  0.73813000  1.0 0.1287167199
H  H130  1  0.21663000  0.61002000  0.80813000  1.0 0.2251812522
H  H131  1  0.22196000  0.52988000  0.70131000  1.0 0.1214790585
H  H132  1  0.28552000  0.57650000  0.82636000  1.0 0.0883834801
H  H133  1  0.62114000  0.81238000  0.59960000  1.0 0.1097285603
H  H134  1  0.76810000  0.88600000  0.67062000  1.0 0.1031309002
H  H135  1  0.61295000  0.67642000  0.64096000  1.0 0.1214790585
H  H136  1  0.60546000  0.69301000  0.45908000  1.0 0.1097285603
H  H137  1  0.53522000  0.67881000  0.53379000  1.0 0.1214790585
H  H138  1  0.45752000  0.60856000  0.57915000  1.0 0.0626938336
H  H139  1  0.55129000  0.63996000  0.52475000  1.0 0.1214790585
H  H140  1  0.47611000  0.57166000  0.57049000  1.0 0.0626938336
H  H141  1  0.42473000  0.59529000  0.73813000  1.0 0.1287167199
H  H142  1  0.38998000  0.60661000  0.80813000  1.0 0.2251812522
H  H143  1  0.47012000  0.69208000  0.70131000  1.0 0.1214790585
H  H144  1  0.42350000  0.70902000  0.82636000  1.0 0.0883834801
H  H145  1  0.37886000  0.19124000  0.59960000  1.0 0.1097285603
H  H146  1  0.23190000  0.11790000  0.67062000  1.0 0.1031309002
H  H147  1  0.38705000  0.06347000  0.64096000  1.0 0.1214790585
H  H148  1  0.39454000  0.08755000  0.45908000  1.0 0.1097285603
H  H149  1  0.46478000  0.14359000  0.53379000  1.0 0.1214790585
H  H150  1  0.54248000  0.15104000  0.57915000  1.0 0.0626938336
H  H151  1  0.44871000  0.08867000  0.52475000  1.0 0.1214790585
H  H152  1  0.52389000  0.09555000  0.57049000  1.0 0.0626938336
H  H153  1  0.57527000  0.17056000  0.73813000  1.0 0.1287167199
H  H154  1  0.61002000  0.21663000  0.80813000  1.0 0.2251812522
H  H155  1  0.52988000  0.22196000  0.70131000  1.0 0.1214790585
H  H156  1  0.57650000  0.28552000  0.82636000  1.0 0.0883834801
H  H157  1  0.81238000  0.62114000  0.59960000  1.0 0.1097285603
H  H158  1  0.88600000  0.76810000  0.67062000  1.0 0.1031309002
H  H159  1  0.67642000  0.61295000  0.64096000  1.0 0.1214790585
H  H160  1  0.69301000  0.60546000  0.45908000  1.0 0.1097285603
H  H161  1  0.67881000  0.53522000  0.53379000  1.0 0.1214790585
H  H162  1  0.60856000  0.45752000  0.57915000  1.0 0.0626938336
H  H163  1  0.63996000  0.55129000  0.52475000  1.0 0.1214790585
H  H164  1  0.57166000  0.47611000  0.57049000  1.0 0.0626938336
H  H165  1  0.59529000  0.42473000  0.73813000  1.0 0.1287167199
H  H166  1  0.60661000  0.38998000  0.80813000  1.0 0.2251812522
H  H167  1  0.69208000  0.47012000  0.70131000  1.0 0.1214790585
H  H168  1  0.70902000  0.42350000  0.82636000  1.0 0.0883834801
H  H169  1  0.80876000  0.18762000  0.59960000  1.0 0.1097285603
H  H170  1  0.88210000  0.11400000  0.67062000  1.0 0.1031309002
H  H171  1  0.93653000  0.32358000  0.64096000  1.0 0.1214790585
H  H172  1  0.91245000  0.30699000  0.45908000  1.0 0.1097285603
H  H173  1  0.85641000  0.32119000  0.53379000  1.0 0.1214790585
H  H174  1  0.84896000  0.39144000  0.57915000  1.0 0.0626938336
H  H175  1  0.91133000  0.36004000  0.52475000  1.0 0.1214790585
H  H176  1  0.90445000  0.42834000  0.57049000  1.0 0.0626938336
H  H177  1  0.82944000  0.40471000  0.73813000  1.0 0.1287167199
H  H178  1  0.78337000  0.39339000  0.80813000  1.0 0.2251812522
H  H179  1  0.77804000  0.30792000  0.70131000  1.0 0.1214790585
H  H180  1  0.71448000  0.29098000  0.82636000  1.0 0.0883834801
H  H181  1  0.62114000  0.80876000  0.09960000  1.0 0.1097285603
H  H182  1  0.76810000  0.88210000  0.17062000  1.0 0.1031309002
H  H183  1  0.61295000  0.93653000  0.14096000  1.0 0.1214790585
H  H184  1  0.60546000  0.91245000  0.95908000  1.0 0.1097285603
H  H185  1  0.53522000  0.85641000  0.03379000  1.0 0.1214790585
H  H186  1  0.45752000  0.84896000  0.07915000  1.0 0.0626938336
H  H187  1  0.55129000  0.91133000  0.02475000  1.0 0.1214790585
H  H188  1  0.47611000  0.90445000  0.07049000  1.0 0.0626938336
H  H189  1  0.42473000  0.82944000  0.23813000  1.0 0.1287167199
H  H190  1  0.38998000  0.78337000  0.30813000  1.0 0.2251812522
H  H191  1  0.47012000  0.77804000  0.20131000  1.0 0.1214790585
H  H192  1  0.42350000  0.71448000  0.32636000  1.0 0.0883834801
H  H193  1  0.18762000  0.37886000  0.09960000  1.0 0.1097285603
H  H194  1  0.11400000  0.23190000  0.17062000  1.0 0.1031309002
H  H195  1  0.32358000  0.38705000  0.14096000  1.0 0.1214790585
H  H196  1  0.30699000  0.39454000  0.95908000  1.0 0.1097285603
H  H197  1  0.32119000  0.46478000  0.03379000  1.0 0.1214790585
H  H198  1  0.39144000  0.54248000  0.07915000  1.0 0.0626938336
H  H199  1  0.36004000  0.44871000  0.02475000  1.0 0.1214790585
H  H200  1  0.42834000  0.52389000  0.07049000  1.0 0.0626938336
H  H201  1  0.40471000  0.57527000  0.23813000  1.0 0.1287167199
H  H202  1  0.39339000  0.61002000  0.30813000  1.0 0.2251812522
H  H203  1  0.30792000  0.52988000  0.20131000  1.0 0.1214790585
H  H204  1  0.29098000  0.57650000  0.32636000  1.0 0.0883834801
H  H205  1  0.19124000  0.81238000  0.09960000  1.0 0.1097285603
H  H206  1  0.11790000  0.88600000  0.17062000  1.0 0.1031309002
H  H207  1  0.06347000  0.67642000  0.14096000  1.0 0.1214790585
H  H208  1  0.08755000  0.69301000  0.95908000  1.0 0.1097285603
H  H209  1  0.14359000  0.67881000  0.03379000  1.0 0.1214790585
H  H210  1  0.15104000  0.60856000  0.07915000  1.0 0.0626938336
H  H211  1  0.08867000  0.63996000  0.02475000  1.0 0.1214790585
H  H212  1  0.09555000  0.57166000  0.07049000  1.0 0.0626938336
H  H213  1  0.17056000  0.59529000  0.23813000  1.0 0.1287167199
H  H214  1  0.21663000  0.60661000  0.30813000  1.0 0.2251812522
H  H215  1  0.22196000  0.69208000  0.20131000  1.0 0.1214790585
H  H216  1  0.28552000  0.70902000  0.32636000  1.0 0.0883834801
H  H217  1  0.18762000  0.80876000  0.90040000  1.0 0.1097285603
H  H218  1  0.11400000  0.88210000  0.82938000  1.0 0.1031309002
H  H219  1  0.32358000  0.93653000  0.85904000  1.0 0.1214790585
H  H220  1  0.30699000  0.91245000  0.04092000  1.0 0.1097285603
H  H221  1  0.32119000  0.85641000  0.96621000  1.0 0.1287167199
H  H222  1  0.39144000  0.84896000  0.92085000  1.0 0.0626938336
H  H223  1  0.36004000  0.91133000  0.97525000  1.0 0.1214790585
H  H224  1  0.42834000  0.90445000  0.92951000  1.0 0.0626938336
H  H225  1  0.40471000  0.82944000  0.76187000  1.0 0.1287167199
H  H226  1  0.39339000  0.78337000  0.69187000  1.0 0.2251812522
H  H227  1  0.30792000  0.77804000  0.79869000  1.0 0.1214790585
H  H228  1  0.29098000  0.71448000  0.67364000  1.0 0.0883834801
H  H229  1  0.19124000  0.37886000  0.90040000  1.0 0.1097285603
H  H230  1  0.11790000  0.23190000  0.82938000  1.0 0.1031309002
H  H231  1  0.06347000  0.38705000  0.85904000  1.0 0.1214790585
H  H232  1  0.08755000  0.39454000  0.04092000  1.0 0.1097285603
H  H233  1  0.14359000  0.46478000  0.96621000  1.0 0.1214790585
H  H234  1  0.15104000  0.54248000  0.92085000  1.0 0.0626938336
H  H235  1  0.08867000  0.44871000  0.97525000  1.0 0.1214790585
H  H236  1  0.09555000  0.52389000  0.92951000  1.0 0.0626938336
H  H237  1  0.17056000  0.57527000  0.76187000  1.0 0.1287167199
H  H238  1  0.21663000  0.61002000  0.69187000  1.0 0.2251812522
H  H239  1  0.22196000  0.52988000  0.79869000  1.0 0.1214790585
H  H240  1  0.28552000  0.57650000  0.67364000  1.0 0.0883834801
H  H241  1  0.62114000  0.81238000  0.90040000  1.0 0.1097285603
H  H242  1  0.76810000  0.88600000  0.82938000  1.0 0.1031309002
H  H243  1  0.61295000  0.67642000  0.85904000  1.0 0.1214790585
H  H244  1  0.60546000  0.69301000  0.04092000  1.0 0.1097285603
H  H245  1  0.53522000  0.67881000  0.96621000  1.0 0.1287167199
H  H246  1  0.45752000  0.60856000  0.92085000  1.0 0.0626938336
H  H247  1  0.55129000  0.63996000  0.97525000  1.0 0.1214790585
H  H248  1  0.47611000  0.57166000  0.92951000  1.0 0.0626938336
H  H249  1  0.42473000  0.59529000  0.76187000  1.0 0.1287167199
H  H250  1  0.38998000  0.60661000  0.69187000  1.0 0.2251812522
H  H251  1  0.47012000  0.69208000  0.79869000  1.0 0.1214790585
H  H252  1  0.42350000  0.70902000  0.67364000  1.0 0.0883834801
H  H253  1  0.81238000  0.19124000  0.40040000  1.0 0.1097285603
H  H254  1  0.88600000  0.11790000  0.32938000  1.0 0.1031309002
H  H255  1  0.67642000  0.06347000  0.35904000  1.0 0.1214790585
H  H256  1  0.69301000  0.08755000  0.54092000  1.0 0.1097285603
H  H257  1  0.67881000  0.14359000  0.46621000  1.0 0.1214790585
H  H258  1  0.60856000  0.15104000  0.42085000  1.0 0.0626938336
H  H259  1  0.63996000  0.08867000  0.47525000  1.0 0.1214790585
H  H260  1  0.57166000  0.09555000  0.42951000  1.0 0.0626938336
H  H261  1  0.59529000  0.17056000  0.26187000  1.0 0.1287167199
H  H262  1  0.60661000  0.21663000  0.19187000  1.0 0.2251812522
H  H263  1  0.69208000  0.22196000  0.29869000  1.0 0.1214790585
H  H264  1  0.70902000  0.28552000  0.17364000  1.0 0.0883834801
H  H265  1  0.80876000  0.62114000  0.40040000  1.0 0.1097285603
H  H266  1  0.88210000  0.76810000  0.32938000  1.0 0.1031309002
H  H267  1  0.93653000  0.61295000  0.35904000  1.0 0.1214790585
H  H268  1  0.91245000  0.60546000  0.54092000  1.0 0.1097285603
H  H269  1  0.85641000  0.53522000  0.46621000  1.0 0.1214790585
H  H270  1  0.84896000  0.45752000  0.42085000  1.0 0.0626938336
H  H271  1  0.91133000  0.55129000  0.47525000  1.0 0.1214790585
H  H272  1  0.90445000  0.47611000  0.42951000  1.0 0.0626938336
H  H273  1  0.82944000  0.42473000  0.26187000  1.0 0.1287167199
H  H274  1  0.78337000  0.38998000  0.19187000  1.0 0.2251812522
H  H275  1  0.77804000  0.47012000  0.29869000  1.0 0.1214790585
H  H276  1  0.71448000  0.42350000  0.17364000  1.0 0.0883834801
H  H277  1  0.37886000  0.18762000  0.40040000  1.0 0.1097285603
H  H278  1  0.23190000  0.11400000  0.32938000  1.0 0.1031309002
H  H279  1  0.38705000  0.32358000  0.35904000  1.0 0.1214790585
H  H280  1  0.39454000  0.30699000  0.54092000  1.0 0.1097285603
H  H281  1  0.46478000  0.32119000  0.46621000  1.0 0.1214790585
H  H282  1  0.54248000  0.39144000  0.42085000  1.0 0.0626938336
H  H283  1  0.44871000  0.36004000  0.47525000  1.0 0.1214790585
H  H284  1  0.52389000  0.42834000  0.42951000  1.0 0.0626938336
H  H285  1  0.57527000  0.40471000  0.26187000  1.0 0.1287167199
H  H286  1  0.61002000  0.39339000  0.19187000  1.0 0.2251812522
H  H287  1  0.52988000  0.30792000  0.29869000  1.0 0.1214790585
H  H288  1  0.57650000  0.29098000  0.17364000  1.0 0.0883834801
H  H289  1  0.78200000  0.00000000  0.45900000  1.0 0.37675042
H  H290  1  0.21800000  0.21800000  0.45900000  1.0 0.37675042
H  H291  1  0.00000000  0.78200000  0.45900000  1.0 0.37675042
H  H292  1  0.21800000  0.00000000  0.95900000  1.0 0.37675042
H  H293  1  0.78200000  0.78200000  0.95900000  1.0 0.37675042
H  H294  1  0.00000000  0.21800000  0.95900000  1.0 0.37675042
H  H295  1  0.78200000  0.00000000  0.04100000  1.0 0.37675042
H  H296  1  0.00000000  0.78200000  0.04100000  1.0 0.37675042
H  H297  1  0.21800000  0.21800000  0.04100000  1.0 0.37675042
H  H298  1  0.21800000  0.00000000  0.54100000  1.0 0.37675042
H  H299  1  0.00000000  0.21800000  0.54100000  1.0 0.37675042
H  H300  1  0.78200000  0.78200000  0.54100000  1.0 0.37675042
C  C1  1  0.68550000  0.82470000  0.35480000  1.0 -0.1205967443
C  C2  1  0.66320000  0.77070000  0.32930000  1.0 0.6449541554
C  C3  1  0.65850000  0.83590000  0.38880000  1.0 0.008745769
C  C4  1  0.73870000  0.87610000  0.35000000  1.0 -0.0136139565
C  C5  1  0.58490000  0.92060000  0.38200000  1.0 -0.1625482361
C  C6  1  0.52590000  0.90400000  0.37710000  1.0 -0.1205967443
C  C7  1  0.49500000  0.90850000  0.33870000  1.0 0.5749791368
C  C8  1  0.63140000  0.95220000  0.53350000  1.0 -0.0311987994
C  C9  1  0.48540000  0.69880000  0.24720000  1.0 0.1097285603
C  C10  1  0.49830000  0.87030000  0.41500000  1.0 0.008745769
C  C11  1  0.45560000  0.77290000  0.26960000  1.0 0.008745769
C  C12  1  0.42890000  0.73590000  0.19990000  1.0 -0.0989626057
C  C13  1  0.45700000  0.73540000  0.23840000  1.0 0.0257455225
C  C14  1  0.51110000  0.90590000  0.42020000  1.0 0.008745769
C  C15  1  0.13920000  0.31450000  0.35480000  1.0 -0.1205967443
C  C16  1  0.10750000  0.33680000  0.32930000  1.0 0.6449541554
C  C17  1  0.17740000  0.34150000  0.38880000  1.0 0.008745769
C  C18  1  0.13740000  0.26130000  0.35000000  1.0 -0.0136139565
C  C19  1  0.33570000  0.41510000  0.38200000  1.0 -0.1625482361
C  C20  1  0.37810000  0.47410000  0.37710000  1.0 -0.1205967443
C  C21  1  0.41350000  0.50500000  0.33870000  1.0 0.5749791368
C  C22  1  0.32080000  0.36860000  0.53350000  1.0 -0.0311987994
C  C23  1  0.21340000  0.51460000  0.24720000  1.0 0.1097285603
C  C24  1  0.37200000  0.50170000  0.41500000  1.0 0.008745769
C  C25  1  0.31730000  0.54440000  0.26960000  1.0 0.008745769
C  C26  1  0.30700000  0.57110000  0.19990000  1.0 -0.0989626057
C  C27  1  0.27840000  0.54300000  0.23840000  1.0 0.0257455225
C  C28  1  0.39480000  0.48890000  0.42020000  1.0 0.008745769
C  C29  1  0.17530000  0.86080000  0.35480000  1.0 -0.1205967443
C  C30  1  0.22930000  0.89250000  0.32930000  1.0 0.6449541554
C  C31  1  0.16410000  0.82260000  0.38880000  1.0 0.008745769
C  C32  1  0.12390000  0.86260000  0.35000000  1.0 -0.0136139565
C  C33  1  0.07940000  0.66430000  0.38200000  1.0 -0.1625482361
C  C34  1  0.09600000  0.62190000  0.37710000  1.0 -0.1205967443
C  C35  1  0.09150000  0.58650000  0.33870000  1.0 0.5749791368
C  C36  1  0.04780000  0.67920000  0.53350000  1.0 -0.0311987994
C  C37  1  0.30120000  0.78660000  0.24720000  1.0 0.1097285603
C  C38  1  0.12970000  0.62800000  0.41500000  1.0 0.008745769
C  C39  1  0.22710000  0.68270000  0.26960000  1.0 0.008745769
C  C40  1  0.26410000  0.69300000  0.19990000  1.0 -0.0989626057
C  C41  1  0.26460000  0.72160000  0.23840000  1.0 0.0257455225
C  C42  1  0.09410000  0.60520000  0.42020000  1.0 0.008745769
C  C43  1  0.31450000  0.17530000  0.85480000  1.0 -0.1205967443
C  C44  1  0.33680000  0.22930000  0.82930000  1.0 0.6449541554
C  C45  1  0.34150000  0.16410000  0.88880000  1.0 0.008745769
C  C46  1  0.26130000  0.12390000  0.85000000  1.0 -0.0136139565
C  C47  1  0.41510000  0.07940000  0.88200000  1.0 -0.1625482361
C  C48  1  0.47410000  0.09600000  0.87710000  1.0 -0.1205967443
C  C49  1  0.50500000  0.09150000  0.83870000  1.0 0.5749791368
C  C50  1  0.36860000  0.04780000  0.03350000  1.0 -0.0311987994
C  C51  1  0.51460000  0.30120000  0.74720000  1.0 0.1097285603
C  C52  1  0.50170000  0.12970000  0.91500000  1.0 0.0049591438
C  C53  1  0.54440000  0.22710000  0.76960000  1.0 0.008745769
C  C54  1  0.57110000  0.26410000  0.69990000  1.0 -0.0989626057
C  C55  1  0.54300000  0.26460000  0.73840000  1.0 0.0257455225
C  C56  1  0.48890000  0.09410000  0.92020000  1.0 0.008745769
C  C57  1  0.86080000  0.68550000  0.85480000  1.0 -0.1205967443
C  C58  1  0.89250000  0.66320000  0.82930000  1.0 0.6449541554
C  C59  1  0.82260000  0.65850000  0.88880000  1.0 0.008745769
C  C60  1  0.86260000  0.73870000  0.85000000  1.0 -0.0136139565
C  C61  1  0.66430000  0.58490000  0.88200000  1.0 -0.1625482361
C  C62  1  0.62190000  0.52590000  0.87710000  1.0 -0.1205967443
C  C63  1  0.58650000  0.49500000  0.83870000  1.0 0.5749791368
C  C64  1  0.67920000  0.63140000  0.03350000  1.0 -0.0311987994
C  C65  1  0.78660000  0.48540000  0.74720000  1.0 0.1097285603
C  C66  1  0.62800000  0.49830000  0.91500000  1.0 0.0049591438
C  C67  1  0.68270000  0.45560000  0.76960000  1.0 0.008745769
C  C68  1  0.69300000  0.42890000  0.69990000  1.0 -0.0989626057
C  C69  1  0.72160000  0.45700000  0.73840000  1.0 0.0257455225
C  C70  1  0.60520000  0.51110000  0.92020000  1.0 0.008745769
C  C71  1  0.82470000  0.13920000  0.85480000  1.0 -0.1205967443
C  C72  1  0.77070000  0.10750000  0.82930000  1.0 0.6449541554
C  C73  1  0.83590000  0.17740000  0.88880000  1.0 0.008745769
C  C74  1  0.87610000  0.13740000  0.85000000  1.0 -0.0136139565
C  C75  1  0.92060000  0.33570000  0.88200000  1.0 -0.1625482361
C  C76  1  0.90400000  0.37810000  0.87710000  1.0 -0.1205967443
C  C77  1  0.90850000  0.41350000  0.83870000  1.0 0.5749791368
C  C78  1  0.95220000  0.32080000  0.03350000  1.0 -0.0311987994
C  C79  1  0.69880000  0.21340000  0.74720000  1.0 0.1097285603
C  C80  1  0.87030000  0.37200000  0.91500000  1.0 0.0049591438
C  C81  1  0.77290000  0.31730000  0.76960000  1.0 0.008745769
C  C82  1  0.73590000  0.30700000  0.69990000  1.0 -0.0989626057
C  C83  1  0.73540000  0.27840000  0.73840000  1.0 0.0257455225
C  C84  1  0.90590000  0.39480000  0.92020000  1.0 0.008745769
C  C85  1  0.86080000  0.17530000  0.14520000  1.0 -0.1205967443
C  C86  1  0.89250000  0.22930000  0.17070000  1.0 0.6449541554
C  C87  1  0.82260000  0.16410000  0.11120000  1.0 0.008745769
C  C88  1  0.86260000  0.12390000  0.15000000  1.0 -0.0136139565
C  C89  1  0.66430000  0.07940000  0.11800000  1.0 -0.1625482361
C  C90  1  0.62190000  0.09600000  0.12290000  1.0 -0.1205967443
C  C91  1  0.58650000  0.09150000  0.16130000  1.0 0.5749791368
C  C92  1  0.67920000  0.04780000  0.96650000  1.0 -0.0311987994
C  C93  1  0.78660000  0.30120000  0.25280000  1.0 0.1097285603
C  C94  1  0.62800000  0.12970000  0.08500000  1.0 0.008745769
C  C95  1  0.68270000  0.22710000  0.23040000  1.0 0.008745769
C  C96  1  0.69300000  0.26410000  0.30010000  1.0 -0.0989626057
C  C97  1  0.72160000  0.26460000  0.26160000  1.0 0.0257455225
C  C98  1  0.60520000  0.09410000  0.07980000  1.0 0.008745769
C  C99  1  0.82470000  0.68550000  0.14520000  1.0 -0.1205967443
C  C100  1  0.77070000  0.66320000  0.17070000  1.0 0.6449541554
C  C101  1  0.83590000  0.65850000  0.11120000  1.0 0.008745769
C  C102  1  0.87610000  0.73870000  0.15000000  1.0 -0.0136139565
C  C103  1  0.92060000  0.58490000  0.11800000  1.0 -0.1625482361
C  C104  1  0.90400000  0.52590000  0.12290000  1.0 -0.1205967443
C  C105  1  0.90850000  0.49500000  0.16130000  1.0 0.5752887234
C  C106  1  0.95220000  0.63140000  0.96650000  1.0 -0.0311987994
C  C107  1  0.69880000  0.48540000  0.25280000  1.0 0.1097285603
C  C108  1  0.87030000  0.49830000  0.08500000  1.0 0.008745769
C  C109  1  0.77290000  0.45560000  0.23040000  1.0 0.008745769
C  C110  1  0.73590000  0.42890000  0.30010000  1.0 -0.0989626057
C  C111  1  0.73540000  0.45700000  0.26160000  1.0 0.0257455225
C  C112  1  0.90590000  0.51110000  0.07980000  1.0 0.008745769
C  C113  1  0.31450000  0.13920000  0.14520000  1.0 -0.1205967443
C  C114  1  0.33680000  0.10750000  0.17070000  1.0 0.6449541554
C  C115  1  0.34150000  0.17740000  0.11120000  1.0 0.008745769
C  C116  1  0.26130000  0.13740000  0.15000000  1.0 -0.0136139565
C  C117  1  0.41510000  0.33570000  0.11800000  1.0 -0.1625482361
C  C118  1  0.47410000  0.37810000  0.12290000  1.0 -0.1205967443
C  C119  1  0.50500000  0.41350000  0.16130000  1.0 0.5749791368
C  C120  1  0.36860000  0.32080000  0.96650000  1.0 -0.0311987994
C  C121  1  0.51460000  0.21340000  0.25280000  1.0 0.1097285603
C  C122  1  0.50170000  0.37200000  0.08500000  1.0 0.008745769
C  C123  1  0.54440000  0.31730000  0.23040000  1.0 0.008745769
C  C124  1  0.57110000  0.30700000  0.30010000  1.0 -0.0989626057
C  C125  1  0.54300000  0.27840000  0.26160000  1.0 0.0257455225
C  C126  1  0.48890000  0.39480000  0.07980000  1.0 0.008745769
C  C127  1  0.13920000  0.82470000  0.64520000  1.0 -0.1205967443
C  C128  1  0.10750000  0.77070000  0.67070000  1.0 0.6449541554
C  C129  1  0.17740000  0.83590000  0.61120000  1.0 0.008745769
C  C130  1  0.13740000  0.87610000  0.65000000  1.0 -0.0136139565
C  C131  1  0.33570000  0.92060000  0.61800000  1.0 -0.1625482361
C  C132  1  0.37810000  0.90400000  0.62290000  1.0 -0.1205967443
C  C133  1  0.41350000  0.90850000  0.66130000  1.0 0.5749791368
C  C134  1  0.32080000  0.95220000  0.46650000  1.0 -0.0311987994
C  C135  1  0.21340000  0.69880000  0.75280000  1.0 0.1097285603
C  C136  1  0.37200000  0.87030000  0.58500000  1.0 0.0049591438
C  C137  1  0.31730000  0.77290000  0.73040000  1.0 0.008745769
C  C138  1  0.30700000  0.73590000  0.80010000  1.0 -0.0989626057
C  C139  1  0.27840000  0.73540000  0.76160000  1.0 0.0257455225
C  C140  1  0.39480000  0.90590000  0.57980000  1.0 0.008745769
C  C141  1  0.17530000  0.31450000  0.64520000  1.0 -0.1205967443
C  C142  1  0.22930000  0.33680000  0.67070000  1.0 0.6449541554
C  C143  1  0.16410000  0.34150000  0.61120000  1.0 0.008745769
C  C144  1  0.12390000  0.26130000  0.65000000  1.0 -0.0136139565
C  C145  1  0.07940000  0.41510000  0.61800000  1.0 -0.1625482361
C  C146  1  0.09600000  0.47410000  0.62290000  1.0 -0.1205967443
C  C147  1  0.09150000  0.50500000  0.66130000  1.0 0.5749791368
C  C148  1  0.04780000  0.36860000  0.46650000  1.0 -0.0311987994
C  C149  1  0.30120000  0.51460000  0.75280000  1.0 0.1097285603
C  C150  1  0.12970000  0.50170000  0.58500000  1.0 0.0049591438
C  C151  1  0.22710000  0.54440000  0.73040000  1.0 0.008745769
C  C152  1  0.26410000  0.57110000  0.80010000  1.0 -0.0989626057
C  C153  1  0.26460000  0.54300000  0.76160000  1.0 0.0257455225
C  C154  1  0.09410000  0.48890000  0.57980000  1.0 0.008745769
C  C155  1  0.68550000  0.86080000  0.64520000  1.0 -0.1205967443
C  C156  1  0.66320000  0.89250000  0.67070000  1.0 0.6449541554
C  C157  1  0.65850000  0.82260000  0.61120000  1.0 0.008745769
C  C158  1  0.73870000  0.86260000  0.65000000  1.0 -0.0136139565
C  C159  1  0.58490000  0.66430000  0.61800000  1.0 -0.1625482361
C  C160  1  0.52590000  0.62190000  0.62290000  1.0 -0.1205967443
C  C161  1  0.49500000  0.58650000  0.66130000  1.0 0.5749791368
C  C162  1  0.63140000  0.67920000  0.46650000  1.0 -0.0311987994
C  C163  1  0.48540000  0.78660000  0.75280000  1.0 0.1097285603
C  C164  1  0.49830000  0.62800000  0.58500000  1.0 0.008745769
C  C165  1  0.45560000  0.68270000  0.73040000  1.0 0.008745769
C  C166  1  0.42890000  0.69300000  0.80010000  1.0 -0.0989626057
C  C167  1  0.45700000  0.72160000  0.76160000  1.0 0.0257455225
C  C168  1  0.51110000  0.60520000  0.57980000  1.0 0.008745769
C  C169  1  0.31450000  0.17530000  0.64520000  1.0 -0.1205967443
C  C170  1  0.33680000  0.22930000  0.67070000  1.0 0.6449541554
C  C171  1  0.34150000  0.16410000  0.61120000  1.0 0.008745769
C  C172  1  0.26130000  0.12390000  0.65000000  1.0 -0.0136139565
C  C173  1  0.41510000  0.07940000  0.61800000  1.0 -0.1625482361
C  C174  1  0.47410000  0.09600000  0.62290000  1.0 -0.1205967443
C  C175  1  0.50500000  0.09150000  0.66130000  1.0 0.5749791368
C  C176  1  0.36860000  0.04780000  0.46650000  1.0 -0.0311987994
C  C177  1  0.51460000  0.30120000  0.75280000  1.0 0.1097285603
C  C178  1  0.50170000  0.12970000  0.58500000  1.0 0.008745769
C  C179  1  0.54440000  0.22710000  0.73040000  1.0 0.008745769
C  C180  1  0.57110000  0.26410000  0.80010000  1.0 -0.0989626057
C  C181  1  0.54300000  0.26460000  0.76160000  1.0 0.0257455225
C  C182  1  0.48890000  0.09410000  0.57980000  1.0 0.008745769
C  C183  1  0.86080000  0.68550000  0.64520000  1.0 -0.1205967443
C  C184  1  0.89250000  0.66320000  0.67070000  1.0 0.6449541554
C  C185  1  0.82260000  0.65850000  0.61120000  1.0 0.008745769
C  C186  1  0.86260000  0.73870000  0.65000000  1.0 -0.0136139565
C  C187  1  0.66430000  0.58490000  0.61800000  1.0 -0.1625482361
C  C188  1  0.62190000  0.52590000  0.62290000  1.0 -0.1205967443
C  C189  1  0.58650000  0.49500000  0.66130000  1.0 0.5749791368
C  C190  1  0.67920000  0.63140000  0.46650000  1.0 -0.0311987994
C  C191  1  0.78660000  0.48540000  0.75280000  1.0 0.1097285603
C  C192  1  0.62800000  0.49830000  0.58500000  1.0 0.008745769
C  C193  1  0.68270000  0.45560000  0.73040000  1.0 0.008745769
C  C194  1  0.69300000  0.42890000  0.80010000  1.0 -0.0989626057
C  C195  1  0.72160000  0.45700000  0.76160000  1.0 0.0257455225
C  C196  1  0.60520000  0.51110000  0.57980000  1.0 0.008745769
C  C197  1  0.82470000  0.13920000  0.64520000  1.0 -0.1205967443
C  C198  1  0.77070000  0.10750000  0.67070000  1.0 0.6449541554
C  C199  1  0.83590000  0.17740000  0.61120000  1.0 0.008745769
C  C200  1  0.87610000  0.13740000  0.65000000  1.0 -0.0136139565
C  C201  1  0.92060000  0.33570000  0.61800000  1.0 -0.1625482361
C  C202  1  0.90400000  0.37810000  0.62290000  1.0 -0.1205967443
C  C203  1  0.90850000  0.41350000  0.66130000  1.0 0.5749791368
C  C204  1  0.95220000  0.32080000  0.46650000  1.0 -0.0311987994
C  C205  1  0.69880000  0.21340000  0.75280000  1.0 0.1097285603
C  C206  1  0.87030000  0.37200000  0.58500000  1.0 0.008745769
C  C207  1  0.77290000  0.31730000  0.73040000  1.0 0.008745769
C  C208  1  0.73590000  0.30700000  0.80010000  1.0 -0.0989626057
C  C209  1  0.73540000  0.27840000  0.76160000  1.0 0.0257455225
C  C210  1  0.90590000  0.39480000  0.57980000  1.0 0.008745769
C  C211  1  0.68550000  0.82470000  0.14520000  1.0 -0.1205967443
C  C212  1  0.66320000  0.77070000  0.17070000  1.0 0.6449541554
C  C213  1  0.65850000  0.83590000  0.11120000  1.0 0.008745769
C  C214  1  0.73870000  0.87610000  0.15000000  1.0 -0.0136139565
C  C215  1  0.58490000  0.92060000  0.11800000  1.0 -0.1625482361
C  C216  1  0.52590000  0.90400000  0.12290000  1.0 -0.1205967443
C  C217  1  0.49500000  0.90850000  0.16130000  1.0 0.5749791368
C  C218  1  0.63140000  0.95220000  0.96650000  1.0 -0.0311987994
C  C219  1  0.48540000  0.69880000  0.25280000  1.0 0.1097285603
C  C220  1  0.49830000  0.87030000  0.08500000  1.0 0.008745769
C  C221  1  0.45560000  0.77290000  0.23040000  1.0 0.008745769
C  C222  1  0.42890000  0.73590000  0.30010000  1.0 -0.0989626057
C  C223  1  0.45700000  0.73540000  0.26160000  1.0 0.0257455225
C  C224  1  0.51110000  0.90590000  0.07980000  1.0 0.008745769
C  C225  1  0.13920000  0.31450000  0.14520000  1.0 -0.1205967443
C  C226  1  0.10750000  0.33680000  0.17070000  1.0 0.6449541554
C  C227  1  0.17740000  0.34150000  0.11120000  1.0 0.008745769
C  C228  1  0.13740000  0.26130000  0.15000000  1.0 -0.0136139565
C  C229  1  0.33570000  0.41510000  0.11800000  1.0 -0.1625482361
C  C230  1  0.37810000  0.47410000  0.12290000  1.0 -0.1205967443
C  C231  1  0.41350000  0.50500000  0.16130000  1.0 0.5749791368
C  C232  1  0.32080000  0.36860000  0.96650000  1.0 -0.0311987994
C  C233  1  0.21340000  0.51460000  0.25280000  1.0 0.1097285603
C  C234  1  0.37200000  0.50170000  0.08500000  1.0 0.008745769
C  C235  1  0.31730000  0.54440000  0.23040000  1.0 0.008745769
C  C236  1  0.30700000  0.57110000  0.30010000  1.0 -0.0989626057
C  C237  1  0.27840000  0.54300000  0.26160000  1.0 0.0257455225
C  C238  1  0.39480000  0.48890000  0.07980000  1.0 0.008745769
C  C239  1  0.17530000  0.86080000  0.14520000  1.0 -0.1205967443
C  C240  1  0.22930000  0.89250000  0.17070000  1.0 0.6449541554
C  C241  1  0.16410000  0.82260000  0.11120000  1.0 0.008745769
C  C242  1  0.12390000  0.86260000  0.15000000  1.0 -0.0136139565
C  C243  1  0.07940000  0.66430000  0.11800000  1.0 -0.1625482361
C  C244  1  0.09600000  0.62190000  0.12290000  1.0 -0.1205967443
C  C245  1  0.09150000  0.58650000  0.16130000  1.0 0.5749791368
C  C246  1  0.04780000  0.67920000  0.96650000  1.0 -0.0311987994
C  C247  1  0.30120000  0.78660000  0.25280000  1.0 0.1097285603
C  C248  1  0.12970000  0.62800000  0.08500000  1.0 0.008745769
C  C249  1  0.22710000  0.68270000  0.23040000  1.0 0.008745769
C  C250  1  0.26410000  0.69300000  0.30010000  1.0 -0.0989626057
C  C251  1  0.26460000  0.72160000  0.26160000  1.0 0.0257455225
C  C252  1  0.09410000  0.60520000  0.07980000  1.0 0.008745769
C  C253  1  0.13920000  0.82470000  0.85480000  1.0 -0.1205967443
C  C254  1  0.10750000  0.77070000  0.82930000  1.0 0.6449541554
C  C255  1  0.17740000  0.83590000  0.88880000  1.0 0.008745769
C  C256  1  0.13740000  0.87610000  0.85000000  1.0 -0.0136139565
C  C257  1  0.33570000  0.92060000  0.88200000  1.0 -0.1625482361
C  C258  1  0.37810000  0.90400000  0.87710000  1.0 -0.1205967443
C  C259  1  0.41350000  0.90850000  0.83870000  1.0 0.5749791368
C  C260  1  0.32080000  0.95220000  0.03350000  1.0 -0.0311987994
C  C261  1  0.21340000  0.69880000  0.74720000  1.0 0.1097285603
C  C262  1  0.37200000  0.87030000  0.91500000  1.0 0.0049591438
C  C263  1  0.31730000  0.77290000  0.76960000  1.0 0.008745769
C  C264  1  0.30700000  0.73590000  0.69990000  1.0 -0.0989626057
C  C265  1  0.27840000  0.73540000  0.73840000  1.0 0.0257455225
C  C266  1  0.39480000  0.90590000  0.92020000  1.0 0.008745769
C  C267  1  0.17530000  0.31450000  0.85480000  1.0 -0.1205967443
C  C268  1  0.22930000  0.33680000  0.82930000  1.0 0.6449541554
C  C269  1  0.16410000  0.34150000  0.88880000  1.0 0.008745769
C  C270  1  0.12390000  0.26130000  0.85000000  1.0 -0.0136139565
C  C271  1  0.07940000  0.41510000  0.88200000  1.0 -0.1625482361
C  C272  1  0.09600000  0.47410000  0.87710000  1.0 -0.1205967443
C  C273  1  0.09150000  0.50500000  0.83870000  1.0 0.5749791368
C  C274  1  0.04780000  0.36860000  0.03350000  1.0 -0.0311987994
C  C275  1  0.30120000  0.51460000  0.74720000  1.0 0.1097285603
C  C276  1  0.12970000  0.50170000  0.91500000  1.0 0.0049591438
C  C277  1  0.22710000  0.54440000  0.76960000  1.0 0.008745769
C  C278  1  0.26410000  0.57110000  0.69990000  1.0 -0.0989626057
C  C279  1  0.26460000  0.54300000  0.73840000  1.0 0.0257455225
C  C280  1  0.09410000  0.48890000  0.92020000  1.0 0.008745769
C  C281  1  0.68550000  0.86080000  0.85480000  1.0 -0.1205967443
C  C282  1  0.66320000  0.89250000  0.82930000  1.0 0.6449541554
C  C283  1  0.65850000  0.82260000  0.88880000  1.0 0.008745769
C  C284  1  0.73870000  0.86260000  0.85000000  1.0 -0.0136139565
C  C285  1  0.58490000  0.66430000  0.88200000  1.0 -0.1625482361
C  C286  1  0.52590000  0.62190000  0.87710000  1.0 -0.1205967443
C  C287  1  0.49500000  0.58650000  0.83870000  1.0 0.5749791368
C  C288  1  0.63140000  0.67920000  0.03350000  1.0 -0.0311987994
C  C289  1  0.48540000  0.78660000  0.74720000  1.0 0.1097285603
C  C290  1  0.49830000  0.62800000  0.91500000  1.0 0.0049591438
C  C291  1  0.45560000  0.68270000  0.76960000  1.0 0.008745769
C  C292  1  0.42890000  0.69300000  0.69990000  1.0 -0.0989626057
C  C293  1  0.45700000  0.72160000  0.73840000  1.0 0.0257455225
C  C294  1  0.51110000  0.60520000  0.92020000  1.0 0.008745769
C  C295  1  0.86080000  0.17530000  0.35480000  1.0 -0.1205967443
C  C296  1  0.89250000  0.22930000  0.32930000  1.0 0.6449541554
C  C297  1  0.82260000  0.16410000  0.38880000  1.0 0.008745769
C  C298  1  0.86260000  0.12390000  0.35000000  1.0 -0.0136139565
C  C299  1  0.66430000  0.07940000  0.38200000  1.0 -0.1625482361
C  C300  1  0.62190000  0.09600000  0.37710000  1.0 -0.1205967443
C  C301  1  0.58650000  0.09150000  0.33870000  1.0 0.5749791368
C  C302  1  0.67920000  0.04780000  0.53350000  1.0 -0.0311987994
C  C303  1  0.78660000  0.30120000  0.24720000  1.0 0.1097285603
C  C304  1  0.62800000  0.12970000  0.41500000  1.0 0.008745769
C  C305  1  0.68270000  0.22710000  0.26960000  1.0 0.008745769
C  C306  1  0.69300000  0.26410000  0.19990000  1.0 -0.0989626057
C  C307  1  0.72160000  0.26460000  0.23840000  1.0 0.0257455225
C  C308  1  0.60520000  0.09410000  0.42020000  1.0 0.008745769
C  C309  1  0.82470000  0.68550000  0.35480000  1.0 -0.1205967443
C  C310  1  0.77070000  0.66320000  0.32930000  1.0 0.6449541554
C  C311  1  0.83590000  0.65850000  0.38880000  1.0 0.008745769
C  C312  1  0.87610000  0.73870000  0.35000000  1.0 -0.0136139565
C  C313  1  0.92060000  0.58490000  0.38200000  1.0 -0.1625482361
C  C314  1  0.90400000  0.52590000  0.37710000  1.0 -0.1205967443
C  C315  1  0.90850000  0.49500000  0.33870000  1.0 0.5749791368
C  C316  1  0.95220000  0.63140000  0.53350000  1.0 -0.0311987994
C  C317  1  0.69880000  0.48540000  0.24720000  1.0 0.1097285603
C  C318  1  0.87030000  0.49830000  0.41500000  1.0 0.008745769
C  C319  1  0.77290000  0.45560000  0.26960000  1.0 0.008745769
C  C320  1  0.73590000  0.42890000  0.19990000  1.0 -0.0989626057
C  C321  1  0.73540000  0.45700000  0.23840000  1.0 0.0257455225
C  C322  1  0.90590000  0.51110000  0.42020000  1.0 0.008745769
C  C323  1  0.31450000  0.13920000  0.35480000  1.0 -0.1205967443
C  C324  1  0.33680000  0.10750000  0.32930000  1.0 0.6449541554
C  C325  1  0.34150000  0.17740000  0.38880000  1.0 0.008745769
C  C326  1  0.26130000  0.13740000  0.35000000  1.0 -0.0136139565
C  C327  1  0.41510000  0.33570000  0.38200000  1.0 -0.1625482361
C  C328  1  0.47410000  0.37810000  0.37710000  1.0 -0.1205967443
C  C329  1  0.50500000  0.41350000  0.33870000  1.0 0.5749791368
C  C330  1  0.36860000  0.32080000  0.53350000  1.0 -0.0311987994
C  C331  1  0.51460000  0.21340000  0.24720000  1.0 0.1097285603
C  C332  1  0.50170000  0.37200000  0.41500000  1.0 0.008745769
C  C333  1  0.54440000  0.31730000  0.26960000  1.0 0.008745769
C  C334  1  0.57110000  0.30700000  0.19990000  1.0 -0.0989626057
C  C335  1  0.54300000  0.27840000  0.23840000  1.0 0.0257455225
C  C336  1  0.48890000  0.39480000  0.42020000  1.0 0.008745769
C  C337  1  0.60180000  0.00000000  0.59360000  1.0 0.6121393645
C  C338  1  0.63580000  0.00000000  0.55570000  1.0 -0.1205967443
C  C339  1  0.39820000  0.39820000  0.59360000  1.0 0.6121393645
C  C340  1  0.36420000  0.36420000  0.55570000  1.0 -0.1205967443
C  C341  1  0.00000000  0.60180000  0.59360000  1.0 0.6121393645
C  C342  1  0.00000000  0.63580000  0.55570000  1.0 -0.1205967443
C  C343  1  0.39820000  0.00000000  0.09360000  1.0 0.6121393645
C  C344  1  0.36420000  0.00000000  0.05570000  1.0 -0.1205967443
C  C345  1  0.60180000  0.60180000  0.09360000  1.0 0.6121393645
C  C346  1  0.63580000  0.63580000  0.05570000  1.0 -0.1205967443
C  C347  1  0.00000000  0.39820000  0.09360000  1.0 0.6121393645
C  C348  1  0.00000000  0.36420000  0.05570000  1.0 -0.1205967443
C  C349  1  0.60180000  0.00000000  0.90640000  1.0 0.6121393645
C  C350  1  0.63580000  0.00000000  0.94430000  1.0 -0.1205967443
C  C351  1  0.00000000  0.60180000  0.90640000  1.0 0.6121393645
C  C352  1  0.00000000  0.63580000  0.94430000  1.0 -0.1205967443
C  C353  1  0.39820000  0.39820000  0.90640000  1.0 0.6121393645
C  C354  1  0.36420000  0.36420000  0.94430000  1.0 -0.1205967443
C  C355  1  0.39820000  0.00000000  0.40640000  1.0 0.6121393645
C  C356  1  0.36420000  0.00000000  0.44430000  1.0 -0.1205967443
C  C357  1  0.00000000  0.39820000  0.40640000  1.0 0.6121393645
C  C358  1  0.00000000  0.36420000  0.44430000  1.0 -0.1205967443
C  C359  1  0.60180000  0.60180000  0.40640000  1.0 0.6121393645
C  C360  1  0.63580000  0.63580000  0.44430000  1.0 -0.1205967443
N  N1  1  0.74220000  0.91580000  0.37895000  1.0 -0.2108670046
N  N2  1  0.69210000  0.89010000  0.40328000  1.0 -0.1730722532
N  N3  1  0.59700000  0.91180000  0.42220000  1.0 -0.1625482361
N  N4  1  0.66910000  0.97040000  0.50010000  1.0 -0.2040785509
N  N5  1  0.54100000  0.87450000  0.44090000  1.0 0.020240921
N  N6  1  0.41110000  0.77540000  0.20990000  1.0 -0.2251818225
N  N7  1  0.55220000  0.91000000  0.44650000  1.0 -0.0364555476
N  N8  1  0.17360000  0.25780000  0.37895000  1.0 -0.2108670046
N  N9  1  0.19800000  0.30790000  0.40328000  1.0 -0.1730722532
N  N10  1  0.31480000  0.40300000  0.42220000  1.0 -0.1625482361
N  N11  1  0.30130000  0.33090000  0.50010000  1.0 -0.2040785509
N  N12  1  0.33350000  0.45900000  0.44090000  1.0 0.020240921
N  N13  1  0.36430000  0.58890000  0.20990000  1.0 -0.2251818225
N  N14  1  0.35780000  0.44780000  0.44650000  1.0 -0.0364555476
N  N15  1  0.08420000  0.82640000  0.37895000  1.0 -0.2108670046
N  N16  1  0.10990000  0.80200000  0.40328000  1.0 -0.1730722532
N  N17  1  0.08820000  0.68520000  0.42220000  1.0 -0.1625482361
N  N18  1  0.02960000  0.69870000  0.50010000  1.0 -0.2040785509
N  N19  1  0.12550000  0.66650000  0.44090000  1.0 0.020240921
N  N20  1  0.22460000  0.63570000  0.20990000  1.0 -0.2251818225
N  N21  1  0.09000000  0.64220000  0.44650000  1.0 -0.0364555476
N  N22  1  0.25780000  0.08420000  0.87895000  1.0 -0.2108670046
N  N23  1  0.30790000  0.10990000  0.90328000  1.0 -0.1730722532
N  N24  1  0.40300000  0.08820000  0.92220000  1.0 -0.1625482361
N  N25  1  0.33090000  0.02960000  0.00010000  1.0 -0.2040785509
N  N26  1  0.45900000  0.12550000  0.94090000  1.0 0.020240921
N  N27  1  0.58890000  0.22460000  0.70990000  1.0 -0.2251818225
N  N28  1  0.44780000  0.09000000  0.94650000  1.0 -0.0311987994
N  N29  1  0.82640000  0.74220000  0.87895000  1.0 -0.2108670046
N  N30  1  0.80200000  0.69210000  0.90328000  1.0 -0.1730722532
N  N31  1  0.68520000  0.59700000  0.92220000  1.0 -0.1625482361
N  N32  1  0.69870000  0.66910000  0.00010000  1.0 -0.2040785509
N  N33  1  0.66650000  0.54100000  0.94090000  1.0 0.020240921
N  N34  1  0.63570000  0.41110000  0.70990000  1.0 -0.2251818225
N  N35  1  0.64220000  0.55220000  0.94650000  1.0 -0.0311987994
N  N36  1  0.91580000  0.17360000  0.87895000  1.0 -0.2108670046
N  N37  1  0.89010000  0.19800000  0.90328000  1.0 -0.1730722532
N  N38  1  0.91180000  0.31480000  0.92220000  1.0 -0.1625482361
N  N39  1  0.97040000  0.30130000  0.00010000  1.0 -0.2040785509
N  N40  1  0.87450000  0.33350000  0.94090000  1.0 0.020240921
N  N41  1  0.77540000  0.36430000  0.70990000  1.0 -0.2247059837
N  N42  1  0.91000000  0.35780000  0.94650000  1.0 -0.0311987994
N  N43  1  0.82640000  0.08420000  0.12105000  1.0 -0.2108670046
N  N44  1  0.80200000  0.10990000  0.09672000  1.0 -0.1730722532
N  N45  1  0.68520000  0.08820000  0.07780000  1.0 -0.1625482361
N  N46  1  0.69870000  0.02960000  0.99990000  1.0 -0.2040785509
N  N47  1  0.66650000  0.12550000  0.05910000  1.0 0.020240921
N  N48  1  0.63570000  0.22460000  0.29010000  1.0 -0.2251818225
N  N49  1  0.64220000  0.09000000  0.05350000  1.0 -0.0364555476
N  N50  1  0.91580000  0.74220000  0.12105000  1.0 -0.2108670046
N  N51  1  0.89010000  0.69210000  0.09672000  1.0 -0.1730722532
N  N52  1  0.91180000  0.59700000  0.07780000  1.0 -0.1625482361
N  N53  1  0.97040000  0.66910000  0.99990000  1.0 -0.2040785509
N  N54  1  0.87450000  0.54100000  0.05910000  1.0 0.020240921
N  N55  1  0.77540000  0.41110000  0.29010000  1.0 -0.2251818225
N  N56  1  0.91000000  0.55220000  0.05350000  1.0 -0.0364555476
N  N57  1  0.25780000  0.17360000  0.12105000  1.0 -0.2108670046
N  N58  1  0.30790000  0.19800000  0.09672000  1.0 -0.1730722532
N  N59  1  0.40300000  0.31480000  0.07780000  1.0 -0.1625482361
N  N60  1  0.33090000  0.30130000  0.99990000  1.0 -0.2040785509
N  N61  1  0.45900000  0.33350000  0.05910000  1.0 0.020240921
N  N62  1  0.58890000  0.36430000  0.29010000  1.0 -0.2251818225
N  N63  1  0.44780000  0.35780000  0.05350000  1.0 -0.0364555476
N  N64  1  0.17360000  0.91580000  0.62105000  1.0 -0.2108670046
N  N65  1  0.19800000  0.89010000  0.59672000  1.0 -0.1730722532
N  N66  1  0.31480000  0.91180000  0.57780000  1.0 -0.1625482361
N  N67  1  0.30130000  0.97040000  0.49990000  1.0 -0.2040785509
N  N68  1  0.33350000  0.87450000  0.55910000  1.0 0.020240921
N  N69  1  0.36430000  0.77540000  0.79010000  1.0 -0.2251818225
N  N70  1  0.35780000  0.91000000  0.55350000  1.0 -0.0364555476
N  N71  1  0.08420000  0.25780000  0.62105000  1.0 -0.2108670046
N  N72  1  0.10990000  0.30790000  0.59672000  1.0 -0.1730722532
N  N73  1  0.08820000  0.40300000  0.57780000  1.0 -0.1625482361
N  N74  1  0.02960000  0.33090000  0.49990000  1.0 -0.2040785509
N  N75  1  0.12550000  0.45900000  0.55910000  1.0 0.020240921
N  N76  1  0.22460000  0.58890000  0.79010000  1.0 -0.2251818225
N  N77  1  0.09000000  0.44780000  0.55350000  1.0 -0.0364555476
N  N78  1  0.74220000  0.82640000  0.62105000  1.0 -0.2108670046
N  N79  1  0.69210000  0.80200000  0.59672000  1.0 -0.1730722532
N  N80  1  0.59700000  0.68520000  0.57780000  1.0 -0.1625482361
N  N81  1  0.66910000  0.69870000  0.49990000  1.0 -0.2040785509
N  N82  1  0.54100000  0.66650000  0.55910000  1.0 0.020240921
N  N83  1  0.41110000  0.63570000  0.79010000  1.0 -0.2251818225
N  N84  1  0.55220000  0.64220000  0.55350000  1.0 -0.0364555476
N  N85  1  0.25780000  0.08420000  0.62105000  1.0 -0.2108670046
N  N86  1  0.30790000  0.10990000  0.59672000  1.0 -0.1730722532
N  N87  1  0.40300000  0.08820000  0.57780000  1.0 -0.1625482361
N  N88  1  0.33090000  0.02960000  0.49990000  1.0 -0.2040785509
N  N89  1  0.45900000  0.12550000  0.55910000  1.0 0.020240921
N  N90  1  0.58890000  0.22460000  0.79010000  1.0 -0.2251818225
N  N91  1  0.44780000  0.09000000  0.55350000  1.0 -0.0364555476
N  N92  1  0.82640000  0.74220000  0.62105000  1.0 -0.2108670046
N  N93  1  0.80200000  0.69210000  0.59672000  1.0 -0.1730722532
N  N94  1  0.68520000  0.59700000  0.57780000  1.0 -0.1625482361
N  N95  1  0.69870000  0.66910000  0.49990000  1.0 -0.2040785509
N  N96  1  0.66650000  0.54100000  0.55910000  1.0 0.020240921
N  N97  1  0.63570000  0.41110000  0.79010000  1.0 -0.2251818225
N  N98  1  0.64220000  0.55220000  0.55350000  1.0 -0.0364555476
N  N99  1  0.91580000  0.17360000  0.62105000  1.0 -0.2108670046
N  N100  1  0.89010000  0.19800000  0.59672000  1.0 -0.1730722532
N  N101  1  0.91180000  0.31480000  0.57780000  1.0 -0.1625482361
N  N102  1  0.97040000  0.30130000  0.49990000  1.0 -0.2040785509
N  N103  1  0.87450000  0.33350000  0.55910000  1.0 0.020240921
N  N104  1  0.77540000  0.36430000  0.79010000  1.0 -0.2247059837
N  N105  1  0.91000000  0.35780000  0.55350000  1.0 -0.0364555476
N  N106  1  0.74220000  0.91580000  0.12105000  1.0 -0.2108670046
N  N107  1  0.69210000  0.89010000  0.09672000  1.0 -0.1730722532
N  N108  1  0.59700000  0.91180000  0.07780000  1.0 -0.1625482361
N  N109  1  0.66910000  0.97040000  0.99990000  1.0 -0.2040785509
N  N110  1  0.54100000  0.87450000  0.05910000  1.0 0.020240921
N  N111  1  0.41110000  0.77540000  0.29010000  1.0 -0.2251818225
N  N112  1  0.55220000  0.91000000  0.05350000  1.0 -0.0364555476
N  N113  1  0.17360000  0.25780000  0.12105000  1.0 -0.2108670046
N  N114  1  0.19800000  0.30790000  0.09672000  1.0 -0.1730722532
N  N115  1  0.31480000  0.40300000  0.07780000  1.0 -0.1625482361
N  N116  1  0.30130000  0.33090000  0.99990000  1.0 -0.2040785509
N  N117  1  0.33350000  0.45900000  0.05910000  1.0 0.020240921
N  N118  1  0.36430000  0.58890000  0.29010000  1.0 -0.2251818225
N  N119  1  0.35780000  0.44780000  0.05350000  1.0 -0.0364555476
N  N120  1  0.08420000  0.82640000  0.12105000  1.0 -0.2108670046
N  N121  1  0.10990000  0.80200000  0.09672000  1.0 -0.1730722532
N  N122  1  0.08820000  0.68520000  0.07780000  1.0 -0.1625482361
N  N123  1  0.02960000  0.69870000  0.99990000  1.0 -0.2040785509
N  N124  1  0.12550000  0.66650000  0.05910000  1.0 0.020240921
N  N125  1  0.22460000  0.63570000  0.29010000  1.0 -0.2251818225
N  N126  1  0.09000000  0.64220000  0.05350000  1.0 -0.0364555476
N  N127  1  0.17360000  0.91580000  0.87895000  1.0 -0.2108670046
N  N128  1  0.19800000  0.89010000  0.90328000  1.0 -0.1730722532
N  N129  1  0.31480000  0.91180000  0.92220000  1.0 -0.1625482361
N  N130  1  0.30130000  0.97040000  0.00010000  1.0 -0.2040785509
N  N131  1  0.33350000  0.87450000  0.94090000  1.0 0.020240921
N  N132  1  0.36430000  0.77540000  0.70990000  1.0 -0.2251818225
N  N133  1  0.35780000  0.91000000  0.94650000  1.0 -0.0311987994
N  N134  1  0.08420000  0.25780000  0.87895000  1.0 -0.2108670046
N  N135  1  0.10990000  0.30790000  0.90328000  1.0 -0.1730722532
N  N136  1  0.08820000  0.40300000  0.92220000  1.0 -0.1625482361
N  N137  1  0.02960000  0.33090000  0.00010000  1.0 -0.2040785509
N  N138  1  0.12550000  0.45900000  0.94090000  1.0 0.020240921
N  N139  1  0.22460000  0.58890000  0.70990000  1.0 -0.2251818225
N  N140  1  0.09000000  0.44780000  0.94650000  1.0 -0.0311987994
N  N141  1  0.74220000  0.82640000  0.87895000  1.0 -0.2108670046
N  N142  1  0.69210000  0.80200000  0.90328000  1.0 -0.1730722532
N  N143  1  0.59700000  0.68520000  0.92220000  1.0 -0.1625482361
N  N144  1  0.66910000  0.69870000  0.00010000  1.0 -0.2040785509
N  N145  1  0.54100000  0.66650000  0.94090000  1.0 0.020240921
N  N146  1  0.41110000  0.63570000  0.70990000  1.0 -0.2251818225
N  N147  1  0.55220000  0.64220000  0.94650000  1.0 -0.0311987994
N  N148  1  0.82640000  0.08420000  0.37895000  1.0 -0.2108670046
N  N149  1  0.80200000  0.10990000  0.40328000  1.0 -0.1730722532
N  N150  1  0.68520000  0.08820000  0.42220000  1.0 -0.1625482361
N  N151  1  0.69870000  0.02960000  0.50010000  1.0 -0.2040785509
N  N152  1  0.66650000  0.12550000  0.44090000  1.0 0.020240921
N  N153  1  0.63570000  0.22460000  0.20990000  1.0 -0.2251818225
N  N154  1  0.64220000  0.09000000  0.44650000  1.0 -0.0364555476
N  N155  1  0.91580000  0.74220000  0.37895000  1.0 -0.2108670046
N  N156  1  0.89010000  0.69210000  0.40328000  1.0 -0.1730722532
N  N157  1  0.91180000  0.59700000  0.42220000  1.0 -0.1625482361
N  N158  1  0.97040000  0.66910000  0.50010000  1.0 -0.2040785509
N  N159  1  0.87450000  0.54100000  0.44090000  1.0 0.020240921
N  N160  1  0.77540000  0.41110000  0.20990000  1.0 -0.2251818225
N  N161  1  0.91000000  0.55220000  0.44650000  1.0 -0.0364555476
N  N162  1  0.25780000  0.17360000  0.37895000  1.0 -0.2108670046
N  N163  1  0.30790000  0.19800000  0.40328000  1.0 -0.1730722532
N  N164  1  0.40300000  0.31480000  0.42220000  1.0 -0.1625482361
N  N165  1  0.33090000  0.30130000  0.50010000  1.0 -0.2040785509
N  N166  1  0.45900000  0.33350000  0.44090000  1.0 0.020240921
N  N167  1  0.58890000  0.36430000  0.20990000  1.0 -0.2251818225
N  N168  1  0.44780000  0.35780000  0.44650000  1.0 -0.0364555476
N  N169  1  0.42910000  0.80120000  0.25000000  1.0 -0.07719566
N  N170  1  0.37210000  0.57090000  0.25000000  1.0 -0.07719566
N  N171  1  0.19880000  0.62790000  0.25000000  1.0 -0.07719566
N  N172  1  0.57090000  0.19880000  0.75000000  1.0 -0.07719566
N  N173  1  0.62790000  0.42910000  0.75000000  1.0 -0.07719566
N  N174  1  0.80120000  0.37210000  0.75000000  1.0 -0.07719566
N  N175  1  0.62790000  0.19880000  0.25000000  1.0 -0.07719566
N  N176  1  0.80120000  0.42910000  0.25000000  1.0 -0.07719566
N  N177  1  0.57090000  0.37210000  0.25000000  1.0 -0.07719566
N  N178  1  0.37210000  0.80120000  0.75000000  1.0 -0.07719566
N  N179  1  0.19880000  0.57090000  0.75000000  1.0 -0.07719566
N  N180  1  0.42910000  0.62790000  0.75000000  1.0 -0.07719566
N  N181  1  0.65050000  0.82525000  0.50000000  1.0 0.6720124389
N  N182  1  0.17475000  0.34950000  0.50000000  1.0 0.6720124389
N  N183  1  0.17475000  0.82525000  0.50000000  1.0 0.6720124389
N  N184  1  0.34950000  0.17475000  0.00000000  1.0 0.6720124389
N  N185  1  0.82525000  0.65050000  0.00000000  1.0 0.6720124389
N  N186  1  0.82525000  0.17475000  0.00000000  1.0 0.6720124389
N  N187  1  0.34950000  0.17475000  0.50000000  1.0 0.6720124389
N  N188  1  0.82525000  0.65050000  0.50000000  1.0 0.6720124389
N  N189  1  0.82525000  0.17475000  0.50000000  1.0 0.6720124389
N  N190  1  0.65050000  0.82525000  0.00000000  1.0 0.6720124389
N  N191  1  0.17475000  0.34950000  0.00000000  1.0 0.6720124389
N  N192  1  0.17475000  0.82525000  0.00000000  1.0 0.6720124389
O  O1  1  0.49560000  0.68420000  0.28820000  1.0 -0.3803019246
O  O2  1  0.69630000  0.76770000  0.30037000  1.0 -0.5985968605
O  O3  1  0.61120000  0.73060000  0.33699000  1.0 -0.5985968605
O  O4  1  0.52520000  0.93440000  0.30559000  1.0 -0.5701064363
O  O5  1  0.61230000  0.04850000  0.60913000  1.0 -0.5914826488
O  O6  1  0.62320000  0.84800000  0.48410000  1.0 -0.4307967875
O  O7  1  0.44100000  0.88760000  0.34263000  1.0 -0.5792041814
O  O8  1  0.18860000  0.50440000  0.28820000  1.0 -0.3803019246
O  O9  1  0.07140000  0.30370000  0.30037000  1.0 -0.5985968605
O  O10  1  0.11940000  0.38880000  0.33699000  1.0 -0.5985968605
O  O11  1  0.40920000  0.47480000  0.30559000  1.0 -0.5701064363
O  O12  1  0.43620000  0.38770000  0.60913000  1.0 -0.5914826488
O  O13  1  0.22480000  0.37680000  0.48410000  1.0 -0.4307967875
O  O14  1  0.44660000  0.55900000  0.34263000  1.0 -0.5792041814
O  O15  1  0.31580000  0.81140000  0.28820000  1.0 -0.3803019246
O  O16  1  0.23230000  0.92860000  0.30037000  1.0 -0.5985968605
O  O17  1  0.26940000  0.88060000  0.33699000  1.0 -0.5985968605
O  O18  1  0.06560000  0.59080000  0.30559000  1.0 -0.5701064363
O  O19  1  0.95150000  0.56380000  0.60913000  1.0 -0.5914826488
O  O20  1  0.15200000  0.77520000  0.48410000  1.0 -0.4307967875
O  O21  1  0.11240000  0.55340000  0.34263000  1.0 -0.5792041814
O  O22  1  0.50440000  0.31580000  0.78820000  1.0 -0.3803019246
O  O23  1  0.30370000  0.23230000  0.80037000  1.0 -0.5985968605
O  O24  1  0.38880000  0.26940000  0.83699000  1.0 -0.5985968605
O  O25  1  0.47480000  0.06560000  0.80559000  1.0 -0.5701064363
O  O26  1  0.38770000  0.95150000  0.10913000  1.0 -0.5914826488
O  O27  1  0.37680000  0.15200000  0.98410000  1.0 -0.4307967875
O  O28  1  0.55900000  0.11240000  0.84263000  1.0 -0.5792041814
O  O29  1  0.81140000  0.49560000  0.78820000  1.0 -0.3803019246
O  O30  1  0.92860000  0.69630000  0.80037000  1.0 -0.5985968605
O  O31  1  0.88060000  0.61120000  0.83699000  1.0 -0.5985968605
O  O32  1  0.59080000  0.52520000  0.80559000  1.0 -0.5701064363
O  O33  1  0.56380000  0.61230000  0.10913000  1.0 -0.5914826488
O  O34  1  0.77520000  0.62320000  0.98410000  1.0 -0.4307967875
O  O35  1  0.55340000  0.44100000  0.84263000  1.0 -0.5792041814
O  O36  1  0.68420000  0.18860000  0.78820000  1.0 -0.3803019246
O  O37  1  0.76770000  0.07140000  0.80037000  1.0 -0.5985968605
O  O38  1  0.73060000  0.11940000  0.83699000  1.0 -0.5985968605
O  O39  1  0.93440000  0.40920000  0.80559000  1.0 -0.5701064363
O  O40  1  0.04850000  0.43620000  0.10913000  1.0 -0.5914826488
O  O41  1  0.84800000  0.22480000  0.98410000  1.0 -0.4307967875
O  O42  1  0.88760000  0.44660000  0.84263000  1.0 -0.5792041814
O  O43  1  0.81140000  0.31580000  0.21180000  1.0 -0.3803019246
O  O44  1  0.92860000  0.23230000  0.19963000  1.0 -0.5985968605
O  O45  1  0.88060000  0.26940000  0.16301000  1.0 -0.5985968605
O  O46  1  0.59080000  0.06560000  0.19441000  1.0 -0.5701064363
O  O47  1  0.56380000  0.95150000  0.89087000  1.0 -0.5914826488
O  O48  1  0.77520000  0.15200000  0.01590000  1.0 -0.4307967875
O  O49  1  0.55340000  0.11240000  0.15737000  1.0 -0.5792041814
O  O50  1  0.68420000  0.49560000  0.21180000  1.0 -0.3803019246
O  O51  1  0.76770000  0.69630000  0.19963000  1.0 -0.5985968605
O  O52  1  0.73060000  0.61120000  0.16301000  1.0 -0.5985968605
O  O53  1  0.93440000  0.52520000  0.19441000  1.0 -0.5701064363
O  O54  1  0.04850000  0.61230000  0.89087000  1.0 -0.5914826488
O  O55  1  0.84800000  0.62320000  0.01590000  1.0 -0.4307967875
O  O56  1  0.88760000  0.44100000  0.15737000  1.0 -0.5792041814
O  O57  1  0.50440000  0.18860000  0.21180000  1.0 -0.3803019246
O  O58  1  0.30370000  0.07140000  0.19963000  1.0 -0.5985968605
O  O59  1  0.38880000  0.11940000  0.16301000  1.0 -0.5985968605
O  O60  1  0.47480000  0.40920000  0.19441000  1.0 -0.5701064363
O  O61  1  0.38770000  0.43620000  0.89087000  1.0 -0.5914826488
O  O62  1  0.37680000  0.22480000  0.01590000  1.0 -0.4307967875
O  O63  1  0.55900000  0.44660000  0.15737000  1.0 -0.5792041814
O  O64  1  0.18860000  0.68420000  0.71180000  1.0 -0.3803019246
O  O65  1  0.07140000  0.76770000  0.69963000  1.0 -0.5985968605
O  O66  1  0.11940000  0.73060000  0.66301000  1.0 -0.5985968605
O  O67  1  0.40920000  0.93440000  0.69441000  1.0 -0.5701064363
O  O68  1  0.43620000  0.04850000  0.39087000  1.0 -0.5914826488
O  O69  1  0.22480000  0.84800000  0.51590000  1.0 -0.4307967875
O  O70  1  0.44660000  0.88760000  0.65737000  1.0 -0.5792041814
O  O71  1  0.31580000  0.50440000  0.71180000  1.0 -0.3803019246
O  O72  1  0.23230000  0.30370000  0.69963000  1.0 -0.5985968605
O  O73  1  0.26940000  0.38880000  0.66301000  1.0 -0.5985968605
O  O74  1  0.06560000  0.47480000  0.69441000  1.0 -0.5701064363
O  O75  1  0.95150000  0.38770000  0.39087000  1.0 -0.5914826488
O  O76  1  0.15200000  0.37680000  0.51590000  1.0 -0.4307967875
O  O77  1  0.11240000  0.55900000  0.65737000  1.0 -0.5792041814
O  O78  1  0.49560000  0.81140000  0.71180000  1.0 -0.3803019246
O  O79  1  0.69630000  0.92860000  0.69963000  1.0 -0.5985968605
O  O80  1  0.61120000  0.88060000  0.66301000  1.0 -0.5985968605
O  O81  1  0.52520000  0.59080000  0.69441000  1.0 -0.5701064363
O  O82  1  0.61230000  0.56380000  0.39087000  1.0 -0.5914826488
O  O83  1  0.62320000  0.77520000  0.51590000  1.0 -0.4307967875
O  O84  1  0.44100000  0.55340000  0.65737000  1.0 -0.5792041814
O  O85  1  0.50440000  0.31580000  0.71180000  1.0 -0.3803019246
O  O86  1  0.30370000  0.23230000  0.69963000  1.0 -0.5985968605
O  O87  1  0.38880000  0.26940000  0.66301000  1.0 -0.5985968605
O  O88  1  0.47480000  0.06560000  0.69441000  1.0 -0.5701064363
O  O89  1  0.38770000  0.95150000  0.39087000  1.0 -0.5914826488
O  O90  1  0.37680000  0.15200000  0.51590000  1.0 -0.4307967875
O  O91  1  0.55900000  0.11240000  0.65737000  1.0 -0.5792041814
O  O92  1  0.81140000  0.49560000  0.71180000  1.0 -0.3803019246
O  O93  1  0.92860000  0.69630000  0.69963000  1.0 -0.5985968605
O  O94  1  0.88060000  0.61120000  0.66301000  1.0 -0.5985968605
O  O95  1  0.59080000  0.52520000  0.69441000  1.0 -0.5701064363
O  O96  1  0.56380000  0.61230000  0.39087000  1.0 -0.5914826488
O  O97  1  0.77520000  0.62320000  0.51590000  1.0 -0.4307967875
O  O98  1  0.55340000  0.44100000  0.65737000  1.0 -0.5792041814
O  O99  1  0.68420000  0.18860000  0.71180000  1.0 -0.3803019246
O  O100  1  0.76770000  0.07140000  0.69963000  1.0 -0.5985968605
O  O101  1  0.73060000  0.11940000  0.66301000  1.0 -0.5985968605
O  O102  1  0.93440000  0.40920000  0.69441000  1.0 -0.5701064363
O  O103  1  0.04850000  0.43620000  0.39087000  1.0 -0.5914826488
O  O104  1  0.84800000  0.22480000  0.51590000  1.0 -0.4307967875
O  O105  1  0.88760000  0.44660000  0.65737000  1.0 -0.5792041814
O  O106  1  0.49560000  0.68420000  0.21180000  1.0 -0.3803019246
O  O107  1  0.69630000  0.76770000  0.19963000  1.0 -0.5985968605
O  O108  1  0.61120000  0.73060000  0.16301000  1.0 -0.5985968605
O  O109  1  0.52520000  0.93440000  0.19441000  1.0 -0.5701064363
O  O110  1  0.61230000  0.04850000  0.89087000  1.0 -0.5914826488
O  O111  1  0.62320000  0.84800000  0.01590000  1.0 -0.4307967875
O  O112  1  0.44100000  0.88760000  0.15737000  1.0 -0.5792041814
O  O113  1  0.18860000  0.50440000  0.21180000  1.0 -0.3803019246
O  O114  1  0.07140000  0.30370000  0.19963000  1.0 -0.5985968605
O  O115  1  0.11940000  0.38880000  0.16301000  1.0 -0.5985968605
O  O116  1  0.40920000  0.47480000  0.19441000  1.0 -0.5701064363
O  O117  1  0.43620000  0.38770000  0.89087000  1.0 -0.5914826488
O  O118  1  0.22480000  0.37680000  0.01590000  1.0 -0.4307967875
O  O119  1  0.44660000  0.55900000  0.15737000  1.0 -0.5792041814
O  O120  1  0.31580000  0.81140000  0.21180000  1.0 -0.3803019246
O  O121  1  0.23230000  0.92860000  0.19963000  1.0 -0.5985968605
O  O122  1  0.26940000  0.88060000  0.16301000  1.0 -0.5985968605
O  O123  1  0.06560000  0.59080000  0.19441000  1.0 -0.5701064363
O  O124  1  0.95150000  0.56380000  0.89087000  1.0 -0.5914826488
O  O125  1  0.15200000  0.77520000  0.01590000  1.0 -0.4307967875
O  O126  1  0.11240000  0.55340000  0.15737000  1.0 -0.5792041814
O  O127  1  0.18860000  0.68420000  0.78820000  1.0 -0.3803019246
O  O128  1  0.07140000  0.76770000  0.80037000  1.0 -0.5985968605
O  O129  1  0.11940000  0.73060000  0.83699000  1.0 -0.5985968605
O  O130  1  0.40920000  0.93440000  0.80559000  1.0 -0.5701064363
O  O131  1  0.43620000  0.04850000  0.10913000  1.0 -0.5914826488
O  O132  1  0.22480000  0.84800000  0.98410000  1.0 -0.4307967875
O  O133  1  0.44660000  0.88760000  0.84263000  1.0 -0.5792041814
O  O134  1  0.31580000  0.50440000  0.78820000  1.0 -0.3803019246
O  O135  1  0.23230000  0.30370000  0.80037000  1.0 -0.5985968605
O  O136  1  0.26940000  0.38880000  0.83699000  1.0 -0.5985968605
O  O137  1  0.06560000  0.47480000  0.80559000  1.0 -0.5701064363
O  O138  1  0.95150000  0.38770000  0.10913000  1.0 -0.5914826488
O  O139  1  0.15200000  0.37680000  0.98410000  1.0 -0.4307967875
O  O140  1  0.11240000  0.55900000  0.84263000  1.0 -0.5792041814
O  O141  1  0.49560000  0.81140000  0.78820000  1.0 -0.3803019246
O  O142  1  0.69630000  0.92860000  0.80037000  1.0 -0.5985968605
O  O143  1  0.61120000  0.88060000  0.83699000  1.0 -0.5985968605
O  O144  1  0.52520000  0.59080000  0.80559000  1.0 -0.5701064363
O  O145  1  0.61230000  0.56380000  0.10913000  1.0 -0.5914826488
O  O146  1  0.62320000  0.77520000  0.98410000  1.0 -0.4307967875
O  O147  1  0.44100000  0.55340000  0.84263000  1.0 -0.5792041814
O  O148  1  0.81140000  0.31580000  0.28820000  1.0 -0.3803019246
O  O149  1  0.92860000  0.23230000  0.30037000  1.0 -0.5985968605
O  O150  1  0.88060000  0.26940000  0.33699000  1.0 -0.5985968605
O  O151  1  0.59080000  0.06560000  0.30559000  1.0 -0.5701064363
O  O152  1  0.56380000  0.95150000  0.60913000  1.0 -0.5914826488
O  O153  1  0.77520000  0.15200000  0.48410000  1.0 -0.4307967875
O  O154  1  0.55340000  0.11240000  0.34263000  1.0 -0.5792041814
O  O155  1  0.68420000  0.49560000  0.28820000  1.0 -0.3803019246
O  O156  1  0.76770000  0.69630000  0.30037000  1.0 -0.5985968605
O  O157  1  0.73060000  0.61120000  0.33699000  1.0 -0.5985968605
O  O158  1  0.93440000  0.52520000  0.30559000  1.0 -0.5701064363
O  O159  1  0.04850000  0.61230000  0.60913000  1.0 -0.5914826488
O  O160  1  0.84800000  0.62320000  0.48410000  1.0 -0.4307967875
O  O161  1  0.88760000  0.44100000  0.34263000  1.0 -0.5792041814
O  O162  1  0.50440000  0.18860000  0.28820000  1.0 -0.3803019246
O  O163  1  0.30370000  0.07140000  0.30037000  1.0 -0.5985968605
O  O164  1  0.38880000  0.11940000  0.33699000  1.0 -0.5985968605
O  O165  1  0.47480000  0.40920000  0.30559000  1.0 -0.5701064363
O  O166  1  0.38770000  0.43620000  0.60913000  1.0 -0.5914826488
O  O167  1  0.37680000  0.22480000  0.48410000  1.0 -0.4307967875
O  O168  1  0.55900000  0.44660000  0.34263000  1.0 -0.5792041814
O  O169  1  0.54410000  0.54410000  0.30280000  1.0 -1.0566254949
O  O170  1  0.64500000  0.64500000  0.31929000  1.0 -0.9440740541
O  O171  1  0.00000000  0.45590000  0.30280000  1.0 -1.0566254949
O  O172  1  0.00000000  0.35500000  0.31929000  1.0 -0.9440740541
O  O173  1  0.45590000  0.00000000  0.30280000  1.0 -1.0566254949
O  O174  1  0.35500000  0.00000000  0.31929000  1.0 -0.9440740541
O  O175  1  0.45590000  0.45590000  0.80280000  1.0 -1.0566254949
O  O176  1  0.35500000  0.35500000  0.81929000  1.0 -0.9440740541
O  O177  1  0.00000000  0.54410000  0.80280000  1.0 -1.0566254949
O  O178  1  0.00000000  0.64500000  0.81929000  1.0 -0.9440740541
O  O179  1  0.54410000  0.00000000  0.80280000  1.0 -1.0566254949
O  O180  1  0.64500000  0.00000000  0.81929000  1.0 -0.9440740541
O  O181  1  0.00000000  0.45590000  0.19720000  1.0 -1.0566254949
O  O182  1  0.00000000  0.35500000  0.18071000  1.0 -0.9440740541
O  O183  1  0.54410000  0.54410000  0.19720000  1.0 -1.0566254949
O  O184  1  0.64500000  0.64500000  0.18071000  1.0 -0.9440740541
O  O185  1  0.45590000  0.00000000  0.19720000  1.0 -1.0566254949
O  O186  1  0.35500000  0.00000000  0.18071000  1.0 -0.9440740541
O  O187  1  0.00000000  0.54410000  0.69720000  1.0 -1.0566254949
O  O188  1  0.00000000  0.64500000  0.68071000  1.0 -0.9440740541
O  O189  1  0.45590000  0.45590000  0.69720000  1.0 -1.0566254949
O  O190  1  0.35500000  0.35500000  0.68071000  1.0 -0.9440740541
O  O191  1  0.54410000  0.00000000  0.69720000  1.0 -1.0566254949
O  O192  1  0.64500000  0.00000000  0.68071000  1.0 -0.9440740541
O  O193  1  0.75630000  0.00000000  0.43910000  1.0 -0.7451232568
O  O194  1  0.81600000  0.00000000  0.31760000  1.0 -0.0010069896
O  O195  1  0.84980000  0.00000000  0.32780000  1.0 0.0769378697
O  O196  1  0.24370000  0.24370000  0.43910000  1.0 -0.7451232568
O  O197  1  0.18400000  0.18400000  0.31760000  1.0 -0.0010069896
O  O198  1  0.15020000  0.15020000  0.32780000  1.0 0.0743414151
O  O199  1  0.00000000  0.75630000  0.43910000  1.0 -0.7451232568
O  O200  1  0.00000000  0.81600000  0.31760000  1.0 -0.0010069896
O  O201  1  0.00000000  0.84980000  0.32780000  1.0 0.0743414151
O  O202  1  0.24370000  0.00000000  0.93910000  1.0 -0.7446670428
O  O203  1  0.18400000  0.00000000  0.81760000  1.0 -0.0010069896
O  O204  1  0.15020000  0.00000000  0.82780000  1.0 0.0743414151
O  O205  1  0.75630000  0.75630000  0.93910000  1.0 -0.7446670428
O  O206  1  0.81600000  0.81600000  0.81760000  1.0 -0.0010069896
O  O207  1  0.84980000  0.84980000  0.82780000  1.0 0.0769378697
O  O208  1  0.00000000  0.24370000  0.93910000  1.0 -0.7446670428
O  O209  1  0.00000000  0.18400000  0.81760000  1.0 -0.0010069896
O  O210  1  0.00000000  0.15020000  0.82780000  1.0 0.0743414151
O  O211  1  0.75630000  0.00000000  0.06090000  1.0 -0.7451232568
O  O212  1  0.81600000  0.00000000  0.18240000  1.0 -0.0010069896
O  O213  1  0.84980000  0.00000000  0.17220000  1.0 0.0743414151
O  O214  1  0.00000000  0.75630000  0.06090000  1.0 -0.7451232568
O  O215  1  0.00000000  0.81600000  0.18240000  1.0 -0.0010069896
O  O216  1  0.00000000  0.84980000  0.17220000  1.0 0.0743414151
O  O217  1  0.24370000  0.24370000  0.06090000  1.0 -0.7451232568
O  O218  1  0.18400000  0.18400000  0.18240000  1.0 -0.0010069896
O  O219  1  0.15020000  0.15020000  0.17220000  1.0 0.0743414151
O  O220  1  0.24370000  0.00000000  0.56090000  1.0 -0.7451232568
O  O221  1  0.18400000  0.00000000  0.68240000  1.0 -0.0010069896
O  O222  1  0.15020000  0.00000000  0.67220000  1.0 0.0743414151
O  O223  1  0.00000000  0.24370000  0.56090000  1.0 -0.7451232568
O  O224  1  0.00000000  0.18400000  0.68240000  1.0 -0.0010069896
O  O225  1  0.00000000  0.15020000  0.67220000  1.0 0.0743414151
O  O226  1  0.75630000  0.75630000  0.56090000  1.0 -0.7451232568
O  O227  1  0.81600000  0.81600000  0.68240000  1.0 -0.0010069896
O  O228  1  0.84980000  0.84980000  0.67220000  1.0 0.0769378697
O  O229  1  0.57730000  0.48380000  0.25000000  1.0 -0.8990457748
O  O230  1  0.59570000  0.66870000  0.25000000  1.0 -1.0238363639
O  O231  1  0.90650000  0.42270000  0.25000000  1.0 -0.8990457748
O  O232  1  0.07300000  0.40430000  0.25000000  1.0 -1.0238363639
O  O233  1  0.51620000  0.09350000  0.25000000  1.0 -0.8990457748
O  O234  1  0.33130000  0.92700000  0.25000000  1.0 -1.0238363639
O  O235  1  0.42270000  0.51620000  0.75000000  1.0 -0.8990457748
O  O236  1  0.40430000  0.33130000  0.75000000  1.0 -1.0238363639
O  O237  1  0.09350000  0.57730000  0.75000000  1.0 -0.8990457748
O  O238  1  0.92700000  0.59570000  0.75000000  1.0 -1.0238363639
O  O239  1  0.48380000  0.90650000  0.75000000  1.0 -0.8990457748
O  O240  1  0.66870000  0.07300000  0.75000000  1.0 -1.0238363639
O  O241  1  0.09350000  0.51620000  0.25000000  1.0 -0.8990457748
O  O242  1  0.92700000  0.33130000  0.25000000  1.0 -1.0238363639
O  O243  1  0.48380000  0.57730000  0.25000000  1.0 -0.8990457748
O  O244  1  0.66870000  0.59570000  0.25000000  1.0 -1.0238363639
O  O245  1  0.42270000  0.90650000  0.25000000  1.0 -0.8990457748
O  O246  1  0.40430000  0.07300000  0.25000000  1.0 -1.0238363639
O  O247  1  0.90650000  0.48380000  0.75000000  1.0 -0.8990457748
O  O248  1  0.07300000  0.66870000  0.75000000  1.0 -1.0238363639
O  O249  1  0.51620000  0.42270000  0.75000000  1.0 -0.8990457748
O  O250  1  0.33130000  0.40430000  0.75000000  1.0 -1.0238363639
O  O251  1  0.57730000  0.09350000  0.75000000  1.0 -0.8990457748
O  O252  1  0.59570000  0.92700000  0.75000000  1.0 -1.0238363639
O  O253  1  0.70540000  0.85270000  0.50000000  1.0 -0.4307967875
O  O254  1  0.14730000  0.29460000  0.50000000  1.0 -0.4307967875
O  O255  1  0.14730000  0.85270000  0.50000000  1.0 -0.4307967875
O  O256  1  0.29460000  0.14730000  0.00000000  1.0 -0.4307967875
O  O257  1  0.85270000  0.70540000  0.00000000  1.0 -0.4307967875
O  O258  1  0.85270000  0.14730000  0.00000000  1.0 -0.4307967875
O  O259  1  0.29460000  0.14730000  0.50000000  1.0 -0.4307967875
O  O260  1  0.85270000  0.70540000  0.50000000  1.0 -0.4307967875
O  O261  1  0.85270000  0.14730000  0.50000000  1.0 -0.4307967875
O  O262  1  0.70540000  0.85270000  0.00000000  1.0 -0.4307967875
O  O263  1  0.14730000  0.29460000  0.00000000  1.0 -0.4307967875
O  O264  1  0.14730000  0.85270000  0.00000000  1.0 -0.4307967875
