# DDEC6 charges by PACMAN v1.1 (https://github.com/mtap-research/PACMAN-charge/)
data_UCAJUF_FSR_pacman
_symmetry_space_group_name_H-M   'P 1'
_cell_length_a   21.38940000
_cell_length_b   21.38940000
_cell_length_c   44.20800000
_cell_angle_alpha   90.00000000
_cell_angle_beta   90.00000000
_cell_angle_gamma   99.83560000
_symmetry_Int_Tables_number   1
_chemical_formula_structural   Zn3H25C66(N3O5)2
_chemical_formula_sum   'Zn24 H200 C528 N48 O80'
_cell_volume   19928.16978507
_cell_formula_units_Z   8
loop_
 _symmetry_equiv_pos_site_id
 _symmetry_equiv_pos_as_xyz
  1  'x, y, z'
loop_
 _atom_site_type_symbol
 _atom_site_label
 _atom_site_symmetry_multiplicity
 _atom_site_fract_x
 _atom_site_fract_y
 _atom_site_fract_z
 _atom_site_occupancy
 _atom_site_charge
Zn  Zn1  1  0.58780000  0.47356000  0.85933000  1.0 0.6447661563
Zn  Zn2  1  0.41220000  0.52644000  0.85933000  1.0 0.6473241095
Zn  Zn3  1  0.47356000  0.58780000  0.14067000  1.0 0.6447661563
Zn  Zn4  1  0.52644000  0.41220000  0.14067000  1.0 0.6447661563
Zn  Zn5  1  0.91220000  0.02644000  0.64067000  1.0 0.6473241095
Zn  Zn6  1  0.08780000  0.97356000  0.64067000  1.0 0.6447661563
Zn  Zn7  1  0.02644000  0.91220000  0.35933000  1.0 0.6447661563
Zn  Zn8  1  0.97356000  0.08780000  0.35933000  1.0 0.6473241095
Zn  Zn9  1  0.58963000  0.96819000  0.64590000  1.0 0.8358808651
Zn  Zn10  1  0.41037000  0.03181000  0.64590000  1.0 0.8358808651
Zn  Zn11  1  0.96819000  0.58963000  0.35410000  1.0 0.8358808651
Zn  Zn12  1  0.03181000  0.41037000  0.35410000  1.0 0.8358808651
Zn  Zn13  1  0.91037000  0.53181000  0.85410000  1.0 0.8358808651
Zn  Zn14  1  0.08963000  0.46819000  0.85410000  1.0 0.8358808651
Zn  Zn15  1  0.53181000  0.91037000  0.14590000  1.0 0.8358808651
Zn  Zn16  1  0.46819000  0.08963000  0.14590000  1.0 0.8358808651
Zn  Zn17  1  0.53590000  0.07232000  0.60104000  1.0 1.0010472431
Zn  Zn18  1  0.46410000  0.92768000  0.60104000  1.0 1.0010472431
Zn  Zn19  1  0.07232000  0.53590000  0.39896000  1.0 1.0010472431
Zn  Zn20  1  0.92768000  0.46410000  0.39896000  1.0 1.0010472431
Zn  Zn21  1  0.96410000  0.42768000  0.89896000  1.0 1.0010472431
Zn  Zn22  1  0.03590000  0.57232000  0.89896000  1.0 1.0010472431
Zn  Zn23  1  0.42768000  0.96410000  0.10104000  1.0 1.0010472431
Zn  Zn24  1  0.57232000  0.03590000  0.10104000  1.0 1.0010472431
H  H1  1  0.57630000  0.52090000  0.74540000  1.0 0.1296028586
H  H2  1  0.42370000  0.47910000  0.74540000  1.0 0.1296028586
H  H3  1  0.52090000  0.57630000  0.25460000  1.0 0.1296028586
H  H4  1  0.47910000  0.42370000  0.25460000  1.0 0.1296028586
H  H5  1  0.92370000  0.97910000  0.75460000  1.0 0.1296028586
H  H6  1  0.07630000  0.02090000  0.75460000  1.0 0.1296028586
H  H7  1  0.97910000  0.92370000  0.24540000  1.0 0.1296028586
H  H8  1  0.02090000  0.07630000  0.24540000  1.0 0.1296028586
H  H9  1  0.57580000  0.40660000  0.74690000  1.0 0.1296028586
H  H10  1  0.42420000  0.59340000  0.74690000  1.0 0.1296028586
H  H11  1  0.40660000  0.57580000  0.25310000  1.0 0.1296028586
H  H12  1  0.59340000  0.42420000  0.25310000  1.0 0.1296028586
H  H13  1  0.92420000  0.09340000  0.75310000  1.0 0.1296028586
H  H14  1  0.07580000  0.90660000  0.75310000  1.0 0.1296028586
H  H15  1  0.09340000  0.92420000  0.24690000  1.0 0.1296028586
H  H16  1  0.90660000  0.07580000  0.24690000  1.0 0.1296028586
H  H17  1  0.57230000  0.23510000  0.83490000  1.0 0.1296028586
H  H18  1  0.42770000  0.76490000  0.83490000  1.0 0.1296028586
H  H19  1  0.23510000  0.57230000  0.16510000  1.0 0.1296028586
H  H20  1  0.76490000  0.42770000  0.16510000  1.0 0.1296028586
H  H21  1  0.92770000  0.26490000  0.66510000  1.0 0.1296028586
H  H22  1  0.07230000  0.73510000  0.66510000  1.0 0.1296028586
H  H23  1  0.26490000  0.92770000  0.33490000  1.0 0.1296028586
H  H24  1  0.73510000  0.07230000  0.33490000  1.0 0.1296028586
H  H25  1  0.57540000  0.24100000  0.89130000  1.0 0.1296028586
H  H26  1  0.42460000  0.75900000  0.89130000  1.0 0.1296028586
H  H27  1  0.24100000  0.57540000  0.10870000  1.0 0.1296028586
H  H28  1  0.75900000  0.42460000  0.10870000  1.0 0.1296028586
H  H29  1  0.92460000  0.25900000  0.60870000  1.0 0.1296028586
H  H30  1  0.07540000  0.74100000  0.60870000  1.0 0.1296028586
H  H31  1  0.25900000  0.92460000  0.39130000  1.0 0.1296028586
H  H32  1  0.74100000  0.07540000  0.39130000  1.0 0.1296028586
H  H33  1  0.57880000  0.42180000  0.97310000  1.0 0.1211998559
H  H34  1  0.42120000  0.57820000  0.97310000  1.0 0.1211998559
H  H35  1  0.42180000  0.57880000  0.02690000  1.0 0.1211998559
H  H36  1  0.57820000  0.42120000  0.02690000  1.0 0.1211998559
H  H37  1  0.92120000  0.07820000  0.52690000  1.0 0.1211998559
H  H38  1  0.07880000  0.92180000  0.52690000  1.0 0.1211998559
H  H39  1  0.07820000  0.92120000  0.47310000  1.0 0.1211998559
H  H40  1  0.92180000  0.07880000  0.47310000  1.0 0.1211998559
H  H41  1  0.57620000  0.53640000  0.97190000  1.0 0.1211998559
H  H42  1  0.42380000  0.46360000  0.97190000  1.0 0.1211998559
H  H43  1  0.53640000  0.57620000  0.02810000  1.0 0.1211998559
H  H44  1  0.46360000  0.42380000  0.02810000  1.0 0.1211998559
H  H45  1  0.92380000  0.96360000  0.52810000  1.0 0.1211998559
H  H46  1  0.07620000  0.03640000  0.52810000  1.0 0.1211998559
H  H47  1  0.96360000  0.92380000  0.47190000  1.0 0.1211998559
H  H48  1  0.03640000  0.07620000  0.47190000  1.0 0.1211998559
H  H49  1  0.58150000  0.70790000  0.88350000  1.0 0.1211998559
H  H50  1  0.41850000  0.29210000  0.88350000  1.0 0.1211998559
H  H51  1  0.70790000  0.58150000  0.11650000  1.0 0.1211998559
H  H52  1  0.29210000  0.41850000  0.11650000  1.0 0.1211998559
H  H53  1  0.91850000  0.79210000  0.61650000  1.0 0.1211998559
H  H54  1  0.08150000  0.20790000  0.61650000  1.0 0.1211998559
H  H55  1  0.79210000  0.91850000  0.38350000  1.0 0.1211998559
H  H56  1  0.20790000  0.08150000  0.38350000  1.0 0.1211998559
H  H57  1  0.58120000  0.70420000  0.82770000  1.0 0.1211998559
H  H58  1  0.41880000  0.29580000  0.82770000  1.0 0.1211998559
H  H59  1  0.70420000  0.58120000  0.17230000  1.0 0.1211998559
H  H60  1  0.29580000  0.41880000  0.17230000  1.0 0.1211998559
H  H61  1  0.91880000  0.79580000  0.67230000  1.0 0.1211998559
H  H62  1  0.08120000  0.20420000  0.67230000  1.0 0.1211998559
H  H63  1  0.79580000  0.91880000  0.32770000  1.0 0.1211998559
H  H64  1  0.20420000  0.08120000  0.32770000  1.0 0.1211998559
H  H65  1  0.58210000  0.28570000  0.70550000  1.0 0.1296028586
H  H66  1  0.41790000  0.71430000  0.70550000  1.0 0.1296028586
H  H67  1  0.28570000  0.58210000  0.29450000  1.0 0.1296028586
H  H68  1  0.71430000  0.41790000  0.29450000  1.0 0.1296028586
H  H69  1  0.91790000  0.21430000  0.79450000  1.0 0.1296028586
H  H70  1  0.08210000  0.78570000  0.79450000  1.0 0.1296028586
H  H71  1  0.21430000  0.91790000  0.20550000  1.0 0.1296028586
H  H72  1  0.78570000  0.08210000  0.20550000  1.0 0.1296028586
H  H73  1  0.57490000  0.21090000  0.66720000  1.0 0.1296028586
H  H74  1  0.42510000  0.78910000  0.66720000  1.0 0.1296028586
H  H75  1  0.21090000  0.57490000  0.33280000  1.0 0.1296028586
H  H76  1  0.78910000  0.42510000  0.33280000  1.0 0.1296028586
H  H77  1  0.92510000  0.28910000  0.83280000  1.0 0.1296028586
H  H78  1  0.07490000  0.71090000  0.83280000  1.0 0.1296028586
H  H79  1  0.28910000  0.92510000  0.16720000  1.0 0.1296028586
H  H80  1  0.71090000  0.07490000  0.16720000  1.0 0.1296028586
H  H81  1  0.57320000  0.07120000  0.72790000  1.0 0.1296028586
H  H82  1  0.42680000  0.92880000  0.72790000  1.0 0.1296028586
H  H83  1  0.07120000  0.57320000  0.27210000  1.0 0.1296028586
H  H84  1  0.92880000  0.42680000  0.27210000  1.0 0.1296028586
H  H85  1  0.92680000  0.42880000  0.77210000  1.0 0.1296028586
H  H86  1  0.07320000  0.57120000  0.77210000  1.0 0.1296028586
H  H87  1  0.42880000  0.92680000  0.22790000  1.0 0.1296028586
H  H88  1  0.57120000  0.07320000  0.22790000  1.0 0.1296028586
H  H89  1  0.57500000  0.14200000  0.76730000  1.0 0.1296028586
H  H90  1  0.42500000  0.85800000  0.76730000  1.0 0.1296028586
H  H91  1  0.14200000  0.57500000  0.23270000  1.0 0.1296028586
H  H92  1  0.85800000  0.42500000  0.23270000  1.0 0.1296028586
H  H93  1  0.92500000  0.35800000  0.73270000  1.0 0.1296028586
H  H94  1  0.07500000  0.64200000  0.73270000  1.0 0.1296028586
H  H95  1  0.35800000  0.92500000  0.26730000  1.0 0.1296028586
H  H96  1  0.64200000  0.07500000  0.26730000  1.0 0.1296028586
H  H97  1  0.58090000  0.15990000  0.95650000  1.0 0.1296028586
H  H98  1  0.41910000  0.84010000  0.95650000  1.0 0.1296028586
H  H99  1  0.15990000  0.58090000  0.04350000  1.0 0.1296028586
H  H100  1  0.84010000  0.41910000  0.04350000  1.0 0.1296028586
H  H101  1  0.91910000  0.34010000  0.54350000  1.0 0.1296028586
H  H102  1  0.08090000  0.65990000  0.54350000  1.0 0.1296028586
H  H103  1  0.34010000  0.91910000  0.45650000  1.0 0.1296028586
H  H104  1  0.65990000  0.08090000  0.45650000  1.0 0.1296028586
H  H105  1  0.57790000  0.08610000  0.99550000  1.0 0.1296028586
H  H106  1  0.42210000  0.91390000  0.99550000  1.0 0.1296028586
H  H107  1  0.08610000  0.57790000  0.00450000  1.0 0.1296028586
H  H108  1  0.91390000  0.42210000  0.00450000  1.0 0.1296028586
H  H109  1  0.92210000  0.41390000  0.50450000  1.0 0.1296028586
H  H110  1  0.07790000  0.58610000  0.50450000  1.0 0.1296028586
H  H111  1  0.41390000  0.92210000  0.49550000  1.0 0.1296028586
H  H112  1  0.58610000  0.07790000  0.49550000  1.0 0.1296028586
H  H113  1  0.61110000  0.22990000  0.05550000  1.0 0.1211998559
H  H114  1  0.38890000  0.77010000  0.05550000  1.0 0.1211998559
H  H115  1  0.22990000  0.61110000  0.94450000  1.0 0.1211998559
H  H116  1  0.77010000  0.38890000  0.94450000  1.0 0.1211998559
H  H117  1  0.88890000  0.27010000  0.44450000  1.0 0.1211998559
H  H118  1  0.11110000  0.72990000  0.44450000  1.0 0.1211998559
H  H119  1  0.27010000  0.88890000  0.55550000  1.0 0.1211998559
H  H120  1  0.72990000  0.11110000  0.55550000  1.0 0.1211998559
H  H121  1  0.61160000  0.30280000  0.01680000  1.0 0.1211998559
H  H122  1  0.38840000  0.69720000  0.01680000  1.0 0.1211998559
H  H123  1  0.30280000  0.61160000  0.98320000  1.0 0.1211998559
H  H124  1  0.69720000  0.38840000  0.98320000  1.0 0.1211998559
H  H125  1  0.88840000  0.19720000  0.48320000  1.0 0.1211998559
H  H126  1  0.11160000  0.80280000  0.48320000  1.0 0.1211998559
H  H127  1  0.19720000  0.88840000  0.51680000  1.0 0.1211998559
H  H128  1  0.80280000  0.11160000  0.51680000  1.0 0.1211998559
H  H129  1  0.55990000  0.68310000  0.01010000  1.0 0.1211998559
H  H130  1  0.44010000  0.31690000  0.01010000  1.0 0.1211998559
H  H131  1  0.68310000  0.55990000  0.98990000  1.0 0.1211998559
H  H132  1  0.31690000  0.44010000  0.98990000  1.0 0.1211998559
H  H133  1  0.94010000  0.81690000  0.48990000  1.0 0.1211998559
H  H134  1  0.05990000  0.18310000  0.48990000  1.0 0.1211998559
H  H135  1  0.81690000  0.94010000  0.51010000  1.0 0.1211998559
H  H136  1  0.18310000  0.05990000  0.51010000  1.0 0.1211998559
H  H137  1  0.55580000  0.76840000  0.04240000  1.0 0.1211998559
H  H138  1  0.44420000  0.23160000  0.04240000  1.0 0.1211998559
H  H139  1  0.76840000  0.55580000  0.95760000  1.0 0.1211998559
H  H140  1  0.23160000  0.44420000  0.95760000  1.0 0.1211998559
H  H141  1  0.94420000  0.73160000  0.45760000  1.0 0.1211998559
H  H142  1  0.05580000  0.26840000  0.45760000  1.0 0.1211998559
H  H143  1  0.73160000  0.94420000  0.54240000  1.0 0.1211998559
H  H144  1  0.26840000  0.05580000  0.54240000  1.0 0.1211998559
H  H145  1  0.59010000  0.88650000  0.97130000  1.0 0.1296028586
H  H146  1  0.40990000  0.11350000  0.97130000  1.0 0.1296028586
H  H147  1  0.88650000  0.59010000  0.02870000  1.0 0.1296028586
H  H148  1  0.11350000  0.40990000  0.02870000  1.0 0.1296028586
H  H149  1  0.90990000  0.61350000  0.52870000  1.0 0.1296028586
H  H150  1  0.09010000  0.38650000  0.52870000  1.0 0.1296028586
H  H151  1  0.61350000  0.90990000  0.47130000  1.0 0.1296028586
H  H152  1  0.38650000  0.09010000  0.47130000  1.0 0.1296028586
H  H153  1  0.59990000  0.80270000  0.94060000  1.0 0.1396108732
H  H154  1  0.40010000  0.19730000  0.94060000  1.0 0.1396108732
H  H155  1  0.80270000  0.59990000  0.05940000  1.0 0.1396108732
H  H156  1  0.19730000  0.40010000  0.05940000  1.0 0.1396108732
H  H157  1  0.90010000  0.69730000  0.55940000  1.0 0.1396108732
H  H158  1  0.09990000  0.30270000  0.55940000  1.0 0.1396108732
H  H159  1  0.69730000  0.90010000  0.44060000  1.0 0.1396108732
H  H160  1  0.30270000  0.09990000  0.44060000  1.0 0.1396108732
H  H161  1  0.57620000  0.97620000  0.02970000  1.0 0.3746374591
H  H162  1  0.42380000  0.02380000  0.02970000  1.0 0.3746374591
H  H163  1  0.97620000  0.57620000  0.97030000  1.0 0.3746374591
H  H164  1  0.02380000  0.42380000  0.97030000  1.0 0.3746374591
H  H165  1  0.92380000  0.52380000  0.47030000  1.0 0.3746374591
H  H166  1  0.07620000  0.47620000  0.47030000  1.0 0.3746374591
H  H167  1  0.52380000  0.92380000  0.52970000  1.0 0.3746374591
H  H168  1  0.47620000  0.07620000  0.52970000  1.0 0.3746374591
H  H169  1  0.58680000  0.78500000  0.76040000  1.0 0.1396108732
H  H170  1  0.41320000  0.21500000  0.76040000  1.0 0.1396108732
H  H171  1  0.78500000  0.58680000  0.23960000  1.0 0.1396108732
H  H172  1  0.21500000  0.41320000  0.23960000  1.0 0.1396108732
H  H173  1  0.91320000  0.71500000  0.73960000  1.0 0.1396108732
H  H174  1  0.08680000  0.28500000  0.73960000  1.0 0.1396108732
H  H175  1  0.71500000  0.91320000  0.26040000  1.0 0.1396108732
H  H176  1  0.28500000  0.08680000  0.26040000  1.0 0.1396108732
H  H177  1  0.58380000  0.85620000  0.72100000  1.0 0.1211998559
H  H178  1  0.41620000  0.14380000  0.72100000  1.0 0.1211998559
H  H179  1  0.85620000  0.58380000  0.27900000  1.0 0.1211998559
H  H180  1  0.14380000  0.41620000  0.27900000  1.0 0.1211998559
H  H181  1  0.91620000  0.64380000  0.77900000  1.0 0.1211998559
H  H182  1  0.08380000  0.35620000  0.77900000  1.0 0.1211998559
H  H183  1  0.64380000  0.91620000  0.22100000  1.0 0.1211998559
H  H184  1  0.35620000  0.08380000  0.22100000  1.0 0.1211998559
H  H185  1  0.57770000  0.71470000  0.66110000  1.0 0.1296028586
H  H186  1  0.42230000  0.28530000  0.66110000  1.0 0.1296028586
H  H187  1  0.71470000  0.57770000  0.33890000  1.0 0.1296028586
H  H188  1  0.28530000  0.42230000  0.33890000  1.0 0.1296028586
H  H189  1  0.92230000  0.78530000  0.83890000  1.0 0.1296028586
H  H190  1  0.07770000  0.21470000  0.83890000  1.0 0.1296028586
H  H191  1  0.78530000  0.92230000  0.16110000  1.0 0.1296028586
H  H192  1  0.21470000  0.07770000  0.16110000  1.0 0.1296028586
H  H193  1  0.57960000  0.64300000  0.70020000  1.0 0.1296028586
H  H194  1  0.42040000  0.35700000  0.70020000  1.0 0.1296028586
H  H195  1  0.64300000  0.57960000  0.29980000  1.0 0.1296028586
H  H196  1  0.35700000  0.42040000  0.29980000  1.0 0.1296028586
H  H197  1  0.92040000  0.85700000  0.79980000  1.0 0.1296028586
H  H198  1  0.07960000  0.14300000  0.79980000  1.0 0.1296028586
H  H199  1  0.85700000  0.92040000  0.20020000  1.0 0.1296028586
H  H200  1  0.14300000  0.07960000  0.20020000  1.0 0.1296028586
C  C1  1  0.57629000  0.51825000  0.79382000  1.0 0.2086652095
C  C2  1  0.42371000  0.48175000  0.79382000  1.0 0.2086652095
C  C3  1  0.51825000  0.57629000  0.20618000  1.0 0.2086652095
C  C4  1  0.48175000  0.42371000  0.20618000  1.0 0.2086652095
C  C5  1  0.92371000  0.98175000  0.70618000  1.0 0.2086652095
C  C6  1  0.07629000  0.01825000  0.70618000  1.0 0.2086652095
C  C7  1  0.98175000  0.92371000  0.29382000  1.0 0.2086652095
C  C8  1  0.01825000  0.07629000  0.29382000  1.0 0.2086652095
C  C9  1  0.57602000  0.49572000  0.76309000  1.0 -0.1788627149
C  C10  1  0.42398000  0.50428000  0.76309000  1.0 -0.1788627149
C  C11  1  0.49572000  0.57602000  0.23691000  1.0 -0.1788627149
C  C12  1  0.50428000  0.42398000  0.23691000  1.0 -0.1788627149
C  C13  1  0.92398000  0.00428000  0.73691000  1.0 -0.1788627149
C  C14  1  0.07602000  0.99572000  0.73691000  1.0 -0.1788627149
C  C15  1  0.00428000  0.92398000  0.26309000  1.0 -0.1788627149
C  C16  1  0.99572000  0.07602000  0.26309000  1.0 -0.1788627149
C  C17  1  0.57535000  0.43395000  0.76386000  1.0 -0.1788627149
C  C18  1  0.42465000  0.56605000  0.76386000  1.0 -0.1788627149
C  C19  1  0.43395000  0.57535000  0.23614000  1.0 -0.1788627149
C  C20  1  0.56605000  0.42465000  0.23614000  1.0 -0.1788627149
C  C21  1  0.92465000  0.06605000  0.73614000  1.0 -0.1788627149
C  C22  1  0.07535000  0.93395000  0.73614000  1.0 -0.1788627149
C  C23  1  0.06605000  0.92465000  0.26386000  1.0 -0.1788627149
C  C24  1  0.93395000  0.07535000  0.26386000  1.0 -0.1788627149
C  C25  1  0.57391000  0.41589000  0.79531000  1.0 0.1992855361
C  C26  1  0.42609000  0.58411000  0.79531000  1.0 0.1992855361
C  C27  1  0.41589000  0.57391000  0.20469000  1.0 0.1992855361
C  C28  1  0.58411000  0.42609000  0.20469000  1.0 0.1992855361
C  C29  1  0.92609000  0.08411000  0.70469000  1.0 0.1992855361
C  C30  1  0.07391000  0.91589000  0.70469000  1.0 0.1992855361
C  C31  1  0.08411000  0.92609000  0.29531000  1.0 0.1992855361
C  C32  1  0.91589000  0.07391000  0.29531000  1.0 0.1992855361
C  C33  1  0.57372000  0.35366000  0.80610000  1.0 -0.0188990813
C  C34  1  0.42628000  0.64634000  0.80610000  1.0 -0.0188990813
C  C35  1  0.35366000  0.57372000  0.19390000  1.0 -0.0188990813
C  C36  1  0.64634000  0.42628000  0.19390000  1.0 -0.0188990813
C  C37  1  0.92628000  0.14634000  0.69390000  1.0 -0.0188990813
C  C38  1  0.07372000  0.85366000  0.69390000  1.0 -0.0188990813
C  C39  1  0.14634000  0.92628000  0.30610000  1.0 -0.0188990813
C  C40  1  0.85366000  0.07372000  0.30610000  1.0 -0.0188990813
C  C41  1  0.57359000  0.33499000  0.83660000  1.0 0.193783973
C  C42  1  0.42641000  0.66501000  0.83660000  1.0 0.193783973
C  C43  1  0.33499000  0.57359000  0.16340000  1.0 0.193783973
C  C44  1  0.66501000  0.42641000  0.16340000  1.0 0.193783973
C  C45  1  0.92641000  0.16501000  0.66340000  1.0 0.193783973
C  C46  1  0.07359000  0.83499000  0.66340000  1.0 0.193783973
C  C47  1  0.16501000  0.92641000  0.33660000  1.0 0.193783973
C  C48  1  0.83499000  0.07359000  0.33660000  1.0 0.193783973
C  C49  1  0.57342000  0.27206000  0.84696000  1.0 -0.1788627149
C  C50  1  0.42658000  0.72794000  0.84696000  1.0 -0.1788627149
C  C51  1  0.27206000  0.57342000  0.15304000  1.0 -0.1788627149
C  C52  1  0.72794000  0.42658000  0.15304000  1.0 -0.1788627149
C  C53  1  0.92658000  0.22794000  0.65304000  1.0 -0.1788627149
C  C54  1  0.07342000  0.77206000  0.65304000  1.0 -0.1788627149
C  C55  1  0.22794000  0.92658000  0.34696000  1.0 -0.1788627149
C  C56  1  0.77206000  0.07342000  0.34696000  1.0 -0.1788627149
C  C57  1  0.57510000  0.27550000  0.87775000  1.0 -0.1942788766
C  C58  1  0.42490000  0.72450000  0.87775000  1.0 -0.1942788766
C  C59  1  0.27550000  0.57510000  0.12225000  1.0 -0.1942788766
C  C60  1  0.72450000  0.42490000  0.12225000  1.0 -0.1942788766
C  C61  1  0.92490000  0.22450000  0.62225000  1.0 -0.1942788766
C  C62  1  0.07510000  0.77550000  0.62225000  1.0 -0.1942788766
C  C63  1  0.22450000  0.92490000  0.37775000  1.0 -0.1942788766
C  C64  1  0.77550000  0.07510000  0.37775000  1.0 -0.1958990501
C  C65  1  0.57631000  0.33939000  0.88589000  1.0 0.1992855361
C  C66  1  0.42369000  0.66061000  0.88589000  1.0 0.1992855361
C  C67  1  0.33939000  0.57631000  0.11411000  1.0 0.1992855361
C  C68  1  0.66061000  0.42369000  0.11411000  1.0 0.1992855361
C  C69  1  0.92369000  0.16061000  0.61411000  1.0 0.1992855361
C  C70  1  0.07631000  0.83939000  0.61411000  1.0 0.1992855361
C  C71  1  0.16061000  0.92369000  0.38589000  1.0 0.1992855361
C  C72  1  0.83939000  0.07631000  0.38589000  1.0 0.1992855361
C  C73  1  0.57922000  0.36258000  0.91571000  1.0 -0.0188990813
C  C74  1  0.42078000  0.63742000  0.91571000  1.0 -0.0188990813
C  C75  1  0.36258000  0.57922000  0.08429000  1.0 -0.0188990813
C  C76  1  0.63742000  0.42078000  0.08429000  1.0 -0.0188990813
C  C77  1  0.92078000  0.13742000  0.58429000  1.0 -0.0097625092
C  C78  1  0.07922000  0.86258000  0.58429000  1.0 -0.0188990813
C  C79  1  0.13742000  0.92078000  0.41571000  1.0 -0.0188990813
C  C80  1  0.86258000  0.07922000  0.41571000  1.0 -0.0188990813
C  C81  1  0.57795000  0.42563000  0.92483000  1.0 0.1992855361
C  C82  1  0.42205000  0.57437000  0.92483000  1.0 0.1992855361
C  C83  1  0.42563000  0.57795000  0.07517000  1.0 0.1992855361
C  C84  1  0.57437000  0.42205000  0.07517000  1.0 0.1992855361
C  C85  1  0.92205000  0.07437000  0.57517000  1.0 0.1992855361
C  C86  1  0.07795000  0.92563000  0.57517000  1.0 0.1992855361
C  C87  1  0.07437000  0.92205000  0.42483000  1.0 0.1992855361
C  C88  1  0.92563000  0.07795000  0.42483000  1.0 0.1992855361
C  C89  1  0.57810000  0.44712000  0.95548000  1.0 -0.1958990501
C  C90  1  0.42190000  0.55288000  0.95548000  1.0 -0.1958990501
C  C91  1  0.44712000  0.57810000  0.04452000  1.0 -0.1958990501
C  C92  1  0.55288000  0.42190000  0.04452000  1.0 -0.1958990501
C  C93  1  0.92190000  0.05288000  0.54452000  1.0 -0.1958990501
C  C94  1  0.07810000  0.94712000  0.54452000  1.0 -0.1958990501
C  C95  1  0.05288000  0.92190000  0.45548000  1.0 -0.1958990501
C  C96  1  0.94712000  0.07810000  0.45548000  1.0 -0.1958990501
C  C97  1  0.57705000  0.50957000  0.95483000  1.0 -0.1788627149
C  C98  1  0.42295000  0.49043000  0.95483000  1.0 -0.1788627149
C  C99  1  0.50957000  0.57705000  0.04517000  1.0 -0.1788627149
C  C100  1  0.49043000  0.42295000  0.04517000  1.0 -0.1788627149
C  C101  1  0.92295000  0.99043000  0.54517000  1.0 -0.1788627149
C  C102  1  0.07705000  0.00957000  0.54517000  1.0 -0.1788627149
C  C103  1  0.99043000  0.92295000  0.45483000  1.0 -0.1788627149
C  C104  1  0.00957000  0.07705000  0.45483000  1.0 -0.1788627149
C  C105  1  0.57744000  0.52844000  0.92347000  1.0 0.1992855361
C  C106  1  0.42256000  0.47156000  0.92347000  1.0 0.1992855361
C  C107  1  0.52844000  0.57744000  0.07653000  1.0 0.1992855361
C  C108  1  0.47156000  0.42256000  0.07653000  1.0 0.1992855361
C  C109  1  0.92256000  0.97156000  0.57653000  1.0 0.1992855361
C  C110  1  0.07744000  0.02844000  0.57653000  1.0 0.1992855361
C  C111  1  0.97156000  0.92256000  0.42347000  1.0 0.1992855361
C  C112  1  0.02844000  0.07744000  0.42347000  1.0 0.1992855361
C  C113  1  0.57787000  0.58957000  0.91266000  1.0 -0.0097625092
C  C114  1  0.42213000  0.41043000  0.91266000  1.0 -0.0097625092
C  C115  1  0.58957000  0.57787000  0.08734000  1.0 -0.0097625092
C  C116  1  0.41043000  0.42213000  0.08734000  1.0 -0.0097625092
C  C117  1  0.92213000  0.91043000  0.58734000  1.0 -0.0097625092
C  C118  1  0.07787000  0.08957000  0.58734000  1.0 -0.0097625092
C  C119  1  0.91043000  0.92213000  0.41266000  1.0 -0.0097625092
C  C120  1  0.08957000  0.07787000  0.41266000  1.0 -0.0097625092
C  C121  1  0.57732000  0.60844000  0.88199000  1.0 0.193783973
C  C122  1  0.42268000  0.39156000  0.88199000  1.0 0.193783973
C  C123  1  0.60844000  0.57732000  0.11801000  1.0 0.193783973
C  C124  1  0.39156000  0.42268000  0.11801000  1.0 0.193783973
C  C125  1  0.92268000  0.89156000  0.61801000  1.0 0.193783973
C  C126  1  0.07732000  0.10844000  0.61801000  1.0 0.193783973
C  C127  1  0.89156000  0.92268000  0.38199000  1.0 0.193783973
C  C128  1  0.10844000  0.07732000  0.38199000  1.0 0.193783973
C  C129  1  0.57993000  0.67093000  0.87134000  1.0 -0.1788627149
C  C130  1  0.42007000  0.32907000  0.87134000  1.0 -0.1788627149
C  C131  1  0.67093000  0.57993000  0.12866000  1.0 -0.1788627149
C  C132  1  0.32907000  0.42007000  0.12866000  1.0 -0.1788627149
C  C133  1  0.92007000  0.82907000  0.62866000  1.0 -0.1788627149
C  C134  1  0.07993000  0.17093000  0.62866000  1.0 -0.1788627149
C  C135  1  0.82907000  0.92007000  0.37134000  1.0 -0.1788627149
C  C136  1  0.17093000  0.07993000  0.37134000  1.0 -0.1788627149
C  C137  1  0.57979000  0.66909000  0.84097000  1.0 -0.1742875384
C  C138  1  0.42021000  0.33091000  0.84097000  1.0 -0.1742875384
C  C139  1  0.66909000  0.57979000  0.15903000  1.0 -0.1742875384
C  C140  1  0.33091000  0.42021000  0.15903000  1.0 -0.1742875384
C  C141  1  0.92021000  0.83091000  0.65903000  1.0 -0.1742875384
C  C142  1  0.07979000  0.16909000  0.65903000  1.0 -0.1742875384
C  C143  1  0.83091000  0.92021000  0.34097000  1.0 -0.1742875384
C  C144  1  0.16909000  0.07979000  0.34097000  1.0 -0.1742875384
C  C145  1  0.57703000  0.60491000  0.83255000  1.0 0.1992855361
C  C146  1  0.42297000  0.39509000  0.83255000  1.0 0.1992855361
C  C147  1  0.60491000  0.57703000  0.16745000  1.0 0.1992855361
C  C148  1  0.39509000  0.42297000  0.16745000  1.0 0.1992855361
C  C149  1  0.92297000  0.89509000  0.66745000  1.0 0.1992855361
C  C150  1  0.07703000  0.10491000  0.66745000  1.0 0.1992855361
C  C151  1  0.89509000  0.92297000  0.33255000  1.0 0.1992855361
C  C152  1  0.10491000  0.07703000  0.33255000  1.0 0.1992855361
C  C153  1  0.57754000  0.58116000  0.80281000  1.0 -0.0188990813
C  C154  1  0.42246000  0.41884000  0.80281000  1.0 -0.0188990813
C  C155  1  0.58116000  0.57754000  0.19719000  1.0 -0.0188990813
C  C156  1  0.41884000  0.42246000  0.19719000  1.0 -0.0188990813
C  C157  1  0.92246000  0.91884000  0.69719000  1.0 -0.0188990813
C  C158  1  0.07754000  0.08116000  0.69719000  1.0 -0.0188990813
C  C159  1  0.91884000  0.92246000  0.30281000  1.0 -0.0188990813
C  C160  1  0.08116000  0.07754000  0.30281000  1.0 -0.0188990813
C  C161  1  0.57558000  0.30550000  0.78385000  1.0 -0.099525989
C  C162  1  0.42442000  0.69450000  0.78385000  1.0 -0.099525989
C  C163  1  0.30550000  0.57558000  0.21615000  1.0 -0.099525989
C  C164  1  0.69450000  0.42442000  0.21615000  1.0 -0.099525989
C  C165  1  0.92442000  0.19450000  0.71615000  1.0 -0.099525989
C  C166  1  0.07558000  0.80550000  0.71615000  1.0 -0.099525989
C  C167  1  0.19450000  0.92442000  0.28385000  1.0 -0.099525989
C  C168  1  0.80550000  0.07558000  0.28385000  1.0 -0.099525989
C  C169  1  0.57696000  0.26732000  0.76470000  1.0 -0.1288956724
C  C170  1  0.42304000  0.73268000  0.76470000  1.0 -0.1288956724
C  C171  1  0.26732000  0.57696000  0.23530000  1.0 -0.1288956724
C  C172  1  0.73268000  0.42304000  0.23530000  1.0 -0.1288956724
C  C173  1  0.92304000  0.23268000  0.73530000  1.0 -0.1288956724
C  C174  1  0.07696000  0.76732000  0.73530000  1.0 -0.1288956724
C  C175  1  0.23268000  0.92304000  0.26470000  1.0 -0.1288956724
C  C176  1  0.76732000  0.07696000  0.26470000  1.0 -0.1288956724
C  C177  1  0.57709000  0.22215000  0.74060000  1.0 0.149331941
C  C178  1  0.42291000  0.77785000  0.74060000  1.0 0.149331941
C  C179  1  0.22215000  0.57709000  0.25940000  1.0 0.149331941
C  C180  1  0.77785000  0.42291000  0.25940000  1.0 0.149331941
C  C181  1  0.92291000  0.27785000  0.75940000  1.0 0.149331941
C  C182  1  0.07709000  0.72215000  0.75940000  1.0 0.149331941
C  C183  1  0.27785000  0.92291000  0.24060000  1.0 0.149331941
C  C184  1  0.72215000  0.07709000  0.24060000  1.0 0.149331941
C  C185  1  0.57881000  0.24195000  0.71033000  1.0 -0.1406747515
C  C186  1  0.42119000  0.75805000  0.71033000  1.0 -0.1406747515
C  C187  1  0.24195000  0.57881000  0.28967000  1.0 -0.1406747515
C  C188  1  0.75805000  0.42119000  0.28967000  1.0 -0.1406747515
C  C189  1  0.92119000  0.25805000  0.78967000  1.0 -0.1406747515
C  C190  1  0.07881000  0.74195000  0.78967000  1.0 -0.1406747515
C  C191  1  0.25805000  0.92119000  0.21033000  1.0 -0.1406747515
C  C192  1  0.74195000  0.07881000  0.21033000  1.0 -0.1406747515
C  C193  1  0.57569000  0.19749000  0.68764000  1.0 -0.0907524764
C  C194  1  0.42431000  0.80251000  0.68764000  1.0 -0.0907524764
C  C195  1  0.19749000  0.57569000  0.31236000  1.0 -0.0907524764
C  C196  1  0.80251000  0.42431000  0.31236000  1.0 -0.0907524764
C  C197  1  0.92431000  0.30251000  0.81236000  1.0 -0.0907524764
C  C198  1  0.07569000  0.69749000  0.81236000  1.0 -0.0907524764
C  C199  1  0.30251000  0.92431000  0.18764000  1.0 -0.0907524764
C  C200  1  0.69749000  0.07569000  0.18764000  1.0 -0.0907524764
C  C201  1  0.57361000  0.13491000  0.69374000  1.0 -0.0097625092
C  C202  1  0.42639000  0.86509000  0.69374000  1.0 -0.0097625092
C  C203  1  0.13491000  0.57361000  0.30626000  1.0 -0.0097625092
C  C204  1  0.86509000  0.42639000  0.30626000  1.0 -0.0188990813
C  C205  1  0.92639000  0.36509000  0.80626000  1.0 -0.0097625092
C  C206  1  0.07361000  0.63491000  0.80626000  1.0 -0.0188990813
C  C207  1  0.36509000  0.92639000  0.19374000  1.0 -0.0188990813
C  C208  1  0.63491000  0.07361000  0.19374000  1.0 -0.0097625092
C  C209  1  0.57395000  0.11489000  0.72367000  1.0 -0.099525989
C  C210  1  0.42605000  0.88511000  0.72367000  1.0 -0.099525989
C  C211  1  0.11489000  0.57395000  0.27633000  1.0 -0.099525989
C  C212  1  0.88511000  0.42605000  0.27633000  1.0 -0.099525989
C  C213  1  0.92605000  0.38511000  0.77633000  1.0 -0.099525989
C  C214  1  0.07395000  0.61489000  0.77633000  1.0 -0.099525989
C  C215  1  0.38511000  0.92605000  0.22367000  1.0 -0.099525989
C  C216  1  0.61489000  0.07395000  0.22367000  1.0 -0.099525989
C  C217  1  0.57527000  0.15647000  0.74693000  1.0 -0.1470500615
C  C218  1  0.42473000  0.84353000  0.74693000  1.0 -0.1470500615
C  C219  1  0.15647000  0.57527000  0.25307000  1.0 -0.1470500615
C  C220  1  0.84353000  0.42473000  0.25307000  1.0 -0.1470500615
C  C221  1  0.92473000  0.34353000  0.75307000  1.0 -0.1470500615
C  C222  1  0.07527000  0.65647000  0.75307000  1.0 -0.1470500615
C  C223  1  0.34353000  0.92473000  0.24693000  1.0 -0.1470500615
C  C224  1  0.65647000  0.07527000  0.24693000  1.0 -0.1470500615
C  C225  1  0.56994000  0.08634000  0.66877000  1.0 0.585414563
C  C226  1  0.43006000  0.91366000  0.66877000  1.0 0.585414563
C  C227  1  0.08634000  0.56994000  0.33123000  1.0 0.585414563
C  C228  1  0.91366000  0.43006000  0.33123000  1.0 0.585414563
C  C229  1  0.93006000  0.41366000  0.83123000  1.0 0.585414563
C  C230  1  0.06994000  0.58634000  0.83123000  1.0 0.585414563
C  C231  1  0.41366000  0.93006000  0.16877000  1.0 0.585414563
C  C232  1  0.58634000  0.06994000  0.16877000  1.0 0.585414563
C  C233  1  0.58409000  0.31787000  0.93935000  1.0 -0.099525989
C  C234  1  0.41591000  0.68213000  0.93935000  1.0 -0.099525989
C  C235  1  0.31787000  0.58409000  0.06065000  1.0 -0.099525989
C  C236  1  0.68213000  0.41591000  0.06065000  1.0 -0.099525989
C  C237  1  0.91591000  0.18213000  0.56065000  1.0 -0.099525989
C  C238  1  0.08409000  0.81787000  0.56065000  1.0 -0.099525989
C  C239  1  0.18213000  0.91591000  0.43935000  1.0 -0.099525989
C  C240  1  0.81787000  0.08409000  0.43935000  1.0 -0.099525989
C  C241  1  0.58960000  0.28168000  0.95901000  1.0 -0.1161337431
C  C242  1  0.41040000  0.71832000  0.95901000  1.0 -0.114547375
C  C243  1  0.28168000  0.58960000  0.04099000  1.0 -0.1161337431
C  C244  1  0.71832000  0.41040000  0.04099000  1.0 -0.1161337431
C  C245  1  0.91040000  0.21832000  0.54099000  1.0 -0.1161337431
C  C246  1  0.08960000  0.78168000  0.54099000  1.0 -0.1161337431
C  C247  1  0.21832000  0.91040000  0.45901000  1.0 -0.1161337431
C  C248  1  0.78168000  0.08960000  0.45901000  1.0 -0.1161337431
C  C249  1  0.59300000  0.23658000  0.98261000  1.0 0.1396108732
C  C250  1  0.40700000  0.76342000  0.98261000  1.0 0.1396108732
C  C251  1  0.23658000  0.59300000  0.01739000  1.0 0.1396108732
C  C252  1  0.76342000  0.40700000  0.01739000  1.0 0.1396108732
C  C253  1  0.90700000  0.26342000  0.51739000  1.0 0.1396108732
C  C254  1  0.09300000  0.73658000  0.51739000  1.0 0.1396108732
C  C255  1  0.26342000  0.90700000  0.48261000  1.0 0.1396108732
C  C256  1  0.73658000  0.09300000  0.48261000  1.0 0.1396108732
C  C257  1  0.58545000  0.17415000  0.97682000  1.0 -0.1406747515
C  C258  1  0.41455000  0.82585000  0.97682000  1.0 -0.1406747515
C  C259  1  0.17415000  0.58545000  0.02318000  1.0 -0.1406747515
C  C260  1  0.82585000  0.41455000  0.02318000  1.0 -0.1406747515
C  C261  1  0.91455000  0.32585000  0.52318000  1.0 -0.1406747515
C  C262  1  0.08545000  0.67415000  0.52318000  1.0 -0.1406747515
C  C263  1  0.32585000  0.91455000  0.47682000  1.0 -0.1406747515
C  C264  1  0.67415000  0.08545000  0.47682000  1.0 -0.1406747515
C  C265  1  0.58438000  0.13022000  0.99991000  1.0 -0.0907524764
C  C266  1  0.41562000  0.86978000  0.99991000  1.0 -0.0907524764
C  C267  1  0.13022000  0.58438000  0.00009000  1.0 -0.0907524764
C  C268  1  0.86978000  0.41562000  0.00009000  1.0 -0.0907524764
C  C269  1  0.91562000  0.36978000  0.50009000  1.0 -0.0907524764
C  C270  1  0.08438000  0.63022000  0.50009000  1.0 -0.0907524764
C  C271  1  0.36978000  0.91562000  0.49991000  1.0 -0.0907524764
C  C272  1  0.63022000  0.08438000  0.49991000  1.0 -0.0907524764
C  C273  1  0.59290000  0.15150000  0.02978000  1.0 -0.0097625092
C  C274  1  0.40710000  0.84850000  0.02978000  1.0 -0.0097625092
C  C275  1  0.15150000  0.59290000  0.97022000  1.0 -0.0097625092
C  C276  1  0.84850000  0.40710000  0.97022000  1.0 -0.0097625092
C  C277  1  0.90710000  0.34850000  0.47022000  1.0 -0.0097625092
C  C278  1  0.09290000  0.65150000  0.47022000  1.0 -0.0097625092
C  C279  1  0.34850000  0.90710000  0.52978000  1.0 -0.0097625092
C  C280  1  0.65150000  0.09290000  0.52978000  1.0 -0.0097625092
C  C281  1  0.60367000  0.21533000  0.03534000  1.0 -0.0907524764
C  C282  1  0.39633000  0.78467000  0.03534000  1.0 -0.0907524764
C  C283  1  0.21533000  0.60367000  0.96466000  1.0 -0.0907524764
C  C284  1  0.78467000  0.39633000  0.96466000  1.0 -0.0907524764
C  C285  1  0.89633000  0.28467000  0.46466000  1.0 -0.0907524764
C  C286  1  0.10367000  0.71533000  0.46466000  1.0 -0.0907524764
C  C287  1  0.28467000  0.89633000  0.53534000  1.0 -0.0907524764
C  C288  1  0.71533000  0.10367000  0.53534000  1.0 -0.0907524764
C  C289  1  0.60405000  0.25859000  0.01257000  1.0 -0.1470500615
C  C290  1  0.39595000  0.74141000  0.01257000  1.0 -0.1406747515
C  C291  1  0.25859000  0.60405000  0.98743000  1.0 -0.1406747515
C  C292  1  0.74141000  0.39595000  0.98743000  1.0 -0.1406747515
C  C293  1  0.89595000  0.24141000  0.48743000  1.0 -0.1406747515
C  C294  1  0.10405000  0.75859000  0.48743000  1.0 -0.1470500615
C  C295  1  0.24141000  0.89595000  0.51257000  1.0 -0.1470500615
C  C296  1  0.75859000  0.10405000  0.51257000  1.0 -0.1406747515
C  C297  1  0.58689000  0.10505000  0.05565000  1.0 0.5490562401
C  C298  1  0.41311000  0.89495000  0.05565000  1.0 0.5490562401
C  C299  1  0.10505000  0.58689000  0.94435000  1.0 0.5490562401
C  C300  1  0.89495000  0.41311000  0.94435000  1.0 0.5490562401
C  C301  1  0.91311000  0.39495000  0.44435000  1.0 0.5490562401
C  C302  1  0.08689000  0.60505000  0.44435000  1.0 0.5490562401
C  C303  1  0.39495000  0.91311000  0.55565000  1.0 0.5490562401
C  C304  1  0.60505000  0.08689000  0.55565000  1.0 0.5490562401
C  C305  1  0.57954000  0.64034000  0.93490000  1.0 -0.0907524764
C  C306  1  0.42046000  0.35966000  0.93490000  1.0 -0.0907524764
C  C307  1  0.64034000  0.57954000  0.06510000  1.0 -0.0907524764
C  C308  1  0.35966000  0.42046000  0.06510000  1.0 -0.0907524764
C  C309  1  0.92046000  0.85966000  0.56510000  1.0 -0.0907524764
C  C310  1  0.07954000  0.14034000  0.56510000  1.0 -0.0907524764
C  C311  1  0.85966000  0.92046000  0.43490000  1.0 -0.0907524764
C  C312  1  0.14034000  0.07954000  0.43490000  1.0 -0.0907524764
C  C313  1  0.58135000  0.68275000  0.95245000  1.0 -0.1161337431
C  C314  1  0.41865000  0.31725000  0.95245000  1.0 -0.1161337431
C  C315  1  0.68275000  0.58135000  0.04755000  1.0 -0.1161337431
C  C316  1  0.31725000  0.41865000  0.04755000  1.0 -0.1161337431
C  C317  1  0.91865000  0.81725000  0.54755000  1.0 -0.1161337431
C  C318  1  0.08135000  0.18275000  0.54755000  1.0 -0.1161337431
C  C319  1  0.81725000  0.91865000  0.45245000  1.0 -0.1161337431
C  C320  1  0.18275000  0.08135000  0.45245000  1.0 -0.1161337431
C  C321  1  0.58033000  0.73395000  0.97249000  1.0 0.1396108732
C  C322  1  0.41967000  0.26605000  0.97249000  1.0 0.1396108732
C  C323  1  0.73395000  0.58033000  0.02751000  1.0 0.1396108732
C  C324  1  0.26605000  0.41967000  0.02751000  1.0 0.1396108732
C  C325  1  0.91967000  0.76605000  0.52751000  1.0 0.1396108732
C  C326  1  0.08033000  0.23395000  0.52751000  1.0 0.1396108732
C  C327  1  0.76605000  0.91967000  0.47249000  1.0 0.1396108732
C  C328  1  0.23395000  0.08033000  0.47249000  1.0 0.1396108732
C  C329  1  0.56737000  0.72503000  0.00219000  1.0 -0.1406747515
C  C330  1  0.43263000  0.27497000  0.00219000  1.0 -0.1406747515
C  C331  1  0.72503000  0.56737000  0.99781000  1.0 -0.1406747515
C  C332  1  0.27497000  0.43263000  0.99781000  1.0 -0.1406747515
C  C333  1  0.93263000  0.77497000  0.49781000  1.0 -0.1406747515
C  C334  1  0.06737000  0.22503000  0.49781000  1.0 -0.1406747515
C  C335  1  0.77497000  0.93263000  0.50219000  1.0 -0.1406747515
C  C336  1  0.22503000  0.06737000  0.50219000  1.0 -0.1406747515
C  C337  1  0.56465000  0.77595000  0.02156000  1.0 -0.0833681043
C  C338  1  0.43535000  0.22405000  0.02156000  1.0 -0.0833681043
C  C339  1  0.77595000  0.56465000  0.97844000  1.0 -0.0833681043
C  C340  1  0.22405000  0.43535000  0.97844000  1.0 -0.0833681043
C  C341  1  0.93535000  0.72405000  0.47844000  1.0 -0.0833681043
C  C342  1  0.06465000  0.27595000  0.47844000  1.0 -0.0833681043
C  C343  1  0.72405000  0.93535000  0.52156000  1.0 -0.0833681043
C  C344  1  0.27595000  0.06465000  0.52156000  1.0 -0.0833681043
C  C345  1  0.57460000  0.83580000  0.01086000  1.0 -0.0188990813
C  C346  1  0.42540000  0.16420000  0.01086000  1.0 -0.0188990813
C  C347  1  0.83580000  0.57460000  0.98914000  1.0 -0.0188990813
C  C348  1  0.16420000  0.42540000  0.98914000  1.0 -0.0188990813
C  C349  1  0.92540000  0.66420000  0.48914000  1.0 -0.0188990813
C  C350  1  0.07460000  0.33580000  0.48914000  1.0 -0.0188990813
C  C351  1  0.66420000  0.92540000  0.51086000  1.0 -0.0188990813
C  C352  1  0.33580000  0.07460000  0.51086000  1.0 -0.0188990813
C  C353  1  0.58564000  0.84496000  0.97963000  1.0 -0.099525989
C  C354  1  0.41436000  0.15504000  0.97963000  1.0 -0.099525989
C  C355  1  0.84496000  0.58564000  0.02037000  1.0 -0.099525989
C  C356  1  0.15504000  0.41436000  0.02037000  1.0 -0.099525989
C  C357  1  0.91436000  0.65504000  0.52037000  1.0 -0.099525989
C  C358  1  0.08564000  0.34496000  0.52037000  1.0 -0.099525989
C  C359  1  0.65504000  0.91436000  0.47963000  1.0 -0.099525989
C  C360  1  0.34496000  0.08564000  0.47963000  1.0 -0.099525989
C  C361  1  0.59000000  0.79540000  0.96142000  1.0 -0.1470500615
C  C362  1  0.41000000  0.20460000  0.96142000  1.0 -0.1470500615
C  C363  1  0.79540000  0.59000000  0.03858000  1.0 -0.1470500615
C  C364  1  0.20460000  0.41000000  0.03858000  1.0 -0.1470500615
C  C365  1  0.91000000  0.70460000  0.53858000  1.0 -0.1470500615
C  C366  1  0.09000000  0.29540000  0.53858000  1.0 -0.1470500615
C  C367  1  0.70460000  0.91000000  0.46142000  1.0 -0.1470500615
C  C368  1  0.29540000  0.09000000  0.46142000  1.0 -0.1470500615
C  C369  1  0.56979000  0.89061000  0.03157000  1.0 0.5292703181
C  C370  1  0.43021000  0.10939000  0.03157000  1.0 0.5292703181
C  C371  1  0.89061000  0.56979000  0.96843000  1.0 0.5292703181
C  C372  1  0.10939000  0.43021000  0.96843000  1.0 0.5292703181
C  C373  1  0.93021000  0.60939000  0.46843000  1.0 0.5292703181
C  C374  1  0.06979000  0.39061000  0.46843000  1.0 0.5292703181
C  C375  1  0.60939000  0.93021000  0.53157000  1.0 0.5292703181
C  C376  1  0.39061000  0.06979000  0.53157000  1.0 0.5292703181
C  C377  1  0.58020000  0.62674000  0.77913000  1.0 -0.0907524764
C  C378  1  0.41980000  0.37326000  0.77913000  1.0 -0.099525989
C  C379  1  0.62674000  0.58020000  0.22087000  1.0 -0.099525989
C  C380  1  0.37326000  0.41980000  0.22087000  1.0 -0.0907524764
C  C381  1  0.91980000  0.87326000  0.72087000  1.0 -0.099525989
C  C382  1  0.08020000  0.12674000  0.72087000  1.0 -0.099525989
C  C383  1  0.87326000  0.91980000  0.27913000  1.0 -0.0907524764
C  C384  1  0.12674000  0.08020000  0.27913000  1.0 -0.099525989
C  C385  1  0.58224000  0.66414000  0.75873000  1.0 -0.1288956724
C  C386  1  0.41776000  0.33586000  0.75873000  1.0 -0.1288956724
C  C387  1  0.66414000  0.58224000  0.24127000  1.0 -0.1288956724
C  C388  1  0.33586000  0.41776000  0.24127000  1.0 -0.1288956724
C  C389  1  0.91776000  0.83586000  0.74127000  1.0 -0.1288956724
C  C390  1  0.08224000  0.16414000  0.74127000  1.0 -0.1288956724
C  C391  1  0.83586000  0.91776000  0.25873000  1.0 -0.1288956724
C  C392  1  0.16414000  0.08224000  0.25873000  1.0 -0.1288956724
C  C393  1  0.58242000  0.70776000  0.73443000  1.0 0.1296028586
C  C394  1  0.41758000  0.29224000  0.73443000  1.0 0.1296028586
C  C395  1  0.70776000  0.58242000  0.26557000  1.0 0.1296028586
C  C396  1  0.29224000  0.41758000  0.26557000  1.0 0.1296028586
C  C397  1  0.91758000  0.79224000  0.76557000  1.0 0.1296028586
C  C398  1  0.08242000  0.20776000  0.76557000  1.0 0.1296028586
C  C399  1  0.79224000  0.91758000  0.23443000  1.0 0.1296028586
C  C400  1  0.20776000  0.08242000  0.23443000  1.0 0.1296028586
C  C401  1  0.58445000  0.77019000  0.74013000  1.0 -0.1406747515
C  C402  1  0.41555000  0.22981000  0.74013000  1.0 -0.1406747515
C  C403  1  0.77019000  0.58445000  0.25987000  1.0 -0.1406747515
C  C404  1  0.22981000  0.41555000  0.25987000  1.0 -0.1406747515
C  C405  1  0.91555000  0.72981000  0.75987000  1.0 -0.1406747515
C  C406  1  0.08445000  0.27019000  0.75987000  1.0 -0.1406747515
C  C407  1  0.72981000  0.91555000  0.24013000  1.0 -0.1406747515
C  C408  1  0.27019000  0.08445000  0.24013000  1.0 -0.1406747515
C  C409  1  0.58311000  0.81251000  0.71678000  1.0 -0.0907524764
C  C410  1  0.41689000  0.18749000  0.71678000  1.0 -0.0907524764
C  C411  1  0.81251000  0.58311000  0.28322000  1.0 -0.0907524764
C  C412  1  0.18749000  0.41689000  0.28322000  1.0 -0.0907524764
C  C413  1  0.91689000  0.68749000  0.78322000  1.0 -0.0907524764
C  C414  1  0.08311000  0.31251000  0.78322000  1.0 -0.0907524764
C  C415  1  0.68749000  0.91689000  0.21678000  1.0 -0.0907524764
C  C416  1  0.31251000  0.08311000  0.21678000  1.0 -0.0907524764
C  C417  1  0.58072000  0.79142000  0.68747000  1.0 -0.0188990813
C  C418  1  0.41928000  0.20858000  0.68747000  1.0 -0.0188990813
C  C419  1  0.79142000  0.58072000  0.31253000  1.0 -0.0188990813
C  C420  1  0.20858000  0.41928000  0.31253000  1.0 -0.0188990813
C  C421  1  0.91928000  0.70858000  0.81253000  1.0 -0.0188990813
C  C422  1  0.08072000  0.29142000  0.81253000  1.0 -0.0188990813
C  C423  1  0.70858000  0.91928000  0.18747000  1.0 -0.0188990813
C  C424  1  0.29142000  0.08072000  0.18747000  1.0 -0.0188990813
C  C425  1  0.57938000  0.72902000  0.68144000  1.0 -0.0907524764
C  C426  1  0.42062000  0.27098000  0.68144000  1.0 -0.0907524764
C  C427  1  0.72902000  0.57938000  0.31856000  1.0 -0.0907524764
C  C428  1  0.27098000  0.42062000  0.31856000  1.0 -0.0907524764
C  C429  1  0.92062000  0.77098000  0.81856000  1.0 -0.0907524764
C  C430  1  0.07938000  0.22902000  0.81856000  1.0 -0.0907524764
C  C431  1  0.77098000  0.92062000  0.18144000  1.0 -0.0907524764
C  C432  1  0.22902000  0.07938000  0.18144000  1.0 -0.0907524764
C  C433  1  0.58035000  0.68669000  0.70451000  1.0 -0.1406747515
C  C434  1  0.41965000  0.31331000  0.70451000  1.0 -0.1406747515
C  C435  1  0.68669000  0.58035000  0.29549000  1.0 -0.1406747515
C  C436  1  0.31331000  0.41965000  0.29549000  1.0 -0.1406747515
C  C437  1  0.91965000  0.81331000  0.79549000  1.0 -0.1406747515
C  C438  1  0.08035000  0.18669000  0.79549000  1.0 -0.1406747515
C  C439  1  0.81331000  0.91965000  0.20451000  1.0 -0.1406747515
C  C440  1  0.18669000  0.08035000  0.20451000  1.0 -0.1406747515
C  C441  1  0.57818000  0.83854000  0.66217000  1.0 0.5490562401
C  C442  1  0.42182000  0.16146000  0.66217000  1.0 0.5490562401
C  C443  1  0.83854000  0.57818000  0.33783000  1.0 0.5490562401
C  C444  1  0.16146000  0.42182000  0.33783000  1.0 0.5490562401
C  C445  1  0.92182000  0.66146000  0.83783000  1.0 0.5490562401
C  C446  1  0.07818000  0.33854000  0.83783000  1.0 0.5490562401
C  C447  1  0.66146000  0.92182000  0.16217000  1.0 0.5490562401
C  C448  1  0.33854000  0.07818000  0.16217000  1.0 0.5490562401
C  C449  1  0.71472000  0.50848000  0.82781000  1.0 -0.0365919501
C  C450  1  0.28528000  0.49152000  0.82781000  1.0 -0.0365919501
C  C451  1  0.50848000  0.71472000  0.17219000  1.0 -0.0330570411
C  C452  1  0.49152000  0.28528000  0.17219000  1.0 -0.0330570411
C  C453  1  0.78528000  0.99152000  0.67219000  1.0 -0.0330570411
C  C454  1  0.21472000  0.00848000  0.67219000  1.0 -0.0330570411
C  C455  1  0.99152000  0.78528000  0.32781000  1.0 -0.0330570411
C  C456  1  0.00848000  0.21472000  0.32781000  1.0 -0.0330570411
C  C457  1  0.71694000  0.54366000  0.87885000  1.0 -0.052362358
C  C458  1  0.28306000  0.45634000  0.87885000  1.0 -0.052362358
C  C459  1  0.54366000  0.71694000  0.12115000  1.0 -0.052362358
C  C460  1  0.45634000  0.28306000  0.12115000  1.0 -0.052362358
C  C461  1  0.78306000  0.95634000  0.62115000  1.0 -0.052362358
C  C462  1  0.21694000  0.04366000  0.62115000  1.0 -0.052362358
C  C463  1  0.95634000  0.78306000  0.37885000  1.0 -0.052362358
C  C464  1  0.04366000  0.21694000  0.37885000  1.0 -0.052362358
C  C465  1  0.78930000  0.50750000  0.82646000  1.0 0.0599511463
C  C466  1  0.21070000  0.49250000  0.82646000  1.0 0.0599511463
C  C467  1  0.50750000  0.78930000  0.17354000  1.0 0.0599511463
C  C468  1  0.49250000  0.21070000  0.17354000  1.0 0.0599511463
C  C469  1  0.71070000  0.99250000  0.67354000  1.0 0.0599511463
C  C470  1  0.28930000  0.00750000  0.67354000  1.0 0.0599511463
C  C471  1  0.99250000  0.71070000  0.32646000  1.0 0.0599511463
C  C472  1  0.00750000  0.28930000  0.32646000  1.0 0.0599511463
C  C473  1  0.79180000  0.56800000  0.87419000  1.0 0.0807751811
C  C474  1  0.20820000  0.43200000  0.87419000  1.0 0.0855048938
C  C475  1  0.56800000  0.79180000  0.12581000  1.0 0.0807751811
C  C476  1  0.43200000  0.20820000  0.12581000  1.0 0.0807751811
C  C477  1  0.70820000  0.93200000  0.62581000  1.0 0.0807751811
C  C478  1  0.29180000  0.06800000  0.62581000  1.0 0.0807751811
C  C479  1  0.93200000  0.70820000  0.37419000  1.0 0.0855048938
C  C480  1  0.06800000  0.29180000  0.37419000  1.0 0.0807751811
C  C481  1  0.78980000  0.45540000  0.87560000  1.0 0.0706588067
C  C482  1  0.21020000  0.54460000  0.87560000  1.0 0.0706588067
C  C483  1  0.45540000  0.78980000  0.12440000  1.0 0.0706588067
C  C484  1  0.54460000  0.21020000  0.12440000  1.0 0.0706588067
C  C485  1  0.71020000  0.04460000  0.62440000  1.0 0.0706588067
C  C486  1  0.28980000  0.95540000  0.62440000  1.0 0.0706588067
C  C487  1  0.04460000  0.71020000  0.37560000  1.0 0.0706588067
C  C488  1  0.95540000  0.28980000  0.37560000  1.0 0.0706588067
C  C489  1  0.71700000  0.42840000  0.86100000  1.0 0.0599511463
C  C490  1  0.28300000  0.57160000  0.86100000  1.0 0.0599511463
C  C491  1  0.42840000  0.71700000  0.13900000  1.0 0.0599511463
C  C492  1  0.57160000  0.28300000  0.13900000  1.0 0.0599511463
C  C493  1  0.78300000  0.07160000  0.63900000  1.0 0.0599511463
C  C494  1  0.21700000  0.92840000  0.63900000  1.0 0.0599511463
C  C495  1  0.07160000  0.78300000  0.36100000  1.0 0.0599511463
C  C496  1  0.92840000  0.21700000  0.36100000  1.0 0.0599511463
C  C497  1  0.71810000  0.44130000  0.87660000  1.0 0.0019561002
C  C498  1  0.28190000  0.55870000  0.87660000  1.0 0.0019561002
C  C499  1  0.44130000  0.71810000  0.12340000  1.0 0.0019561002
C  C500  1  0.55870000  0.28190000  0.12340000  1.0 0.0019561002
C  C501  1  0.78190000  0.05870000  0.62340000  1.0 0.0019561002
C  C502  1  0.21810000  0.94130000  0.62340000  1.0 0.0019561002
C  C503  1  0.05870000  0.78190000  0.37660000  1.0 0.0019561002
C  C504  1  0.94130000  0.21810000  0.37660000  1.0 0.0019561002
C  C505  1  0.79100000  0.44280000  0.85320000  1.0 -0.0330570411
C  C506  1  0.20900000  0.55720000  0.85320000  1.0 -0.0330570411
C  C507  1  0.44280000  0.79100000  0.14680000  1.0 -0.0330570411
C  C508  1  0.55720000  0.20900000  0.14680000  1.0 -0.0330570411
C  C509  1  0.70900000  0.05720000  0.64680000  1.0 -0.0330570411
C  C510  1  0.29100000  0.94280000  0.64680000  1.0 -0.0330570411
C  C511  1  0.05720000  0.70900000  0.35320000  1.0 -0.0330570411
C  C512  1  0.94280000  0.29100000  0.35320000  1.0 -0.0330570411
C  C513  1  0.79090000  0.54890000  0.83000000  1.0 0.0294437329
C  C514  1  0.20910000  0.45110000  0.83000000  1.0 0.0294437329
C  C515  1  0.54890000  0.79090000  0.17000000  1.0 0.0294437329
C  C516  1  0.45110000  0.20910000  0.17000000  1.0 0.0294437329
C  C517  1  0.70910000  0.95110000  0.67000000  1.0 0.0294437329
C  C518  1  0.29090000  0.04890000  0.67000000  1.0 0.0294437329
C  C519  1  0.95110000  0.70910000  0.33000000  1.0 0.0294437329
C  C520  1  0.04890000  0.29090000  0.33000000  1.0 0.0294437329
C  C521  1  0.79250000  0.53210000  0.88570000  1.0 0.0706588067
C  C522  1  0.20750000  0.46790000  0.88570000  1.0 0.0807751811
C  C523  1  0.53210000  0.79250000  0.11430000  1.0 0.0706588067
C  C524  1  0.46790000  0.20750000  0.11430000  1.0 0.0807751811
C  C525  1  0.70750000  0.96790000  0.61430000  1.0 0.0706588067
C  C526  1  0.29250000  0.03210000  0.61430000  1.0 0.0807751811
C  C527  1  0.96790000  0.70750000  0.38570000  1.0 0.0706588067
C  C528  1  0.03210000  0.29250000  0.38570000  1.0 0.0807751811
N  N1  1  0.57438000  0.46770000  0.81311000  1.0 -0.3545186476
N  N2  1  0.42562000  0.53230000  0.81311000  1.0 -0.3605303454
N  N3  1  0.46770000  0.57438000  0.18689000  1.0 -0.3545186476
N  N4  1  0.53230000  0.42562000  0.18689000  1.0 -0.3545186476
N  N5  1  0.92562000  0.03230000  0.68689000  1.0 -0.3605303454
N  N6  1  0.07438000  0.96770000  0.68689000  1.0 -0.3605303454
N  N7  1  0.03230000  0.92562000  0.31311000  1.0 -0.3545186476
N  N8  1  0.96770000  0.07438000  0.31311000  1.0 -0.3605303454
N  N9  1  0.57486000  0.37626000  0.86082000  1.0 -0.3605303454
N  N10  1  0.42514000  0.62374000  0.86082000  1.0 -0.3605303454
N  N11  1  0.37626000  0.57486000  0.13918000  1.0 -0.3605303454
N  N12  1  0.62374000  0.42514000  0.13918000  1.0 -0.3605303454
N  N13  1  0.92514000  0.12374000  0.63918000  1.0 -0.3605303454
N  N14  1  0.07486000  0.87626000  0.63918000  1.0 -0.3650870578
N  N15  1  0.12374000  0.92514000  0.36082000  1.0 -0.3605303454
N  N16  1  0.87626000  0.07486000  0.36082000  1.0 -0.3605303454
N  N17  1  0.57688000  0.47484000  0.90586000  1.0 -0.3605303454
N  N18  1  0.42312000  0.52516000  0.90586000  1.0 -0.3605303454
N  N19  1  0.47484000  0.57688000  0.09414000  1.0 -0.3605303454
N  N20  1  0.52516000  0.42312000  0.09414000  1.0 -0.3605303454
N  N21  1  0.92312000  0.02516000  0.59414000  1.0 -0.3605303454
N  N22  1  0.07688000  0.97484000  0.59414000  1.0 -0.3605303454
N  N23  1  0.02516000  0.92312000  0.40586000  1.0 -0.3605303454
N  N24  1  0.97484000  0.07688000  0.40586000  1.0 -0.3605303454
N  N25  1  0.57464000  0.56662000  0.85826000  1.0 -0.3976285041
N  N26  1  0.42536000  0.43338000  0.85826000  1.0 -0.3976285041
N  N27  1  0.56662000  0.57464000  0.14174000  1.0 -0.3976285041
N  N28  1  0.43338000  0.42536000  0.14174000  1.0 -0.3976285041
N  N29  1  0.92536000  0.93338000  0.64174000  1.0 -0.3976285041
N  N30  1  0.07464000  0.06662000  0.64174000  1.0 -0.3976285041
N  N31  1  0.93338000  0.92536000  0.35826000  1.0 -0.3976285041
N  N32  1  0.06662000  0.07464000  0.35826000  1.0 -0.3976285041
N  N33  1  0.69135000  0.49141000  0.85887000  1.0 -0.0027931917
N  N34  1  0.30865000  0.50859000  0.85887000  1.0 -0.0027931917
N  N35  1  0.49141000  0.69135000  0.14113000  1.0 -0.0097625092
N  N36  1  0.50859000  0.30865000  0.14113000  1.0 -0.0027931917
N  N37  1  0.80865000  0.00859000  0.64113000  1.0 -0.0027931917
N  N38  1  0.19135000  0.99141000  0.64113000  1.0 -0.0097625092
N  N39  1  0.00859000  0.80865000  0.35887000  1.0 -0.0097625092
N  N40  1  0.99141000  0.19135000  0.35887000  1.0 -0.0027931917
N  N41  1  0.81376000  0.51330000  0.85708000  1.0 0.0599511463
N  N42  1  0.18624000  0.48670000  0.85708000  1.0 0.0599511463
N  N43  1  0.51330000  0.81376000  0.14292000  1.0 0.0599511463
N  N44  1  0.48670000  0.18624000  0.14292000  1.0 0.0599511463
N  N45  1  0.68624000  0.98670000  0.64292000  1.0 0.0599511463
N  N46  1  0.31376000  0.01330000  0.64292000  1.0 0.0599511463
N  N47  1  0.98670000  0.68624000  0.35708000  1.0 0.0599511463
N  N48  1  0.01330000  0.31376000  0.35708000  1.0 0.0599511463
O  O1  1  0.56241000  0.10675000  0.64229000  1.0 -0.4981130277
O  O2  1  0.43759000  0.89325000  0.64229000  1.0 -0.4981130277
O  O3  1  0.10675000  0.56241000  0.35771000  1.0 -0.4981130277
O  O4  1  0.89325000  0.43759000  0.35771000  1.0 -0.4981130277
O  O5  1  0.93759000  0.39325000  0.85771000  1.0 -0.4981130277
O  O6  1  0.06241000  0.60675000  0.85771000  1.0 -0.4981130277
O  O7  1  0.39325000  0.93759000  0.14229000  1.0 -0.4981130277
O  O8  1  0.60675000  0.06241000  0.14229000  1.0 -0.4981130277
O  O9  1  0.57297000  0.03057000  0.67563000  1.0 -0.4981130277
O  O10  1  0.42703000  0.96943000  0.67563000  1.0 -0.4981130277
O  O11  1  0.03057000  0.57297000  0.32437000  1.0 -0.4981130277
O  O12  1  0.96943000  0.42703000  0.32437000  1.0 -0.4981130277
O  O13  1  0.92703000  0.46943000  0.82437000  1.0 -0.4981130277
O  O14  1  0.07297000  0.53057000  0.82437000  1.0 -0.4981130277
O  O15  1  0.46943000  0.92703000  0.17563000  1.0 -0.4981130277
O  O16  1  0.53057000  0.07297000  0.17563000  1.0 -0.4981130277
O  O17  1  0.56528000  0.04642000  0.05083000  1.0 -0.4981130277
O  O18  1  0.43472000  0.95358000  0.05083000  1.0 -0.4981130277
O  O19  1  0.04642000  0.56528000  0.94917000  1.0 -0.4981130277
O  O20  1  0.95358000  0.43472000  0.94917000  1.0 -0.4945203022
O  O21  1  0.93472000  0.45358000  0.44917000  1.0 -0.4981130277
O  O22  1  0.06528000  0.54642000  0.44917000  1.0 -0.4981130277
O  O23  1  0.45358000  0.93472000  0.55083000  1.0 -0.4945203022
O  O24  1  0.54642000  0.06528000  0.55083000  1.0 -0.4981130277
O  O25  1  0.60149000  0.12537000  0.08142000  1.0 -0.5066221909
O  O26  1  0.39851000  0.87463000  0.08142000  1.0 -0.5066221909
O  O27  1  0.12537000  0.60149000  0.91858000  1.0 -0.5066221909
O  O28  1  0.87463000  0.39851000  0.91858000  1.0 -0.5066221909
O  O29  1  0.89851000  0.37463000  0.41858000  1.0 -0.5066221909
O  O30  1  0.10149000  0.62537000  0.41858000  1.0 -0.5066221909
O  O31  1  0.37463000  0.89851000  0.58142000  1.0 -0.5066221909
O  O32  1  0.62537000  0.10149000  0.58142000  1.0 -0.5066221909
O  O33  1  0.55853000  0.88055000  0.05845000  1.0 -0.4265535803
O  O34  1  0.44147000  0.11945000  0.05845000  1.0 -0.4246174202
O  O35  1  0.88055000  0.55853000  0.94155000  1.0 -0.4265535803
O  O36  1  0.11945000  0.44147000  0.94155000  1.0 -0.4265535803
O  O37  1  0.94147000  0.61945000  0.44155000  1.0 -0.4246174202
O  O38  1  0.05853000  0.38055000  0.44155000  1.0 -0.4265535803
O  O39  1  0.61945000  0.94147000  0.55845000  1.0 -0.4246174202
O  O40  1  0.38055000  0.05853000  0.55845000  1.0 -0.4246174202
O  O41  1  0.56994000  0.94638000  0.01712000  1.0 -0.4716632807
O  O42  1  0.43006000  0.05362000  0.01712000  1.0 -0.4716632807
O  O43  1  0.94638000  0.56994000  0.98288000  1.0 -0.4716632807
O  O44  1  0.05362000  0.43006000  0.98288000  1.0 -0.4716632807
O  O45  1  0.93006000  0.55362000  0.48288000  1.0 -0.4716632807
O  O46  1  0.06994000  0.44638000  0.48288000  1.0 -0.4716632807
O  O47  1  0.55362000  0.93006000  0.51712000  1.0 -0.4716632807
O  O48  1  0.44638000  0.06994000  0.51712000  1.0 -0.4716632807
O  O49  1  0.57371000  0.89401000  0.67075000  1.0 -0.5293157728
O  O50  1  0.42629000  0.10599000  0.67075000  1.0 -0.5293157728
O  O51  1  0.89401000  0.57371000  0.32925000  1.0 -0.5293157728
O  O52  1  0.10599000  0.42629000  0.32925000  1.0 -0.5293157728
O  O53  1  0.92629000  0.60599000  0.82925000  1.0 -0.5293157728
O  O54  1  0.07371000  0.39401000  0.82925000  1.0 -0.5293157728
O  O55  1  0.60599000  0.92629000  0.17075000  1.0 -0.5293157728
O  O56  1  0.39401000  0.07371000  0.17075000  1.0 -0.5293157728
O  O57  1  0.58060000  0.82084000  0.63545000  1.0 -0.4560969466
O  O58  1  0.41940000  0.17916000  0.63545000  1.0 -0.4560969466
O  O59  1  0.82084000  0.58060000  0.36455000  1.0 -0.4560969466
O  O60  1  0.17916000  0.41940000  0.36455000  1.0 -0.4560969466
O  O61  1  0.91940000  0.67916000  0.86455000  1.0 -0.4560969466
O  O62  1  0.08060000  0.32084000  0.86455000  1.0 -0.4560969466
O  O63  1  0.67916000  0.91940000  0.13545000  1.0 -0.4560969466
O  O64  1  0.32084000  0.08060000  0.13545000  1.0 -0.4560969466
O  O65  1  0.55383000  0.97663000  0.60657000  1.0 -0.749541472
O  O66  1  0.44617000  0.02337000  0.60657000  1.0 -0.749541472
O  O67  1  0.97663000  0.55383000  0.39343000  1.0 -0.749541472
O  O68  1  0.02337000  0.44617000  0.39343000  1.0 -0.749541472
O  O69  1  0.94617000  0.52337000  0.89343000  1.0 -0.749541472
O  O70  1  0.05383000  0.47663000  0.89343000  1.0 -0.749541472
O  O71  1  0.52337000  0.94617000  0.10657000  1.0 -0.749541472
O  O72  1  0.47663000  0.05383000  0.10657000  1.0 -0.749541472
O  O73  1  0.50259000  0.15733000  0.59256000  1.0 -0.1470500615
O  O74  1  0.49741000  0.84267000  0.59256000  1.0 -0.1406747515
O  O75  1  0.15733000  0.50259000  0.40744000  1.0 -0.1406747515
O  O76  1  0.84267000  0.49741000  0.40744000  1.0 -0.1470500615
O  O77  1  0.99741000  0.34267000  0.90744000  1.0 -0.1406747515
O  O78  1  0.00259000  0.65733000  0.90744000  1.0 -0.1470500615
O  O79  1  0.34267000  0.99741000  0.09256000  1.0 -0.1406747515
O  O80  1  0.65733000  0.00259000  0.09256000  1.0 -0.1470500615
