# DDEC6 charges by PACMAN v1.1 (https://github.com/mtap-research/PACMAN-charge/)
data_UCAVON_ASR_pacman
_symmetry_space_group_name_H-M   'P 1'
_cell_length_a   16.11110000
_cell_length_b   16.11110000
_cell_length_c   31.90400000
_cell_angle_alpha   77.09710000
_cell_angle_beta   102.90300000
_cell_angle_gamma   115.28600000
_symmetry_Int_Tables_number   1
_chemical_formula_structural   Zr3H18C28(SO9)2
_chemical_formula_sum   'Zr12 H72 C112 S8 O72'
_cell_volume   7221.43688767
_cell_formula_units_Z   4
loop_
 _symmetry_equiv_pos_site_id
 _symmetry_equiv_pos_as_xyz
  1  'x, y, z'
loop_
 _atom_site_type_symbol
 _atom_site_label
 _atom_site_symmetry_multiplicity
 _atom_site_fract_x
 _atom_site_fract_y
 _atom_site_fract_z
 _atom_site_occupancy
 _atom_site_charge
Zr  Zr1  1  0.37573000  0.37587000  0.46314000  1.0 2.3825835475
Zr  Zr2  1  0.38347000  0.52103000  0.53206000  1.0 2.4833574781
Zr  Zr3  1  0.48473000  0.61693000  0.43540000  1.0 2.508790482
Zr  Zr4  1  0.37587000  0.37573000  0.03686000  1.0 2.3825835475
Zr  Zr5  1  0.52103000  0.38347000  0.96794000  1.0 2.4833574781
Zr  Zr6  1  0.61693000  0.48473000  0.06460000  1.0 2.508790482
Zr  Zr7  1  0.62427000  0.62413000  0.53686000  1.0 2.3825835475
Zr  Zr8  1  0.61653000  0.47897000  0.46794000  1.0 2.4833574781
Zr  Zr9  1  0.51527000  0.38307000  0.56460000  1.0 2.508790482
Zr  Zr10  1  0.62413000  0.62427000  0.96314000  1.0 2.3825835475
Zr  Zr11  1  0.47897000  0.61653000  0.03206000  1.0 2.4833574781
Zr  Zr12  1  0.38307000  0.51527000  0.93540000  1.0 2.508790482
H  H1  1  0.91307000  0.30603000  0.51898000  1.0 0.1402473308
H  H2  1  0.07160000  0.40258000  0.52046000  1.0 0.1309952467
H  H3  1  0.07390000  0.26136000  0.42941000  1.0 0.1309952467
H  H4  1  0.91303000  0.23495000  0.40986000  1.0 0.1402473308
H  H5  1  0.68692000  0.09544000  0.39028000  1.0 0.1512105355
H  H6  1  0.64203000  0.92697000  0.39867000  1.0 0.1309952467
H  H7  1  0.72366000  0.92748000  0.52642000  1.0 0.1402473308
H  H8  1  0.78281000  0.08805000  0.51749000  1.0 0.1309952467
H  H9  1  0.32307000  0.08645000  0.32599000  1.0 0.1309952467
H  H10  1  0.33153000  0.17275000  0.37776000  1.0 0.1309952467
H  H11  1  0.61471000  0.28357000  0.38752000  1.0 0.1309952467
H  H12  1  0.59975000  0.19219000  0.33918000  1.0 0.1402473308
H  H13  1  0.32559000  0.08023000  0.22663000  1.0 0.1402473308
H  H14  1  0.32911000  0.18549000  0.16303000  1.0 0.1240726611
H  H15  1  0.60978000  0.29110000  0.18968000  1.0 0.1240726611
H  H16  1  0.60446000  0.18808000  0.25295000  1.0 0.1402473308
H  H17  1  0.30407000  0.63703000  0.53115000  1.0 0.4387082645
H  H18  1  0.61813000  0.68775000  0.37387000  1.0 0.5442090818
H  H19  1  0.30603000  0.91307000  0.98102000  1.0 0.1402473308
H  H20  1  0.40258000  0.07160000  0.97954000  1.0 0.1309952467
H  H21  1  0.26136000  0.07390000  0.07059000  1.0 0.1309952467
H  H22  1  0.23495000  0.91303000  0.09014000  1.0 0.1402473308
H  H23  1  0.09544000  0.68692000  0.10972000  1.0 0.1512105355
H  H24  1  0.92697000  0.64203000  0.10133000  1.0 0.1309952467
H  H25  1  0.92748000  0.72366000  0.97358000  1.0 0.1402473308
H  H26  1  0.08805000  0.78281000  0.98251000  1.0 0.1309952467
H  H27  1  0.08645000  0.32307000  0.17401000  1.0 0.1309952467
H  H28  1  0.17275000  0.33153000  0.12224000  1.0 0.1309952467
H  H29  1  0.28357000  0.61471000  0.11248000  1.0 0.1309952467
H  H30  1  0.19219000  0.59975000  0.16082000  1.0 0.1402473308
H  H31  1  0.08023000  0.32559000  0.27337000  1.0 0.1402473308
H  H32  1  0.18549000  0.32911000  0.33697000  1.0 0.1240726611
H  H33  1  0.29110000  0.60978000  0.31032000  1.0 0.1309952467
H  H34  1  0.18808000  0.60446000  0.24705000  1.0 0.1402473308
H  H35  1  0.63703000  0.30407000  0.96885000  1.0 0.4387082645
H  H36  1  0.68775000  0.61813000  0.12613000  1.0 0.5471655616
H  H37  1  0.08693000  0.69397000  0.48102000  1.0 0.1402473308
H  H38  1  0.92840000  0.59742000  0.47954000  1.0 0.1309952467
H  H39  1  0.92610000  0.73864000  0.57059000  1.0 0.1309952467
H  H40  1  0.08697000  0.76505000  0.59014000  1.0 0.1402473308
H  H41  1  0.31308000  0.90456000  0.60972000  1.0 0.1512105355
H  H42  1  0.35797000  0.07303000  0.60133000  1.0 0.1309952467
H  H43  1  0.27634000  0.07252000  0.47358000  1.0 0.1402473308
H  H44  1  0.21719000  0.91195000  0.48251000  1.0 0.1309952467
H  H45  1  0.67693000  0.91355000  0.67401000  1.0 0.1309952467
H  H46  1  0.66847000  0.82725000  0.62224000  1.0 0.1309952467
H  H47  1  0.38529000  0.71643000  0.61248000  1.0 0.1309952467
H  H48  1  0.40025000  0.80781000  0.66082000  1.0 0.1402473308
H  H49  1  0.67441000  0.91977000  0.77337000  1.0 0.1402473308
H  H50  1  0.67089000  0.81451000  0.83697000  1.0 0.1240726611
H  H51  1  0.39022000  0.70890000  0.81032000  1.0 0.1240726611
H  H52  1  0.39554000  0.81192000  0.74705000  1.0 0.1402473308
H  H53  1  0.69593000  0.36297000  0.46885000  1.0 0.4387082645
H  H54  1  0.38187000  0.31225000  0.62613000  1.0 0.5442090818
H  H55  1  0.69397000  0.08693000  0.01898000  1.0 0.1402473308
H  H56  1  0.59742000  0.92840000  0.02046000  1.0 0.1309952467
H  H57  1  0.73864000  0.92610000  0.92941000  1.0 0.1309952467
H  H58  1  0.76505000  0.08697000  0.90986000  1.0 0.1402473308
H  H59  1  0.90456000  0.31308000  0.89028000  1.0 0.1512105355
H  H60  1  0.07303000  0.35797000  0.89867000  1.0 0.1309952467
H  H61  1  0.07252000  0.27634000  0.02642000  1.0 0.1402473308
H  H62  1  0.91195000  0.21719000  0.01749000  1.0 0.1309952467
H  H63  1  0.91355000  0.67693000  0.82599000  1.0 0.1309952467
H  H64  1  0.82725000  0.66847000  0.87776000  1.0 0.1309952467
H  H65  1  0.71643000  0.38529000  0.88752000  1.0 0.1309952467
H  H66  1  0.80781000  0.40025000  0.83918000  1.0 0.1402473308
H  H67  1  0.91977000  0.67441000  0.72663000  1.0 0.1402473308
H  H68  1  0.81451000  0.67089000  0.66303000  1.0 0.1240726611
H  H69  1  0.70890000  0.39022000  0.68968000  1.0 0.1309952467
H  H70  1  0.81192000  0.39554000  0.75295000  1.0 0.1402473308
H  H71  1  0.36297000  0.69593000  0.03115000  1.0 0.4387082645
H  H72  1  0.31225000  0.38187000  0.87387000  1.0 0.5564998278
C  C1  1  0.89840000  0.25740000  0.46620000  1.0 -0.0696723642
C  C2  1  0.94550000  0.30530000  0.49840000  1.0 -0.1201992654
C  C3  1  0.04190000  0.35550000  0.50330000  1.0 -0.0532549404
C  C4  1  0.09300000  0.32900000  0.47950000  1.0 -0.0785411528
C  C5  1  0.04420000  0.27860000  0.44570000  1.0 -0.0532549404
C  C6  1  0.94520000  0.25380000  0.43650000  1.0 -0.1201992654
C  C7  1  0.73900000  0.10160000  0.45100000  1.0 -0.0297045504
C  C8  1  0.69740000  0.06160000  0.41710000  1.0 -0.0924327968
C  C9  1  0.66630000  0.95870000  0.42260000  1.0 -0.0567633084
C  C10  1  0.67520000  0.91100000  0.46510000  1.0 -0.0297045504
C  C11  1  0.71760000  0.96000000  0.49870000  1.0 -0.0696723642
C  C12  1  0.75250000  0.05570000  0.49400000  1.0 -0.1293251476
C  C13  1  0.19270000  0.37170000  0.48530000  1.0 0.635629166
C  C14  1  0.63630000  0.80650000  0.47250000  1.0 0.6332813987
C  C15  1  0.46100000  0.12200000  0.33300000  1.0 -0.0532549404
C  C16  1  0.38020000  0.12260000  0.34020000  1.0 -0.1201992654
C  C17  1  0.38540000  0.17820000  0.36910000  1.0 -0.0696723642
C  C18  1  0.47370000  0.24390000  0.38570000  1.0 -0.0532549404
C  C19  1  0.55640000  0.24480000  0.37560000  1.0 -0.0696723642
C  C20  1  0.54690000  0.18770000  0.34830000  1.0 -0.0977307688
C  C21  1  0.46310000  0.12730000  0.24370000  1.0 -0.0567633084
C  C22  1  0.38200000  0.12360000  0.21840000  1.0 -0.1201992654
C  C23  1  0.38440000  0.18580000  0.17980000  1.0 -0.0532549404
C  C24  1  0.47150000  0.25010000  0.16580000  1.0 -0.0696723642
C  C25  1  0.55200000  0.24800000  0.19640000  1.0 -0.043674317
C  C26  1  0.55070000  0.18790000  0.23470000  1.0 -0.1293251476
C  C27  1  0.48310000  0.30790000  0.41360000  1.0 0.624009099
C  C28  1  0.47780000  0.31280000  0.12550000  1.0 0.624009099
C  C29  1  0.25740000  0.89840000  0.03380000  1.0 -0.0696723642
C  C30  1  0.30530000  0.94550000  0.00160000  1.0 -0.1147055364
C  C31  1  0.35550000  0.04190000  0.99670000  1.0 -0.0532549404
C  C32  1  0.32900000  0.09300000  0.02050000  1.0 -0.0785411528
C  C33  1  0.27860000  0.04420000  0.05430000  1.0 -0.0532549404
C  C34  1  0.25380000  0.94520000  0.06350000  1.0 -0.1201992654
C  C35  1  0.10160000  0.73900000  0.04900000  1.0 -0.0297045504
C  C36  1  0.06160000  0.69740000  0.08290000  1.0 -0.0924327968
C  C37  1  0.95870000  0.66630000  0.07740000  1.0 -0.0567633084
C  C38  1  0.91100000  0.67520000  0.03490000  1.0 -0.0297045504
C  C39  1  0.96000000  0.71760000  0.00130000  1.0 -0.0696723642
C  C40  1  0.05570000  0.75250000  0.00600000  1.0 -0.1293251476
C  C41  1  0.37170000  0.19270000  0.01470000  1.0 0.635629166
C  C42  1  0.80650000  0.63630000  0.02750000  1.0 0.6332813987
C  C43  1  0.12200000  0.46100000  0.16700000  1.0 -0.0532549404
C  C44  1  0.12260000  0.38020000  0.15980000  1.0 -0.1201992654
C  C45  1  0.17820000  0.38540000  0.13090000  1.0 -0.0696723642
C  C46  1  0.24390000  0.47370000  0.11430000  1.0 -0.0532549404
C  C47  1  0.24480000  0.55640000  0.12440000  1.0 -0.0696723642
C  C48  1  0.18770000  0.54690000  0.15170000  1.0 -0.0977307688
C  C49  1  0.12730000  0.46310000  0.25630000  1.0 -0.0532549404
C  C50  1  0.12360000  0.38200000  0.28160000  1.0 -0.1293251476
C  C51  1  0.18580000  0.38440000  0.32020000  1.0 -0.0532549404
C  C52  1  0.25010000  0.47150000  0.33420000  1.0 -0.0696723642
C  C53  1  0.24800000  0.55200000  0.30360000  1.0 -0.043674317
C  C54  1  0.18790000  0.55070000  0.26530000  1.0 -0.1293251476
C  C55  1  0.30790000  0.48310000  0.08640000  1.0 0.624009099
C  C56  1  0.31280000  0.47780000  0.37450000  1.0 0.624009099
C  C57  1  0.10160000  0.74260000  0.53380000  1.0 -0.0696723642
C  C58  1  0.05450000  0.69470000  0.50160000  1.0 -0.1201992654
C  C59  1  0.95810000  0.64450000  0.49670000  1.0 -0.0532549404
C  C60  1  0.90700000  0.67100000  0.52050000  1.0 -0.0785411528
C  C61  1  0.95580000  0.72140000  0.55430000  1.0 -0.0532549404
C  C62  1  0.05480000  0.74620000  0.56350000  1.0 -0.1201992654
C  C63  1  0.26100000  0.89840000  0.54900000  1.0 -0.0297045504
C  C64  1  0.30260000  0.93840000  0.58290000  1.0 -0.0924327968
C  C65  1  0.33370000  0.04130000  0.57740000  1.0 -0.0567633084
C  C66  1  0.32480000  0.08900000  0.53490000  1.0 -0.0297045504
C  C67  1  0.28240000  0.04000000  0.50130000  1.0 -0.0696723642
C  C68  1  0.24750000  0.94430000  0.50600000  1.0 -0.1293251476
C  C69  1  0.80730000  0.62830000  0.51470000  1.0 0.635629166
C  C70  1  0.36370000  0.19350000  0.52750000  1.0 0.6332813987
C  C71  1  0.53900000  0.87800000  0.66700000  1.0 -0.0532549404
C  C72  1  0.61980000  0.87740000  0.65980000  1.0 -0.1201992654
C  C73  1  0.61460000  0.82180000  0.63090000  1.0 -0.0696723642
C  C74  1  0.52630000  0.75610000  0.61430000  1.0 -0.0532549404
C  C75  1  0.44360000  0.75520000  0.62440000  1.0 -0.0696723642
C  C76  1  0.45310000  0.81230000  0.65170000  1.0 -0.0977307688
C  C77  1  0.53690000  0.87270000  0.75630000  1.0 -0.0532549404
C  C78  1  0.61800000  0.87640000  0.78160000  1.0 -0.1293251476
C  C79  1  0.61560000  0.81420000  0.82020000  1.0 -0.0532549404
C  C80  1  0.52850000  0.74990000  0.83420000  1.0 -0.0696723642
C  C81  1  0.44800000  0.75200000  0.80360000  1.0 -0.043674317
C  C82  1  0.44930000  0.81210000  0.76530000  1.0 -0.1293251476
C  C83  1  0.51690000  0.69210000  0.58640000  1.0 0.624009099
C  C84  1  0.52220000  0.68720000  0.87450000  1.0 0.624009099
C  C85  1  0.74260000  0.10160000  0.96620000  1.0 -0.0696723642
C  C86  1  0.69470000  0.05450000  0.99840000  1.0 -0.1201992654
C  C87  1  0.64450000  0.95810000  0.00330000  1.0 -0.0532549404
C  C88  1  0.67100000  0.90700000  0.97950000  1.0 -0.0785411528
C  C89  1  0.72140000  0.95580000  0.94570000  1.0 -0.0532549404
C  C90  1  0.74620000  0.05480000  0.93650000  1.0 -0.1201992654
C  C91  1  0.89840000  0.26100000  0.95100000  1.0 -0.0297045504
C  C92  1  0.93840000  0.30260000  0.91710000  1.0 -0.0924327968
C  C93  1  0.04130000  0.33370000  0.92260000  1.0 -0.0567633084
C  C94  1  0.08900000  0.32480000  0.96510000  1.0 -0.0297045504
C  C95  1  0.04000000  0.28240000  0.99870000  1.0 -0.0785411528
C  C96  1  0.94430000  0.24750000  0.99400000  1.0 -0.1293251476
C  C97  1  0.62830000  0.80730000  0.98530000  1.0 0.635629166
C  C98  1  0.19350000  0.36370000  0.97250000  1.0 0.6332813987
C  C99  1  0.87800000  0.53900000  0.83300000  1.0 -0.0532549404
C  C100  1  0.87740000  0.61980000  0.84020000  1.0 -0.1201992654
C  C101  1  0.82180000  0.61460000  0.86910000  1.0 -0.0696723642
C  C102  1  0.75610000  0.52630000  0.88570000  1.0 -0.0532549404
C  C103  1  0.75520000  0.44360000  0.87560000  1.0 -0.0696723642
C  C104  1  0.81230000  0.45310000  0.84830000  1.0 -0.0977307688
C  C105  1  0.87270000  0.53690000  0.74370000  1.0 -0.0532549404
C  C106  1  0.87640000  0.61800000  0.71840000  1.0 -0.1293251476
C  C107  1  0.81420000  0.61560000  0.67980000  1.0 -0.0532549404
C  C108  1  0.74990000  0.52850000  0.66580000  1.0 -0.0696723642
C  C109  1  0.75200000  0.44800000  0.69640000  1.0 -0.043674317
C  C110  1  0.81210000  0.44930000  0.73470000  1.0 -0.1293251476
C  C111  1  0.69210000  0.51690000  0.91360000  1.0 0.624009099
C  C112  1  0.68720000  0.52220000  0.62550000  1.0 0.624009099
S  S1  1  0.77860000  0.22240000  0.44620000  1.0 0.9593647906
S  S2  1  0.45320000  0.05120000  0.29496000  1.0 0.9593647906
S  S3  1  0.22240000  0.77860000  0.05380000  1.0 0.9593647906
S  S4  1  0.05120000  0.45320000  0.20504000  1.0 0.9593647906
S  S5  1  0.22140000  0.77760000  0.55380000  1.0 0.9593647906
S  S6  1  0.54680000  0.94880000  0.70504000  1.0 0.9593647906
S  S7  1  0.77760000  0.22140000  0.94620000  1.0 0.9593647906
S  S8  1  0.94880000  0.54680000  0.79496000  1.0 0.9593647906
O  O1  1  0.23040000  0.33280000  0.47100000  1.0 -0.5518143213
O  O2  1  0.23490000  0.42290000  0.51630000  1.0 -0.607414957
O  O3  1  0.57930000  0.76870000  0.44020000  1.0 -0.5966894439
O  O4  1  0.67030000  0.76890000  0.50610000  1.0 -0.5518143213
O  O5  1  0.76030000  0.24770000  0.39070000  1.0 -0.5670183039
O  O6  1  0.73320000  0.25260000  0.46950000  1.0 -0.4461375362
O  O7  1  0.40690000  0.30350000  0.42090000  1.0 -0.5607606283
O  O8  1  0.56060000  0.36240000  0.42620000  1.0 -0.5607606283
O  O9  1  0.40260000  0.30540000  0.10190000  1.0 -0.5670183039
O  O10  1  0.55840000  0.37460000  0.12060000  1.0 -0.5787654033
O  O11  1  0.36420000  0.97560000  0.29310000  1.0 -0.4623529351
O  O12  1  0.54160000  0.03180000  0.30690000  1.0 -0.5300528816
O  O13  1  0.37080000  0.50760000  0.46540000  1.0 -1.1540657541
O  O14  1  0.38900000  0.39260000  0.53000000  1.0 -1.1629613749
O  O15  1  0.50250000  0.36670000  0.49820000  1.0 -1.1540657541
O  O16  1  0.48700000  0.48420000  0.43220000  1.0 -1.1629613749
O  O17  1  0.30480000  0.60960000  0.50940000  1.0 -0.9206138513
O  O18  1  0.55050000  0.67030000  0.37680000  1.0 -0.9746183069
O  O19  1  0.33280000  0.23040000  0.02900000  1.0 -0.5518143213
O  O20  1  0.42290000  0.23490000  0.98370000  1.0 -0.607414957
O  O21  1  0.76870000  0.57930000  0.05980000  1.0 -0.5966894439
O  O22  1  0.76890000  0.67030000  0.99390000  1.0 -0.5518143213
O  O23  1  0.24770000  0.76030000  0.10930000  1.0 -0.5670183039
O  O24  1  0.25260000  0.73320000  0.03050000  1.0 -0.4461375362
O  O25  1  0.30350000  0.40690000  0.07910000  1.0 -0.5607606283
O  O26  1  0.36240000  0.56060000  0.07380000  1.0 -0.5607606283
O  O27  1  0.30540000  0.40260000  0.39810000  1.0 -0.5670183039
O  O28  1  0.37460000  0.55840000  0.37940000  1.0 -0.5787654033
O  O29  1  0.97560000  0.36420000  0.20690000  1.0 -0.4623529351
O  O30  1  0.03180000  0.54160000  0.19310000  1.0 -0.5300528816
O  O31  1  0.50760000  0.37080000  0.03460000  1.0 -1.1540657541
O  O32  1  0.39260000  0.38900000  0.97000000  1.0 -1.1629613749
O  O33  1  0.36670000  0.50250000  0.00180000  1.0 -1.1540657541
O  O34  1  0.48420000  0.48700000  0.06780000  1.0 -1.1663058808
O  O35  1  0.60960000  0.30480000  0.99060000  1.0 -0.9206138513
O  O36  1  0.67030000  0.55050000  0.12320000  1.0 -0.9746183069
O  O37  1  0.76960000  0.66720000  0.52900000  1.0 -0.5518143213
O  O38  1  0.76510000  0.57710000  0.48370000  1.0 -0.607414957
O  O39  1  0.42070000  0.23130000  0.55980000  1.0 -0.5966894439
O  O40  1  0.32970000  0.23110000  0.49390000  1.0 -0.5518143213
O  O41  1  0.23970000  0.75230000  0.60930000  1.0 -0.5670183039
O  O42  1  0.26680000  0.74740000  0.53050000  1.0 -0.4461375362
O  O43  1  0.59310000  0.69650000  0.57910000  1.0 -0.5607606283
O  O44  1  0.43940000  0.63760000  0.57380000  1.0 -0.5607606283
O  O45  1  0.59740000  0.69460000  0.89810000  1.0 -0.5670183039
O  O46  1  0.44160000  0.62540000  0.87940000  1.0 -0.5787654033
O  O47  1  0.63580000  0.02440000  0.70690000  1.0 -0.4623529351
O  O48  1  0.45840000  0.96820000  0.69310000  1.0 -0.5300528816
O  O49  1  0.62920000  0.49240000  0.53460000  1.0 -1.1540657541
O  O50  1  0.61100000  0.60740000  0.47000000  1.0 -1.1663058808
O  O51  1  0.49750000  0.63330000  0.50180000  1.0 -1.1540657541
O  O52  1  0.51300000  0.51580000  0.56780000  1.0 -1.1663058808
O  O53  1  0.69520000  0.39040000  0.49060000  1.0 -0.9206138513
O  O54  1  0.44950000  0.32970000  0.62320000  1.0 -0.9746183069
O  O55  1  0.66720000  0.76960000  0.97100000  1.0 -0.5518143213
O  O56  1  0.57710000  0.76510000  0.01630000  1.0 -0.607414957
O  O57  1  0.23130000  0.42070000  0.94020000  1.0 -0.5966894439
O  O58  1  0.23110000  0.32970000  0.00610000  1.0 -0.5518143213
O  O59  1  0.75230000  0.23970000  0.89070000  1.0 -0.5670183039
O  O60  1  0.74740000  0.26680000  0.96950000  1.0 -0.4461375362
O  O61  1  0.69650000  0.59310000  0.92090000  1.0 -0.5607606283
O  O62  1  0.63760000  0.43940000  0.92620000  1.0 -0.5607606283
O  O63  1  0.69460000  0.59740000  0.60190000  1.0 -0.5670183039
O  O64  1  0.62540000  0.44160000  0.62060000  1.0 -0.5787654033
O  O65  1  0.02440000  0.63580000  0.79310000  1.0 -0.4623529351
O  O66  1  0.96820000  0.45840000  0.80690000  1.0 -0.5300528816
O  O67  1  0.49240000  0.62920000  0.96540000  1.0 -1.1540657541
O  O68  1  0.60740000  0.61100000  0.03000000  1.0 -1.1629613749
O  O69  1  0.63330000  0.49750000  0.99820000  1.0 -1.1540657541
O  O70  1  0.51580000  0.51300000  0.93220000  1.0 -1.1663058808
O  O71  1  0.39040000  0.69520000  0.00940000  1.0 -0.9206138513
O  O72  1  0.32970000  0.44950000  0.87680000  1.0 -0.9774212948
