# DDEC6 charges by PACMAN v1.1 (https://github.com/mtap-research/PACMAN-charge/)
data_UCOCUM_ASR_pacman
_symmetry_space_group_name_H-M   'P 1'
_cell_length_a   18.60190000
_cell_length_b   18.60190000
_cell_length_c   18.60190000
_cell_angle_alpha   60.00000000
_cell_angle_beta   60.00000000
_cell_angle_gamma   60.00000000
_symmetry_Int_Tables_number   1
_chemical_formula_structural   CuH2(CO)6
_chemical_formula_sum   'Cu12 H24 C72 O72'
_cell_volume   4551.52485078
_cell_formula_units_Z   12
loop_
 _symmetry_equiv_pos_site_id
 _symmetry_equiv_pos_as_xyz
  1  'x, y, z'
loop_
 _atom_site_type_symbol
 _atom_site_label
 _atom_site_symmetry_multiplicity
 _atom_site_fract_x
 _atom_site_fract_y
 _atom_site_fract_z
 _atom_site_occupancy
 _atom_site_charge
Cu  Cu1  1  0.50000000  0.92954000  0.50000000  1.0 0.7639173431
Cu  Cu2  1  0.92954000  0.50000000  0.07046000  1.0 0.7639173431
Cu  Cu3  1  0.50000000  0.07046000  0.50000000  1.0 0.7639173431
Cu  Cu4  1  0.07046000  0.50000000  0.92954000  1.0 0.7639173431
Cu  Cu5  1  0.50000000  0.50000000  0.92954000  1.0 0.7639173431
Cu  Cu6  1  0.07046000  0.92954000  0.50000000  1.0 0.7639173431
Cu  Cu7  1  0.50000000  0.50000000  0.07046000  1.0 0.7639173431
Cu  Cu8  1  0.92954000  0.07046000  0.50000000  1.0 0.7639173431
Cu  Cu9  1  0.92954000  0.50000000  0.50000000  1.0 0.7639173431
Cu  Cu10  1  0.50000000  0.07046000  0.92954000  1.0 0.7639173431
Cu  Cu11  1  0.07046000  0.50000000  0.50000000  1.0 0.7639173431
Cu  Cu12  1  0.50000000  0.92954000  0.07046000  1.0 0.7639173431
H  H1  1  0.77180000  0.99140000  0.46500000  1.0 0.1111737105
H  H2  1  0.99140000  0.77180000  0.77180000  1.0 0.1111737105
H  H3  1  0.46500000  0.77180000  0.77180000  1.0 0.1111737105
H  H4  1  0.77180000  0.46500000  0.99140000  1.0 0.1111737105
H  H5  1  0.46500000  0.77180000  0.99140000  1.0 0.1111737105
H  H6  1  0.77180000  0.99140000  0.77180000  1.0 0.1111737105
H  H7  1  0.77180000  0.46500000  0.77180000  1.0 0.1111737105
H  H8  1  0.99140000  0.77180000  0.46500000  1.0 0.1111737105
H  H9  1  0.99140000  0.46500000  0.77180000  1.0 0.1111737105
H  H10  1  0.77180000  0.77180000  0.99140000  1.0 0.1111737105
H  H11  1  0.77180000  0.77180000  0.46500000  1.0 0.1111737105
H  H12  1  0.46500000  0.99140000  0.77180000  1.0 0.1111737105
H  H13  1  0.22820000  0.00860000  0.22820000  1.0 0.1111737105
H  H14  1  0.00860000  0.22820000  0.53500000  1.0 0.1111737105
H  H15  1  0.53500000  0.22820000  0.00860000  1.0 0.1111737105
H  H16  1  0.22820000  0.53500000  0.22820000  1.0 0.1111737105
H  H17  1  0.53500000  0.22820000  0.22820000  1.0 0.1111737105
H  H18  1  0.22820000  0.00860000  0.53500000  1.0 0.1111737105
H  H19  1  0.22820000  0.53500000  0.00860000  1.0 0.1111737105
H  H20  1  0.00860000  0.22820000  0.22820000  1.0 0.1111737105
H  H21  1  0.00860000  0.53500000  0.22820000  1.0 0.1111737105
H  H22  1  0.22820000  0.22820000  0.53500000  1.0 0.1111737105
H  H23  1  0.22820000  0.22820000  0.00860000  1.0 0.1111737105
H  H24  1  0.53500000  0.00860000  0.22820000  1.0 0.1111737105
C  C1  1  0.80100000  0.93200000  0.46600000  1.0 -0.0703870979
C  C2  1  0.93200000  0.80100000  0.80100000  1.0 -0.0703870979
C  C3  1  0.46600000  0.80100000  0.80100000  1.0 -0.0703870979
C  C4  1  0.80100000  0.46600000  0.93200000  1.0 -0.0703870979
C  C5  1  0.46600000  0.80100000  0.93200000  1.0 -0.0703870979
C  C6  1  0.80100000  0.93200000  0.80100000  1.0 -0.0703870979
C  C7  1  0.80100000  0.46600000  0.80100000  1.0 -0.0703870979
C  C8  1  0.93200000  0.80100000  0.46600000  1.0 -0.0703870979
C  C9  1  0.93200000  0.46600000  0.80100000  1.0 -0.0703870979
C  C10  1  0.80100000  0.80100000  0.93200000  1.0 -0.0703870979
C  C11  1  0.80100000  0.80100000  0.46600000  1.0 -0.0703870979
C  C12  1  0.46600000  0.93200000  0.80100000  1.0 -0.0703870979
C  C13  1  0.19900000  0.06800000  0.19900000  1.0 -0.0703870979
C  C14  1  0.06800000  0.19900000  0.53400000  1.0 -0.0703870979
C  C15  1  0.53400000  0.19900000  0.06800000  1.0 -0.0703870979
C  C16  1  0.19900000  0.53400000  0.19900000  1.0 -0.0703870979
C  C17  1  0.53400000  0.19900000  0.19900000  1.0 -0.0703870979
C  C18  1  0.19900000  0.06800000  0.53400000  1.0 -0.0703870979
C  C19  1  0.19900000  0.53400000  0.06800000  1.0 -0.0703870979
C  C20  1  0.06800000  0.19900000  0.19900000  1.0 -0.0703870979
C  C21  1  0.06800000  0.53400000  0.19900000  1.0 -0.0703870979
C  C22  1  0.19900000  0.19900000  0.53400000  1.0 -0.0703870979
C  C23  1  0.19900000  0.19900000  0.06800000  1.0 -0.0703870979
C  C24  1  0.53400000  0.06800000  0.19900000  1.0 -0.0703870979
C  C25  1  0.75470000  0.88930000  0.46670000  1.0 -0.0793954385
C  C26  1  0.88930000  0.75470000  0.88930000  1.0 -0.0793954385
C  C27  1  0.46670000  0.88930000  0.75470000  1.0 -0.0793954385
C  C28  1  0.88930000  0.46670000  0.88930000  1.0 -0.0793954385
C  C29  1  0.46670000  0.75470000  0.88930000  1.0 -0.0793954385
C  C30  1  0.88930000  0.88930000  0.75470000  1.0 -0.0793954385
C  C31  1  0.75470000  0.46670000  0.88930000  1.0 -0.0793954385
C  C32  1  0.88930000  0.88930000  0.46670000  1.0 -0.0793954385
C  C33  1  0.88930000  0.46670000  0.75470000  1.0 -0.0793954385
C  C34  1  0.75470000  0.88930000  0.88930000  1.0 -0.0793954385
C  C35  1  0.88930000  0.75470000  0.46670000  1.0 -0.0793954385
C  C36  1  0.46670000  0.88930000  0.88930000  1.0 -0.0793954385
C  C37  1  0.24530000  0.11070000  0.11070000  1.0 -0.0793954385
C  C38  1  0.11070000  0.24530000  0.53330000  1.0 -0.0793954385
C  C39  1  0.53330000  0.11070000  0.11070000  1.0 -0.0793954385
C  C40  1  0.11070000  0.53330000  0.24530000  1.0 -0.0793954385
C  C41  1  0.53330000  0.24530000  0.11070000  1.0 -0.0793954385
C  C42  1  0.11070000  0.11070000  0.53330000  1.0 -0.0793954385
C  C43  1  0.24530000  0.53330000  0.11070000  1.0 -0.0793954385
C  C44  1  0.11070000  0.11070000  0.24530000  1.0 -0.0793954385
C  C45  1  0.11070000  0.53330000  0.11070000  1.0 -0.0793954385
C  C46  1  0.24530000  0.11070000  0.53330000  1.0 -0.0793954385
C  C47  1  0.11070000  0.24530000  0.11070000  1.0 -0.0793954385
C  C48  1  0.53330000  0.11070000  0.24530000  1.0 -0.0793954385
C  C49  1  0.66200000  0.93120000  0.47560000  1.0 0.5653052392
C  C50  1  0.93120000  0.66200000  0.93120000  1.0 0.5653052392
C  C51  1  0.47560000  0.93120000  0.66200000  1.0 0.5653052392
C  C52  1  0.93120000  0.47560000  0.93120000  1.0 0.5653052392
C  C53  1  0.47560000  0.66200000  0.93120000  1.0 0.5653052392
C  C54  1  0.93120000  0.93120000  0.66200000  1.0 0.5653052392
C  C55  1  0.66200000  0.47560000  0.93120000  1.0 0.5653052392
C  C56  1  0.93120000  0.93120000  0.47560000  1.0 0.5653052392
C  C57  1  0.93120000  0.47560000  0.66200000  1.0 0.5653052392
C  C58  1  0.66200000  0.93120000  0.93120000  1.0 0.5653052392
C  C59  1  0.93120000  0.66200000  0.47560000  1.0 0.5653052392
C  C60  1  0.47560000  0.93120000  0.93120000  1.0 0.5653052392
C  C61  1  0.33800000  0.06880000  0.06880000  1.0 0.5653052392
C  C62  1  0.06880000  0.33800000  0.52440000  1.0 0.5653052392
C  C63  1  0.52440000  0.06880000  0.06880000  1.0 0.5653052392
C  C64  1  0.06880000  0.52440000  0.33800000  1.0 0.5653052392
C  C65  1  0.52440000  0.33800000  0.06880000  1.0 0.5653052392
C  C66  1  0.06880000  0.06880000  0.52440000  1.0 0.5653052392
C  C67  1  0.33800000  0.52440000  0.06880000  1.0 0.5653052392
C  C68  1  0.06880000  0.06880000  0.33800000  1.0 0.5653052392
C  C69  1  0.06880000  0.52440000  0.06880000  1.0 0.5653052392
C  C70  1  0.33800000  0.06880000  0.52440000  1.0 0.5653052392
C  C71  1  0.06880000  0.33800000  0.06880000  1.0 0.5653052392
C  C72  1  0.52440000  0.06880000  0.33800000  1.0 0.5653052392
O  O1  1  0.62630000  0.88610000  0.47870000  1.0 -0.551201551
O  O2  1  0.88610000  0.62630000  0.00890000  1.0 -0.551201551
O  O3  1  0.47870000  0.00890000  0.62630000  1.0 -0.551201551
O  O4  1  0.00890000  0.47870000  0.88610000  1.0 -0.551201551
O  O5  1  0.47870000  0.62630000  0.88610000  1.0 -0.551201551
O  O6  1  0.00890000  0.88610000  0.62630000  1.0 -0.551201551
O  O7  1  0.62630000  0.47870000  0.00890000  1.0 -0.551201551
O  O8  1  0.88610000  0.00890000  0.47870000  1.0 -0.551201551
O  O9  1  0.88610000  0.47870000  0.62630000  1.0 -0.551201551
O  O10  1  0.62630000  0.00890000  0.88610000  1.0 -0.551201551
O  O11  1  0.00890000  0.62630000  0.47870000  1.0 -0.551201551
O  O12  1  0.47870000  0.88610000  0.00890000  1.0 -0.551201551
O  O13  1  0.37370000  0.11390000  0.99110000  1.0 -0.551201551
O  O14  1  0.11390000  0.37370000  0.52130000  1.0 -0.551201551
O  O15  1  0.52130000  0.99110000  0.11390000  1.0 -0.551201551
O  O16  1  0.99110000  0.52130000  0.37370000  1.0 -0.551201551
O  O17  1  0.52130000  0.37370000  0.99110000  1.0 -0.551201551
O  O18  1  0.99110000  0.11390000  0.52130000  1.0 -0.551201551
O  O19  1  0.37370000  0.52130000  0.11390000  1.0 -0.551201551
O  O20  1  0.11390000  0.99110000  0.37370000  1.0 -0.551201551
O  O21  1  0.11390000  0.52130000  0.99110000  1.0 -0.551201551
O  O22  1  0.37370000  0.99110000  0.52130000  1.0 -0.551201551
O  O23  1  0.99110000  0.37370000  0.11390000  1.0 -0.551201551
O  O24  1  0.52130000  0.11390000  0.37370000  1.0 -0.551201551
O  O25  1  0.37370000  0.11390000  0.52130000  1.0 -0.551201551
O  O26  1  0.11390000  0.37370000  0.99110000  1.0 -0.551201551
O  O27  1  0.52130000  0.99110000  0.37370000  1.0 -0.551201551
O  O28  1  0.99110000  0.52130000  0.11390000  1.0 -0.551201551
O  O29  1  0.52130000  0.37370000  0.11390000  1.0 -0.551201551
O  O30  1  0.99110000  0.11390000  0.37370000  1.0 -0.551201551
O  O31  1  0.37370000  0.52130000  0.99110000  1.0 -0.551201551
O  O32  1  0.11390000  0.99110000  0.52130000  1.0 -0.551201551
O  O33  1  0.11390000  0.52130000  0.37370000  1.0 -0.551201551
O  O34  1  0.37370000  0.99110000  0.11390000  1.0 -0.551201551
O  O35  1  0.99110000  0.37370000  0.52130000  1.0 -0.551201551
O  O36  1  0.52130000  0.11390000  0.99110000  1.0 -0.551201551
O  O37  1  0.62630000  0.88610000  0.00890000  1.0 -0.551201551
O  O38  1  0.88610000  0.62630000  0.47870000  1.0 -0.551201551
O  O39  1  0.47870000  0.00890000  0.88610000  1.0 -0.551201551
O  O40  1  0.00890000  0.47870000  0.62630000  1.0 -0.551201551
O  O41  1  0.47870000  0.62630000  0.00890000  1.0 -0.551201551
O  O42  1  0.00890000  0.88610000  0.47870000  1.0 -0.551201551
O  O43  1  0.62630000  0.47870000  0.88610000  1.0 -0.551201551
O  O44  1  0.88610000  0.00890000  0.62630000  1.0 -0.551201551
O  O45  1  0.88610000  0.47870000  0.00890000  1.0 -0.551201551
O  O46  1  0.62630000  0.00890000  0.47870000  1.0 -0.551201551
O  O47  1  0.00890000  0.62630000  0.88610000  1.0 -0.551201551
O  O48  1  0.47870000  0.88610000  0.62630000  1.0 -0.551201551
O  O49  1  0.52390000  0.81270000  0.47610000  1.0 0.1937480171
O  O50  1  0.81270000  0.52390000  0.18730000  1.0 0.1937480171
O  O51  1  0.47610000  0.18730000  0.52390000  1.0 0.1937480171
O  O52  1  0.18730000  0.47610000  0.81270000  1.0 0.1937480171
O  O53  1  0.47610000  0.52390000  0.81270000  1.0 0.1937480171
O  O54  1  0.18730000  0.81270000  0.52390000  1.0 0.1937480171
O  O55  1  0.52390000  0.47610000  0.18730000  1.0 0.1937480171
O  O56  1  0.81270000  0.18730000  0.47610000  1.0 0.1937480171
O  O57  1  0.81270000  0.47610000  0.52390000  1.0 0.1937480171
O  O58  1  0.52390000  0.18730000  0.81270000  1.0 0.1937480171
O  O59  1  0.18730000  0.52390000  0.47610000  1.0 0.1937480171
O  O60  1  0.47610000  0.81270000  0.18730000  1.0 0.1937480171
O  O61  1  0.47610000  0.18730000  0.81270000  1.0 0.1937480171
O  O62  1  0.18730000  0.47610000  0.52390000  1.0 0.1937480171
O  O63  1  0.52390000  0.81270000  0.18730000  1.0 0.1937480171
O  O64  1  0.81270000  0.52390000  0.47610000  1.0 0.1937480171
O  O65  1  0.52390000  0.47610000  0.81270000  1.0 0.1937480171
O  O66  1  0.81270000  0.18730000  0.52390000  1.0 0.1937480171
O  O67  1  0.47610000  0.52390000  0.18730000  1.0 0.1937480171
O  O68  1  0.18730000  0.81270000  0.47610000  1.0 0.1937480171
O  O69  1  0.18730000  0.52390000  0.81270000  1.0 0.1937480171
O  O70  1  0.47610000  0.81270000  0.52390000  1.0 0.1937480171
O  O71  1  0.81270000  0.47610000  0.18730000  1.0 0.1937480171
O  O72  1  0.52390000  0.18730000  0.47610000  1.0 0.1937480171
