# DDEC6 charges by PACMAN v1.1 (https://github.com/mtap-research/PACMAN-charge/)
data_UCOXOZ_FSR_pacman
_symmetry_space_group_name_H-M   'P 1'
_cell_length_a   22.66010000
_cell_length_b   22.66010000
_cell_length_c   16.64200000
_cell_angle_alpha   89.35310000
_cell_angle_beta   90.64690000
_cell_angle_gamma   128.90400000
_symmetry_Int_Tables_number   1
_chemical_formula_structural   Cu3H40C45(NO)9
_chemical_formula_sum   'Cu12 H160 C180 N36 O36'
_cell_volume   6649.45412592
_cell_formula_units_Z   4
loop_
 _symmetry_equiv_pos_site_id
 _symmetry_equiv_pos_as_xyz
  1  'x, y, z'
loop_
 _atom_site_type_symbol
 _atom_site_label
 _atom_site_symmetry_multiplicity
 _atom_site_fract_x
 _atom_site_fract_y
 _atom_site_fract_z
 _atom_site_occupancy
 _atom_site_charge
Cu  Cu1  1  0.67655000  0.90183000  0.14236000  1.0 0.6139542832
Cu  Cu2  1  0.09817000  0.32345000  0.64236000  1.0 0.6139542832
Cu  Cu3  1  0.32345000  0.09817000  0.85764000  1.0 0.6139542832
Cu  Cu4  1  0.90183000  0.67655000  0.35764000  1.0 0.6172551487
Cu  Cu5  1  0.63986000  0.90990000  0.62019000  1.0 0.6596096814
Cu  Cu6  1  0.09010000  0.36014000  0.12019000  1.0 0.6596096814
Cu  Cu7  1  0.36014000  0.09010000  0.37981000  1.0 0.6546677922
Cu  Cu8  1  0.90990000  0.63986000  0.87981000  1.0 0.6596096814
Cu  Cu9  1  0.83672000  0.09518000  0.40258000  1.0 0.6596096814
Cu  Cu10  1  0.90482000  0.16328000  0.90258000  1.0 0.6596096814
Cu  Cu11  1  0.16328000  0.90482000  0.59742000  1.0 0.6596096814
Cu  Cu12  1  0.09518000  0.83672000  0.09742000  1.0 0.6596096814
H  H1  1  0.51080000  0.15800000  0.29840000  1.0 0.1001929877
H  H2  1  0.84200000  0.48920000  0.79840000  1.0 0.1001929877
H  H3  1  0.48920000  0.84200000  0.70160000  1.0 0.1001929877
H  H4  1  0.15800000  0.51080000  0.20160000  1.0 0.1001929877
H  H5  1  0.57590000  0.11990000  0.25020000  1.0 0.1307765321
H  H6  1  0.88010000  0.42410000  0.75020000  1.0 0.1307765321
H  H7  1  0.42410000  0.88010000  0.74980000  1.0 0.1307765321
H  H8  1  0.11990000  0.57590000  0.24980000  1.0 0.1307765321
H  H9  1  0.40260000  0.90720000  0.31390000  1.0 0.1307765321
H  H10  1  0.09280000  0.59740000  0.81390000  1.0 0.1307765321
H  H11  1  0.59740000  0.09280000  0.68610000  1.0 0.1307765321
H  H12  1  0.90720000  0.40260000  0.18610000  1.0 0.1307765321
H  H13  1  0.34180000  0.95240000  0.35970000  1.0 0.1196896301
H  H14  1  0.04760000  0.65820000  0.85970000  1.0 0.1196896301
H  H15  1  0.65820000  0.04760000  0.64030000  1.0 0.1196896301
H  H16  1  0.95240000  0.34180000  0.14030000  1.0 0.1196896301
H  H17  1  0.67470000  0.03010000  0.12740000  1.0 0.1196896301
H  H18  1  0.96990000  0.32530000  0.62740000  1.0 0.1196896301
H  H19  1  0.32530000  0.96990000  0.87260000  1.0 0.1196896301
H  H20  1  0.03010000  0.67470000  0.37260000  1.0 0.1196896301
H  H21  1  0.61090000  0.07170000  0.17050000  1.0 0.1307765321
H  H22  1  0.92830000  0.38910000  0.67050000  1.0 0.1307765321
H  H23  1  0.38910000  0.92830000  0.82950000  1.0 0.1307765321
H  H24  1  0.07170000  0.61090000  0.32950000  1.0 0.1307765321
H  H25  1  0.48470000  0.88490000  0.30980000  1.0 0.1307765321
H  H26  1  0.11510000  0.51530000  0.80980000  1.0 0.1307765321
H  H27  1  0.51530000  0.11510000  0.69020000  1.0 0.1307765321
H  H28  1  0.88490000  0.48470000  0.19020000  1.0 0.1307765321
H  H29  1  0.55060000  0.84880000  0.25930000  1.0 0.1001929877
H  H30  1  0.15120000  0.44940000  0.75930000  1.0 0.1001929877
H  H31  1  0.44940000  0.15120000  0.74070000  1.0 0.1001929877
H  H32  1  0.84880000  0.55060000  0.24070000  1.0 0.1001929877
H  H33  1  0.23092000  0.43572000  0.20670000  1.0 0.1106230878
H  H34  1  0.56428000  0.76908000  0.70670000  1.0 0.1106230878
H  H35  1  0.76908000  0.56428000  0.79330000  1.0 0.1106230878
H  H36  1  0.43572000  0.23092000  0.29330000  1.0 0.1106230878
H  H37  1  0.35470000  0.54410000  0.21010000  1.0 0.1307765321
H  H38  1  0.45590000  0.64530000  0.71010000  1.0 0.1307765321
H  H39  1  0.64530000  0.45590000  0.78990000  1.0 0.1307765321
H  H40  1  0.54410000  0.35470000  0.28990000  1.0 0.1307765321
H  H41  1  0.31470000  0.60750000  0.00420000  1.0 0.1307765321
H  H42  1  0.39250000  0.68530000  0.50420000  1.0 0.1307765321
H  H43  1  0.68530000  0.39250000  0.99580000  1.0 0.1307765321
H  H44  1  0.60750000  0.31470000  0.49580000  1.0 0.1307765321
H  H45  1  0.19240000  0.49840000  0.00770000  1.0 0.1106230878
H  H46  1  0.50160000  0.80760000  0.50770000  1.0 0.1106230878
H  H47  1  0.80760000  0.50160000  0.99230000  1.0 0.1106230878
H  H48  1  0.49840000  0.19240000  0.49230000  1.0 0.1106230878
H  H49  1  0.59800000  0.73760000  0.17370000  1.0 0.1001929877
H  H50  1  0.26240000  0.40200000  0.67370000  1.0 0.1001929877
H  H51  1  0.40200000  0.26240000  0.82630000  1.0 0.1001929877
H  H52  1  0.73760000  0.59800000  0.32630000  1.0 0.1001929877
H  H53  1  0.47600000  0.62380000  0.16880000  1.0 0.1307765321
H  H54  1  0.37620000  0.52400000  0.66880000  1.0 0.1307765321
H  H55  1  0.52400000  0.37620000  0.83120000  1.0 0.1307765321
H  H56  1  0.62380000  0.47600000  0.33120000  1.0 0.1307765321
H  H57  1  0.40980000  0.72720000  0.04770000  1.0 0.1307765321
H  H58  1  0.27280000  0.59020000  0.54770000  1.0 0.1307765321
H  H59  1  0.59020000  0.27280000  0.95230000  1.0 0.1307765321
H  H60  1  0.72720000  0.40980000  0.45230000  1.0 0.1307765321
H  H61  1  0.53020000  0.83740000  0.05650000  1.0 0.1001929877
H  H62  1  0.16260000  0.46980000  0.55650000  1.0 0.1001929877
H  H63  1  0.46980000  0.16260000  0.94350000  1.0 0.1001929877
H  H64  1  0.83740000  0.53020000  0.44350000  1.0 0.1001929877
H  H65  1  0.84080000  0.63880000  0.02470000  1.0 0.1001929877
H  H66  1  0.36120000  0.15920000  0.52470000  1.0 0.1001929877
H  H67  1  0.15920000  0.36120000  0.97530000  1.0 0.1001929877
H  H68  1  0.63880000  0.84080000  0.47530000  1.0 0.1001929877
H  H69  1  0.79700000  0.69800000  0.08390000  1.0 0.1307765321
H  H70  1  0.30200000  0.20300000  0.58390000  1.0 0.1307765321
H  H71  1  0.20300000  0.30200000  0.91610000  1.0 0.1307765321
H  H72  1  0.69800000  0.79700000  0.41610000  1.0 0.1307765321
H  H73  1  0.87350000  0.83570000  0.89200000  1.0 0.1307765321
H  H74  1  0.16430000  0.12650000  0.39200000  1.0 0.1307765321
H  H75  1  0.12650000  0.16430000  0.10800000  1.0 0.1307765321
H  H76  1  0.83570000  0.87350000  0.60800000  1.0 0.1307765321
H  H77  1  0.91560000  0.77400000  0.84160000  1.0 0.1106230878
H  H78  1  0.22600000  0.08440000  0.34160000  1.0 0.1106230878
H  H79  1  0.08440000  0.22600000  0.15840000  1.0 0.1106230878
H  H80  1  0.77400000  0.91560000  0.65840000  1.0 0.1106230878
H  H81  1  0.92970000  0.11390000  0.53800000  1.0 0.1196896301
H  H82  1  0.88610000  0.07030000  0.03800000  1.0 0.1196896301
H  H83  1  0.07030000  0.88610000  0.46200000  1.0 0.1196896301
H  H84  1  0.11390000  0.92970000  0.96200000  1.0 0.1196896301
H  H85  1  0.99090000  0.07030000  0.58610000  1.0 0.1307765321
H  H86  1  0.92970000  0.00910000  0.08610000  1.0 0.1307765321
H  H87  1  0.00910000  0.92970000  0.41390000  1.0 0.1307765321
H  H88  1  0.07030000  0.99090000  0.91390000  1.0 0.1307765321
H  H89  1  0.95190000  0.97030000  0.37540000  1.0 0.1196896301
H  H90  1  0.02970000  0.04810000  0.87540000  1.0 0.1196896301
H  H91  1  0.04810000  0.02970000  0.62460000  1.0 0.1196896301
H  H92  1  0.97030000  0.95190000  0.12460000  1.0 0.1196896301
H  H93  1  0.88780000  0.01080000  0.33770000  1.0 0.1001929877
H  H94  1  0.98920000  0.11220000  0.83770000  1.0 0.1001929877
H  H95  1  0.11220000  0.98920000  0.66230000  1.0 0.1001929877
H  H96  1  0.01080000  0.88780000  0.16230000  1.0 0.1001929877
H  H97  1  0.75990000  0.84590000  0.19800000  1.0 0.1001929877
H  H98  1  0.15410000  0.24010000  0.69800000  1.0 0.1001929877
H  H99  1  0.24010000  0.15410000  0.80200000  1.0 0.1001929877
H  H100  1  0.84590000  0.75990000  0.30200000  1.0 0.1001929877
H  H101  1  0.81510000  0.79790000  0.14690000  1.0 0.1196896301
H  H102  1  0.20210000  0.18490000  0.64690000  1.0 0.1196896301
H  H103  1  0.18490000  0.20210000  0.85310000  1.0 0.1196896301
H  H104  1  0.79790000  0.81510000  0.35310000  1.0 0.1196896301
H  H105  1  0.77070000  0.83250000  0.92670000  1.0 0.1394402694
H  H106  1  0.16750000  0.22930000  0.42670000  1.0 0.1394402694
H  H107  1  0.22930000  0.16750000  0.07330000  1.0 0.1394402694
H  H108  1  0.83250000  0.77070000  0.57330000  1.0 0.1394402694
H  H109  1  0.71470000  0.87590000  0.98380000  1.0 0.1196896301
H  H110  1  0.12410000  0.28530000  0.48380000  1.0 0.1196896301
H  H111  1  0.28530000  0.12410000  0.01620000  1.0 0.1196896301
H  H112  1  0.87590000  0.71470000  0.51620000  1.0 0.1196896301
H  H113  1  0.87520000  0.22680000  0.23520000  1.0 0.1196896301
H  H114  1  0.77320000  0.12480000  0.73520000  1.0 0.1196896301
H  H115  1  0.12480000  0.77320000  0.76480000  1.0 0.1196896301
H  H116  1  0.22680000  0.87520000  0.26480000  1.0 0.1196896301
H  H117  1  0.89200000  0.24800000  0.32670000  1.0 0.1106230878
H  H118  1  0.75200000  0.10800000  0.82670000  1.0 0.1106230878
H  H119  1  0.10800000  0.75200000  0.67330000  1.0 0.1106230878
H  H120  1  0.24800000  0.89200000  0.17330000  1.0 0.1106230878
H  H121  1  0.75560000  0.11500000  0.26580000  1.0 0.1106230878
H  H122  1  0.88500000  0.24440000  0.76580000  1.0 0.1106230878
H  H123  1  0.24440000  0.88500000  0.73420000  1.0 0.1106230878
H  H124  1  0.11500000  0.75560000  0.23420000  1.0 0.1106230878
H  H125  1  0.76390000  0.18390000  0.30110000  1.0 0.1106230878
H  H126  1  0.81610000  0.23610000  0.80110000  1.0 0.1106230878
H  H127  1  0.23610000  0.81610000  0.69890000  1.0 0.1106230878
H  H128  1  0.18390000  0.76390000  0.19890000  1.0 0.1106230878
H  H129  1  0.65510000  0.05930000  0.41040000  1.0 0.1307765321
H  H130  1  0.94070000  0.34490000  0.91040000  1.0 0.1307765321
H  H131  1  0.34490000  0.94070000  0.58960000  1.0 0.1307765321
H  H132  1  0.05930000  0.65510000  0.08960000  1.0 0.1307765321
H  H133  1  0.67290000  0.02010000  0.34880000  1.0 0.1307765321
H  H134  1  0.97990000  0.32710000  0.84880000  1.0 0.1307765321
H  H135  1  0.32710000  0.97990000  0.65120000  1.0 0.1307765321
H  H136  1  0.02010000  0.67290000  0.15120000  1.0 0.1307765321
H  H137  1  0.73820000  0.15180000  0.48540000  1.0 0.1307765321
H  H138  1  0.84820000  0.26180000  0.98540000  1.0 0.1307765321
H  H139  1  0.26180000  0.84820000  0.51460000  1.0 0.1307765321
H  H140  1  0.15180000  0.73820000  0.01460000  1.0 0.1307765321
H  H141  1  0.79100000  0.22000000  0.42650000  1.0 0.1196896301
H  H142  1  0.78000000  0.20900000  0.92650000  1.0 0.1196896301
H  H143  1  0.20900000  0.78000000  0.57350000  1.0 0.1196896301
H  H144  1  0.22000000  0.79100000  0.07350000  1.0 0.1196896301
H  H145  1  0.98530000  0.24130000  0.36330000  1.0 0.1394402694
H  H146  1  0.75870000  0.01470000  0.86330000  1.0 0.1394402694
H  H147  1  0.01470000  0.75870000  0.63670000  1.0 0.1394402694
H  H148  1  0.24130000  0.98530000  0.13670000  1.0 0.1394402694
H  H149  1  0.99350000  0.18510000  0.32300000  1.0 0.1196896301
H  H150  1  0.81490000  0.00650000  0.82300000  1.0 0.1196896301
H  H151  1  0.00650000  0.81490000  0.67700000  1.0 0.1196896301
H  H152  1  0.18510000  0.99350000  0.17700000  1.0 0.1196896301
H  H153  1  0.87390000  0.13990000  0.17860000  1.0 0.1492910956
H  H154  1  0.86010000  0.12610000  0.67860000  1.0 0.1492910956
H  H155  1  0.12610000  0.86010000  0.82140000  1.0 0.1492910956
H  H156  1  0.13990000  0.87390000  0.32140000  1.0 0.1492910956
H  H157  1  0.91710000  0.11290000  0.21610000  1.0 0.1196896301
H  H158  1  0.88710000  0.08290000  0.71610000  1.0 0.1196896301
H  H159  1  0.08290000  0.88710000  0.78390000  1.0 0.1196896301
H  H160  1  0.11290000  0.91710000  0.28390000  1.0 0.1196896301
C  C1  1  0.48870000  0.10690000  0.30150000  1.0 0.0693547576
C  C2  1  0.89310000  0.51130000  0.80150000  1.0 0.0693547576
C  C3  1  0.51130000  0.89310000  0.69850000  1.0 0.0693547576
C  C4  1  0.10690000  0.48870000  0.19850000  1.0 0.0693547576
C  C5  1  0.52810000  0.08430000  0.27230000  1.0 -0.2078591254
C  C6  1  0.91570000  0.47190000  0.77230000  1.0 -0.2078591254
C  C7  1  0.47190000  0.91570000  0.72770000  1.0 -0.2078591254
C  C8  1  0.08430000  0.52810000  0.22770000  1.0 -0.2078591254
C  C9  1  0.49719000  0.00921000  0.27570000  1.0 0.1001929877
C  C10  1  0.99079000  0.50281000  0.77570000  1.0 0.1001929877
C  C11  1  0.50281000  0.99079000  0.72430000  1.0 0.1001929877
C  C12  1  0.00921000  0.49719000  0.22430000  1.0 0.1001929877
C  C13  1  0.42586000  0.95854000  0.30980000  1.0 -0.2002262838
C  C14  1  0.04146000  0.57414000  0.80980000  1.0 -0.2002262838
C  C15  1  0.57414000  0.04146000  0.69020000  1.0 -0.2002262838
C  C16  1  0.95854000  0.42586000  0.19020000  1.0 -0.2002262838
C  C17  1  0.38990000  0.98650000  0.33750000  1.0 0.0934636595
C  C18  1  0.01350000  0.61010000  0.83750000  1.0 0.0934636595
C  C19  1  0.61010000  0.01350000  0.66250000  1.0 0.0934636595
C  C20  1  0.98650000  0.38990000  0.16250000  1.0 0.0934636595
C  C21  1  0.63539000  0.00041000  0.16400000  1.0 0.1001929877
C  C22  1  0.99959000  0.36461000  0.66400000  1.0 0.1001929877
C  C23  1  0.36461000  0.99959000  0.83600000  1.0 0.1001929877
C  C24  1  0.00041000  0.63539000  0.33600000  1.0 0.1001929877
C  C25  1  0.59736000  0.02584000  0.18950000  1.0 -0.2002262838
C  C26  1  0.97416000  0.40264000  0.68950000  1.0 -0.2002262838
C  C27  1  0.40264000  0.97416000  0.81050000  1.0 -0.2002262838
C  C28  1  0.02584000  0.59736000  0.31050000  1.0 -0.2002262838
C  C29  1  0.53790000  0.98190000  0.24440000  1.0 0.1106230878
C  C30  1  0.01810000  0.46210000  0.74440000  1.0 0.1106230878
C  C31  1  0.46210000  0.01810000  0.75560000  1.0 0.1106230878
C  C32  1  0.98190000  0.53790000  0.25560000  1.0 0.1106230878
C  C33  1  0.52230000  0.91510000  0.27170000  1.0 -0.2002262838
C  C34  1  0.08490000  0.47770000  0.77170000  1.0 -0.2002262838
C  C35  1  0.47770000  0.08490000  0.72830000  1.0 -0.2002262838
C  C36  1  0.91510000  0.52230000  0.22830000  1.0 -0.2002262838
C  C37  1  0.56277000  0.89443000  0.24190000  1.0 0.0425249573
C  C38  1  0.10557000  0.43723000  0.74190000  1.0 0.0425249573
C  C39  1  0.43723000  0.10557000  0.75810000  1.0 0.0425249573
C  C40  1  0.89443000  0.56277000  0.25810000  1.0 0.0425249573
C  C41  1  0.24830000  0.47110000  0.16560000  1.0 0.0802103517
C  C42  1  0.52890000  0.75170000  0.66560000  1.0 0.0802103517
C  C43  1  0.75170000  0.52890000  0.83440000  1.0 0.0802103517
C  C44  1  0.47110000  0.24830000  0.33440000  1.0 0.0802103517
C  C45  1  0.32290000  0.53610000  0.16830000  1.0 -0.2002262838
C  C46  1  0.46390000  0.67710000  0.66830000  1.0 -0.2002262838
C  C47  1  0.67710000  0.46390000  0.83170000  1.0 -0.2002262838
C  C48  1  0.53610000  0.32290000  0.33170000  1.0 -0.2002262838
C  C49  1  0.34971000  0.58969000  0.10730000  1.0 0.1001929877
C  C50  1  0.41031000  0.65029000  0.60730000  1.0 0.1001929877
C  C51  1  0.65029000  0.41031000  0.89270000  1.0 0.1001929877
C  C52  1  0.58969000  0.34971000  0.39270000  1.0 0.1001929877
C  C53  1  0.29880000  0.57340000  0.04650000  1.0 -0.1881328847
C  C54  1  0.42660000  0.70120000  0.54650000  1.0 -0.1881328847
C  C55  1  0.70120000  0.42660000  0.95350000  1.0 -0.1881328847
C  C56  1  0.57340000  0.29880000  0.45350000  1.0 -0.1881328847
C  C57  1  0.22580000  0.50800000  0.04850000  1.0 0.03253835
C  C58  1  0.49200000  0.77420000  0.54850000  1.0 0.03253835
C  C59  1  0.77420000  0.49200000  0.95150000  1.0 0.03253835
C  C60  1  0.50800000  0.22580000  0.45150000  1.0 0.03253835
C  C61  1  0.55950000  0.73550000  0.14960000  1.0 0.0425249573
C  C62  1  0.26450000  0.44050000  0.64960000  1.0 0.0425249573
C  C63  1  0.44050000  0.26450000  0.85040000  1.0 0.0425249573
C  C64  1  0.73550000  0.55950000  0.35040000  1.0 0.0425249573
C  C65  1  0.48590000  0.66666667  0.14580000  1.0 -0.1881328847
C  C66  1  0.33333333  0.51410000  0.64580000  1.0 -0.1881328847
C  C67  1  0.51410000  0.33333333  0.85420000  1.0 -0.1881328847
C  C68  1  0.66666667  0.48590000  0.35420000  1.0 -0.1881328847
C  C69  1  0.42804000  0.66076000  0.10920000  1.0 0.0934636595
C  C70  1  0.33924000  0.57196000  0.60920000  1.0 0.0934636595
C  C71  1  0.57196000  0.33924000  0.89080000  1.0 0.0934636595
C  C72  1  0.66076000  0.42804000  0.39080000  1.0 0.0934636595
C  C73  1  0.44670000  0.72810000  0.07420000  1.0 -0.2002262838
C  C74  1  0.27190000  0.55330000  0.57420000  1.0 -0.2002262838
C  C75  1  0.55330000  0.27190000  0.92580000  1.0 -0.2002262838
C  C76  1  0.72810000  0.44670000  0.42580000  1.0 -0.2002262838
C  C77  1  0.51880000  0.79380000  0.08000000  1.0 0.0693547576
C  C78  1  0.20620000  0.48120000  0.58000000  1.0 0.0693547576
C  C79  1  0.48120000  0.20620000  0.92000000  1.0 0.0693547576
C  C80  1  0.79380000  0.51880000  0.42000000  1.0 0.0693547576
C  C81  1  0.84705000  0.67855000  0.99780000  1.0 0.1001929877
C  C82  1  0.32145000  0.15295000  0.49780000  1.0 0.1001929877
C  C83  1  0.15295000  0.32145000  0.00220000  1.0 0.1001929877
C  C84  1  0.67855000  0.84705000  0.50220000  1.0 0.1001929877
C  C85  1  0.82060000  0.71460000  0.03410000  1.0 -0.2002262838
C  C86  1  0.28540000  0.17940000  0.53410000  1.0 -0.2002262838
C  C87  1  0.17940000  0.28540000  0.96590000  1.0 -0.2002262838
C  C88  1  0.71460000  0.82060000  0.46590000  1.0 -0.2002262838
C  C89  1  0.82980000  0.77280000  0.99600000  1.0 0.1001929877
C  C90  1  0.22720000  0.17020000  0.49600000  1.0 0.1001929877
C  C91  1  0.17020000  0.22720000  0.00400000  1.0 0.1001929877
C  C92  1  0.77280000  0.82980000  0.50400000  1.0 0.1001929877
C  C93  1  0.86610000  0.79610000  0.92060000  1.0 -0.2078591254
C  C94  1  0.20390000  0.13390000  0.42060000  1.0 -0.2078591254
C  C95  1  0.13390000  0.20390000  0.07940000  1.0 -0.2078591254
C  C96  1  0.79610000  0.86610000  0.57940000  1.0 -0.2078591254
C  C97  1  0.89050000  0.75790000  0.89060000  1.0 0.0934636595
C  C98  1  0.24210000  0.10950000  0.39060000  1.0 0.0934636595
C  C99  1  0.10950000  0.24210000  0.10940000  1.0 0.0934636595
C  C100  1  0.75790000  0.89050000  0.60940000  1.0 0.0934636595
C  C101  1  0.93250000  0.08270000  0.50540000  1.0 0.0802103517
C  C102  1  0.91730000  0.06750000  0.00540000  1.0 0.0802103517
C  C103  1  0.06750000  0.91730000  0.49460000  1.0 0.0802103517
C  C104  1  0.08270000  0.93250000  0.99460000  1.0 0.0802103517
C  C105  1  0.97060000  0.05760000  0.53430000  1.0 -0.2078591254
C  C106  1  0.94240000  0.02940000  0.03430000  1.0 -0.2078591254
C  C107  1  0.02940000  0.94240000  0.46570000  1.0 -0.2078591254
C  C108  1  0.05760000  0.97060000  0.96570000  1.0 -0.2078591254
C  C109  1  0.97890000  0.01370000  0.48650000  1.0 0.0934636595
C  C110  1  0.98630000  0.02110000  0.98650000  1.0 0.0934636595
C  C111  1  0.02110000  0.98630000  0.51350000  1.0 0.0934636595
C  C112  1  0.01370000  0.97890000  0.01350000  1.0 0.0934636595
C  C113  1  0.94710000  0.99830000  0.41120000  1.0 -0.2078591254
C  C114  1  0.00170000  0.05290000  0.91120000  1.0 -0.2078591254
C  C115  1  0.05290000  0.00170000  0.58880000  1.0 -0.2078591254
C  C116  1  0.99830000  0.94710000  0.08880000  1.0 -0.2078591254
C  C117  1  0.90930000  0.02350000  0.38890000  1.0 0.0425249573
C  C118  1  0.97650000  0.09070000  0.88890000  1.0 0.0425249573
C  C119  1  0.09070000  0.97650000  0.61110000  1.0 0.0425249573
C  C120  1  0.02350000  0.90930000  0.11110000  1.0 0.0425249573
C  C121  1  0.76180000  0.84260000  0.14260000  1.0 0.0238567212
C  C122  1  0.15740000  0.23820000  0.64260000  1.0 0.0238567212
C  C123  1  0.23820000  0.15740000  0.85740000  1.0 0.03253835
C  C124  1  0.84260000  0.76180000  0.35740000  1.0 0.0238567212
C  C125  1  0.79510000  0.81370000  0.11190000  1.0 -0.2078591254
C  C126  1  0.18630000  0.20490000  0.61190000  1.0 -0.2078591254
C  C127  1  0.20490000  0.18630000  0.88810000  1.0 -0.2078591254
C  C128  1  0.81370000  0.79510000  0.38810000  1.0 -0.2078591254
C  C129  1  0.79910000  0.80770000  0.03090000  1.0 0.1001929877
C  C130  1  0.19230000  0.20090000  0.53090000  1.0 0.1001929877
C  C131  1  0.20090000  0.19230000  0.96910000  1.0 0.1001929877
C  C132  1  0.80770000  0.79910000  0.46910000  1.0 0.1001929877
C  C133  1  0.76860000  0.83360000  0.98240000  1.0 -0.2002262838
C  C134  1  0.16640000  0.23140000  0.48240000  1.0 -0.2002262838
C  C135  1  0.23140000  0.16640000  0.01760000  1.0 -0.2002262838
C  C136  1  0.83360000  0.76860000  0.51760000  1.0 -0.2002262838
C  C137  1  0.73590000  0.86050000  0.01740000  1.0 0.0693547576
C  C138  1  0.13950000  0.26410000  0.51740000  1.0 0.0693547576
C  C139  1  0.26410000  0.13950000  0.98260000  1.0 0.0693547576
C  C140  1  0.86050000  0.73590000  0.48260000  1.0 0.0693547576
C  C141  1  0.86572000  0.20608000  0.28910000  1.0 -0.132626238
C  C142  1  0.79392000  0.13428000  0.78910000  1.0 -0.132626238
C  C143  1  0.13428000  0.79392000  0.71090000  1.0 -0.132626238
C  C144  1  0.20608000  0.86572000  0.21090000  1.0 -0.132626238
C  C145  1  0.78229000  0.15511000  0.30540000  1.0 -0.1444562028
C  C146  1  0.84489000  0.21771000  0.80540000  1.0 -0.1444562028
C  C147  1  0.21771000  0.84489000  0.69460000  1.0 -0.1455746468
C  C148  1  0.15511000  0.78229000  0.19460000  1.0 -0.1455746468
C  C149  1  0.69012000  0.04968000  0.39770000  1.0 -0.2979715939
C  C150  1  0.95032000  0.30988000  0.89770000  1.0 -0.2979715939
C  C151  1  0.30988000  0.95032000  0.60230000  1.0 -0.2979715939
C  C152  1  0.04968000  0.69012000  0.10230000  1.0 -0.2979715939
C  C153  1  0.69289000  0.00651000  0.46630000  1.0 0.5943157051
C  C154  1  0.99349000  0.30711000  0.96630000  1.0 0.5943157051
C  C155  1  0.30711000  0.99349000  0.53370000  1.0 0.5943157051
C  C156  1  0.00651000  0.69289000  0.03370000  1.0 0.5943157051
C  C157  1  0.78280000  0.17660000  0.45180000  1.0 -0.2979715939
C  C158  1  0.82340000  0.21720000  0.95180000  1.0 -0.2979715939
C  C159  1  0.21720000  0.82340000  0.54820000  1.0 -0.2979715939
C  C160  1  0.17660000  0.78280000  0.04820000  1.0 -0.2979715939
C  C161  1  0.85000000  0.20440000  0.50440000  1.0 0.5810653021
C  C162  1  0.79560000  0.15000000  0.00440000  1.0 0.5810653021
C  C163  1  0.15000000  0.79560000  0.49560000  1.0 0.5810653021
C  C164  1  0.20440000  0.85000000  0.99560000  1.0 0.5810653021
C  C165  1  0.97743000  0.21537000  0.31350000  1.0 -0.2805098879
C  C166  1  0.78463000  0.02257000  0.81350000  1.0 -0.2805098879
C  C167  1  0.02257000  0.78463000  0.68650000  1.0 -0.2805098879
C  C168  1  0.21537000  0.97743000  0.18650000  1.0 -0.2805098879
C  C169  1  0.03063000  0.27557000  0.25150000  1.0 0.5605758999
C  C170  1  0.72443000  0.96937000  0.75150000  1.0 0.5605758999
C  C171  1  0.96937000  0.72443000  0.74850000  1.0 0.5605758999
C  C172  1  0.27557000  0.03063000  0.24850000  1.0 0.5605758999
C  C173  1  0.87640000  0.11540000  0.22510000  1.0 -0.2805098879
C  C174  1  0.88460000  0.12360000  0.72510000  1.0 -0.2805098879
C  C175  1  0.12360000  0.88460000  0.77490000  1.0 -0.2805098879
C  C176  1  0.11540000  0.87640000  0.27490000  1.0 -0.2805098879
C  C177  1  0.80186000  0.03494000  0.23170000  1.0 0.5810653021
C  C178  1  0.96506000  0.19814000  0.73170000  1.0 0.5810653021
C  C179  1  0.19814000  0.96506000  0.76830000  1.0 0.5810653021
C  C180  1  0.03494000  0.80186000  0.26830000  1.0 0.5810653021
N  N1  1  0.42027000  0.05873000  0.33400000  1.0 -0.2078591254
N  N2  1  0.94127000  0.57973000  0.83400000  1.0 -0.2078591254
N  N3  1  0.57973000  0.94127000  0.66600000  1.0 -0.2078591254
N  N4  1  0.05873000  0.42027000  0.16600000  1.0 -0.2078591254
N  N5  1  0.61900000  0.93640000  0.18880000  1.0 -0.2312389675
N  N6  1  0.06360000  0.38100000  0.68880000  1.0 -0.2312389675
N  N7  1  0.38100000  0.06360000  0.81120000  1.0 -0.2312389675
N  N8  1  0.93640000  0.61900000  0.31120000  1.0 -0.2312389675
N  N9  1  0.20051000  0.45629000  0.10860000  1.0 -0.2312389675
N  N10  1  0.54371000  0.79949000  0.60860000  1.0 -0.2312389675
N  N11  1  0.79949000  0.54371000  0.89140000  1.0 -0.2312389675
N  N12  1  0.45629000  0.20051000  0.39140000  1.0 -0.2312389675
N  N13  1  0.57471000  0.79929000  0.11780000  1.0 -0.2416599381
N  N14  1  0.20071000  0.42529000  0.61780000  1.0 -0.2416599381
N  N15  1  0.42529000  0.20071000  0.88220000  1.0 -0.2416599381
N  N16  1  0.79929000  0.57471000  0.38220000  1.0 -0.2416599381
N  N17  1  0.88018000  0.70022000  0.92710000  1.0 -0.2078591254
N  N18  1  0.29978000  0.11982000  0.42710000  1.0 -0.2078591254
N  N19  1  0.11982000  0.29978000  0.07290000  1.0 -0.2078591254
N  N20  1  0.70022000  0.88018000  0.57290000  1.0 -0.2078591254
N  N21  1  0.89996000  0.06484000  0.43400000  1.0 -0.2002262838
N  N22  1  0.93516000  0.10004000  0.93400000  1.0 -0.2002262838
N  N23  1  0.10004000  0.93516000  0.56600000  1.0 -0.2002262838
N  N24  1  0.06484000  0.89996000  0.06600000  1.0 -0.2002262838
N  N25  1  0.73206000  0.86634000  0.09580000  1.0 -0.2154925789
N  N26  1  0.13366000  0.26794000  0.59580000  1.0 -0.2154925789
N  N27  1  0.26794000  0.13366000  0.90420000  1.0 -0.2154925789
N  N28  1  0.86634000  0.73206000  0.40420000  1.0 -0.2154925789
N  N29  1  0.76697000  0.12183000  0.38670000  1.0 -0.025795638
N  N30  1  0.87817000  0.23303000  0.88670000  1.0 -0.025795638
N  N31  1  0.23303000  0.87817000  0.61330000  1.0 -0.025795638
N  N32  1  0.12183000  0.76697000  0.11330000  1.0 -0.0246131576
N  N33  1  0.89536000  0.16284000  0.29740000  1.0 -0.0530646394
N  N34  1  0.83716000  0.10464000  0.79740000  1.0 -0.0530646394
N  N35  1  0.10464000  0.83716000  0.70260000  1.0 -0.0530646394
N  N36  1  0.16284000  0.89536000  0.20260000  1.0 -0.0530646394
O  O1  1  0.75641000  0.02299000  0.48150000  1.0 -0.5205833342
O  O2  1  0.97701000  0.24359000  0.98150000  1.0 -0.5205833342
O  O3  1  0.24359000  0.97701000  0.51850000  1.0 -0.5205833342
O  O4  1  0.02299000  0.75641000  0.01850000  1.0 -0.5205833342
O  O5  1  0.63286000  0.95594000  0.50300000  1.0 -0.5990772769
O  O6  1  0.04406000  0.36714000  0.00300000  1.0 -0.5990772769
O  O7  1  0.36714000  0.04406000  0.49700000  1.0 -0.5990772769
O  O8  1  0.95594000  0.63286000  0.99700000  1.0 -0.5990772769
O  O9  1  0.89599000  0.19421000  0.48400000  1.0 -0.5381863291
O  O10  1  0.80579000  0.10401000  0.98400000  1.0 -0.5381863291
O  O11  1  0.10401000  0.80579000  0.51600000  1.0 -0.5381863291
O  O12  1  0.19421000  0.89599000  0.01600000  1.0 -0.5381863291
O  O13  1  0.85340000  0.23340000  0.56880000  1.0 -0.5698051478
O  O14  1  0.76660000  0.14660000  0.06880000  1.0 -0.5698051478
O  O15  1  0.14660000  0.76660000  0.43120000  1.0 -0.5698051478
O  O16  1  0.23340000  0.85340000  0.93120000  1.0 -0.5698051478
O  O17  1  0.00483000  0.27057000  0.18170000  1.0 -0.5381863291
O  O18  1  0.72943000  0.99517000  0.68170000  1.0 -0.5381863291
O  O19  1  0.99517000  0.72943000  0.81830000  1.0 -0.5381863291
O  O20  1  0.27057000  0.00483000  0.31830000  1.0 -0.5381863291
O  O21  1  0.09714000  0.32526000  0.27050000  1.0 -0.5990772769
O  O22  1  0.67474000  0.90286000  0.77050000  1.0 -0.5990772769
O  O23  1  0.90286000  0.67474000  0.72950000  1.0 -0.5990772769
O  O24  1  0.32526000  0.09714000  0.22950000  1.0 -0.5990772769
O  O25  1  0.77306000  0.00794000  0.29940000  1.0 -0.5990772769
O  O26  1  0.99206000  0.22694000  0.79940000  1.0 -0.5990772769
O  O27  1  0.22694000  0.99206000  0.70060000  1.0 -0.5990772769
O  O28  1  0.00794000  0.77306000  0.20060000  1.0 -0.5990772769
O  O29  1  0.77660000  0.00100000  0.16570000  1.0 -0.5205833342
O  O30  1  0.99900000  0.22340000  0.66570000  1.0 -0.5205833342
O  O31  1  0.22340000  0.99900000  0.83430000  1.0 -0.5257093336
O  O32  1  0.00100000  0.77660000  0.33430000  1.0 -0.5257093336
O  O33  1  0.68346000  0.95594000  0.01920000  1.0 -0.3580464448
O  O34  1  0.04406000  0.31654000  0.51920000  1.0 -0.3580464448
O  O35  1  0.31654000  0.04406000  0.98080000  1.0 -0.3580464448
O  O36  1  0.95594000  0.68346000  0.48080000  1.0 -0.3580464448
