# DDEC6 charges by PACMAN v1.1 (https://github.com/mtap-research/PACMAN-charge/)
data_UCUJOU_ASR_pacman
_symmetry_space_group_name_H-M   'P 1'
_cell_length_a   28.16800000
_cell_length_b   28.16800000
_cell_length_c   39.58170000
_cell_angle_alpha   53.48370000
_cell_angle_beta   126.51600000
_cell_angle_gamma   150.17000000
_symmetry_Int_Tables_number   1
_chemical_formula_structural   Zn4Mo12PH18C32(NO6)6
_chemical_formula_sum   'Zn16 Mo48 P4 H72 C128 N24 O144'
_cell_volume   12308.66606743
_cell_formula_units_Z   4
loop_
 _symmetry_equiv_pos_site_id
 _symmetry_equiv_pos_as_xyz
  1  'x, y, z'
loop_
 _atom_site_type_symbol
 _atom_site_label
 _atom_site_symmetry_multiplicity
 _atom_site_fract_x
 _atom_site_fract_y
 _atom_site_fract_z
 _atom_site_occupancy
 _atom_site_charge
Zn  Zn1  1  0.26804000  0.00984000  0.98523000  1.0 1.0108906752
Zn  Zn2  1  0.99016000  0.73196000  0.48523000  1.0 1.0108906752
Zn  Zn3  1  0.67468000  0.22334000  0.09381000  1.0 1.0156176961
Zn  Zn4  1  0.77666000  0.32532000  0.59381000  1.0 1.0156176961
Zn  Zn5  1  0.65220000  0.45360000  0.95615000  1.0 1.0021518446
Zn  Zn6  1  0.54640000  0.34780000  0.45615000  1.0 1.0021518446
Zn  Zn7  1  0.46578000  0.21996000  0.10630000  1.0 1.0108906752
Zn  Zn8  1  0.78004000  0.53422000  0.60630000  1.0 1.0108906752
Zn  Zn9  1  0.00984000  0.26804000  0.51477000  1.0 1.0108906752
Zn  Zn10  1  0.73196000  0.99016000  0.01477000  1.0 1.0108906752
Zn  Zn11  1  0.22334000  0.67468000  0.40619000  1.0 1.0156176961
Zn  Zn12  1  0.32532000  0.77666000  0.90619000  1.0 1.0156176961
Zn  Zn13  1  0.45360000  0.65220000  0.54385000  1.0 1.0021518446
Zn  Zn14  1  0.34780000  0.54640000  0.04385000  1.0 1.0021518446
Zn  Zn15  1  0.21996000  0.46578000  0.39370000  1.0 1.0108906752
Zn  Zn16  1  0.53422000  0.78004000  0.89370000  1.0 1.0108906752
Mo  Mo1  1  0.68920000  0.34196000  0.98721000  1.0 2.0423532701
Mo  Mo2  1  0.65804000  0.31080000  0.48721000  1.0 2.0423532701
Mo  Mo3  1  0.48062000  0.09366000  0.00748000  1.0 1.8498069919
Mo  Mo4  1  0.90634000  0.51938000  0.50748000  1.0 1.8498069919
Mo  Mo5  1  0.30103000  0.99633000  0.09034000  1.0 2.0542315221
Mo  Mo6  1  0.00367000  0.69897000  0.59034000  1.0 2.0542315221
Mo  Mo7  1  0.38805000  0.24305000  0.92900000  1.0 1.8699173606
Mo  Mo8  1  0.75695000  0.61195000  0.42900000  1.0 1.877191124
Mo  Mo9  1  0.28918000  0.12358000  0.01381000  1.0 2.0558813787
Mo  Mo10  1  0.87642000  0.71082000  0.51381000  1.0 2.0558813787
Mo  Mo11  1  0.79256000  0.45462000  0.05285000  1.0 2.0924009061
Mo  Mo12  1  0.54538000  0.20744000  0.55285000  1.0 2.0924009061
Mo  Mo13  1  0.46910000  0.23394000  0.92458000  1.0 1.7286326862
Mo  Mo14  1  0.76606000  0.53090000  0.42458000  1.0 1.7286326862
Mo  Mo15  1  0.41026000  0.99786000  0.07507000  1.0 1.8118230081
Mo  Mo16  1  0.00214000  0.58974000  0.57507000  1.0 1.8118230081
Mo  Mo17  1  0.68661000  0.31243000  0.13855000  1.0 1.8699173606
Mo  Mo18  1  0.68757000  0.31339000  0.63855000  1.0 1.8699173606
Mo  Mo19  1  0.52883000  0.12323000  0.15120000  1.0 1.8498069919
Mo  Mo20  1  0.87677000  0.47117000  0.65120000  1.0 1.8498069919
Mo  Mo21  1  0.50520000  0.37104000  0.00306000  1.0 1.877191124
Mo  Mo22  1  0.62896000  0.49480000  0.50306000  1.0 1.877191124
Mo  Mo23  1  0.67299000  0.45671000  0.05294000  1.0 1.8699173606
Mo  Mo24  1  0.54329000  0.32701000  0.55294000  1.0 1.8699173606
Mo  Mo25  1  0.34196000  0.68920000  0.51279000  1.0 2.0423532701
Mo  Mo26  1  0.31080000  0.65804000  0.01279000  1.0 2.0423532701
Mo  Mo27  1  0.09366000  0.48062000  0.49252000  1.0 1.8498069919
Mo  Mo28  1  0.51938000  0.90634000  0.99252000  1.0 1.8498069919
Mo  Mo29  1  0.99633000  0.30103000  0.40966000  1.0 2.0542315221
Mo  Mo30  1  0.69897000  0.00367000  0.90966000  1.0 2.0542315221
Mo  Mo31  1  0.24305000  0.38805000  0.57100000  1.0 1.8699173606
Mo  Mo32  1  0.61195000  0.75695000  0.07100000  1.0 1.877191124
Mo  Mo33  1  0.12358000  0.28918000  0.48619000  1.0 2.0558813787
Mo  Mo34  1  0.71082000  0.87642000  0.98619000  1.0 2.0558813787
Mo  Mo35  1  0.45462000  0.79256000  0.44715000  1.0 2.0924009061
Mo  Mo36  1  0.20744000  0.54538000  0.94715000  1.0 2.0924009061
Mo  Mo37  1  0.23394000  0.46910000  0.57542000  1.0 1.7249795175
Mo  Mo38  1  0.53090000  0.76606000  0.07542000  1.0 1.7286326862
Mo  Mo39  1  0.99786000  0.41026000  0.42493000  1.0 1.8118230081
Mo  Mo40  1  0.58974000  0.00214000  0.92493000  1.0 1.8118230081
Mo  Mo41  1  0.31243000  0.68661000  0.36145000  1.0 1.8628426171
Mo  Mo42  1  0.31339000  0.68757000  0.86145000  1.0 1.8628426171
Mo  Mo43  1  0.12323000  0.52883000  0.34880000  1.0 1.8498069919
Mo  Mo44  1  0.47117000  0.87677000  0.84880000  1.0 1.8498069919
Mo  Mo45  1  0.37104000  0.50520000  0.49694000  1.0 1.877191124
Mo  Mo46  1  0.49480000  0.62896000  0.99694000  1.0 1.877191124
Mo  Mo47  1  0.45671000  0.67299000  0.44706000  1.0 1.8699173606
Mo  Mo48  1  0.32701000  0.54329000  0.94706000  1.0 1.8699173606
P  P1  1  0.52021000  0.23099000  0.03615000  1.0 1.4023830271
P  P2  1  0.76901000  0.47979000  0.53615000  1.0 1.4023830271
P  P3  1  0.23099000  0.52021000  0.46385000  1.0 1.4023830271
P  P4  1  0.47979000  0.76901000  0.96385000  1.0 1.4023830271
H  H1  1  0.69310000  0.44750000  0.88480000  1.0 0.2404762185
H  H2  1  0.55250000  0.30690000  0.38480000  1.0 0.2404762185
H  H3  1  0.84660000  0.56840000  0.93370000  1.0 0.0817594207
H  H4  1  0.43160000  0.15340000  0.43370000  1.0 0.0817594207
H  H5  1  0.84620000  0.62800000  0.75410000  1.0 0.1002110569
H  H6  1  0.37200000  0.15380000  0.25410000  1.0 0.1002110569
H  H7  1  0.25980000  0.15140000  0.38740000  1.0 0.1002110569
H  H8  1  0.84860000  0.74020000  0.88740000  1.0 0.1002110569
H  H9  1  0.35570000  0.39510000  0.33290000  1.0 0.1002110569
H  H10  1  0.60490000  0.64430000  0.83290000  1.0 0.1002110569
H  H11  1  0.19980000  0.30360000  0.29580000  1.0 0.1002110569
H  H12  1  0.69640000  0.80020000  0.79580000  1.0 0.1002110569
H  H13  1  0.09880000  0.05460000  0.35930000  1.0 0.1002110569
H  H14  1  0.94540000  0.90120000  0.85930000  1.0 0.1002110569
H  H15  1  0.88840000  0.25100000  0.17030000  1.0 0.1002110569
H  H16  1  0.74900000  0.11160000  0.67030000  1.0 0.1002110569
H  H17  1  0.57990000  0.32570000  0.72000000  1.0 0.1002110569
H  H18  1  0.67430000  0.42010000  0.22000000  1.0 0.1002110569
H  H19  1  0.58750000  0.33850000  0.77560000  1.0 0.1062463983
H  H20  1  0.66150000  0.41250000  0.27560000  1.0 0.1062463983
H  H21  1  0.83560000  0.61300000  0.69920000  1.0 0.1002110569
H  H22  1  0.38700000  0.16440000  0.19920000  1.0 0.1002110569
H  H23  1  0.64180000  0.96860000  0.21170000  1.0 0.1002110569
H  H24  1  0.03140000  0.35820000  0.71170000  1.0 0.1002110569
H  H25  1  0.94630000  0.97590000  0.32360000  1.0 0.2404762185
H  H26  1  0.02410000  0.05370000  0.82360000  1.0 0.2404762185
H  H27  1  0.96550000  0.22170000  0.20720000  1.0 0.1002110569
H  H28  1  0.77830000  0.03450000  0.70720000  1.0 0.1002110569
H  H29  1  0.73220000  0.95300000  0.25180000  1.0 0.1002110569
H  H30  1  0.04700000  0.26780000  0.75180000  1.0 0.1002110569
H  H31  1  0.96550000  0.69650000  0.96780000  1.0 0.1062463983
H  H32  1  0.30350000  0.03450000  0.46780000  1.0 0.1062463983
H  H33  1  0.91290000  0.75250000  0.82120000  1.0 0.1171906567
H  H34  1  0.24750000  0.08710000  0.32120000  1.0 0.1171906567
H  H35  1  0.03140000  0.87800000  0.85080000  1.0 0.1002110569
H  H36  1  0.12200000  0.96860000  0.35080000  1.0 0.1002110569
H  H37  1  0.44750000  0.69310000  0.61520000  1.0 0.2404762185
H  H38  1  0.30690000  0.55250000  0.11520000  1.0 0.2404762185
H  H39  1  0.56840000  0.84660000  0.56630000  1.0 0.0817594207
H  H40  1  0.15340000  0.43160000  0.06630000  1.0 0.0817594207
H  H41  1  0.62800000  0.84620000  0.74590000  1.0 0.1002110569
H  H42  1  0.15380000  0.37200000  0.24590000  1.0 0.1002110569
H  H43  1  0.15140000  0.25980000  0.11260000  1.0 0.1002110569
H  H44  1  0.74020000  0.84860000  0.61260000  1.0 0.1002110569
H  H45  1  0.39510000  0.35570000  0.16710000  1.0 0.1002110569
H  H46  1  0.64430000  0.60490000  0.66710000  1.0 0.1002110569
H  H47  1  0.30360000  0.19980000  0.20420000  1.0 0.1002110569
H  H48  1  0.80020000  0.69640000  0.70420000  1.0 0.1002110569
H  H49  1  0.05460000  0.09880000  0.14070000  1.0 0.1002110569
H  H50  1  0.90120000  0.94540000  0.64070000  1.0 0.1002110569
H  H51  1  0.25100000  0.88840000  0.32970000  1.0 0.1002110569
H  H52  1  0.11160000  0.74900000  0.82970000  1.0 0.1002110569
H  H53  1  0.32570000  0.57990000  0.78000000  1.0 0.1002110569
H  H54  1  0.42010000  0.67430000  0.28000000  1.0 0.1002110569
H  H55  1  0.33850000  0.58750000  0.72440000  1.0 0.1062463983
H  H56  1  0.41250000  0.66150000  0.22440000  1.0 0.1062463983
H  H57  1  0.61300000  0.83560000  0.80080000  1.0 0.1002110569
H  H58  1  0.16440000  0.38700000  0.30080000  1.0 0.1002110569
H  H59  1  0.96860000  0.64180000  0.28830000  1.0 0.1002110569
H  H60  1  0.35820000  0.03140000  0.78830000  1.0 0.1002110569
H  H61  1  0.97590000  0.94630000  0.17640000  1.0 0.2404762185
H  H62  1  0.05370000  0.02410000  0.67640000  1.0 0.2404762185
H  H63  1  0.22170000  0.96550000  0.29280000  1.0 0.1002110569
H  H64  1  0.03450000  0.77830000  0.79280000  1.0 0.1002110569
H  H65  1  0.95300000  0.73220000  0.24820000  1.0 0.1002110569
H  H66  1  0.26780000  0.04700000  0.74820000  1.0 0.1002110569
H  H67  1  0.69650000  0.96550000  0.53220000  1.0 0.1062463983
H  H68  1  0.03450000  0.30350000  0.03220000  1.0 0.1062463983
H  H69  1  0.75250000  0.91290000  0.67880000  1.0 0.1171906567
H  H70  1  0.08710000  0.24750000  0.17880000  1.0 0.1171906567
H  H71  1  0.87800000  0.03140000  0.64920000  1.0 0.1002110569
H  H72  1  0.96860000  0.12200000  0.14920000  1.0 0.1002110569
C  C1  1  0.72790000  0.49830000  0.80710000  1.0 0.2485272563
C  C2  1  0.50170000  0.27210000  0.30710000  1.0 0.2485272563
C  C3  1  0.88330000  0.63090000  0.91760000  1.0 -0.1584334099
C  C4  1  0.36910000  0.11670000  0.41760000  1.0 -0.1584334099
C  C5  1  0.71530000  0.48350000  0.77200000  1.0 0.0138369431
C  C6  1  0.51650000  0.28470000  0.27200000  1.0 0.0138369431
C  C7  1  0.79180000  0.56700000  0.74720000  1.0 -0.1409437494
C  C8  1  0.43300000  0.20820000  0.24720000  1.0 -0.1409437494
C  C9  1  0.79440000  0.56980000  0.85120000  1.0 0.2404762185
C  C10  1  0.43020000  0.20560000  0.35120000  1.0 0.2404762185
C  C11  1  0.86490000  0.64690000  0.87270000  1.0 -0.007651798
C  C12  1  0.35310000  0.13510000  0.37270000  1.0 -0.007651798
C  C13  1  0.03200000  0.11360000  0.30140000  1.0 0.2404762185
C  C14  1  0.88640000  0.96800000  0.80140000  1.0 0.2404762185
C  C15  1  0.13120000  0.16920000  0.32220000  1.0 0.0138369431
C  C16  1  0.83080000  0.86880000  0.82220000  1.0 0.0138369431
C  C17  1  0.24560000  0.18020000  0.37080000  1.0 -0.0996575335
C  C18  1  0.81980000  0.75440000  0.87080000  1.0 -0.0996575335
C  C19  1  0.30450000  0.32790000  0.33690000  1.0 -0.0996575335
C  C20  1  0.67210000  0.69550000  0.83690000  1.0 -0.0996575335
C  C21  1  0.21160000  0.27260000  0.31560000  1.0 -0.1517629144
C  C22  1  0.72740000  0.78840000  0.81560000  1.0 -0.1517629144
C  C23  1  0.31920000  0.27720000  0.36560000  1.0 -0.0738307857
C  C24  1  0.72280000  0.68080000  0.86560000  1.0 -0.0738307857
C  C25  1  0.41670000  0.33333333  0.38990000  1.0 0.5114511079
C  C26  1  0.66666667  0.58330000  0.88990000  1.0 0.5114511079
C  C27  1  0.14960000  0.12200000  0.35230000  1.0 -0.1916163587
C  C28  1  0.87800000  0.85040000  0.85230000  1.0 -0.1916163587
C  C29  1  0.91350000  0.07750000  0.26510000  1.0 0.2659449331
C  C30  1  0.92250000  0.08650000  0.76510000  1.0 0.2659449331
C  C31  1  0.75410000  0.11150000  0.18350000  1.0 -0.0767765926
C  C32  1  0.88850000  0.24590000  0.68350000  1.0 -0.0767765926
C  C33  1  0.85420000  0.18880000  0.18550000  1.0 -0.1111777436
C  C34  1  0.81120000  0.14580000  0.68550000  1.0 -0.1111777436
C  C35  1  0.63310000  0.38650000  0.72670000  1.0 -0.089966523
C  C36  1  0.61350000  0.36690000  0.22670000  1.0 -0.089966523
C  C37  1  0.63780000  0.39440000  0.76040000  1.0 -0.1517629144
C  C38  1  0.60560000  0.36220000  0.26040000  1.0 -0.1517629144
C  C39  1  0.78580000  0.55800000  0.71470000  1.0 -0.089966523
C  C40  1  0.44200000  0.21420000  0.21470000  1.0 -0.089966523
C  C41  1  0.01590000  0.80310000  0.91290000  1.0 -0.0640841895
C  C42  1  0.19690000  0.98410000  0.41290000  1.0 -0.0640841895
C  C43  1  0.70670000  0.02090000  0.21040000  1.0 -0.0996575335
C  C44  1  0.97910000  0.29330000  0.71040000  1.0 -0.0996575335
C  C45  1  0.09820000  0.88560000  0.93390000  1.0 0.5001582395
C  C46  1  0.11440000  0.90180000  0.43390000  1.0 0.5001582395
C  C47  1  0.90280000  0.17360000  0.20980000  1.0 -0.1409437494
C  C48  1  0.82640000  0.09720000  0.70980000  1.0 -0.1409437494
C  C49  1  0.76250000  0.01330000  0.23530000  1.0 -0.1409437494
C  C50  1  0.98670000  0.23750000  0.73530000  1.0 -0.1409437494
C  C51  1  0.70490000  0.13030000  0.15730000  1.0 0.5114511079
C  C52  1  0.86970000  0.29510000  0.65730000  1.0 0.5114511079
C  C53  1  0.85860000  0.09060000  0.23620000  1.0 0.0214366479
C  C54  1  0.90940000  0.14140000  0.73620000  1.0 0.0214366479
C  C55  1  0.95640000  0.70760000  0.93850000  1.0 -0.1210962967
C  C56  1  0.29240000  0.04360000  0.43850000  1.0 -0.1210962967
C  C57  1  0.92430000  0.74130000  0.85080000  1.0 -0.1252261722
C  C58  1  0.25870000  0.07570000  0.35080000  1.0 -0.1252261722
C  C59  1  0.70480000  0.46580000  0.70340000  1.0 -0.1111777436
C  C60  1  0.53420000  0.29520000  0.20340000  1.0 -0.1111777436
C  C61  1  0.70460000  0.45980000  0.67040000  1.0 0.5001582395
C  C62  1  0.54020000  0.29540000  0.17040000  1.0 0.4943718291
C  C63  1  0.99530000  0.81670000  0.86790000  1.0 -0.1111777436
C  C64  1  0.18330000  0.00470000  0.36790000  1.0 -0.1111777436
C  C65  1  0.49830000  0.72790000  0.69290000  1.0 0.2485272563
C  C66  1  0.27210000  0.50170000  0.19290000  1.0 0.2485272563
C  C67  1  0.63090000  0.88330000  0.58240000  1.0 -0.1584334099
C  C68  1  0.11670000  0.36910000  0.08240000  1.0 -0.1584334099
C  C69  1  0.48350000  0.71530000  0.72800000  1.0 0.0138369431
C  C70  1  0.28470000  0.51650000  0.22800000  1.0 0.0138369431
C  C71  1  0.56700000  0.79180000  0.75280000  1.0 -0.1409437494
C  C72  1  0.20820000  0.43300000  0.25280000  1.0 -0.1409437494
C  C73  1  0.56980000  0.79440000  0.64880000  1.0 0.2404762185
C  C74  1  0.20560000  0.43020000  0.14880000  1.0 0.2404762185
C  C75  1  0.64690000  0.86490000  0.62730000  1.0 -0.007651798
C  C76  1  0.13510000  0.35310000  0.12730000  1.0 -0.007651798
C  C77  1  0.11360000  0.03200000  0.19860000  1.0 0.2404762185
C  C78  1  0.96800000  0.88640000  0.69860000  1.0 0.2404762185
C  C79  1  0.16920000  0.13120000  0.17780000  1.0 0.0138369431
C  C80  1  0.86880000  0.83080000  0.67780000  1.0 0.0138369431
C  C81  1  0.18020000  0.24560000  0.12920000  1.0 -0.0996575335
C  C82  1  0.75440000  0.81980000  0.62920000  1.0 -0.0996575335
C  C83  1  0.32790000  0.30450000  0.16310000  1.0 -0.0996575335
C  C84  1  0.69550000  0.67210000  0.66310000  1.0 -0.0996575335
C  C85  1  0.27260000  0.21160000  0.18440000  1.0 -0.1517629144
C  C86  1  0.78840000  0.72740000  0.68440000  1.0 -0.1517629144
C  C87  1  0.27720000  0.31920000  0.13440000  1.0 -0.0738307857
C  C88  1  0.68080000  0.72280000  0.63440000  1.0 -0.0738307857
C  C89  1  0.33333333  0.41670000  0.11010000  1.0 0.5114511079
C  C90  1  0.58330000  0.66666667  0.61010000  1.0 0.5114511079
C  C91  1  0.12200000  0.14960000  0.14770000  1.0 -0.1916163587
C  C92  1  0.85040000  0.87800000  0.64770000  1.0 -0.1916163587
C  C93  1  0.07750000  0.91350000  0.23490000  1.0 0.2659449331
C  C94  1  0.08650000  0.92250000  0.73490000  1.0 0.2659449331
C  C95  1  0.11150000  0.75410000  0.31650000  1.0 -0.0767765926
C  C96  1  0.24590000  0.88850000  0.81650000  1.0 -0.0767765926
C  C97  1  0.18880000  0.85420000  0.31450000  1.0 -0.1111777436
C  C98  1  0.14580000  0.81120000  0.81450000  1.0 -0.1111777436
C  C99  1  0.38650000  0.63310000  0.77330000  1.0 -0.089966523
C  C100  1  0.36690000  0.61350000  0.27330000  1.0 -0.089966523
C  C101  1  0.39440000  0.63780000  0.73960000  1.0 -0.1517629144
C  C102  1  0.36220000  0.60560000  0.23960000  1.0 -0.1517629144
C  C103  1  0.55800000  0.78580000  0.78530000  1.0 -0.089966523
C  C104  1  0.21420000  0.44200000  0.28530000  1.0 -0.089966523
C  C105  1  0.80310000  0.01590000  0.58710000  1.0 -0.0640841895
C  C106  1  0.98410000  0.19690000  0.08710000  1.0 -0.0640841895
C  C107  1  0.02090000  0.70670000  0.28960000  1.0 -0.0996575335
C  C108  1  0.29330000  0.97910000  0.78960000  1.0 -0.0996575335
C  C109  1  0.88560000  0.09820000  0.56610000  1.0 0.5001582395
C  C110  1  0.90180000  0.11440000  0.06610000  1.0 0.5001582395
C  C111  1  0.17360000  0.90280000  0.29020000  1.0 -0.1409437494
C  C112  1  0.09720000  0.82640000  0.79020000  1.0 -0.1409437494
C  C113  1  0.01330000  0.76250000  0.26470000  1.0 -0.1409437494
C  C114  1  0.23750000  0.98670000  0.76470000  1.0 -0.1409437494
C  C115  1  0.13030000  0.70490000  0.34270000  1.0 0.5114511079
C  C116  1  0.29510000  0.86970000  0.84270000  1.0 0.5114511079
C  C117  1  0.09060000  0.85860000  0.26380000  1.0 0.0214366479
C  C118  1  0.14140000  0.90940000  0.76380000  1.0 0.0214366479
C  C119  1  0.70760000  0.95640000  0.56150000  1.0 -0.1210962967
C  C120  1  0.04360000  0.29240000  0.06150000  1.0 -0.1210962967
C  C121  1  0.74130000  0.92430000  0.64920000  1.0 -0.1252261722
C  C122  1  0.07570000  0.25870000  0.14920000  1.0 -0.1252261722
C  C123  1  0.46580000  0.70480000  0.79660000  1.0 -0.1111777436
C  C124  1  0.29520000  0.53420000  0.29660000  1.0 -0.1111777436
C  C125  1  0.45980000  0.70460000  0.82960000  1.0 0.5001582395
C  C126  1  0.29540000  0.54020000  0.32960000  1.0 0.5001582395
C  C127  1  0.81670000  0.99530000  0.63210000  1.0 -0.1111777436
C  C128  1  0.00470000  0.18330000  0.13210000  1.0 -0.1111777436
N  N1  1  0.71450000  0.47450000  0.86280000  1.0 -0.1210962967
N  N2  1  0.52550000  0.28550000  0.36280000  1.0 -0.1210962967
N  N3  1  0.80400000  0.58340000  0.81690000  1.0 -0.3764293515
N  N4  1  0.41660000  0.19600000  0.31690000  1.0 -0.3764293515
N  N5  1  0.67130000  0.42530000  0.83620000  1.0 -0.2486438626
N  N6  1  0.57470000  0.32870000  0.33620000  1.0 -0.2486438626
N  N7  1  0.00990000  0.15290000  0.27220000  1.0 -0.4148621582
N  N8  1  0.84710000  0.99010000  0.77220000  1.0 -0.4148621582
N  N9  1  0.94920000  0.01620000  0.30780000  1.0 -0.1409437494
N  N10  1  0.98380000  0.05080000  0.80780000  1.0 -0.1409437494
N  N11  1  0.87110000  0.99050000  0.28580000  1.0 -0.2780199819
N  N12  1  0.00950000  0.12890000  0.78580000  1.0 -0.2780199819
N  N13  1  0.47450000  0.71450000  0.63720000  1.0 -0.1210962967
N  N14  1  0.28550000  0.52550000  0.13720000  1.0 -0.1210962967
N  N15  1  0.58340000  0.80400000  0.68310000  1.0 -0.3764293515
N  N16  1  0.19600000  0.41660000  0.18310000  1.0 -0.3764293515
N  N17  1  0.42530000  0.67130000  0.66380000  1.0 -0.2486438626
N  N18  1  0.32870000  0.57470000  0.16380000  1.0 -0.2486438626
N  N19  1  0.15290000  0.00990000  0.22780000  1.0 -0.4148621582
N  N20  1  0.99010000  0.84710000  0.72780000  1.0 -0.4148621582
N  N21  1  0.01620000  0.94920000  0.19220000  1.0 -0.1409437494
N  N22  1  0.05080000  0.98380000  0.69220000  1.0 -0.1409437494
N  N23  1  0.99050000  0.87110000  0.21420000  1.0 -0.2780199819
N  N24  1  0.12890000  0.00950000  0.71420000  1.0 -0.2780199819
O  O1  1  0.46630000  0.13490000  0.07010000  1.0 -0.8901294295
O  O2  1  0.86510000  0.53370000  0.57010000  1.0 -0.8901294295
O  O3  1  0.53580000  0.23000000  0.00480000  1.0 -0.9031576478
O  O4  1  0.77000000  0.46420000  0.50480000  1.0 -0.9031576478
O  O5  1  0.64390000  0.21590000  0.13150000  1.0 -0.9122087606
O  O6  1  0.78410000  0.35610000  0.63150000  1.0 -0.9122087606
O  O7  1  0.45660000  0.23720000  0.00940000  1.0 -0.8901294295
O  O8  1  0.76280000  0.54340000  0.50940000  1.0 -0.8901294295
O  O9  1  0.61820000  0.31960000  0.05810000  1.0 -0.9031576478
O  O10  1  0.68040000  0.38180000  0.55810000  1.0 -0.9031576478
O  O11  1  0.54260000  0.10780000  0.06740000  1.0 -0.9122087606
O  O12  1  0.89220000  0.45740000  0.56740000  1.0 -0.9122087606
O  O13  1  0.72730000  0.43950000  0.99280000  1.0 -0.9824325018
O  O14  1  0.56050000  0.27270000  0.49280000  1.0 -0.9824325018
O  O15  1  0.52070000  0.33910000  0.92960000  1.0 -0.8901294295
O  O16  1  0.66090000  0.47930000  0.42960000  1.0 -0.8901294295
O  O17  1  0.73410000  0.34110000  0.04960000  1.0 -1.0109267258
O  O18  1  0.65890000  0.26590000  0.54960000  1.0 -1.0109267258
O  O19  1  0.26720000  0.02720000  0.02690000  1.0 -0.9909211122
O  O20  1  0.97280000  0.73280000  0.52690000  1.0 -0.9909211122
O  O21  1  0.36050000  0.01610000  0.01400000  1.0 -0.9122087606
O  O22  1  0.98390000  0.63950000  0.51400000  1.0 -0.9122087606
O  O23  1  0.35360000  0.13660000  0.94500000  1.0 -0.9031576478
O  O24  1  0.86340000  0.64640000  0.44500000  1.0 -0.9031576478
O  O25  1  0.38930000  0.03190000  0.14070000  1.0 -0.8793806308
O  O26  1  0.96810000  0.61070000  0.64070000  1.0 -0.8793806308
O  O27  1  0.62260000  0.45020000  0.99250000  1.0 -0.9031576478
O  O28  1  0.54980000  0.37740000  0.49250000  1.0 -0.9031576478
O  O29  1  0.79450000  0.40850000  0.10980000  1.0 -0.8588881318
O  O30  1  0.59150000  0.20550000  0.60980000  1.0 -0.8588881318
O  O31  1  0.45340000  0.13600000  0.94870000  1.0 -0.8588881318
O  O32  1  0.86400000  0.54660000  0.44870000  1.0 -0.8588881318
O  O33  1  0.62330000  0.22310000  0.99910000  1.0 -0.8495660075
O  O34  1  0.77690000  0.37670000  0.49910000  1.0 -0.8495660075
O  O35  1  0.74620000  0.20780000  0.12760000  1.0 -0.56176539
O  O36  1  0.79220000  0.25380000  0.62760000  1.0 -0.56176539
O  O37  1  0.55490000  0.22210000  0.13760000  1.0 -0.9031576478
O  O38  1  0.77790000  0.44510000  0.63760000  1.0 -0.9031576478
O  O39  1  0.44610000  0.35110000  0.94050000  1.0 -0.9824325018
O  O40  1  0.64890000  0.55390000  0.44050000  1.0 -0.9824325018
O  O41  1  0.78200000  0.51620000  0.04470000  1.0 -0.8588881318
O  O42  1  0.48380000  0.21800000  0.54470000  1.0 -0.8588881318
O  O43  1  0.28160000  0.14820000  0.95890000  1.0 -0.8317086124
O  O44  1  0.85180000  0.71840000  0.45890000  1.0 -0.8317086124
O  O45  1  0.34530000  0.11010000  0.07650000  1.0 -1.0010104054
O  O46  1  0.88990000  0.65470000  0.57650000  1.0 -1.0010104054
O  O47  1  0.29740000  0.93760000  0.08220000  1.0 -0.8495660075
O  O48  1  0.06240000  0.70260000  0.58220000  1.0 -0.8495660075
O  O49  1  0.47650000  0.02170000  0.13680000  1.0 -0.9700270617
O  O50  1  0.97830000  0.52350000  0.63680000  1.0 -0.9700270617
O  O51  1  0.54420000  0.34500000  0.06510000  1.0 -0.9122087606
O  O52  1  0.65500000  0.45580000  0.56510000  1.0 -0.9122087606
O  O53  1  0.43110000  0.29110000  0.41220000  1.0 -0.5362627827
O  O54  1  0.70890000  0.56890000  0.91220000  1.0 -0.5362627827
O  O55  1  0.37160000  0.24720000  0.01380000  1.0 -0.9171622568
O  O56  1  0.75280000  0.62840000  0.51380000  1.0 -0.9171622568
O  O57  1  0.61180000  0.33120000  0.93530000  1.0 -0.8793806308
O  O58  1  0.66880000  0.38820000  0.43530000  1.0 -0.8793806308
O  O59  1  0.70900000  0.41520000  0.11770000  1.0 -0.9581326419
O  O60  1  0.58480000  0.29100000  0.61770000  1.0 -0.9581326419
O  O61  1  0.76970000  0.54050000  0.64640000  1.0 -0.5700759315
O  O62  1  0.45950000  0.23030000  0.14640000  1.0 -0.5700759315
O  O63  1  0.62120000  0.06480000  0.16050000  1.0 -0.4723192402
O  O64  1  0.93520000  0.37880000  0.66050000  1.0 -0.4723192402
O  O65  1  0.14690000  0.88490000  0.96990000  1.0 -0.5250185155
O  O66  1  0.11510000  0.85310000  0.46990000  1.0 -0.5237376416
O  O67  1  0.48250000  0.41990000  0.38990000  1.0 -0.4615470194
O  O68  1  0.58010000  0.51750000  0.88990000  1.0 -0.4615470194
O  O69  1  0.12720000  0.96000000  0.91700000  1.0 -0.5237376416
O  O70  1  0.04000000  0.87280000  0.41700000  1.0 -0.5237376416
O  O71  1  0.63780000  0.37820000  0.66240000  1.0 -0.4723192402
O  O72  1  0.62180000  0.36220000  0.16240000  1.0 -0.4723192402
O  O73  1  0.13490000  0.46630000  0.42990000  1.0 -0.8901294295
O  O74  1  0.53370000  0.86510000  0.92990000  1.0 -0.8901294295
O  O75  1  0.23000000  0.53580000  0.49520000  1.0 -0.9031576478
O  O76  1  0.46420000  0.77000000  0.99520000  1.0 -0.9031576478
O  O77  1  0.21590000  0.64390000  0.36850000  1.0 -0.9122087606
O  O78  1  0.35610000  0.78410000  0.86850000  1.0 -0.9122087606
O  O79  1  0.23720000  0.45660000  0.49060000  1.0 -0.8901294295
O  O80  1  0.54340000  0.76280000  0.99060000  1.0 -0.8901294295
O  O81  1  0.31960000  0.61820000  0.44190000  1.0 -0.9031576478
O  O82  1  0.38180000  0.68040000  0.94190000  1.0 -0.9031576478
O  O83  1  0.10780000  0.54260000  0.43260000  1.0 -0.9122087606
O  O84  1  0.45740000  0.89220000  0.93260000  1.0 -0.9122087606
O  O85  1  0.43950000  0.72730000  0.50720000  1.0 -0.9824325018
O  O86  1  0.27270000  0.56050000  0.00720000  1.0 -0.9824325018
O  O87  1  0.33910000  0.52070000  0.57040000  1.0 -0.8901294295
O  O88  1  0.47930000  0.66090000  0.07040000  1.0 -0.8901294295
O  O89  1  0.34110000  0.73410000  0.45040000  1.0 -1.0109267258
O  O90  1  0.26590000  0.65890000  0.95040000  1.0 -1.0109267258
O  O91  1  0.02720000  0.26720000  0.47310000  1.0 -0.9909211122
O  O92  1  0.73280000  0.97280000  0.97310000  1.0 -0.9909211122
O  O93  1  0.01610000  0.36050000  0.48600000  1.0 -0.9122087606
O  O94  1  0.63950000  0.98390000  0.98600000  1.0 -0.9122087606
O  O95  1  0.13660000  0.35360000  0.55500000  1.0 -0.9031576478
O  O96  1  0.64640000  0.86340000  0.05500000  1.0 -0.9031576478
O  O97  1  0.03190000  0.38930000  0.35930000  1.0 -0.8793806308
O  O98  1  0.61070000  0.96810000  0.85930000  1.0 -0.8793806308
O  O99  1  0.45020000  0.62260000  0.50750000  1.0 -0.9031576478
O  O100  1  0.37740000  0.54980000  0.00750000  1.0 -0.9031576478
O  O101  1  0.40850000  0.79450000  0.39020000  1.0 -0.8588881318
O  O102  1  0.20550000  0.59150000  0.89020000  1.0 -0.8588881318
O  O103  1  0.13600000  0.45340000  0.55130000  1.0 -0.8588881318
O  O104  1  0.54660000  0.86400000  0.05130000  1.0 -0.8588881318
O  O105  1  0.22310000  0.62330000  0.50090000  1.0 -0.8495660075
O  O106  1  0.37670000  0.77690000  0.00090000  1.0 -0.8495660075
O  O107  1  0.20780000  0.74620000  0.37240000  1.0 -0.56176539
O  O108  1  0.25380000  0.79220000  0.87240000  1.0 -0.56176539
O  O109  1  0.22210000  0.55490000  0.36240000  1.0 -0.9031576478
O  O110  1  0.44510000  0.77790000  0.86240000  1.0 -0.9031576478
O  O111  1  0.35110000  0.44610000  0.55950000  1.0 -0.9824325018
O  O112  1  0.55390000  0.64890000  0.05950000  1.0 -0.9824325018
O  O113  1  0.51620000  0.78200000  0.45530000  1.0 -0.8588881318
O  O114  1  0.21800000  0.48380000  0.95530000  1.0 -0.8588881318
O  O115  1  0.14820000  0.28160000  0.54110000  1.0 -0.8317086124
O  O116  1  0.71840000  0.85180000  0.04110000  1.0 -0.8317086124
O  O117  1  0.11010000  0.34530000  0.42350000  1.0 -1.0010104054
O  O118  1  0.65470000  0.88990000  0.92350000  1.0 -1.0010104054
O  O119  1  0.93760000  0.29740000  0.41780000  1.0 -0.8495660075
O  O120  1  0.70260000  0.06240000  0.91780000  1.0 -0.8495660075
O  O121  1  0.02170000  0.47650000  0.36320000  1.0 -0.9700270617
O  O122  1  0.52350000  0.97830000  0.86320000  1.0 -0.9700270617
O  O123  1  0.34500000  0.54420000  0.43490000  1.0 -0.9122087606
O  O124  1  0.45580000  0.65500000  0.93490000  1.0 -0.9122087606
O  O125  1  0.29110000  0.43110000  0.08780000  1.0 -0.5362627827
O  O126  1  0.56890000  0.70890000  0.58780000  1.0 -0.5362627827
O  O127  1  0.24720000  0.37160000  0.48620000  1.0 -0.9171622568
O  O128  1  0.62840000  0.75280000  0.98620000  1.0 -0.9171622568
O  O129  1  0.33120000  0.61180000  0.56470000  1.0 -0.8793806308
O  O130  1  0.38820000  0.66880000  0.06470000  1.0 -0.8793806308
O  O131  1  0.41520000  0.70900000  0.38230000  1.0 -0.9581326419
O  O132  1  0.29100000  0.58480000  0.88230000  1.0 -0.9581326419
O  O133  1  0.54050000  0.76970000  0.85360000  1.0 -0.5700759315
O  O134  1  0.23030000  0.45950000  0.35360000  1.0 -0.5700759315
O  O135  1  0.06480000  0.62120000  0.33950000  1.0 -0.4723192402
O  O136  1  0.37880000  0.93520000  0.83950000  1.0 -0.4723192402
O  O137  1  0.88490000  0.14690000  0.53010000  1.0 -0.5250185155
O  O138  1  0.85310000  0.11510000  0.03010000  1.0 -0.5237376416
O  O139  1  0.41990000  0.48250000  0.11010000  1.0 -0.4615470194
O  O140  1  0.51750000  0.58010000  0.61010000  1.0 -0.4615470194
O  O141  1  0.96000000  0.12720000  0.58300000  1.0 -0.5237376416
O  O142  1  0.87280000  0.04000000  0.08300000  1.0 -0.5237376416
O  O143  1  0.37820000  0.63780000  0.83760000  1.0 -0.4723192402
O  O144  1  0.36220000  0.62180000  0.33760000  1.0 -0.4723192402
