# DDEC6 charges by PACMAN v1.1 (https://github.com/mtap-research/PACMAN-charge/)
data_UDALUI_ASR_pacman
_symmetry_space_group_name_H-M   'P 1'
_cell_length_a   40.63300000
_cell_length_b   40.63300000
_cell_length_c   18.23200000
_cell_angle_alpha   90.00000000
_cell_angle_beta   90.00000000
_cell_angle_gamma   120.00000000
_symmetry_Int_Tables_number   1
_chemical_formula_structural   Zn4H23C51O13
_chemical_formula_sum   'Zn24 H138 C306 O78'
_cell_volume   26068.90084601
_cell_formula_units_Z   6
loop_
 _symmetry_equiv_pos_site_id
 _symmetry_equiv_pos_as_xyz
  1  'x, y, z'
loop_
 _atom_site_type_symbol
 _atom_site_label
 _atom_site_symmetry_multiplicity
 _atom_site_fract_x
 _atom_site_fract_y
 _atom_site_fract_z
 _atom_site_occupancy
 _atom_site_charge
Zn  Zn1  1  0.39718000  0.02268000  0.33504000  1.0 0.9399848999
Zn  Zn2  1  0.97732000  0.37450000  0.33504000  1.0 0.9399848999
Zn  Zn3  1  0.62550000  0.60282000  0.33504000  1.0 0.9399848999
Zn  Zn4  1  0.60282000  0.97732000  0.83504000  1.0 0.9399848999
Zn  Zn5  1  0.02268000  0.62550000  0.83504000  1.0 0.9399848999
Zn  Zn6  1  0.37450000  0.39718000  0.83504000  1.0 0.9399848999
Zn  Zn7  1  0.60282000  0.97732000  0.66496000  1.0 0.9399848999
Zn  Zn8  1  0.02268000  0.62550000  0.66496000  1.0 0.9399848999
Zn  Zn9  1  0.37450000  0.39718000  0.66496000  1.0 0.9399848999
Zn  Zn10  1  0.39718000  0.02268000  0.16496000  1.0 0.9399848999
Zn  Zn11  1  0.97732000  0.37450000  0.16496000  1.0 0.9399848999
Zn  Zn12  1  0.62550000  0.60282000  0.16496000  1.0 0.9399848999
Zn  Zn13  1  0.47461000  0.06364000  0.25000000  1.0 0.9399848999
Zn  Zn14  1  0.93636000  0.41097000  0.25000000  1.0 0.9399848999
Zn  Zn15  1  0.58903000  0.52539000  0.25000000  1.0 0.9399848999
Zn  Zn16  1  0.52539000  0.93636000  0.75000000  1.0 0.9399848999
Zn  Zn17  1  0.06364000  0.58903000  0.75000000  1.0 0.9399848999
Zn  Zn18  1  0.41097000  0.47461000  0.75000000  1.0 0.9399848999
Zn  Zn19  1  0.41861000  0.09928000  0.25000000  1.0 0.986537101
Zn  Zn20  1  0.90072000  0.31933000  0.25000000  1.0 0.986537101
Zn  Zn21  1  0.68067000  0.58139000  0.25000000  1.0 0.986537101
Zn  Zn22  1  0.58139000  0.90072000  0.75000000  1.0 0.986537101
Zn  Zn23  1  0.09928000  0.68067000  0.75000000  1.0 0.986537101
Zn  Zn24  1  0.31933000  0.41861000  0.75000000  1.0 0.986537101
H  H1  1  0.36330000  0.04870000  0.53900000  1.0 0.1220768773
H  H2  1  0.95130000  0.31460000  0.53900000  1.0 0.1220768773
H  H3  1  0.68540000  0.63670000  0.53900000  1.0 0.1220768773
H  H4  1  0.63670000  0.95130000  0.03900000  1.0 0.1220768773
H  H5  1  0.04870000  0.68540000  0.03900000  1.0 0.1220768773
H  H6  1  0.31460000  0.36330000  0.03900000  1.0 0.1220768773
H  H7  1  0.63670000  0.95130000  0.46100000  1.0 0.1220768773
H  H8  1  0.04870000  0.68540000  0.46100000  1.0 0.1220768773
H  H9  1  0.31460000  0.36330000  0.46100000  1.0 0.1220768773
H  H10  1  0.36330000  0.04870000  0.96100000  1.0 0.1220768773
H  H11  1  0.95130000  0.31460000  0.96100000  1.0 0.1220768773
H  H12  1  0.68540000  0.63670000  0.96100000  1.0 0.1220768773
H  H13  1  0.35770000  0.07540000  0.64680000  1.0 0.1110992993
H  H14  1  0.92460000  0.28230000  0.64680000  1.0 0.1110992993
H  H15  1  0.71770000  0.64230000  0.64680000  1.0 0.1110992993
H  H16  1  0.64230000  0.92460000  0.14680000  1.0 0.1110992993
H  H17  1  0.07540000  0.71770000  0.14680000  1.0 0.1110992993
H  H18  1  0.28230000  0.35770000  0.14680000  1.0 0.1110992993
H  H19  1  0.64230000  0.92460000  0.35320000  1.0 0.1110992993
H  H20  1  0.07540000  0.71770000  0.35320000  1.0 0.1110992993
H  H21  1  0.28230000  0.35770000  0.35320000  1.0 0.1110992993
H  H22  1  0.35770000  0.07540000  0.85320000  1.0 0.1110992993
H  H23  1  0.92460000  0.28230000  0.85320000  1.0 0.1110992993
H  H24  1  0.71770000  0.64230000  0.85320000  1.0 0.1110992993
H  H25  1  0.41970000  0.18130000  0.55870000  1.0 0.1110992993
H  H26  1  0.81870000  0.23840000  0.55870000  1.0 0.1110992993
H  H27  1  0.76160000  0.58030000  0.55870000  1.0 0.1110992993
H  H28  1  0.58030000  0.81870000  0.05870000  1.0 0.1110992993
H  H29  1  0.18130000  0.76160000  0.05870000  1.0 0.1110992993
H  H30  1  0.23840000  0.41970000  0.05870000  1.0 0.1110992993
H  H31  1  0.58030000  0.81870000  0.44130000  1.0 0.1110992993
H  H32  1  0.18130000  0.76160000  0.44130000  1.0 0.1110992993
H  H33  1  0.23840000  0.41970000  0.44130000  1.0 0.1110992993
H  H34  1  0.41970000  0.18130000  0.94130000  1.0 0.1110992993
H  H35  1  0.81870000  0.23840000  0.94130000  1.0 0.1110992993
H  H36  1  0.76160000  0.58030000  0.94130000  1.0 0.1110992993
H  H37  1  0.41940000  0.15170000  0.44730000  1.0 0.1220768773
H  H38  1  0.84830000  0.26770000  0.44730000  1.0 0.1220768773
H  H39  1  0.73230000  0.58060000  0.44730000  1.0 0.1220768773
H  H40  1  0.58060000  0.84830000  0.94730000  1.0 0.1220768773
H  H41  1  0.15170000  0.73230000  0.94730000  1.0 0.1220768773
H  H42  1  0.26770000  0.41940000  0.94730000  1.0 0.1220768773
H  H43  1  0.58060000  0.84830000  0.55270000  1.0 0.1220768773
H  H44  1  0.15170000  0.73230000  0.55270000  1.0 0.1220768773
H  H45  1  0.26770000  0.41940000  0.55270000  1.0 0.1220768773
H  H46  1  0.41940000  0.15170000  0.05270000  1.0 0.1220768773
H  H47  1  0.84830000  0.26770000  0.05270000  1.0 0.1220768773
H  H48  1  0.73230000  0.58060000  0.05270000  1.0 0.1220768773
H  H49  1  0.38690000  0.10860000  0.75000000  1.0 0.1110992993
H  H50  1  0.89140000  0.27830000  0.75000000  1.0 0.1110992993
H  H51  1  0.72170000  0.61310000  0.75000000  1.0 0.1110992993
H  H52  1  0.61310000  0.89140000  0.25000000  1.0 0.1110992993
H  H53  1  0.10860000  0.72170000  0.25000000  1.0 0.1110992993
H  H54  1  0.27830000  0.38690000  0.25000000  1.0 0.1110992993
H  H55  1  0.38150000  0.19190000  0.63960000  1.0 0.1110992993
H  H56  1  0.80810000  0.18960000  0.63960000  1.0 0.1110992993
H  H57  1  0.81040000  0.61850000  0.63960000  1.0 0.1110992993
H  H58  1  0.61850000  0.80810000  0.13960000  1.0 0.1110992993
H  H59  1  0.19190000  0.81040000  0.13960000  1.0 0.1110992993
H  H60  1  0.18960000  0.38150000  0.13960000  1.0 0.1110992993
H  H61  1  0.61850000  0.80810000  0.36040000  1.0 0.1110992993
H  H62  1  0.19190000  0.81040000  0.36040000  1.0 0.1110992993
H  H63  1  0.18960000  0.38150000  0.36040000  1.0 0.1110992993
H  H64  1  0.38150000  0.19190000  0.86040000  1.0 0.1110992993
H  H65  1  0.80810000  0.18960000  0.86040000  1.0 0.1110992993
H  H66  1  0.81040000  0.61850000  0.86040000  1.0 0.1110992993
H  H67  1  0.37910000  0.23960000  0.64510000  1.0 0.1220768773
H  H68  1  0.76040000  0.13950000  0.64510000  1.0 0.1220768773
H  H69  1  0.86050000  0.62090000  0.64510000  1.0 0.1220768773
H  H70  1  0.62090000  0.76040000  0.14510000  1.0 0.1220768773
H  H71  1  0.23960000  0.86050000  0.14510000  1.0 0.1220768773
H  H72  1  0.13950000  0.37910000  0.14510000  1.0 0.1220768773
H  H73  1  0.62090000  0.76040000  0.35490000  1.0 0.1220768773
H  H74  1  0.23960000  0.86050000  0.35490000  1.0 0.1220768773
H  H75  1  0.13950000  0.37910000  0.35490000  1.0 0.1220768773
H  H76  1  0.37910000  0.23960000  0.85490000  1.0 0.1220768773
H  H77  1  0.76040000  0.13950000  0.85490000  1.0 0.1220768773
H  H78  1  0.86050000  0.62090000  0.85490000  1.0 0.1220768773
H  H79  1  0.38020000  0.29680000  0.64280000  1.0 0.1278651427
H  H80  1  0.70320000  0.08340000  0.64280000  1.0 0.1278651427
H  H81  1  0.91660000  0.61980000  0.64280000  1.0 0.1278651427
H  H82  1  0.61980000  0.70320000  0.14280000  1.0 0.1278651427
H  H83  1  0.29680000  0.91660000  0.14280000  1.0 0.1278651427
H  H84  1  0.08340000  0.38020000  0.14280000  1.0 0.1278651427
H  H85  1  0.61980000  0.70320000  0.35720000  1.0 0.1278651427
H  H86  1  0.29680000  0.91660000  0.35720000  1.0 0.1278651427
H  H87  1  0.08340000  0.38020000  0.35720000  1.0 0.1278651427
H  H88  1  0.38020000  0.29680000  0.85720000  1.0 0.1278651427
H  H89  1  0.70320000  0.08340000  0.85720000  1.0 0.1278651427
H  H90  1  0.91660000  0.61980000  0.85720000  1.0 0.1278651427
H  H91  1  0.57720000  0.16960000  0.29840000  1.0 0.1110992993
H  H92  1  0.83040000  0.40760000  0.29840000  1.0 0.1110992993
H  H93  1  0.59240000  0.42280000  0.29840000  1.0 0.1110992993
H  H94  1  0.42280000  0.83040000  0.79840000  1.0 0.1110992993
H  H95  1  0.16960000  0.59240000  0.79840000  1.0 0.1110992993
H  H96  1  0.40760000  0.57720000  0.79840000  1.0 0.1110992993
H  H97  1  0.42280000  0.83040000  0.70160000  1.0 0.1110992993
H  H98  1  0.16960000  0.59240000  0.70160000  1.0 0.1110992993
H  H99  1  0.40760000  0.57720000  0.70160000  1.0 0.1110992993
H  H100  1  0.57720000  0.16960000  0.20160000  1.0 0.1110992993
H  H101  1  0.83040000  0.40760000  0.20160000  1.0 0.1110992993
H  H102  1  0.59240000  0.42280000  0.20160000  1.0 0.1110992993
H  H103  1  0.62770000  0.23160000  0.30870000  1.0 0.0926198608
H  H104  1  0.76840000  0.39610000  0.30870000  1.0 0.0926198608
H  H105  1  0.60390000  0.37230000  0.30870000  1.0 0.0926198608
H  H106  1  0.37230000  0.76840000  0.80870000  1.0 0.0926198608
H  H107  1  0.23160000  0.60390000  0.80870000  1.0 0.0926198608
H  H108  1  0.39610000  0.62770000  0.80870000  1.0 0.0926198608
H  H109  1  0.37230000  0.76840000  0.69130000  1.0 0.0926198608
H  H110  1  0.23160000  0.60390000  0.69130000  1.0 0.0926198608
H  H111  1  0.39610000  0.62770000  0.69130000  1.0 0.0926198608
H  H112  1  0.62770000  0.23160000  0.19130000  1.0 0.0926198608
H  H113  1  0.76840000  0.39610000  0.19130000  1.0 0.0926198608
H  H114  1  0.60390000  0.37230000  0.19130000  1.0 0.0926198608
H  H115  1  0.56430000  0.27080000  0.21390000  1.0 0.0768011283
H  H116  1  0.72920000  0.29350000  0.21390000  1.0 0.0768011283
H  H117  1  0.70650000  0.43570000  0.21390000  1.0 0.0768011283
H  H118  1  0.43570000  0.72920000  0.71390000  1.0 0.0768011283
H  H119  1  0.27080000  0.70650000  0.71390000  1.0 0.0768011283
H  H120  1  0.29350000  0.56430000  0.71390000  1.0 0.0768011283
H  H121  1  0.43570000  0.72920000  0.78610000  1.0 0.0768011283
H  H122  1  0.27080000  0.70650000  0.78610000  1.0 0.0768011283
H  H123  1  0.29350000  0.56430000  0.78610000  1.0 0.0768011283
H  H124  1  0.56430000  0.27080000  0.28610000  1.0 0.0768011283
H  H125  1  0.72920000  0.29350000  0.28610000  1.0 0.0768011283
H  H126  1  0.70650000  0.43570000  0.28610000  1.0 0.0768011283
H  H127  1  0.51370000  0.20880000  0.20360000  1.0 0.0979873236
H  H128  1  0.79120000  0.30490000  0.20360000  1.0 0.0979873236
H  H129  1  0.69510000  0.48630000  0.20360000  1.0 0.0979873236
H  H130  1  0.48630000  0.79120000  0.70360000  1.0 0.0979873236
H  H131  1  0.20880000  0.69510000  0.70360000  1.0 0.0979873236
H  H132  1  0.30490000  0.51370000  0.70360000  1.0 0.0979873236
H  H133  1  0.48630000  0.79120000  0.79640000  1.0 0.0979873236
H  H134  1  0.20880000  0.69510000  0.79640000  1.0 0.0979873236
H  H135  1  0.30490000  0.51370000  0.79640000  1.0 0.0979873236
H  H136  1  0.51370000  0.20880000  0.29640000  1.0 0.0979873236
H  H137  1  0.79120000  0.30490000  0.29640000  1.0 0.0979873236
H  H138  1  0.69510000  0.48630000  0.29640000  1.0 0.0979873236
C  C1  1  0.39797000  0.08209000  0.41090000  1.0 0.5877678315
C  C2  1  0.91791000  0.31588000  0.41090000  1.0 0.5877678315
C  C3  1  0.68412000  0.60203000  0.41090000  1.0 0.5877678315
C  C4  1  0.60203000  0.91791000  0.91090000  1.0 0.5877678315
C  C5  1  0.08209000  0.68412000  0.91090000  1.0 0.5877678315
C  C6  1  0.31588000  0.39797000  0.91090000  1.0 0.5877678315
C  C7  1  0.60203000  0.91791000  0.58910000  1.0 0.5877678315
C  C8  1  0.08209000  0.68412000  0.58910000  1.0 0.5877678315
C  C9  1  0.31588000  0.39797000  0.58910000  1.0 0.5877678315
C  C10  1  0.39797000  0.08209000  0.08910000  1.0 0.5877678315
C  C11  1  0.91791000  0.31588000  0.08910000  1.0 0.5877678315
C  C12  1  0.68412000  0.60203000  0.08910000  1.0 0.5877678315
C  C13  1  0.39317000  0.09832000  0.48340000  1.0 -0.0322323192
C  C14  1  0.90168000  0.29485000  0.48340000  1.0 -0.0322323192
C  C15  1  0.70515000  0.60683000  0.48340000  1.0 -0.0322323192
C  C16  1  0.60683000  0.90168000  0.98340000  1.0 -0.0322323192
C  C17  1  0.09832000  0.70515000  0.98340000  1.0 -0.0322323192
C  C18  1  0.29485000  0.39317000  0.98340000  1.0 -0.0322323192
C  C19  1  0.60683000  0.90168000  0.51660000  1.0 -0.0322323192
C  C20  1  0.09832000  0.70515000  0.51660000  1.0 -0.0322323192
C  C21  1  0.29485000  0.39317000  0.51660000  1.0 -0.0322323192
C  C22  1  0.39317000  0.09832000  0.01660000  1.0 -0.0322323192
C  C23  1  0.90168000  0.29485000  0.01660000  1.0 -0.0322323192
C  C24  1  0.70515000  0.60683000  0.01660000  1.0 -0.0322323192
C  C25  1  0.37406000  0.07523000  0.54270000  1.0 -0.0938740336
C  C26  1  0.92477000  0.29883000  0.54270000  1.0 -0.0938740336
C  C27  1  0.70117000  0.62594000  0.54270000  1.0 -0.0938740336
C  C28  1  0.62594000  0.92477000  0.04270000  1.0 -0.0938740336
C  C29  1  0.07523000  0.70117000  0.04270000  1.0 -0.0938740336
C  C30  1  0.29883000  0.37406000  0.04270000  1.0 -0.0938740336
C  C31  1  0.62594000  0.92477000  0.45730000  1.0 -0.0938740336
C  C32  1  0.07523000  0.70117000  0.45730000  1.0 -0.0938740336
C  C33  1  0.29883000  0.37406000  0.45730000  1.0 -0.0938740336
C  C34  1  0.37406000  0.07523000  0.95730000  1.0 -0.0938740336
C  C35  1  0.92477000  0.29883000  0.95730000  1.0 -0.0938740336
C  C36  1  0.70117000  0.62594000  0.95730000  1.0 -0.0938740336
C  C37  1  0.37098000  0.09138000  0.60720000  1.0 -0.1612663198
C  C38  1  0.90862000  0.27960000  0.60720000  1.0 -0.1612663198
C  C39  1  0.72040000  0.62902000  0.60720000  1.0 -0.1612663198
C  C40  1  0.62902000  0.90862000  0.10720000  1.0 -0.1612663198
C  C41  1  0.09138000  0.72040000  0.10720000  1.0 -0.1612663198
C  C42  1  0.27960000  0.37098000  0.10720000  1.0 -0.1612663198
C  C43  1  0.62902000  0.90862000  0.39280000  1.0 -0.1612663198
C  C44  1  0.09138000  0.72040000  0.39280000  1.0 -0.1612663198
C  C45  1  0.27960000  0.37098000  0.39280000  1.0 -0.1612663198
C  C46  1  0.37098000  0.09138000  0.89280000  1.0 -0.1612663198
C  C47  1  0.90862000  0.27960000  0.89280000  1.0 -0.1612663198
C  C48  1  0.72040000  0.62902000  0.89280000  1.0 -0.1612663198
C  C49  1  0.38720000  0.13098000  0.61550000  1.0 0.0706581004
C  C50  1  0.86902000  0.25622000  0.61550000  1.0 0.0706581004
C  C51  1  0.74378000  0.61280000  0.61550000  1.0 0.0706581004
C  C52  1  0.61280000  0.86902000  0.11550000  1.0 0.0706581004
C  C53  1  0.13098000  0.74378000  0.11550000  1.0 0.0706581004
C  C54  1  0.25622000  0.38720000  0.11550000  1.0 0.0706581004
C  C55  1  0.61280000  0.86902000  0.38450000  1.0 0.0706581004
C  C56  1  0.13098000  0.74378000  0.38450000  1.0 0.0706581004
C  C57  1  0.25622000  0.38720000  0.38450000  1.0 0.0706581004
C  C58  1  0.38720000  0.13098000  0.88450000  1.0 0.0706581004
C  C59  1  0.86902000  0.25622000  0.88450000  1.0 0.0706581004
C  C60  1  0.74378000  0.61280000  0.88450000  1.0 0.0706581004
C  C61  1  0.40730000  0.15469000  0.55500000  1.0 -0.1717528363
C  C62  1  0.84531000  0.25261000  0.55500000  1.0 -0.1717528363
C  C63  1  0.74739000  0.59270000  0.55500000  1.0 -0.1717528363
C  C64  1  0.59270000  0.84531000  0.05500000  1.0 -0.1717528363
C  C65  1  0.15469000  0.74739000  0.05500000  1.0 -0.1717528363
C  C66  1  0.25261000  0.40730000  0.05500000  1.0 -0.1717528363
C  C67  1  0.59270000  0.84531000  0.44500000  1.0 -0.1717528363
C  C68  1  0.15469000  0.74739000  0.44500000  1.0 -0.1717528363
C  C69  1  0.25261000  0.40730000  0.44500000  1.0 -0.1717528363
C  C70  1  0.40730000  0.15469000  0.94500000  1.0 -0.1717528363
C  C71  1  0.84531000  0.25261000  0.94500000  1.0 -0.1717528363
C  C72  1  0.74739000  0.59270000  0.94500000  1.0 -0.1717528363
C  C73  1  0.40810000  0.13664000  0.48900000  1.0 -0.098395289
C  C74  1  0.86336000  0.27146000  0.48900000  1.0 -0.098395289
C  C75  1  0.72854000  0.59190000  0.48900000  1.0 -0.098395289
C  C76  1  0.59190000  0.86336000  0.98900000  1.0 -0.098395289
C  C77  1  0.13664000  0.72854000  0.98900000  1.0 -0.098395289
C  C78  1  0.27146000  0.40810000  0.98900000  1.0 -0.098395289
C  C79  1  0.59190000  0.86336000  0.51100000  1.0 -0.098395289
C  C80  1  0.13664000  0.72854000  0.51100000  1.0 -0.098395289
C  C81  1  0.27146000  0.40810000  0.51100000  1.0 -0.098395289
C  C82  1  0.40810000  0.13664000  0.01100000  1.0 -0.098395289
C  C83  1  0.86336000  0.27146000  0.01100000  1.0 -0.098395289
C  C84  1  0.72854000  0.59190000  0.01100000  1.0 -0.098395289
C  C85  1  0.38504000  0.14822000  0.68430000  1.0 0.0706581004
C  C86  1  0.85178000  0.23682000  0.68430000  1.0 0.0706581004
C  C87  1  0.76318000  0.61496000  0.68430000  1.0 0.0706581004
C  C88  1  0.61496000  0.85178000  0.18430000  1.0 0.0706581004
C  C89  1  0.14822000  0.76318000  0.18430000  1.0 0.0706581004
C  C90  1  0.23682000  0.38504000  0.18430000  1.0 0.0706581004
C  C91  1  0.61496000  0.85178000  0.31570000  1.0 0.0706581004
C  C92  1  0.14822000  0.76318000  0.31570000  1.0 0.0706581004
C  C93  1  0.23682000  0.38504000  0.31570000  1.0 0.0706581004
C  C94  1  0.38504000  0.14822000  0.81570000  1.0 0.0706581004
C  C95  1  0.85178000  0.23682000  0.81570000  1.0 0.0706581004
C  C96  1  0.76318000  0.61496000  0.81570000  1.0 0.0706581004
C  C97  1  0.38580000  0.13120000  0.75000000  1.0 -0.2046881312
C  C98  1  0.86880000  0.25460000  0.75000000  1.0 -0.2046881312
C  C99  1  0.74540000  0.61420000  0.75000000  1.0 -0.2057371516
C  C100  1  0.61420000  0.86880000  0.25000000  1.0 -0.2057371516
C  C101  1  0.13120000  0.74540000  0.25000000  1.0 -0.2057371516
C  C102  1  0.25460000  0.38580000  0.25000000  1.0 -0.2057371516
C  C103  1  0.38281000  0.18130000  0.68460000  1.0 -0.2046881312
C  C104  1  0.81870000  0.20151000  0.68460000  1.0 -0.2046881312
C  C105  1  0.79849000  0.61719000  0.68460000  1.0 -0.2046881312
C  C106  1  0.61719000  0.81870000  0.18460000  1.0 -0.2046881312
C  C107  1  0.18130000  0.79849000  0.18460000  1.0 -0.2046881312
C  C108  1  0.20151000  0.38281000  0.18460000  1.0 -0.2046881312
C  C109  1  0.61719000  0.81870000  0.31540000  1.0 -0.2046881312
C  C110  1  0.18130000  0.79849000  0.31540000  1.0 -0.2046881312
C  C111  1  0.20151000  0.38281000  0.31540000  1.0 -0.2046881312
C  C112  1  0.38281000  0.18130000  0.81540000  1.0 -0.2046881312
C  C113  1  0.81870000  0.20151000  0.81540000  1.0 -0.2046881312
C  C114  1  0.79849000  0.61719000  0.81540000  1.0 -0.2046881312
C  C115  1  0.38250000  0.19930000  0.75000000  1.0 0.0926198608
C  C116  1  0.80070000  0.18320000  0.75000000  1.0 0.0926198608
C  C117  1  0.81680000  0.61750000  0.75000000  1.0 0.0926198608
C  C118  1  0.61750000  0.80070000  0.25000000  1.0 0.0926198608
C  C119  1  0.19930000  0.81680000  0.25000000  1.0 0.0926198608
C  C120  1  0.18320000  0.38250000  0.25000000  1.0 0.0926198608
C  C121  1  0.38150000  0.23460000  0.75000000  1.0 0.0603278716
C  C122  1  0.76540000  0.14690000  0.75000000  1.0 0.0603278716
C  C123  1  0.85310000  0.61850000  0.75000000  1.0 0.0603278716
C  C124  1  0.61850000  0.76540000  0.25000000  1.0 0.0603278716
C  C125  1  0.23460000  0.85310000  0.25000000  1.0 0.0603278716
C  C126  1  0.14690000  0.38150000  0.25000000  1.0 0.0603278716
C  C127  1  0.37990000  0.25130000  0.69010000  1.0 -0.1717528363
C  C128  1  0.74870000  0.12860000  0.69010000  1.0 -0.1717528363
C  C129  1  0.87140000  0.62010000  0.69010000  1.0 -0.1717528363
C  C130  1  0.62010000  0.74870000  0.19010000  1.0 -0.1717528363
C  C131  1  0.25130000  0.87140000  0.19010000  1.0 -0.1717528363
C  C132  1  0.12860000  0.37990000  0.19010000  1.0 -0.1717528363
C  C133  1  0.62010000  0.74870000  0.30990000  1.0 -0.1717528363
C  C134  1  0.25130000  0.87140000  0.30990000  1.0 -0.1717528363
C  C135  1  0.12860000  0.37990000  0.30990000  1.0 -0.1717528363
C  C136  1  0.37990000  0.25130000  0.80990000  1.0 -0.1717528363
C  C137  1  0.74870000  0.12860000  0.80990000  1.0 -0.1717528363
C  C138  1  0.87140000  0.62010000  0.80990000  1.0 -0.1717528363
C  C139  1  0.37950000  0.28528000  0.68790000  1.0 -0.0938740336
C  C140  1  0.71472000  0.09422000  0.68790000  1.0 -0.0938740336
C  C141  1  0.90578000  0.62050000  0.68790000  1.0 -0.0938740336
C  C142  1  0.62050000  0.71472000  0.18790000  1.0 -0.0938740336
C  C143  1  0.28528000  0.90578000  0.18790000  1.0 -0.0938740336
C  C144  1  0.09422000  0.37950000  0.18790000  1.0 -0.0938740336
C  C145  1  0.62050000  0.71472000  0.31210000  1.0 -0.0938740336
C  C146  1  0.28528000  0.90578000  0.31210000  1.0 -0.0938740336
C  C147  1  0.09422000  0.37950000  0.31210000  1.0 -0.0938740336
C  C148  1  0.37950000  0.28528000  0.81210000  1.0 -0.0938740336
C  C149  1  0.71472000  0.09422000  0.81210000  1.0 -0.0938740336
C  C150  1  0.90578000  0.62050000  0.81210000  1.0 -0.0938740336
C  C151  1  0.37800000  0.30100000  0.75000000  1.0 -0.0392654671
C  C152  1  0.69900000  0.07700000  0.75000000  1.0 -0.0392654671
C  C153  1  0.92300000  0.62200000  0.75000000  1.0 -0.0392654671
C  C154  1  0.62200000  0.69900000  0.25000000  1.0 -0.0392654671
C  C155  1  0.30100000  0.92300000  0.25000000  1.0 -0.0392654671
C  C156  1  0.07700000  0.37800000  0.25000000  1.0 -0.0392654671
C  C157  1  0.37800000  0.33770000  0.75000000  1.0 0.6039481581
C  C158  1  0.66230000  0.04030000  0.75000000  1.0 0.6039481581
C  C159  1  0.95970000  0.62200000  0.75000000  1.0 0.6039481581
C  C160  1  0.62200000  0.66230000  0.25000000  1.0 0.6039481581
C  C161  1  0.33770000  0.95970000  0.25000000  1.0 0.6039481581
C  C162  1  0.04030000  0.37800000  0.25000000  1.0 0.6039481581
C  C163  1  0.46590000  0.02256000  0.38410000  1.0 0.6280634971
C  C164  1  0.97744000  0.44334000  0.38410000  1.0 0.6280634971
C  C165  1  0.55666000  0.53410000  0.38410000  1.0 0.6280634971
C  C166  1  0.53410000  0.97744000  0.88410000  1.0 0.6280634971
C  C167  1  0.02256000  0.55666000  0.88410000  1.0 0.6280634971
C  C168  1  0.44334000  0.46590000  0.88410000  1.0 0.6280634971
C  C169  1  0.53410000  0.97744000  0.61590000  1.0 0.6280634971
C  C170  1  0.02256000  0.55666000  0.61590000  1.0 0.6280634971
C  C171  1  0.44334000  0.46590000  0.61590000  1.0 0.6280634971
C  C172  1  0.46590000  0.02256000  0.11590000  1.0 0.6280634971
C  C173  1  0.97744000  0.44334000  0.11590000  1.0 0.6280634971
C  C174  1  0.55666000  0.53410000  0.11590000  1.0 0.6280634971
C  C175  1  0.48340000  0.00920000  0.44280000  1.0 -0.0392654671
C  C176  1  0.99080000  0.47420000  0.44280000  1.0 -0.0392654671
C  C177  1  0.52580000  0.51660000  0.44280000  1.0 -0.0392654671
C  C178  1  0.51660000  0.99080000  0.94280000  1.0 -0.0392654671
C  C179  1  0.00920000  0.52580000  0.94280000  1.0 -0.0392654671
C  C180  1  0.47420000  0.48340000  0.94280000  1.0 -0.0392654671
C  C181  1  0.51660000  0.99080000  0.55720000  1.0 -0.0392654671
C  C182  1  0.00920000  0.52580000  0.55720000  1.0 -0.0392654671
C  C183  1  0.47420000  0.48340000  0.55720000  1.0 -0.0392654671
C  C184  1  0.48340000  0.00920000  0.05720000  1.0 -0.0392654671
C  C185  1  0.99080000  0.47420000  0.05720000  1.0 -0.0392654671
C  C186  1  0.52580000  0.51660000  0.05720000  1.0 -0.0392654671
C  C187  1  0.46100000  0.98440000  0.49240000  1.0 -0.0322323192
C  C188  1  0.01560000  0.47660000  0.49240000  1.0 -0.0322323192
C  C189  1  0.52340000  0.53900000  0.49240000  1.0 -0.0322323192
C  C190  1  0.53900000  0.01560000  0.99240000  1.0 -0.0322323192
C  C191  1  0.98440000  0.52340000  0.99240000  1.0 -0.0322323192
C  C192  1  0.47660000  0.46100000  0.99240000  1.0 -0.0322323192
C  C193  1  0.53900000  0.01560000  0.50760000  1.0 -0.0322323192
C  C194  1  0.98440000  0.52340000  0.50760000  1.0 -0.0322323192
C  C195  1  0.47660000  0.46100000  0.50760000  1.0 -0.0322323192
C  C196  1  0.46100000  0.98440000  0.00760000  1.0 -0.0322323192
C  C197  1  0.01560000  0.47660000  0.00760000  1.0 -0.0322323192
C  C198  1  0.52340000  0.53900000  0.00760000  1.0 -0.0322323192
C  C199  1  0.52160000  0.02450000  0.44680000  1.0 -0.0078892156
C  C200  1  0.97550000  0.49710000  0.44680000  1.0 -0.0078892156
C  C201  1  0.50290000  0.47840000  0.44680000  1.0 -0.0078892156
C  C202  1  0.47840000  0.97550000  0.94680000  1.0 -0.0078892156
C  C203  1  0.02450000  0.50290000  0.94680000  1.0 -0.0042624635
C  C204  1  0.49710000  0.52160000  0.94680000  1.0 -0.0078892156
C  C205  1  0.47840000  0.97550000  0.55320000  1.0 -0.0078892156
C  C206  1  0.02450000  0.50290000  0.55320000  1.0 -0.0078892156
C  C207  1  0.49710000  0.52160000  0.55320000  1.0 -0.0078892156
C  C208  1  0.52160000  0.02450000  0.05320000  1.0 -0.0078892156
C  C209  1  0.97550000  0.49710000  0.05320000  1.0 -0.0078892156
C  C210  1  0.50290000  0.47840000  0.05320000  1.0 -0.0078892156
C  C211  1  0.50510000  0.14281000  0.25000000  1.0 0.5701728682
C  C212  1  0.85719000  0.36229000  0.25000000  1.0 0.5701728682
C  C213  1  0.63771000  0.49490000  0.25000000  1.0 0.5701728682
C  C214  1  0.49490000  0.85719000  0.75000000  1.0 0.5701728682
C  C215  1  0.14281000  0.63771000  0.75000000  1.0 0.5701728682
C  C216  1  0.36229000  0.50510000  0.75000000  1.0 0.5701728682
C  C217  1  0.54055000  0.18322000  0.25000000  1.0 -0.0078892156
C  C218  1  0.81678000  0.35733000  0.25000000  1.0 -0.0078892156
C  C219  1  0.64267000  0.45945000  0.25000000  1.0 -0.0078892156
C  C220  1  0.45945000  0.81678000  0.75000000  1.0 -0.0078892156
C  C221  1  0.18322000  0.64267000  0.75000000  1.0 -0.0078892156
C  C222  1  0.35733000  0.54055000  0.75000000  1.0 -0.0078892156
C  C223  1  0.57457000  0.19002000  0.28137000  1.0 -0.0619614979
C  C224  1  0.80998000  0.38455000  0.28137000  1.0 -0.0619614979
C  C225  1  0.61545000  0.42543000  0.28137000  1.0 -0.0619614979
C  C226  1  0.42543000  0.80998000  0.78137000  1.0 -0.0619614979
C  C227  1  0.19002000  0.61545000  0.78137000  1.0 -0.0619614979
C  C228  1  0.38455000  0.57457000  0.78137000  1.0 -0.0619614979
C  C229  1  0.42543000  0.80998000  0.71863000  1.0 -0.0619614979
C  C230  1  0.19002000  0.61545000  0.71863000  1.0 -0.0619614979
C  C231  1  0.38455000  0.57457000  0.71863000  1.0 -0.0619614979
C  C232  1  0.57457000  0.19002000  0.21863000  1.0 -0.0619614979
C  C233  1  0.80998000  0.38455000  0.21863000  1.0 -0.0619614979
C  C234  1  0.61545000  0.42543000  0.21863000  1.0 -0.0619614979
C  C235  1  0.60474000  0.22702000  0.28750000  1.0 -0.0812237286
C  C236  1  0.77298000  0.37772000  0.28750000  1.0 -0.0812237286
C  C237  1  0.62228000  0.39526000  0.28750000  1.0 -0.0812237286
C  C238  1  0.39526000  0.77298000  0.78750000  1.0 -0.0812237286
C  C239  1  0.22702000  0.62228000  0.78750000  1.0 -0.0812237286
C  C240  1  0.37772000  0.60474000  0.78750000  1.0 -0.0812237286
C  C241  1  0.39526000  0.77298000  0.71250000  1.0 -0.0812237286
C  C242  1  0.22702000  0.62228000  0.71250000  1.0 -0.0812237286
C  C243  1  0.37772000  0.60474000  0.71250000  1.0 -0.0812237286
C  C244  1  0.60474000  0.22702000  0.21250000  1.0 -0.0812237286
C  C245  1  0.77298000  0.37772000  0.21250000  1.0 -0.0812237286
C  C246  1  0.62228000  0.39526000  0.21250000  1.0 -0.0812237286
C  C247  1  0.60089000  0.25720000  0.26230000  1.0 0.0706581004
C  C248  1  0.74280000  0.34369000  0.26230000  1.0 0.0706581004
C  C249  1  0.65631000  0.39911000  0.26230000  1.0 0.0706581004
C  C250  1  0.39911000  0.74280000  0.76230000  1.0 0.0706581004
C  C251  1  0.25720000  0.65631000  0.76230000  1.0 0.0706581004
C  C252  1  0.34369000  0.60089000  0.76230000  1.0 0.0706581004
C  C253  1  0.39911000  0.74280000  0.73770000  1.0 0.0706581004
C  C254  1  0.25720000  0.65631000  0.73770000  1.0 0.0706581004
C  C255  1  0.34369000  0.60089000  0.73770000  1.0 0.0706581004
C  C256  1  0.60089000  0.25720000  0.23770000  1.0 0.0706581004
C  C257  1  0.74280000  0.34369000  0.23770000  1.0 0.0706581004
C  C258  1  0.65631000  0.39911000  0.23770000  1.0 0.0706581004
C  C259  1  0.56687000  0.25040000  0.23090000  1.0 -0.0322323192
C  C260  1  0.74960000  0.31647000  0.23090000  1.0 -0.0322323192
C  C261  1  0.68353000  0.43313000  0.23090000  1.0 -0.0322323192
C  C262  1  0.43313000  0.74960000  0.73090000  1.0 -0.0322323192
C  C263  1  0.25040000  0.68353000  0.73090000  1.0 -0.0322323192
C  C264  1  0.31647000  0.56687000  0.73090000  1.0 -0.0322323192
C  C265  1  0.43313000  0.74960000  0.76910000  1.0 -0.0322323192
C  C266  1  0.25040000  0.68353000  0.76910000  1.0 -0.0322323192
C  C267  1  0.31647000  0.56687000  0.76910000  1.0 -0.0322323192
C  C268  1  0.56687000  0.25040000  0.26910000  1.0 -0.0322323192
C  C269  1  0.74960000  0.31647000  0.26910000  1.0 -0.0322323192
C  C270  1  0.68353000  0.43313000  0.26910000  1.0 -0.0322323192
C  C271  1  0.53670000  0.21340000  0.22479000  1.0 -0.0619614979
C  C272  1  0.78660000  0.32330000  0.22479000  1.0 -0.0619614979
C  C273  1  0.67670000  0.46330000  0.22479000  1.0 -0.0619614979
C  C274  1  0.46330000  0.78660000  0.72479000  1.0 -0.0619614979
C  C275  1  0.21340000  0.67670000  0.72479000  1.0 -0.0619614979
C  C276  1  0.32330000  0.53670000  0.72479000  1.0 -0.0619614979
C  C277  1  0.46330000  0.78660000  0.77521000  1.0 -0.0619614979
C  C278  1  0.21340000  0.67670000  0.77521000  1.0 -0.0619614979
C  C279  1  0.32330000  0.53670000  0.77521000  1.0 -0.0619614979
C  C280  1  0.53670000  0.21340000  0.27521000  1.0 -0.0619614979
C  C281  1  0.78660000  0.32330000  0.27521000  1.0 -0.0619614979
C  C282  1  0.67670000  0.46330000  0.27521000  1.0 -0.0619614979
C  C283  1  0.63703000  0.29883000  0.24860000  1.0 -0.0322323192
C  C284  1  0.70117000  0.33820000  0.24860000  1.0 -0.0322323192
C  C285  1  0.66180000  0.36297000  0.24860000  1.0 -0.0322323192
C  C286  1  0.36297000  0.70117000  0.74860000  1.0 -0.0322323192
C  C287  1  0.29883000  0.66180000  0.74860000  1.0 -0.0322323192
C  C288  1  0.33820000  0.63703000  0.74860000  1.0 -0.0322323192
C  C289  1  0.36297000  0.70117000  0.75140000  1.0 -0.0322323192
C  C290  1  0.29883000  0.66180000  0.75140000  1.0 -0.0322323192
C  C291  1  0.33820000  0.63703000  0.75140000  1.0 -0.0322323192
C  C292  1  0.63703000  0.29883000  0.25140000  1.0 -0.0322323192
C  C293  1  0.70117000  0.33820000  0.25140000  1.0 -0.0322323192
C  C294  1  0.66180000  0.36297000  0.25140000  1.0 -0.0322323192
C  C295  1  0.62975000  0.32811000  0.22940000  1.0 -0.0322323192
C  C296  1  0.67189000  0.30164000  0.22940000  1.0 -0.0322323192
C  C297  1  0.69836000  0.37025000  0.22940000  1.0 -0.0322323192
C  C298  1  0.37025000  0.67189000  0.72940000  1.0 -0.0322323192
C  C299  1  0.32811000  0.69836000  0.72940000  1.0 -0.0322323192
C  C300  1  0.30164000  0.62975000  0.72940000  1.0 -0.0322323192
C  C301  1  0.37025000  0.67189000  0.77060000  1.0 -0.0322323192
C  C302  1  0.32811000  0.69836000  0.77060000  1.0 -0.0322323192
C  C303  1  0.30164000  0.62975000  0.77060000  1.0 -0.0322323192
C  C304  1  0.62975000  0.32811000  0.27060000  1.0 -0.0322323192
C  C305  1  0.67189000  0.30164000  0.27060000  1.0 -0.0322323192
C  C306  1  0.69836000  0.37025000  0.27060000  1.0 -0.0322323192
O  O1  1  0.42315000  0.05261000  0.25000000  1.0 -1.0358676095
O  O2  1  0.94739000  0.37054000  0.25000000  1.0 -1.0358676095
O  O3  1  0.62946000  0.57685000  0.25000000  1.0 -1.0358676095
O  O4  1  0.57685000  0.94739000  0.75000000  1.0 -1.0358676095
O  O5  1  0.05261000  0.62946000  0.75000000  1.0 -1.0358676095
O  O6  1  0.37054000  0.42315000  0.75000000  1.0 -1.0358676095
O  O7  1  0.38413000  0.04678000  0.41119000  1.0 -0.5305066485
O  O8  1  0.95322000  0.33735000  0.41119000  1.0 -0.5305066485
O  O9  1  0.66265000  0.61587000  0.41119000  1.0 -0.5305066485
O  O10  1  0.61587000  0.95322000  0.91119000  1.0 -0.5305066485
O  O11  1  0.04678000  0.66265000  0.91119000  1.0 -0.5305066485
O  O12  1  0.33735000  0.38413000  0.91119000  1.0 -0.5305066485
O  O13  1  0.61587000  0.95322000  0.58881000  1.0 -0.5305066485
O  O14  1  0.04678000  0.66265000  0.58881000  1.0 -0.5305066485
O  O15  1  0.33735000  0.38413000  0.58881000  1.0 -0.5305066485
O  O16  1  0.38413000  0.04678000  0.08881000  1.0 -0.5305066485
O  O17  1  0.95322000  0.33735000  0.08881000  1.0 -0.5305066485
O  O18  1  0.66265000  0.61587000  0.08881000  1.0 -0.5305066485
O  O19  1  0.41480000  0.10431000  0.35910000  1.0 -0.5741536001
O  O20  1  0.89569000  0.31049000  0.35910000  1.0 -0.5741536001
O  O21  1  0.68951000  0.58520000  0.35910000  1.0 -0.5741536001
O  O22  1  0.58520000  0.89569000  0.85910000  1.0 -0.5741536001
O  O23  1  0.10431000  0.68951000  0.85910000  1.0 -0.5741536001
O  O24  1  0.31049000  0.41480000  0.85910000  1.0 -0.5741536001
O  O25  1  0.58520000  0.89569000  0.64090000  1.0 -0.5741536001
O  O26  1  0.10431000  0.68951000  0.64090000  1.0 -0.5741536001
O  O27  1  0.31049000  0.41480000  0.64090000  1.0 -0.5741536001
O  O28  1  0.41480000  0.10431000  0.14090000  1.0 -0.5741536001
O  O29  1  0.89569000  0.31049000  0.14090000  1.0 -0.5741536001
O  O30  1  0.68951000  0.58520000  0.14090000  1.0 -0.5741536001
O  O31  1  0.37691000  0.35221000  0.68836000  1.0 -0.5387485503
O  O32  1  0.64779000  0.02470000  0.68836000  1.0 -0.5387485503
O  O33  1  0.97530000  0.62309000  0.68836000  1.0 -0.5387485503
O  O34  1  0.62309000  0.64779000  0.18836000  1.0 -0.5387485503
O  O35  1  0.35221000  0.97530000  0.18836000  1.0 -0.5387485503
O  O36  1  0.02470000  0.37691000  0.18836000  1.0 -0.5387485503
O  O37  1  0.62309000  0.64779000  0.31164000  1.0 -0.5387485503
O  O38  1  0.35221000  0.97530000  0.31164000  1.0 -0.5387485503
O  O39  1  0.02470000  0.37691000  0.31164000  1.0 -0.5387485503
O  O40  1  0.37691000  0.35221000  0.81164000  1.0 -0.5387485503
O  O41  1  0.64779000  0.02470000  0.81164000  1.0 -0.5387485503
O  O42  1  0.97530000  0.62309000  0.81164000  1.0 -0.5387485503
O  O43  1  0.43066000  0.00983000  0.38754000  1.0 -0.5387485503
O  O44  1  0.99017000  0.42083000  0.38754000  1.0 -0.5387485503
O  O45  1  0.57917000  0.56934000  0.38754000  1.0 -0.5387485503
O  O46  1  0.56934000  0.99017000  0.88754000  1.0 -0.5387485503
O  O47  1  0.00983000  0.57917000  0.88754000  1.0 -0.5387485503
O  O48  1  0.42083000  0.43066000  0.88754000  1.0 -0.5387485503
O  O49  1  0.56934000  0.99017000  0.61246000  1.0 -0.5387485503
O  O50  1  0.00983000  0.57917000  0.61246000  1.0 -0.5387485503
O  O51  1  0.42083000  0.43066000  0.61246000  1.0 -0.5387485503
O  O52  1  0.43066000  0.00983000  0.11246000  1.0 -0.5387485503
O  O53  1  0.99017000  0.42083000  0.11246000  1.0 -0.5387485503
O  O54  1  0.57917000  0.56934000  0.11246000  1.0 -0.5387485503
O  O55  1  0.48693000  0.04279000  0.33408000  1.0 -0.5305066485
O  O56  1  0.95721000  0.44414000  0.33408000  1.0 -0.5305066485
O  O57  1  0.55586000  0.51307000  0.33408000  1.0 -0.5305066485
O  O58  1  0.51307000  0.95721000  0.83408000  1.0 -0.5305066485
O  O59  1  0.04279000  0.55586000  0.83408000  1.0 -0.5305066485
O  O60  1  0.44414000  0.48693000  0.83408000  1.0 -0.5305066485
O  O61  1  0.51307000  0.95721000  0.66592000  1.0 -0.5305066485
O  O62  1  0.04279000  0.55586000  0.66592000  1.0 -0.5305066485
O  O63  1  0.44414000  0.48693000  0.66592000  1.0 -0.5305066485
O  O64  1  0.48693000  0.04279000  0.16592000  1.0 -0.5305066485
O  O65  1  0.95721000  0.44414000  0.16592000  1.0 -0.5305066485
O  O66  1  0.55586000  0.51307000  0.16592000  1.0 -0.5305066485
O  O67  1  0.51280000  0.11677000  0.25000000  1.0 -0.4904037072
O  O68  1  0.88323000  0.39603000  0.25000000  1.0 -0.4904037072
O  O69  1  0.60397000  0.48720000  0.25000000  1.0 -0.4904037072
O  O70  1  0.48720000  0.88323000  0.75000000  1.0 -0.4904037072
O  O71  1  0.11677000  0.60397000  0.75000000  1.0 -0.4904037072
O  O72  1  0.39603000  0.51280000  0.75000000  1.0 -0.4904037072
O  O73  1  0.47349000  0.14009000  0.25000000  1.0 -0.4904037072
O  O74  1  0.85991000  0.33340000  0.25000000  1.0 -0.4904037072
O  O75  1  0.66666667  0.52651000  0.25000000  1.0 -0.4904037072
O  O76  1  0.52651000  0.85991000  0.75000000  1.0 -0.4904037072
O  O77  1  0.14009000  0.66666667  0.75000000  1.0 -0.4904037072
O  O78  1  0.33340000  0.47349000  0.75000000  1.0 -0.4904037072
