# DDEC6 charges by PACMAN v1.1 (https://github.com/mtap-research/PACMAN-charge/)
data_UDANIY_ASR_pacman
_symmetry_space_group_name_H-M   'P 1'
_cell_length_a   41.09000000
_cell_length_b   41.09000000
_cell_length_c   17.74700000
_cell_angle_alpha   90.00000000
_cell_angle_beta   90.00000000
_cell_angle_gamma   120.00000000
_symmetry_Int_Tables_number   1
_chemical_formula_structural   Zn4H17C50O13
_chemical_formula_sum   'Zn24 H102 C300 O78'
_cell_volume   25949.43244138
_cell_formula_units_Z   6
loop_
 _symmetry_equiv_pos_site_id
 _symmetry_equiv_pos_as_xyz
  1  'x, y, z'
loop_
 _atom_site_type_symbol
 _atom_site_label
 _atom_site_symmetry_multiplicity
 _atom_site_fract_x
 _atom_site_fract_y
 _atom_site_fract_z
 _atom_site_occupancy
 _atom_site_charge
Zn  Zn1  1  0.39958000  0.37280000  0.16187000  1.0 0.9582882193
Zn  Zn2  1  0.62720000  0.02678000  0.16187000  1.0 0.9582882193
Zn  Zn3  1  0.97322000  0.60042000  0.16187000  1.0 0.9517429826
Zn  Zn4  1  0.60042000  0.62720000  0.66187000  1.0 0.9582882193
Zn  Zn5  1  0.37280000  0.97322000  0.66187000  1.0 0.9517429826
Zn  Zn6  1  0.02678000  0.39958000  0.66187000  1.0 0.9582882193
Zn  Zn7  1  0.60042000  0.62720000  0.83813000  1.0 0.9582882193
Zn  Zn8  1  0.37280000  0.97322000  0.83813000  1.0 0.9517429826
Zn  Zn9  1  0.02678000  0.39958000  0.83813000  1.0 0.9582882193
Zn  Zn10  1  0.39958000  0.37280000  0.33813000  1.0 0.9582882193
Zn  Zn11  1  0.62720000  0.02678000  0.33813000  1.0 0.9582882193
Zn  Zn12  1  0.97322000  0.60042000  0.33813000  1.0 0.9517429826
Zn  Zn13  1  0.42228000  0.31999000  0.25000000  1.0 0.9517429826
Zn  Zn14  1  0.68001000  0.10229000  0.25000000  1.0 0.9517429826
Zn  Zn15  1  0.89771000  0.57772000  0.25000000  1.0 0.9517429826
Zn  Zn16  1  0.57772000  0.68001000  0.75000000  1.0 0.9517429826
Zn  Zn17  1  0.31999000  0.89771000  0.75000000  1.0 0.9517429826
Zn  Zn18  1  0.10229000  0.42228000  0.75000000  1.0 0.9517429826
Zn  Zn19  1  0.47598000  0.40932000  0.25000000  1.0 0.9286222873
Zn  Zn20  1  0.59068000  0.06666000  0.25000000  1.0 0.9286222873
Zn  Zn21  1  0.93334000  0.52402000  0.25000000  1.0 0.9286222873
Zn  Zn22  1  0.52402000  0.59068000  0.75000000  1.0 0.9286222873
Zn  Zn23  1  0.40932000  0.93334000  0.75000000  1.0 0.9286222873
Zn  Zn24  1  0.06666000  0.47598000  0.75000000  1.0 0.9286222873
H  H1  1  0.35350000  0.27370000  0.85230000  1.0 0.1275133265
H  H2  1  0.72630000  0.07980000  0.85230000  1.0 0.1275133265
H  H3  1  0.92020000  0.64650000  0.85230000  1.0 0.1275133265
H  H4  1  0.64650000  0.72630000  0.35230000  1.0 0.1275133265
H  H5  1  0.27370000  0.92020000  0.35230000  1.0 0.1275133265
H  H6  1  0.07980000  0.35350000  0.35230000  1.0 0.1275133265
H  H7  1  0.64650000  0.72630000  0.14770000  1.0 0.1275133265
H  H8  1  0.27370000  0.92020000  0.14770000  1.0 0.1275133265
H  H9  1  0.07980000  0.35350000  0.14770000  1.0 0.1275133265
H  H10  1  0.35350000  0.27370000  0.64770000  1.0 0.1275133265
H  H11  1  0.72630000  0.07980000  0.64770000  1.0 0.1275133265
H  H12  1  0.92020000  0.64650000  0.64770000  1.0 0.1275133265
H  H13  1  0.41960000  0.23500000  0.94310000  1.0 0.1189323677
H  H14  1  0.76500000  0.18460000  0.94310000  1.0 0.1189323677
H  H15  1  0.81540000  0.58040000  0.94310000  1.0 0.1189323677
H  H16  1  0.58040000  0.76500000  0.44310000  1.0 0.1189323677
H  H17  1  0.23500000  0.81540000  0.44310000  1.0 0.1189323677
H  H18  1  0.18460000  0.41960000  0.44310000  1.0 0.1189323677
H  H19  1  0.58040000  0.76500000  0.05690000  1.0 0.1189323677
H  H20  1  0.23500000  0.81540000  0.05690000  1.0 0.1189323677
H  H21  1  0.18460000  0.41960000  0.05690000  1.0 0.1189323677
H  H22  1  0.41960000  0.23500000  0.55690000  1.0 0.1189323677
H  H23  1  0.76500000  0.18460000  0.55690000  1.0 0.1189323677
H  H24  1  0.81540000  0.58040000  0.55690000  1.0 0.1189323677
H  H25  1  0.41300000  0.25520000  0.07060000  1.0 0.1189323677
H  H26  1  0.74480000  0.15780000  0.07060000  1.0 0.1189323677
H  H27  1  0.84220000  0.58700000  0.07060000  1.0 0.1189323677
H  H28  1  0.58700000  0.74480000  0.57060000  1.0 0.1189323677
H  H29  1  0.25520000  0.84220000  0.57060000  1.0 0.1189323677
H  H30  1  0.15780000  0.41300000  0.57060000  1.0 0.1189323677
H  H31  1  0.58700000  0.74480000  0.92940000  1.0 0.1189323677
H  H32  1  0.25520000  0.84220000  0.92940000  1.0 0.1189323677
H  H33  1  0.15780000  0.41300000  0.92940000  1.0 0.1189323677
H  H34  1  0.41300000  0.25520000  0.42940000  1.0 0.1189323677
H  H35  1  0.74480000  0.15780000  0.42940000  1.0 0.1189323677
H  H36  1  0.84220000  0.58700000  0.42940000  1.0 0.1189323677
H  H37  1  0.37460000  0.26760000  0.75000000  1.0 0.1094449152
H  H38  1  0.73240000  0.10700000  0.75000000  1.0 0.1094449152
H  H39  1  0.89300000  0.62540000  0.75000000  1.0 0.1094449152
H  H40  1  0.62540000  0.73240000  0.25000000  1.0 0.1094449152
H  H41  1  0.26760000  0.89300000  0.25000000  1.0 0.1094449152
H  H42  1  0.10700000  0.37460000  0.25000000  1.0 0.1094449152
H  H43  1  0.37900000  0.18240000  0.86460000  1.0 0.1034190697
H  H44  1  0.81760000  0.19660000  0.86460000  1.0 0.1034190697
H  H45  1  0.80340000  0.62100000  0.86460000  1.0 0.1034190697
H  H46  1  0.62100000  0.81760000  0.36460000  1.0 0.1034190697
H  H47  1  0.18240000  0.80340000  0.36460000  1.0 0.1034190697
H  H48  1  0.19660000  0.37900000  0.36460000  1.0 0.1034190697
H  H49  1  0.62100000  0.81760000  0.13540000  1.0 0.1034190697
H  H50  1  0.18240000  0.80340000  0.13540000  1.0 0.1034190697
H  H51  1  0.19660000  0.37900000  0.13540000  1.0 0.1034190697
H  H52  1  0.37900000  0.18240000  0.63540000  1.0 0.1034190697
H  H53  1  0.81760000  0.19660000  0.63540000  1.0 0.1034190697
H  H54  1  0.80340000  0.62100000  0.63540000  1.0 0.1034190697
H  H55  1  0.36060000  0.12550000  0.85100000  1.0 0.1189323677
H  H56  1  0.87450000  0.23510000  0.85100000  1.0 0.1189323677
H  H57  1  0.76490000  0.63940000  0.85100000  1.0 0.1094449152
H  H58  1  0.63940000  0.87450000  0.35100000  1.0 0.1189323677
H  H59  1  0.12550000  0.76490000  0.35100000  1.0 0.1094449152
H  H60  1  0.23510000  0.36060000  0.35100000  1.0 0.1189323677
H  H61  1  0.63940000  0.87450000  0.14900000  1.0 0.1189323677
H  H62  1  0.12550000  0.76490000  0.14900000  1.0 0.1094449152
H  H63  1  0.23510000  0.36060000  0.14900000  1.0 0.1189323677
H  H64  1  0.36060000  0.12550000  0.64900000  1.0 0.1189323677
H  H65  1  0.87450000  0.23510000  0.64900000  1.0 0.1189323677
H  H66  1  0.76490000  0.63940000  0.64900000  1.0 0.1094449152
H  H67  1  0.38780000  0.08200000  0.86050000  1.0 0.1275133265
H  H68  1  0.91800000  0.30580000  0.86050000  1.0 0.1275133265
H  H69  1  0.69420000  0.61220000  0.86050000  1.0 0.1189323677
H  H70  1  0.61220000  0.91800000  0.36050000  1.0 0.1275133265
H  H71  1  0.08200000  0.69420000  0.36050000  1.0 0.1189323677
H  H72  1  0.30580000  0.38780000  0.36050000  1.0 0.1275133265
H  H73  1  0.61220000  0.91800000  0.13950000  1.0 0.1275133265
H  H74  1  0.08200000  0.69420000  0.13950000  1.0 0.1189323677
H  H75  1  0.30580000  0.38780000  0.13950000  1.0 0.1275133265
H  H76  1  0.38780000  0.08200000  0.63950000  1.0 0.1275133265
H  H77  1  0.91800000  0.30580000  0.63950000  1.0 0.1275133265
H  H78  1  0.69420000  0.61220000  0.63950000  1.0 0.1189323677
H  H79  1  0.58430000  0.41150000  0.25000000  1.0 0.1189323677
H  H80  1  0.58850000  0.17280000  0.25000000  1.0 0.1189323677
H  H81  1  0.82720000  0.41570000  0.25000000  1.0 0.1189323677
H  H82  1  0.41570000  0.58850000  0.75000000  1.0 0.1189323677
H  H83  1  0.41150000  0.82720000  0.75000000  1.0 0.1189323677
H  H84  1  0.17280000  0.58430000  0.75000000  1.0 0.1189323677
H  H85  1  0.63390000  0.39930000  0.25000000  1.0 0.1189323677
H  H86  1  0.60070000  0.23460000  0.25000000  1.0 0.1189323677
H  H87  1  0.76540000  0.36610000  0.25000000  1.0 0.1189323677
H  H88  1  0.36610000  0.60070000  0.75000000  1.0 0.1189323677
H  H89  1  0.39930000  0.76540000  0.75000000  1.0 0.1189323677
H  H90  1  0.23460000  0.63390000  0.75000000  1.0 0.1189323677
H  H91  1  0.56000000  0.28790000  0.25000000  1.0 0.1275133265
H  H92  1  0.71210000  0.27210000  0.25000000  1.0 0.1275133265
H  H93  1  0.72790000  0.44000000  0.25000000  1.0 0.1275133265
H  H94  1  0.44000000  0.71210000  0.75000000  1.0 0.1275133265
H  H95  1  0.28790000  0.72790000  0.75000000  1.0 0.1275133265
H  H96  1  0.27210000  0.56000000  0.75000000  1.0 0.1275133265
H  H97  1  0.51030000  0.30000000  0.25000000  1.0 0.1189323677
H  H98  1  0.70000000  0.21030000  0.25000000  1.0 0.1189323677
H  H99  1  0.78970000  0.48970000  0.25000000  1.0 0.1189323677
H  H100  1  0.48970000  0.70000000  0.75000000  1.0 0.1189323677
H  H101  1  0.30000000  0.78970000  0.75000000  1.0 0.1189323677
H  H102  1  0.21030000  0.51030000  0.75000000  1.0 0.1189323677
C  C1  1  0.39630000  0.30860000  0.09750000  1.0 0.6079733687
C  C2  1  0.69140000  0.08770000  0.09750000  1.0 0.6079733687
C  C3  1  0.91230000  0.60370000  0.09750000  1.0 0.6079733687
C  C4  1  0.60370000  0.69140000  0.59750000  1.0 0.6079733687
C  C5  1  0.30860000  0.91230000  0.59750000  1.0 0.6079733687
C  C6  1  0.08770000  0.39630000  0.59750000  1.0 0.6079733687
C  C7  1  0.60370000  0.69140000  0.90250000  1.0 0.6079733687
C  C8  1  0.30860000  0.91230000  0.90250000  1.0 0.6079733687
C  C9  1  0.08770000  0.39630000  0.90250000  1.0 0.6079733687
C  C10  1  0.39630000  0.30860000  0.40250000  1.0 0.6079733687
C  C11  1  0.69140000  0.08770000  0.40250000  1.0 0.6079733687
C  C12  1  0.91230000  0.60370000  0.40250000  1.0 0.6079733687
C  C13  1  0.39030000  0.28540000  0.02120000  1.0 -0.0798724491
C  C14  1  0.71460000  0.10490000  0.02120000  1.0 -0.0746356422
C  C15  1  0.89510000  0.60970000  0.02120000  1.0 -0.0746356422
C  C16  1  0.60970000  0.71460000  0.52120000  1.0 -0.0746356422
C  C17  1  0.28540000  0.89510000  0.52120000  1.0 -0.0746356422
C  C18  1  0.10490000  0.39030000  0.52120000  1.0 -0.0746356422
C  C19  1  0.60970000  0.71460000  0.97880000  1.0 -0.0746356422
C  C20  1  0.28540000  0.89510000  0.97880000  1.0 -0.0746356422
C  C21  1  0.10490000  0.39030000  0.97880000  1.0 -0.0746356422
C  C22  1  0.39030000  0.28540000  0.47880000  1.0 -0.0798724491
C  C23  1  0.71460000  0.10490000  0.47880000  1.0 -0.0746356422
C  C24  1  0.89510000  0.60970000  0.47880000  1.0 -0.0746356422
C  C25  1  0.36890000  0.29090000  0.96490000  1.0 0.0900041987
C  C26  1  0.70910000  0.07800000  0.96490000  1.0 0.0900041987
C  C27  1  0.92200000  0.63110000  0.96490000  1.0 0.0900041987
C  C28  1  0.63110000  0.70910000  0.46490000  1.0 0.084826563
C  C29  1  0.29090000  0.92200000  0.46490000  1.0 0.0900041987
C  C30  1  0.07800000  0.36890000  0.46490000  1.0 0.0900041987
C  C31  1  0.63110000  0.70910000  0.03510000  1.0 0.084826563
C  C32  1  0.29090000  0.92200000  0.03510000  1.0 0.0900041987
C  C33  1  0.07800000  0.36890000  0.03510000  1.0 0.0900041987
C  C34  1  0.36890000  0.29090000  0.53510000  1.0 0.0900041987
C  C35  1  0.70910000  0.07800000  0.53510000  1.0 0.0900041987
C  C36  1  0.92200000  0.63110000  0.53510000  1.0 0.0900041987
C  C37  1  0.36530000  0.27050000  0.89480000  1.0 -0.2272578734
C  C38  1  0.72950000  0.09480000  0.89480000  1.0 -0.2229710179
C  C39  1  0.90520000  0.63470000  0.89480000  1.0 -0.2229710179
C  C40  1  0.63470000  0.72950000  0.39480000  1.0 -0.2229710179
C  C41  1  0.27050000  0.90520000  0.39480000  1.0 -0.2229710179
C  C42  1  0.09480000  0.36530000  0.39480000  1.0 -0.2272578734
C  C43  1  0.63470000  0.72950000  0.10520000  1.0 -0.2229710179
C  C44  1  0.27050000  0.90520000  0.10520000  1.0 -0.2229710179
C  C45  1  0.09480000  0.36530000  0.10520000  1.0 -0.2272578734
C  C46  1  0.36530000  0.27050000  0.60520000  1.0 -0.2272578734
C  C47  1  0.72950000  0.09480000  0.60520000  1.0 -0.2229710179
C  C48  1  0.90520000  0.63470000  0.60520000  1.0 -0.2229710179
C  C49  1  0.37990000  0.24610000  0.89240000  1.0 0.1094449152
C  C50  1  0.75390000  0.13380000  0.89240000  1.0 0.1094449152
C  C51  1  0.86620000  0.62010000  0.89240000  1.0 0.1094449152
C  C52  1  0.62010000  0.75390000  0.39240000  1.0 0.1094449152
C  C53  1  0.24610000  0.86620000  0.39240000  1.0 0.1094449152
C  C54  1  0.13380000  0.37990000  0.39240000  1.0 0.1094449152
C  C55  1  0.62010000  0.75390000  0.10760000  1.0 0.1094449152
C  C56  1  0.24610000  0.86620000  0.10760000  1.0 0.1094449152
C  C57  1  0.13380000  0.37990000  0.10760000  1.0 0.1094449152
C  C58  1  0.37990000  0.24610000  0.60760000  1.0 0.1094449152
C  C59  1  0.75390000  0.13380000  0.60760000  1.0 0.1094449152
C  C60  1  0.86620000  0.62010000  0.60760000  1.0 0.1094449152
C  C61  1  0.40420000  0.24550000  0.95240000  1.0 -0.2020611233
C  C62  1  0.75450000  0.15870000  0.95240000  1.0 -0.2020611233
C  C63  1  0.84130000  0.59580000  0.95240000  1.0 -0.2020611233
C  C64  1  0.59580000  0.75450000  0.45240000  1.0 -0.2020611233
C  C65  1  0.24550000  0.84130000  0.45240000  1.0 -0.2020611233
C  C66  1  0.15870000  0.40420000  0.45240000  1.0 -0.2020611233
C  C67  1  0.59580000  0.75450000  0.04760000  1.0 -0.2020611233
C  C68  1  0.24550000  0.84130000  0.04760000  1.0 -0.2020611233
C  C69  1  0.15870000  0.40420000  0.04760000  1.0 -0.2020611233
C  C70  1  0.40420000  0.24550000  0.54760000  1.0 -0.2020611233
C  C71  1  0.75450000  0.15870000  0.54760000  1.0 -0.2020611233
C  C72  1  0.84130000  0.59580000  0.54760000  1.0 -0.2020611233
C  C73  1  0.40450000  0.26090000  0.02600000  1.0 -0.0984087103
C  C74  1  0.73910000  0.14360000  0.02600000  1.0 -0.0984087103
C  C75  1  0.85640000  0.59550000  0.02600000  1.0 -0.0984087103
C  C76  1  0.59550000  0.73910000  0.52600000  1.0 -0.0984087103
C  C77  1  0.26090000  0.85640000  0.52600000  1.0 -0.0984087103
C  C78  1  0.14360000  0.40450000  0.52600000  1.0 -0.0984087103
C  C79  1  0.59550000  0.73910000  0.97400000  1.0 -0.0984087103
C  C80  1  0.26090000  0.85640000  0.97400000  1.0 -0.0984087103
C  C81  1  0.14360000  0.40450000  0.97400000  1.0 -0.0984087103
C  C82  1  0.40450000  0.26090000  0.47400000  1.0 -0.0984087103
C  C83  1  0.73910000  0.14360000  0.47400000  1.0 -0.0984087103
C  C84  1  0.85640000  0.59550000  0.47400000  1.0 -0.0984087103
C  C85  1  0.37690000  0.22620000  0.81310000  1.0 0.0657656608
C  C86  1  0.77380000  0.15070000  0.81310000  1.0 0.0657656608
C  C87  1  0.84930000  0.62310000  0.81310000  1.0 0.0657656608
C  C88  1  0.62310000  0.77380000  0.31310000  1.0 0.0617782483
C  C89  1  0.22620000  0.84930000  0.31310000  1.0 0.0617782483
C  C90  1  0.15070000  0.37690000  0.31310000  1.0 0.0617782483
C  C91  1  0.62310000  0.77380000  0.18690000  1.0 0.0617782483
C  C92  1  0.22620000  0.84930000  0.18690000  1.0 0.0617782483
C  C93  1  0.15070000  0.37690000  0.18690000  1.0 0.0617782483
C  C94  1  0.37690000  0.22620000  0.68690000  1.0 0.0657656608
C  C95  1  0.77380000  0.15070000  0.68690000  1.0 0.0657656608
C  C96  1  0.84930000  0.62310000  0.68690000  1.0 0.0657656608
C  C97  1  0.37580000  0.24530000  0.75000000  1.0 -0.2435252947
C  C98  1  0.75470000  0.13050000  0.75000000  1.0 -0.2456628862
C  C99  1  0.86950000  0.62420000  0.75000000  1.0 -0.2456628862
C  C100  1  0.62420000  0.75470000  0.25000000  1.0 -0.2456628862
C  C101  1  0.24530000  0.86950000  0.25000000  1.0 -0.2435252947
C  C102  1  0.13050000  0.37580000  0.25000000  1.0 -0.2435252947
C  C103  1  0.37770000  0.19250000  0.81800000  1.0 -0.2272578734
C  C104  1  0.80750000  0.18520000  0.81800000  1.0 -0.2272578734
C  C105  1  0.81480000  0.62230000  0.81800000  1.0 -0.2272578734
C  C106  1  0.62230000  0.80750000  0.31800000  1.0 -0.2272578734
C  C107  1  0.19250000  0.81480000  0.31800000  1.0 -0.2272578734
C  C108  1  0.18520000  0.37770000  0.31800000  1.0 -0.2272578734
C  C109  1  0.62230000  0.80750000  0.18200000  1.0 -0.2272578734
C  C110  1  0.19250000  0.81480000  0.18200000  1.0 -0.2272578734
C  C111  1  0.18520000  0.37770000  0.18200000  1.0 -0.2272578734
C  C112  1  0.37770000  0.19250000  0.68200000  1.0 -0.2272578734
C  C113  1  0.80750000  0.18520000  0.68200000  1.0 -0.2272578734
C  C114  1  0.81480000  0.62230000  0.68200000  1.0 -0.2272578734
C  C115  1  0.37640000  0.17470000  0.75000000  1.0 0.1094449152
C  C116  1  0.82530000  0.20170000  0.75000000  1.0 0.1094449152
C  C117  1  0.79830000  0.62360000  0.75000000  1.0 0.1094449152
C  C118  1  0.62360000  0.82530000  0.25000000  1.0 0.1094449152
C  C119  1  0.17470000  0.79830000  0.25000000  1.0 0.1094449152
C  C120  1  0.20170000  0.37640000  0.25000000  1.0 0.1094449152
C  C121  1  0.37700000  0.13790000  0.75000000  1.0 0.0464877131
C  C122  1  0.86210000  0.23910000  0.75000000  1.0 0.0464877131
C  C123  1  0.76090000  0.62300000  0.75000000  1.0 0.0419812827
C  C124  1  0.62300000  0.86210000  0.25000000  1.0 0.0464877131
C  C125  1  0.13790000  0.76090000  0.25000000  1.0 0.0419812827
C  C126  1  0.23910000  0.37700000  0.25000000  1.0 0.0419812827
C  C127  1  0.37080000  0.11950000  0.80960000  1.0 -0.1727909798
C  C128  1  0.88050000  0.25130000  0.80960000  1.0 -0.1727909798
C  C129  1  0.74870000  0.62920000  0.80960000  1.0 -0.1727909798
C  C130  1  0.62920000  0.88050000  0.30960000  1.0 -0.1727909798
C  C131  1  0.11950000  0.74870000  0.30960000  1.0 -0.1727909798
C  C132  1  0.25130000  0.37080000  0.30960000  1.0 -0.1727909798
C  C133  1  0.62920000  0.88050000  0.19040000  1.0 -0.1727909798
C  C134  1  0.11950000  0.74870000  0.19040000  1.0 -0.1727909798
C  C135  1  0.25130000  0.37080000  0.19040000  1.0 -0.1727909798
C  C136  1  0.37080000  0.11950000  0.69040000  1.0 -0.1727909798
C  C137  1  0.88050000  0.25130000  0.69040000  1.0 -0.1727909798
C  C138  1  0.74870000  0.62920000  0.69040000  1.0 -0.1727909798
C  C139  1  0.37910000  0.08840000  0.81720000  1.0 -0.0933334471
C  C140  1  0.91160000  0.29070000  0.81720000  1.0 -0.0933334471
C  C141  1  0.70930000  0.62090000  0.81720000  1.0 -0.0933334471
C  C142  1  0.62090000  0.91160000  0.31720000  1.0 -0.0933334471
C  C143  1  0.08840000  0.70930000  0.31720000  1.0 -0.0933334471
C  C144  1  0.29070000  0.37910000  0.31720000  1.0 -0.0933334471
C  C145  1  0.62090000  0.91160000  0.18280000  1.0 -0.0933334471
C  C146  1  0.08840000  0.70930000  0.18280000  1.0 -0.0933334471
C  C147  1  0.29070000  0.37910000  0.18280000  1.0 -0.0933334471
C  C148  1  0.37910000  0.08840000  0.68280000  1.0 -0.0933334471
C  C149  1  0.91160000  0.29070000  0.68280000  1.0 -0.0933334471
C  C150  1  0.70930000  0.62090000  0.68280000  1.0 -0.0933334471
C  C151  1  0.37150000  0.07120000  0.75000000  1.0 -0.0468388257
C  C152  1  0.92880000  0.30030000  0.75000000  1.0 -0.0468388257
C  C153  1  0.69970000  0.62850000  0.75000000  1.0 -0.0468388257
C  C154  1  0.62850000  0.92880000  0.25000000  1.0 -0.0468388257
C  C155  1  0.07120000  0.69970000  0.25000000  1.0 -0.0468388257
C  C156  1  0.30030000  0.37150000  0.25000000  1.0 -0.0468388257
C  C157  1  0.37680000  0.03420000  0.75000000  1.0 0.6018167752
C  C158  1  0.96580000  0.34260000  0.75000000  1.0 0.6018167752
C  C159  1  0.65740000  0.62320000  0.75000000  1.0 0.6018167752
C  C160  1  0.62320000  0.96580000  0.25000000  1.0 0.6018167752
C  C161  1  0.03420000  0.65740000  0.25000000  1.0 0.6018167752
C  C162  1  0.34260000  0.37680000  0.25000000  1.0 0.6018167752
C  C163  1  0.46700000  0.43850000  0.11230000  1.0 0.4978549597
C  C164  1  0.56150000  0.02850000  0.11230000  1.0 0.4978549597
C  C165  1  0.97150000  0.53300000  0.11230000  1.0 0.4978549597
C  C166  1  0.53300000  0.56150000  0.61230000  1.0 0.4978549597
C  C167  1  0.43850000  0.97150000  0.61230000  1.0 0.4978549597
C  C168  1  0.02850000  0.46700000  0.61230000  1.0 0.4978549597
C  C169  1  0.53300000  0.56150000  0.88770000  1.0 0.4978549597
C  C170  1  0.43850000  0.97150000  0.88770000  1.0 0.4978549597
C  C171  1  0.02850000  0.46700000  0.88770000  1.0 0.4978549597
C  C172  1  0.46700000  0.43850000  0.38770000  1.0 0.4978549597
C  C173  1  0.56150000  0.02850000  0.38770000  1.0 0.4978549597
C  C174  1  0.97150000  0.53300000  0.38770000  1.0 0.4978549597
C  C175  1  0.48180000  0.46470000  0.03950000  1.0 0.0206884561
C  C176  1  0.53530000  0.01710000  0.03950000  1.0 0.0206884561
C  C177  1  0.98290000  0.51820000  0.03950000  1.0 0.0206884561
C  C178  1  0.51820000  0.53530000  0.53950000  1.0 0.0206884561
C  C179  1  0.46470000  0.98290000  0.53950000  1.0 0.0206884561
C  C180  1  0.01710000  0.48180000  0.53950000  1.0 0.0206884561
C  C181  1  0.51820000  0.53530000  0.96050000  1.0 0.0206884561
C  C182  1  0.46470000  0.98290000  0.96050000  1.0 0.0206884561
C  C183  1  0.01710000  0.48180000  0.96050000  1.0 0.0206884561
C  C184  1  0.48180000  0.46470000  0.46050000  1.0 0.0206884561
C  C185  1  0.53530000  0.01710000  0.46050000  1.0 0.0206884561
C  C186  1  0.98290000  0.51820000  0.46050000  1.0 0.0206884561
C  C187  1  0.51940000  0.49180000  0.04820000  1.0 0.0617782483
C  C188  1  0.50820000  0.02760000  0.04820000  1.0 0.0617782483
C  C189  1  0.97240000  0.48060000  0.04820000  1.0 0.0617782483
C  C190  1  0.48060000  0.50820000  0.54820000  1.0 0.0617782483
C  C191  1  0.49180000  0.97240000  0.54820000  1.0 0.0617782483
C  C192  1  0.02760000  0.51940000  0.54820000  1.0 0.0617782483
C  C193  1  0.48060000  0.50820000  0.95180000  1.0 0.0617782483
C  C194  1  0.49180000  0.97240000  0.95180000  1.0 0.0617782483
C  C195  1  0.02760000  0.51940000  0.95180000  1.0 0.0617782483
C  C196  1  0.51940000  0.49180000  0.45180000  1.0 0.0617782483
C  C197  1  0.50820000  0.02760000  0.45180000  1.0 0.0617782483
C  C198  1  0.97240000  0.48060000  0.45180000  1.0 0.0617782483
C  C199  1  0.46200000  0.48220000  0.00860000  1.0 0.0419812827
C  C200  1  0.51780000  0.97980000  0.00860000  1.0 0.0287258891
C  C201  1  0.02020000  0.53800000  0.00860000  1.0 0.0419812827
C  C202  1  0.53800000  0.51780000  0.50860000  1.0 0.0419812827
C  C203  1  0.48220000  0.02020000  0.50860000  1.0 0.0287258891
C  C204  1  0.97980000  0.46200000  0.50860000  1.0 0.0419812827
C  C205  1  0.53800000  0.51780000  0.99140000  1.0 0.0419812827
C  C206  1  0.48220000  0.02020000  0.99140000  1.0 0.0287258891
C  C207  1  0.97980000  0.46200000  0.99140000  1.0 0.0419812827
C  C208  1  0.46200000  0.48220000  0.49140000  1.0 0.0419812827
C  C209  1  0.51780000  0.97980000  0.49140000  1.0 0.0287258891
C  C210  1  0.02020000  0.53800000  0.49140000  1.0 0.0419812827
C  C211  1  0.48100000  0.48320000  0.07420000  1.0 0.0287258891
C  C212  1  0.51680000  0.99780000  0.07420000  1.0 0.0206884561
C  C213  1  0.00220000  0.51900000  0.07420000  1.0 0.0287258891
C  C214  1  0.51900000  0.51680000  0.57420000  1.0 0.0287258891
C  C215  1  0.48320000  0.00220000  0.57420000  1.0 0.0287258891
C  C216  1  0.99780000  0.48100000  0.57420000  1.0 0.0206884561
C  C217  1  0.51900000  0.51680000  0.92580000  1.0 0.0287258891
C  C218  1  0.48320000  0.00220000  0.92580000  1.0 0.0287258891
C  C219  1  0.99780000  0.48100000  0.92580000  1.0 0.0206884561
C  C220  1  0.48100000  0.48320000  0.42580000  1.0 0.0287258891
C  C221  1  0.51680000  0.99780000  0.42580000  1.0 0.0206884561
C  C222  1  0.00220000  0.51900000  0.42580000  1.0 0.0287258891
C  C223  1  0.51860000  0.51030000  0.08300000  1.0 -0.0210729616
C  C224  1  0.48970000  0.00830000  0.08300000  1.0 -0.0210729616
C  C225  1  0.99170000  0.48140000  0.08300000  1.0 -0.0210729616
C  C226  1  0.48140000  0.48970000  0.58300000  1.0 -0.0123259828
C  C227  1  0.51030000  0.99170000  0.58300000  1.0 -0.0210729616
C  C228  1  0.00830000  0.51860000  0.58300000  1.0 -0.0123259828
C  C229  1  0.48140000  0.48970000  0.91700000  1.0 -0.0123259828
C  C230  1  0.51030000  0.99170000  0.91700000  1.0 -0.0210729616
C  C231  1  0.00830000  0.51860000  0.91700000  1.0 -0.0123259828
C  C232  1  0.51860000  0.51030000  0.41700000  1.0 -0.0210729616
C  C233  1  0.48970000  0.00830000  0.41700000  1.0 -0.0210729616
C  C234  1  0.99170000  0.48140000  0.41700000  1.0 -0.0210729616
C  C235  1  0.46280000  0.46370000  0.97390000  1.0 0.0206884561
C  C236  1  0.53630000  0.99910000  0.97390000  1.0 0.0050558118
C  C237  1  0.00090000  0.53720000  0.97390000  1.0 0.002892394
C  C238  1  0.53720000  0.53630000  0.47390000  1.0 0.002892394
C  C239  1  0.46370000  0.00090000  0.47390000  1.0 0.0206884561
C  C240  1  0.99910000  0.46280000  0.47390000  1.0 0.002892394
C  C241  1  0.53720000  0.53630000  0.02610000  1.0 0.002892394
C  C242  1  0.46370000  0.00090000  0.02610000  1.0 0.0206884561
C  C243  1  0.99910000  0.46280000  0.02610000  1.0 0.002892394
C  C244  1  0.46280000  0.46370000  0.52610000  1.0 0.0206884561
C  C245  1  0.53630000  0.99910000  0.52610000  1.0 0.0050558118
C  C246  1  0.00090000  0.53720000  0.52610000  1.0 0.002892394
C  C247  1  0.50820000  0.35890000  0.25000000  1.0 0.5467843431
C  C248  1  0.64110000  0.14930000  0.25000000  1.0 0.5467843431
C  C249  1  0.85070000  0.49180000  0.25000000  1.0 0.5467843431
C  C250  1  0.49180000  0.64110000  0.75000000  1.0 0.5467843431
C  C251  1  0.35890000  0.85070000  0.75000000  1.0 0.5467843431
C  C252  1  0.14930000  0.50820000  0.75000000  1.0 0.5467843431
C  C253  1  0.54250000  0.35690000  0.25000000  1.0 -0.0798724491
C  C254  1  0.64310000  0.18560000  0.25000000  1.0 -0.0798724491
C  C255  1  0.81440000  0.45750000  0.25000000  1.0 -0.0798724491
C  C256  1  0.45750000  0.64310000  0.75000000  1.0 -0.0798724491
C  C257  1  0.35690000  0.81440000  0.75000000  1.0 -0.0798724491
C  C258  1  0.18560000  0.54250000  0.75000000  1.0 -0.0798724491
C  C259  1  0.57940000  0.38650000  0.25000000  1.0 -0.0798724491
C  C260  1  0.61350000  0.19290000  0.25000000  1.0 -0.0798724491
C  C261  1  0.80710000  0.42060000  0.25000000  1.0 -0.0798724491
C  C262  1  0.42060000  0.61350000  0.75000000  1.0 -0.0798724491
C  C263  1  0.38650000  0.80710000  0.75000000  1.0 -0.0798724491
C  C264  1  0.19290000  0.57940000  0.75000000  1.0 -0.0798724491
C  C265  1  0.60900000  0.37930000  0.25000000  1.0 -0.1727909798
C  C266  1  0.62070000  0.22970000  0.25000000  1.0 -0.1639148432
C  C267  1  0.77030000  0.39100000  0.25000000  1.0 -0.1727909798
C  C268  1  0.39100000  0.62070000  0.75000000  1.0 -0.1639148432
C  C269  1  0.37930000  0.77030000  0.75000000  1.0 -0.1639148432
C  C270  1  0.22970000  0.60900000  0.75000000  1.0 -0.1639148432
C  C271  1  0.60170000  0.34240000  0.25000000  1.0 0.136272758
C  C272  1  0.65760000  0.25930000  0.25000000  1.0 0.1275133265
C  C273  1  0.74070000  0.39830000  0.25000000  1.0 0.136272758
C  C274  1  0.39830000  0.65760000  0.75000000  1.0 0.136272758
C  C275  1  0.34240000  0.74070000  0.75000000  1.0 0.136272758
C  C276  1  0.25930000  0.60170000  0.75000000  1.0 0.136272758
C  C277  1  0.56490000  0.31280000  0.25000000  1.0 -0.1639148432
C  C278  1  0.68720000  0.25210000  0.25000000  1.0 -0.1639148432
C  C279  1  0.74790000  0.43510000  0.25000000  1.0 -0.1639148432
C  C280  1  0.43510000  0.68720000  0.75000000  1.0 -0.1639148432
C  C281  1  0.31280000  0.74790000  0.75000000  1.0 -0.1639148432
C  C282  1  0.25210000  0.56490000  0.75000000  1.0 -0.1639148432
C  C283  1  0.53530000  0.32010000  0.25000000  1.0 -0.0933334471
C  C284  1  0.67990000  0.21520000  0.25000000  1.0 -0.0933334471
C  C285  1  0.78480000  0.46470000  0.25000000  1.0 -0.0933334471
C  C286  1  0.46470000  0.67990000  0.75000000  1.0 -0.0933334471
C  C287  1  0.32010000  0.78480000  0.75000000  1.0 -0.0933334471
C  C288  1  0.21520000  0.53530000  0.75000000  1.0 -0.0933334471
C  C289  1  0.63640000  0.33580000  0.25000000  1.0 0.0206884561
C  C290  1  0.66420000  0.30060000  0.25000000  1.0 0.0206884561
C  C291  1  0.69940000  0.36360000  0.25000000  1.0 0.0206884561
C  C292  1  0.36360000  0.66420000  0.75000000  1.0 0.0287258891
C  C293  1  0.33580000  0.69940000  0.75000000  1.0 0.0287258891
C  C294  1  0.30060000  0.63640000  0.75000000  1.0 0.0287258891
C  C295  1  0.66990000  0.36890000  0.25000000  1.0 -0.2020611233
C  C296  1  0.63110000  0.30100000  0.25000000  1.0 -0.2020611233
C  C297  1  0.69900000  0.33010000  0.25000000  1.0 -0.2020611233
C  C298  1  0.33010000  0.63110000  0.75000000  1.0 -0.2020611233
C  C299  1  0.36890000  0.69900000  0.75000000  1.0 -0.2020611233
C  C300  1  0.30100000  0.66990000  0.75000000  1.0 -0.2020611233
O  O1  1  0.42320000  0.36870000  0.25000000  1.0 -1.0463203373
O  O2  1  0.63130000  0.05450000  0.25000000  1.0 -1.0463203373
O  O3  1  0.94550000  0.57680000  0.25000000  1.0 -1.0426005704
O  O4  1  0.57680000  0.63130000  0.75000000  1.0 -1.0463203373
O  O5  1  0.36870000  0.94550000  0.75000000  1.0 -1.0426005704
O  O6  1  0.05450000  0.42320000  0.75000000  1.0 -1.0426005704
O  O7  1  0.38500000  0.33390000  0.09340000  1.0 -0.5489455866
O  O8  1  0.66610000  0.05110000  0.09340000  1.0 -0.5489455866
O  O9  1  0.94890000  0.61500000  0.09340000  1.0 -0.5489455866
O  O10  1  0.61500000  0.66610000  0.59340000  1.0 -0.5489455866
O  O11  1  0.33390000  0.94890000  0.59340000  1.0 -0.5489455866
O  O12  1  0.05110000  0.38500000  0.59340000  1.0 -0.5489455866
O  O13  1  0.61500000  0.66610000  0.90660000  1.0 -0.5489455866
O  O14  1  0.33390000  0.94890000  0.90660000  1.0 -0.5489455866
O  O15  1  0.05110000  0.38500000  0.90660000  1.0 -0.5489455866
O  O16  1  0.38500000  0.33390000  0.40660000  1.0 -0.5489455866
O  O17  1  0.66610000  0.05110000  0.40660000  1.0 -0.5489455866
O  O18  1  0.94890000  0.61500000  0.40660000  1.0 -0.5489455866
O  O19  1  0.40980000  0.30050000  0.15440000  1.0 -0.560899395
O  O20  1  0.69950000  0.10930000  0.15440000  1.0 -0.560899395
O  O21  1  0.89070000  0.59020000  0.15440000  1.0 -0.560899395
O  O22  1  0.59020000  0.69950000  0.65440000  1.0 -0.560899395
O  O23  1  0.30050000  0.89070000  0.65440000  1.0 -0.560899395
O  O24  1  0.10930000  0.40980000  0.65440000  1.0 -0.560899395
O  O25  1  0.59020000  0.69950000  0.84560000  1.0 -0.560899395
O  O26  1  0.30050000  0.89070000  0.84560000  1.0 -0.560899395
O  O27  1  0.10930000  0.40980000  0.84560000  1.0 -0.560899395
O  O28  1  0.40980000  0.30050000  0.34560000  1.0 -0.560899395
O  O29  1  0.69950000  0.10930000  0.34560000  1.0 -0.560899395
O  O30  1  0.89070000  0.59020000  0.34560000  1.0 -0.560899395
O  O31  1  0.37190000  0.01720000  0.81270000  1.0 -0.5489455866
O  O32  1  0.98280000  0.35470000  0.81270000  1.0 -0.5489455866
O  O33  1  0.64530000  0.62810000  0.81270000  1.0 -0.5489455866
O  O34  1  0.62810000  0.98280000  0.31270000  1.0 -0.5489455866
O  O35  1  0.01720000  0.64530000  0.31270000  1.0 -0.5489455866
O  O36  1  0.35470000  0.37190000  0.31270000  1.0 -0.5489455866
O  O37  1  0.62810000  0.98280000  0.18730000  1.0 -0.5489455866
O  O38  1  0.01720000  0.64530000  0.18730000  1.0 -0.5489455866
O  O39  1  0.35470000  0.37190000  0.18730000  1.0 -0.5489455866
O  O40  1  0.37190000  0.01720000  0.68730000  1.0 -0.5489455866
O  O41  1  0.98280000  0.35470000  0.68730000  1.0 -0.5489455866
O  O42  1  0.64530000  0.62810000  0.68730000  1.0 -0.5489455866
O  O43  1  0.43340000  0.41500000  0.10230000  1.0 -0.4574800365
O  O44  1  0.58500000  0.01840000  0.10230000  1.0 -0.4574800365
O  O45  1  0.98160000  0.56660000  0.10230000  1.0 -0.4574800365
O  O46  1  0.56660000  0.58500000  0.60230000  1.0 -0.4574800365
O  O47  1  0.41500000  0.98160000  0.60230000  1.0 -0.4574800365
O  O48  1  0.01840000  0.43340000  0.60230000  1.0 -0.4574800365
O  O49  1  0.56660000  0.58500000  0.89770000  1.0 -0.4574800365
O  O50  1  0.41500000  0.98160000  0.89770000  1.0 -0.4574800365
O  O51  1  0.01840000  0.43340000  0.89770000  1.0 -0.4574800365
O  O52  1  0.43340000  0.41500000  0.39770000  1.0 -0.4574800365
O  O53  1  0.58500000  0.01840000  0.39770000  1.0 -0.4574800365
O  O54  1  0.98160000  0.56660000  0.39770000  1.0 -0.4574800365
O  O55  1  0.48880000  0.44430000  0.16440000  1.0 -0.4176854728
O  O56  1  0.55570000  0.04450000  0.16440000  1.0 -0.4176854728
O  O57  1  0.95550000  0.51120000  0.16440000  1.0 -0.4176854728
O  O58  1  0.51120000  0.55570000  0.66440000  1.0 -0.4176854728
O  O59  1  0.44430000  0.95550000  0.66440000  1.0 -0.4176854728
O  O60  1  0.04450000  0.48880000  0.66440000  1.0 -0.4176854728
O  O61  1  0.51120000  0.55570000  0.83560000  1.0 -0.4176854728
O  O62  1  0.44430000  0.95550000  0.83560000  1.0 -0.4176854728
O  O63  1  0.04450000  0.48880000  0.83560000  1.0 -0.4176854728
O  O64  1  0.48880000  0.44430000  0.33560000  1.0 -0.4176854728
O  O65  1  0.55570000  0.04450000  0.33560000  1.0 -0.4176854728
O  O66  1  0.95550000  0.51120000  0.33560000  1.0 -0.4176854728
O  O67  1  0.51220000  0.39330000  0.25000000  1.0 -0.4832097622
O  O68  1  0.60670000  0.11890000  0.25000000  1.0 -0.4832097622
O  O69  1  0.88110000  0.48780000  0.25000000  1.0 -0.4832097622
O  O70  1  0.48780000  0.60670000  0.75000000  1.0 -0.4832097622
O  O71  1  0.39330000  0.88110000  0.75000000  1.0 -0.4832097622
O  O72  1  0.11890000  0.51220000  0.75000000  1.0 -0.4832097622
O  O73  1  0.47640000  0.33600000  0.25000000  1.0 -0.4147012415
O  O74  1  0.66400000  0.14040000  0.25000000  1.0 -0.4176854728
O  O75  1  0.85960000  0.52360000  0.25000000  1.0 -0.4176854728
O  O76  1  0.52360000  0.66400000  0.75000000  1.0 -0.4147012415
O  O77  1  0.33600000  0.85960000  0.75000000  1.0 -0.4176854728
O  O78  1  0.14040000  0.47640000  0.75000000  1.0 -0.4176854728
