# DDEC6 charges by PACMAN v1.1 (https://github.com/mtap-research/PACMAN-charge/)
data_UDAWOO_ASR_pacman
_symmetry_space_group_name_H-M   'P 1'
_cell_length_a   19.41590000
_cell_length_b   19.41590000
_cell_length_c   30.88450000
_cell_angle_alpha   78.93930000
_cell_angle_beta   101.06100000
_cell_angle_gamma   134.88800000
_symmetry_Int_Tables_number   1
_chemical_formula_structural   ZnH8C12I3N4
_chemical_formula_sum   'Zn12 H96 C144 I36 N48'
_cell_volume   8068.78709262
_cell_formula_units_Z   12
loop_
 _symmetry_equiv_pos_site_id
 _symmetry_equiv_pos_as_xyz
  1  'x, y, z'
loop_
 _atom_site_type_symbol
 _atom_site_label
 _atom_site_symmetry_multiplicity
 _atom_site_fract_x
 _atom_site_fract_y
 _atom_site_fract_z
 _atom_site_occupancy
 _atom_site_charge
Zn  Zn1  1  0.02872000  0.68118000  0.77422000  1.0 0.4368141967
Zn  Zn2  1  0.31882000  0.97128000  0.27422000  1.0 0.4368141967
Zn  Zn3  1  0.96729000  0.21397000  0.93401000  1.0 0.3670183021
Zn  Zn4  1  0.78603000  0.03271000  0.43401000  1.0 0.3627277466
Zn  Zn5  1  0.70607000  0.53857000  0.59389000  1.0 0.3253758627
Zn  Zn6  1  0.46143000  0.29393000  0.09389000  1.0 0.3241249897
Zn  Zn7  1  0.68118000  0.02872000  0.72578000  1.0 0.4368141967
Zn  Zn8  1  0.97128000  0.31882000  0.22578000  1.0 0.4368141967
Zn  Zn9  1  0.21397000  0.96729000  0.56599000  1.0 0.3627277466
Zn  Zn10  1  0.03271000  0.78603000  0.06599000  1.0 0.3627277466
Zn  Zn11  1  0.53857000  0.70607000  0.90611000  1.0 0.3241249897
Zn  Zn12  1  0.29393000  0.46143000  0.40611000  1.0 0.3241249897
H  H1  1  0.77300000  0.37700000  0.71820000  1.0 0.121596882
H  H2  1  0.62300000  0.22700000  0.21820000  1.0 0.121596882
H  H3  1  0.65230000  0.63250000  0.01870000  1.0 0.1295833013
H  H4  1  0.36750000  0.34770000  0.51870000  1.0 0.1295833013
H  H5  1  0.80930000  0.48990000  0.66040000  1.0 0.0808086351
H  H6  1  0.51010000  0.19070000  0.16040000  1.0 0.0808086351
H  H7  1  0.22000000  0.75540000  0.82450000  1.0 0.1011463797
H  H8  1  0.24460000  0.78000000  0.32450000  1.0 0.1011463797
H  H9  1  0.16460000  0.88400000  0.73390000  1.0 0.0919936013
H  H10  1  0.11600000  0.83540000  0.23390000  1.0 0.0919936013
H  H11  1  0.71120000  0.49020000  0.98440000  1.0 0.1295833013
H  H12  1  0.50980000  0.28880000  0.48440000  1.0 0.1295833013
H  H13  1  0.49090000  0.23690000  0.69230000  1.0 0.1131907779
H  H14  1  0.76310000  0.50910000  0.19230000  1.0 0.1131907779
H  H15  1  0.00910000  0.81210000  0.78870000  1.0 0.0919936013
H  H16  1  0.18790000  0.99090000  0.28870000  1.0 0.0919936013
H  H17  1  0.75320000  0.07200000  0.92030000  1.0 0.0690753398
H  H18  1  0.92800000  0.24680000  0.42030000  1.0 0.0690753398
H  H19  1  0.32730000  0.02610000  0.73400000  1.0 0.121596882
H  H20  1  0.97390000  0.67270000  0.23400000  1.0 0.121596882
H  H21  1  0.62810000  0.04510000  0.87490000  1.0 0.121596882
H  H22  1  0.95490000  0.37190000  0.37490000  1.0 0.121596882
H  H23  1  0.59690000  0.35870000  0.03070000  1.0 0.0808086351
H  H24  1  0.64130000  0.40310000  0.53070000  1.0 0.0808086351
H  H25  1  0.53670000  0.35530000  0.63670000  1.0 0.0808086351
H  H26  1  0.64470000  0.46330000  0.13670000  1.0 0.0808086351
H  H27  1  0.93540000  0.09040000  0.87430000  1.0 0.0919936013
H  H28  1  0.90960000  0.06460000  0.37430000  1.0 0.0919936013
H  H29  1  0.90080000  0.95180000  0.87460000  1.0 0.1295833013
H  H30  1  0.04820000  0.09920000  0.37460000  1.0 0.1295833013
H  H31  1  0.53410000  0.49430000  0.06080000  1.0 0.0808086351
H  H32  1  0.50570000  0.46590000  0.56080000  1.0 0.0808086351
H  H33  1  0.85860000  0.89740000  0.00280000  1.0 0.1295833013
H  H34  1  0.10260000  0.14140000  0.50280000  1.0 0.1295833013
H  H35  1  0.38370000  0.89350000  0.82760000  1.0 0.1295833013
H  H36  1  0.10650000  0.61630000  0.32760000  1.0 0.1295833013
H  H37  1  0.90240000  0.04340000  0.99970000  1.0 0.0919936013
H  H38  1  0.95660000  0.09760000  0.49970000  1.0 0.0919936013
H  H39  1  0.87140000  0.59740000  0.91070000  1.0 0.121596882
H  H40  1  0.40260000  0.12860000  0.41070000  1.0 0.121596882
H  H41  1  0.82900000  0.29380000  0.80460000  1.0 0.121596882
H  H42  1  0.70620000  0.17100000  0.30460000  1.0 0.121596882
H  H43  1  0.93990000  0.58770000  0.86260000  1.0 0.1011463797
H  H44  1  0.41230000  0.06010000  0.36260000  1.0 0.1011463797
H  H45  1  0.95010000  0.83470000  0.83660000  1.0 0.1295833013
H  H46  1  0.16530000  0.04990000  0.33660000  1.0 0.1295833013
H  H47  1  0.94640000  0.31040000  0.85090000  1.0 0.0808086351
H  H48  1  0.68960000  0.05360000  0.35090000  1.0 0.0808086351
H  H49  1  0.37700000  0.77300000  0.78180000  1.0 0.121596882
H  H50  1  0.22700000  0.62300000  0.28180000  1.0 0.121596882
H  H51  1  0.63250000  0.65230000  0.48130000  1.0 0.1295833013
H  H52  1  0.34770000  0.36750000  0.98130000  1.0 0.1295833013
H  H53  1  0.48990000  0.80930000  0.83960000  1.0 0.0808086351
H  H54  1  0.19070000  0.51010000  0.33960000  1.0 0.0808086351
H  H55  1  0.75540000  0.22000000  0.67550000  1.0 0.1011463797
H  H56  1  0.78000000  0.24460000  0.17550000  1.0 0.1011463797
H  H57  1  0.88400000  0.16460000  0.76610000  1.0 0.0919936013
H  H58  1  0.83540000  0.11600000  0.26610000  1.0 0.0919936013
H  H59  1  0.49020000  0.71120000  0.51560000  1.0 0.1295833013
H  H60  1  0.28880000  0.50980000  0.01560000  1.0 0.1295833013
H  H61  1  0.23690000  0.49090000  0.80770000  1.0 0.1131907779
H  H62  1  0.50910000  0.76310000  0.30770000  1.0 0.1131907779
H  H63  1  0.81210000  0.00910000  0.71130000  1.0 0.0919936013
H  H64  1  0.99090000  0.18790000  0.21130000  1.0 0.0919936013
H  H65  1  0.07200000  0.75320000  0.57970000  1.0 0.0690753398
H  H66  1  0.24680000  0.92800000  0.07970000  1.0 0.0690753398
H  H67  1  0.02610000  0.32730000  0.76600000  1.0 0.121596882
H  H68  1  0.67270000  0.97390000  0.26600000  1.0 0.121596882
H  H69  1  0.04510000  0.62810000  0.62510000  1.0 0.121596882
H  H70  1  0.37190000  0.95490000  0.12510000  1.0 0.121596882
H  H71  1  0.35870000  0.59690000  0.46930000  1.0 0.0808086351
H  H72  1  0.40310000  0.64130000  0.96930000  1.0 0.0808086351
H  H73  1  0.35530000  0.53670000  0.86330000  1.0 0.0808086351
H  H74  1  0.46330000  0.64470000  0.36330000  1.0 0.0808086351
H  H75  1  0.09040000  0.93540000  0.62570000  1.0 0.0919936013
H  H76  1  0.06460000  0.90960000  0.12570000  1.0 0.0919936013
H  H77  1  0.95180000  0.90080000  0.62540000  1.0 0.1295833013
H  H78  1  0.09920000  0.04820000  0.12540000  1.0 0.1295833013
H  H79  1  0.49430000  0.53410000  0.43920000  1.0 0.0808086351
H  H80  1  0.46590000  0.50570000  0.93920000  1.0 0.0808086351
H  H81  1  0.89740000  0.85860000  0.49720000  1.0 0.1295833013
H  H82  1  0.14140000  0.10260000  0.99720000  1.0 0.1295833013
H  H83  1  0.89350000  0.38370000  0.67240000  1.0 0.1295833013
H  H84  1  0.61630000  0.10650000  0.17240000  1.0 0.1295833013
H  H85  1  0.04340000  0.90240000  0.50030000  1.0 0.0919936013
H  H86  1  0.09760000  0.95660000  0.00030000  1.0 0.0919936013
H  H87  1  0.59740000  0.87140000  0.58930000  1.0 0.121596882
H  H88  1  0.12860000  0.40260000  0.08930000  1.0 0.121596882
H  H89  1  0.29380000  0.82900000  0.69540000  1.0 0.121596882
H  H90  1  0.17100000  0.70620000  0.19540000  1.0 0.121596882
H  H91  1  0.58770000  0.93990000  0.63740000  1.0 0.1011463797
H  H92  1  0.06010000  0.41230000  0.13740000  1.0 0.1011463797
H  H93  1  0.83470000  0.95010000  0.66340000  1.0 0.1295833013
H  H94  1  0.04990000  0.16530000  0.16340000  1.0 0.1295833013
H  H95  1  0.31040000  0.94640000  0.64910000  1.0 0.0808086351
H  H96  1  0.05360000  0.68960000  0.14910000  1.0 0.0808086351
C  C1  1  0.69313000  0.57587000  0.99583000  1.0 0.0425951642
C  C2  1  0.42413000  0.30687000  0.49583000  1.0 0.0425951642
C  C3  1  0.71400000  0.16600000  0.83437000  1.0 0.049052698
C  C4  1  0.83400000  0.28600000  0.33437000  1.0 0.049052698
C  C5  1  0.85249000  0.81751000  0.93970000  1.0 0.3442074734
C  C6  1  0.18249000  0.14751000  0.43970000  1.0 0.3442074734
C  C7  1  0.62687000  0.29173000  0.71090000  1.0 0.049052698
C  C8  1  0.70827000  0.37313000  0.21090000  1.0 0.049052698
C  C9  1  0.76624000  0.66196000  0.96650000  1.0 0.3505751014
C  C10  1  0.33804000  0.23376000  0.46650000  1.0 0.3505751014
C  C11  1  0.48002000  0.06738000  0.78038000  1.0 0.3505751014
C  C12  1  0.93262000  0.51998000  0.28038000  1.0 0.3505751014
C  C13  1  0.85983000  0.72597000  0.91019000  1.0 0.3627277466
C  C14  1  0.27403000  0.14017000  0.41019000  1.0 0.3627277466
C  C15  1  0.72355000  0.37025000  0.70153000  1.0 -0.1595180833
C  C16  1  0.62975000  0.27645000  0.20153000  1.0 -0.1595180833
C  C17  1  0.87747000  0.90933000  0.93928000  1.0 0.0425951642
C  C18  1  0.09067000  0.12253000  0.43928000  1.0 0.0425951642
C  C19  1  0.63757000  0.15343000  0.80350000  1.0 0.3670183021
C  C20  1  0.84657000  0.36243000  0.30350000  1.0 0.3670183021
C  C21  1  0.59788000  0.21432000  0.74662000  1.0 0.3627277466
C  C22  1  0.78568000  0.40212000  0.24662000  1.0 0.3627277466
C  C23  1  0.90156000  0.71684000  0.87889000  1.0 0.0604420631
C  C24  1  0.28316000  0.09844000  0.37889000  1.0 0.0604420631
C  C25  1  0.64082000  0.57698000  0.01996000  1.0 -0.1686753077
C  C26  1  0.42302000  0.35918000  0.51996000  1.0 -0.1686753077
C  C27  1  0.74468000  0.43812000  0.66697000  1.0 0.0690753398
C  C28  1  0.56188000  0.25532000  0.16697000  1.0 0.0690753398
C  C29  1  0.24202000  0.81038000  0.80590000  1.0 0.0690753398
C  C30  1  0.18962000  0.75798000  0.30590000  1.0 0.0690753398
C  C31  1  0.20930000  0.88590000  0.75260000  1.0 0.0604420631
C  C32  1  0.11410000  0.79070000  0.25260000  1.0 0.0604420631
C  C33  1  0.67658000  0.49282000  0.99990000  1.0 -0.1504892686
C  C34  1  0.50718000  0.32342000  0.49990000  1.0 -0.1504892686
C  C35  1  0.55610000  0.28730000  0.68630000  1.0 -0.1686753077
C  C36  1  0.71270000  0.44390000  0.18630000  1.0 -0.1686753077
C  C37  1  0.98180000  0.76920000  0.81390000  1.0 0.0690753398
C  C38  1  0.23080000  0.01820000  0.31390000  1.0 0.0690753398
C  C39  1  0.76860000  0.11740000  0.89660000  1.0 0.0808086351
C  C40  1  0.88260000  0.23140000  0.39660000  1.0 0.0808086351
C  C41  1  0.30720000  0.97200000  0.75270000  1.0 -0.1686753077
C  C42  1  0.02800000  0.69280000  0.25270000  1.0 -0.1686753077
C  C43  1  0.69260000  0.10040000  0.86940000  1.0 -0.1595180833
C  C44  1  0.89960000  0.30740000  0.36940000  1.0 -0.1595180833
C  C45  1  0.60760000  0.41420000  0.02770000  1.0 0.049052698
C  C46  1  0.58580000  0.39240000  0.52770000  1.0 0.049052698
C  C47  1  0.58430000  0.35850000  0.65300000  1.0 0.049052698
C  C48  1  0.64150000  0.41570000  0.15300000  1.0 0.049052698
C  C49  1  0.92200000  0.05220000  0.90080000  1.0 0.0604420631
C  C50  1  0.94780000  0.07800000  0.40080000  1.0 0.0604420631
C  C51  1  0.90030000  0.96890000  0.90060000  1.0 -0.1595180833
C  C52  1  0.03110000  0.09970000  0.40060000  1.0 -0.1595180833
C  C53  1  0.37478000  0.97642000  0.78091000  1.0 0.049052698
C  C54  1  0.02358000  0.62522000  0.28091000  1.0 0.0604420631
C  C55  1  0.57127000  0.49413000  0.04584000  1.0 0.049052698
C  C56  1  0.50587000  0.42873000  0.54584000  1.0 0.049052698
C  C57  1  0.87624000  0.93676000  0.97641000  1.0 -0.1686753077
C  C58  1  0.06324000  0.12376000  0.47641000  1.0 -0.1686753077
C  C59  1  0.34054000  0.89326000  0.80810000  1.0 -0.1686753077
C  C60  1  0.10674000  0.65946000  0.30810000  1.0 -0.1686753077
C  C61  1  0.90153000  0.02407000  0.97410000  1.0 0.0604420631
C  C62  1  0.97593000  0.09847000  0.47410000  1.0 0.0604420631
C  C63  1  0.89973000  0.64247000  0.88620000  1.0 -0.1438489591
C  C64  1  0.35753000  0.10027000  0.38620000  1.0 -0.1438489591
C  C65  1  0.81124000  0.24676000  0.82790000  1.0 -0.1504892686
C  C66  1  0.75324000  0.18876000  0.32790000  1.0 -0.1504892686
C  C67  1  0.94004000  0.63656000  0.85710000  1.0 0.0690753398
C  C68  1  0.36344000  0.05996000  0.35710000  1.0 0.0690753398
C  C69  1  0.94529000  0.78271000  0.84220000  1.0 -0.1595180833
C  C70  1  0.21729000  0.05471000  0.34220000  1.0 -0.1595180833
C  C71  1  0.88120000  0.25680000  0.85600000  1.0 0.049052698
C  C72  1  0.74320000  0.11880000  0.35600000  1.0 0.049052698
C  C73  1  0.57587000  0.69313000  0.50417000  1.0 0.0425951642
C  C74  1  0.30687000  0.42413000  0.00417000  1.0 0.0425951642
C  C75  1  0.16600000  0.71400000  0.66563000  1.0 0.049052698
C  C76  1  0.28600000  0.83400000  0.16563000  1.0 0.049052698
C  C77  1  0.81751000  0.85249000  0.56030000  1.0 0.3442074734
C  C78  1  0.14751000  0.18249000  0.06030000  1.0 0.3442074734
C  C79  1  0.29173000  0.62687000  0.78910000  1.0 0.049052698
C  C80  1  0.37313000  0.70827000  0.28910000  1.0 0.049052698
C  C81  1  0.66196000  0.76624000  0.53350000  1.0 0.3505751014
C  C82  1  0.23376000  0.33804000  0.03350000  1.0 0.3505751014
C  C83  1  0.06738000  0.48002000  0.71962000  1.0 0.3505751014
C  C84  1  0.51998000  0.93262000  0.21962000  1.0 0.3627277466
C  C85  1  0.72597000  0.85983000  0.58981000  1.0 0.3627277466
C  C86  1  0.14017000  0.27403000  0.08981000  1.0 0.3627277466
C  C87  1  0.37025000  0.72355000  0.79847000  1.0 -0.1595180833
C  C88  1  0.27645000  0.62975000  0.29847000  1.0 -0.1595180833
C  C89  1  0.90933000  0.87747000  0.56072000  1.0 0.0425951642
C  C90  1  0.12253000  0.09067000  0.06072000  1.0 0.0425951642
C  C91  1  0.15343000  0.63757000  0.69650000  1.0 0.3670183021
C  C92  1  0.36243000  0.84657000  0.19650000  1.0 0.3670183021
C  C93  1  0.21432000  0.59788000  0.75338000  1.0 0.3627277466
C  C94  1  0.40212000  0.78568000  0.25338000  1.0 0.3627277466
C  C95  1  0.71684000  0.90156000  0.62111000  1.0 0.0604420631
C  C96  1  0.09844000  0.28316000  0.12111000  1.0 0.0604420631
C  C97  1  0.57698000  0.64082000  0.48004000  1.0 -0.1686753077
C  C98  1  0.35918000  0.42302000  0.98004000  1.0 -0.1686753077
C  C99  1  0.43812000  0.74468000  0.83303000  1.0 0.0690753398
C  C100  1  0.25532000  0.56188000  0.33303000  1.0 0.0690753398
C  C101  1  0.81038000  0.24202000  0.69410000  1.0 0.0690753398
C  C102  1  0.75798000  0.18962000  0.19410000  1.0 0.0690753398
C  C103  1  0.88590000  0.20930000  0.74740000  1.0 0.0604420631
C  C104  1  0.79070000  0.11410000  0.24740000  1.0 0.0604420631
C  C105  1  0.49282000  0.67658000  0.50010000  1.0 -0.1504892686
C  C106  1  0.32342000  0.50718000  0.00010000  1.0 -0.1504892686
C  C107  1  0.28730000  0.55610000  0.81370000  1.0 -0.1686753077
C  C108  1  0.44390000  0.71270000  0.31370000  1.0 -0.1686753077
C  C109  1  0.76920000  0.98180000  0.68610000  1.0 0.0690753398
C  C110  1  0.01820000  0.23080000  0.18610000  1.0 0.0690753398
C  C111  1  0.11740000  0.76860000  0.60340000  1.0 0.0808086351
C  C112  1  0.23140000  0.88260000  0.10340000  1.0 0.0808086351
C  C113  1  0.97200000  0.30720000  0.74730000  1.0 -0.1686753077
C  C114  1  0.69280000  0.02800000  0.24730000  1.0 -0.1686753077
C  C115  1  0.10040000  0.69260000  0.63060000  1.0 -0.1595180833
C  C116  1  0.30740000  0.89960000  0.13060000  1.0 -0.1595180833
C  C117  1  0.41420000  0.60760000  0.47230000  1.0 0.049052698
C  C118  1  0.39240000  0.58580000  0.97230000  1.0 0.049052698
C  C119  1  0.35850000  0.58430000  0.84700000  1.0 0.049052698
C  C120  1  0.41570000  0.64150000  0.34700000  1.0 0.049052698
C  C121  1  0.05220000  0.92200000  0.59920000  1.0 0.0604420631
C  C122  1  0.07800000  0.94780000  0.09920000  1.0 0.0604420631
C  C123  1  0.96890000  0.90030000  0.59940000  1.0 -0.1595180833
C  C124  1  0.09970000  0.03110000  0.09940000  1.0 -0.1595180833
C  C125  1  0.97642000  0.37478000  0.71909000  1.0 0.0604420631
C  C126  1  0.62522000  0.02358000  0.21909000  1.0 0.0604420631
C  C127  1  0.49413000  0.57127000  0.45416000  1.0 0.049052698
C  C128  1  0.42873000  0.50587000  0.95416000  1.0 0.049052698
C  C129  1  0.93676000  0.87624000  0.52359000  1.0 -0.1686753077
C  C130  1  0.12376000  0.06324000  0.02359000  1.0 -0.1686753077
C  C131  1  0.89326000  0.34054000  0.69190000  1.0 -0.1686753077
C  C132  1  0.65946000  0.10674000  0.19190000  1.0 -0.1686753077
C  C133  1  0.02407000  0.90153000  0.52590000  1.0 0.0604420631
C  C134  1  0.09847000  0.97593000  0.02590000  1.0 0.0604420631
C  C135  1  0.64247000  0.89973000  0.61380000  1.0 -0.1438489591
C  C136  1  0.10027000  0.35753000  0.11380000  1.0 -0.1438489591
C  C137  1  0.24676000  0.81124000  0.67210000  1.0 -0.1504892686
C  C138  1  0.18876000  0.75324000  0.17210000  1.0 -0.1504892686
C  C139  1  0.63656000  0.94004000  0.64290000  1.0 0.0690753398
C  C140  1  0.05996000  0.36344000  0.14290000  1.0 0.0690753398
C  C141  1  0.78271000  0.94529000  0.65780000  1.0 -0.1595180833
C  C142  1  0.05471000  0.21729000  0.15780000  1.0 -0.1595180833
C  C143  1  0.25680000  0.88120000  0.64400000  1.0 0.049052698
C  C144  1  0.11880000  0.74320000  0.14400000  1.0 0.049052698
I  I1  1  0.68688000  0.62786000  0.62990000  1.0 0.0271442791
I  I2  1  0.37214000  0.31312000  0.12990000  1.0 0.0271442791
I  I3  1  0.00059000  0.53103000  0.80082000  1.0 -0.4601391924
I  I4  1  0.46897000  0.99941000  0.30082000  1.0 -0.4601391924
I  I5  1  0.95879000  0.69791000  0.69880000  1.0 -0.4787719471
I  I6  1  0.30209000  0.04121000  0.19880000  1.0 -0.4787719471
I  I7  1  0.94774000  0.23138000  0.00890000  1.0 -0.4498583746
I  I8  1  0.76862000  0.05226000  0.50890000  1.0 -0.4498583746
I  I9  1  0.12776000  0.33926000  0.89455000  1.0 0.0271442791
I  I10  1  0.66074000  0.87224000  0.39455000  1.0 0.0271442791
I  I11  1  0.85701000  0.62359000  0.55650000  1.0 0.0131165494
I  I12  1  0.37641000  0.14299000  0.05650000  1.0 0.0131165494
I  I13  1  0.84943000  0.59857000  0.55660000  1.0 0.0131165494
I  I14  1  0.40143000  0.15057000  0.05660000  1.0 0.0131165494
I  I15  1  0.65566000  0.61634000  0.63038000  1.0 0.0690753398
I  I16  1  0.38366000  0.34434000  0.13038000  1.0 0.0690753398
I  I17  1  0.11982000  0.34458000  0.90810000  1.0 0.0131165494
I  I18  1  0.65542000  0.88018000  0.40810000  1.0 0.0131165494
I  I19  1  0.62786000  0.68688000  0.87010000  1.0 0.0271442791
I  I20  1  0.31312000  0.37214000  0.37010000  1.0 0.0247153084
I  I21  1  0.53103000  0.00059000  0.69918000  1.0 -0.4601391924
I  I22  1  0.99941000  0.46897000  0.19918000  1.0 -0.4601391924
I  I23  1  0.69791000  0.95879000  0.80120000  1.0 -0.4787719471
I  I24  1  0.04121000  0.30209000  0.30120000  1.0 -0.4787719471
I  I25  1  0.23138000  0.94774000  0.49110000  1.0 -0.4498583746
I  I26  1  0.05226000  0.76862000  0.99110000  1.0 -0.4498583746
I  I27  1  0.33926000  0.12776000  0.60545000  1.0 0.0271442791
I  I28  1  0.87224000  0.66074000  0.10545000  1.0 0.0271442791
I  I29  1  0.62359000  0.85701000  0.94350000  1.0 0.0131165494
I  I30  1  0.14299000  0.37641000  0.44350000  1.0 0.0131165494
I  I31  1  0.59857000  0.84943000  0.94340000  1.0 0.0131165494
I  I32  1  0.15057000  0.40143000  0.44340000  1.0 0.0131165494
I  I33  1  0.61634000  0.65566000  0.86962000  1.0 0.0690753398
I  I34  1  0.34434000  0.38366000  0.36962000  1.0 0.0604420631
I  I35  1  0.34458000  0.11982000  0.59190000  1.0 0.0131165494
I  I36  1  0.88018000  0.65542000  0.09190000  1.0 0.0131165494
N  N1  1  0.50276000  0.13784000  0.74954000  1.0 -0.4096395445
N  N2  1  0.86216000  0.49724000  0.24954000  1.0 -0.4096395445
N  N3  1  0.79444000  0.74636000  0.97040000  1.0 -0.4382058305
N  N4  1  0.25364000  0.20556000  0.47040000  1.0 -0.4382058305
N  N5  1  0.88770000  0.81190000  0.90859000  1.0 -0.4220792425
N  N6  1  0.18810000  0.11230000  0.40859000  1.0 -0.4220792425
N  N7  1  0.66872000  0.22608000  0.77210000  1.0 -0.4012438056
N  N8  1  0.77392000  0.33128000  0.27210000  1.0 -0.4012438056
N  N9  1  0.79759000  0.64821000  0.93724000  1.0 -0.4220792425
N  N10  1  0.35179000  0.20241000  0.43724000  1.0 -0.4220792425
N  N11  1  0.54350000  0.07150000  0.80911000  1.0 -0.4096395445
N  N12  1  0.92850000  0.45650000  0.30911000  1.0 -0.4096395445
N  N13  1  0.97971000  0.69869000  0.82083000  1.0 -0.2012416084
N  N14  1  0.30131000  0.02029000  0.32083000  1.0 -0.2012416084
N  N15  1  0.85989000  0.19311000  0.89052000  1.0 -0.1836317998
N  N16  1  0.80689000  0.14011000  0.39052000  1.0 -0.1836317998
N  N17  1  0.92486000  0.08174000  0.93685000  1.0 -0.2012416084
N  N18  1  0.91826000  0.07514000  0.43685000  1.0 -0.2012416084
N  N19  1  0.17640000  0.80520000  0.77840000  1.0 -0.2012416084
N  N20  1  0.19480000  0.82360000  0.27840000  1.0 -0.2012416084
N  N21  1  0.67667000  0.43253000  0.64276000  1.0 -0.1932738346
N  N22  1  0.56747000  0.32333000  0.14276000  1.0 -0.1932738346
N  N23  1  0.55507000  0.41413000  0.05042000  1.0 -0.205346517
N  N24  1  0.58587000  0.44493000  0.55042000  1.0 -0.205346517
N  N25  1  0.13784000  0.50276000  0.75046000  1.0 -0.4096395445
N  N26  1  0.49724000  0.86216000  0.25046000  1.0 -0.4096395445
N  N27  1  0.74636000  0.79444000  0.52960000  1.0 -0.4382058305
N  N28  1  0.20556000  0.25364000  0.02960000  1.0 -0.4382058305
N  N29  1  0.81190000  0.88770000  0.59141000  1.0 -0.4220792425
N  N30  1  0.11230000  0.18810000  0.09141000  1.0 -0.4220792425
N  N31  1  0.22608000  0.66872000  0.72790000  1.0 -0.4012438056
N  N32  1  0.33128000  0.77392000  0.22790000  1.0 -0.4012438056
N  N33  1  0.64821000  0.79759000  0.56276000  1.0 -0.4220792425
N  N34  1  0.20241000  0.35179000  0.06276000  1.0 -0.4220792425
N  N35  1  0.07150000  0.54350000  0.69089000  1.0 -0.4096395445
N  N36  1  0.45650000  0.92850000  0.19089000  1.0 -0.4096395445
N  N37  1  0.69869000  0.97971000  0.67917000  1.0 -0.2012416084
N  N38  1  0.02029000  0.30131000  0.17917000  1.0 -0.2012416084
N  N39  1  0.19311000  0.85989000  0.60948000  1.0 -0.1836317998
N  N40  1  0.14011000  0.80689000  0.10948000  1.0 -0.1836317998
N  N41  1  0.08174000  0.92486000  0.56315000  1.0 -0.2012416084
N  N42  1  0.07514000  0.91826000  0.06315000  1.0 -0.2012416084
N  N43  1  0.80520000  0.17640000  0.72160000  1.0 -0.2012416084
N  N44  1  0.82360000  0.19480000  0.22160000  1.0 -0.2012416084
N  N45  1  0.43253000  0.67667000  0.85724000  1.0 -0.1932738346
N  N46  1  0.32333000  0.56747000  0.35724000  1.0 -0.1932738346
N  N47  1  0.41413000  0.55507000  0.44958000  1.0 -0.205346517
N  N48  1  0.44493000  0.58587000  0.94958000  1.0 -0.205346517
