# DDEC6 charges by PACMAN v1.1 (https://github.com/mtap-research/PACMAN-charge/)
data_UDAXEF_FSR_pacman
_symmetry_space_group_name_H-M   'P 1'
_cell_length_a   19.19780000
_cell_length_b   19.19780000
_cell_length_c   30.90560000
_cell_angle_alpha   78.97190000
_cell_angle_beta   101.02800000
_cell_angle_gamma   134.49300000
_symmetry_Int_Tables_number   1
_chemical_formula_structural   Zn3H24C36(I2N3)4
_chemical_formula_sum   'Zn12 H96 C144 I32 N48'
_cell_volume   7948.47578130
_cell_formula_units_Z   4
loop_
 _symmetry_equiv_pos_site_id
 _symmetry_equiv_pos_as_xyz
  1  'x, y, z'
loop_
 _atom_site_type_symbol
 _atom_site_label
 _atom_site_symmetry_multiplicity
 _atom_site_fract_x
 _atom_site_fract_y
 _atom_site_fract_z
 _atom_site_occupancy
 _atom_site_charge
Zn  Zn1  1  0.78977000  0.96101000  0.90699000  1.0 0.4577096257
Zn  Zn2  1  0.03899000  0.21023000  0.40699000  1.0 0.4577096257
Zn  Zn3  1  0.71927000  0.47313000  0.05972000  1.0 0.3582212183
Zn  Zn4  1  0.52687000  0.28073000  0.55972000  1.0 0.3582212183
Zn  Zn5  1  0.18870000  0.53230000  0.23012000  1.0 0.3786059025
Zn  Zn6  1  0.46770000  0.81130000  0.73012000  1.0 0.3786059025
Zn  Zn7  1  0.96101000  0.78977000  0.59301000  1.0 0.4577096257
Zn  Zn8  1  0.21023000  0.03899000  0.09301000  1.0 0.4577096257
Zn  Zn9  1  0.47313000  0.71927000  0.44028000  1.0 0.3582212183
Zn  Zn10  1  0.28073000  0.52687000  0.94028000  1.0 0.3582212183
Zn  Zn11  1  0.53230000  0.18870000  0.26988000  1.0 0.3786059025
Zn  Zn12  1  0.81130000  0.46770000  0.76988000  1.0 0.3786059025
H  H1  1  0.53530000  0.38730000  0.99720000  1.0 0.1006528962
H  H2  1  0.61270000  0.46470000  0.49720000  1.0 0.1006528962
H  H3  1  0.58810000  0.25750000  0.06840000  1.0 0.1006528962
H  H4  1  0.74250000  0.41190000  0.56840000  1.0 0.1006528962
H  H5  1  0.08000000  0.42680000  0.14550000  1.0 0.0793643288
H  H6  1  0.57320000  0.92000000  0.64550000  1.0 0.0793643288
H  H7  1  0.13250000  0.15290000  0.98090000  1.0 0.1352821443
H  H8  1  0.84710000  0.86750000  0.48090000  1.0 0.1352821443
H  H9  1  0.55690000  0.13130000  0.11680000  1.0 0.1299717063
H  H10  1  0.86870000  0.44310000  0.61680000  1.0 0.1299717063
H  H11  1  0.25360000  0.72400000  0.18030000  1.0 0.0793643288
H  H12  1  0.27600000  0.74640000  0.68030000  1.0 0.0793643288
H  H13  1  0.84990000  0.08850000  0.97580000  1.0 0.1096134953
H  H14  1  0.91150000  0.15010000  0.47580000  1.0 0.1096134953
H  H15  1  0.78900000  0.33520000  0.19690000  1.0 0.1006528962
H  H16  1  0.66480000  0.21100000  0.69690000  1.0 0.1006528962
H  H17  1  0.99250000  0.03570000  0.93760000  1.0 0.1006528962
H  H18  1  0.96430000  0.00750000  0.43760000  1.0 0.1006528962
H  H19  1  0.81010000  0.45550000  0.14840000  1.0 0.0608845217
H  H20  1  0.54450000  0.18990000  0.64840000  1.0 0.0608845217
H  H21  1  0.39910000  0.66770000  0.25930000  1.0 0.0917556116
H  H22  1  0.33230000  0.60090000  0.75930000  1.0 0.0917556116
H  H23  1  0.39380000  0.88920000  0.17360000  1.0 0.1352821443
H  H24  1  0.11080000  0.60620000  0.67360000  1.0 0.1352821443
H  H25  1  0.09060000  0.36100000  0.09510000  1.0 0.1299717063
H  H26  1  0.63900000  0.90940000  0.59510000  1.0 0.1299717063
H  H27  1  0.98320000  0.20360000  0.02070000  1.0 0.1299717063
H  H28  1  0.79640000  0.01680000  0.52070000  1.0 0.1299717063
H  H29  1  0.38740000  0.34240000  0.99640000  1.0 0.1299717063
H  H30  1  0.65760000  0.61260000  0.49640000  1.0 0.1299717063
H  H31  1  0.54290000  0.83230000  0.25550000  1.0 0.1299717063
H  H32  1  0.16770000  0.45710000  0.75550000  1.0 0.1299717063
H  H33  1  0.32120000  0.51340000  0.21270000  1.0 0.0917556116
H  H34  1  0.48660000  0.67880000  0.71270000  1.0 0.0917556116
H  H35  1  0.46640000  0.42720000  0.11950000  1.0 0.1352821443
H  H36  1  0.57280000  0.53360000  0.61950000  1.0 0.1352821443
H  H37  1  0.34160000  0.45400000  0.16270000  1.0 0.1299717063
H  H38  1  0.54600000  0.65840000  0.66270000  1.0 0.1299717063
H  H39  1  0.61250000  0.47330000  0.11580000  1.0 0.0793643288
H  H40  1  0.52670000  0.38750000  0.61580000  1.0 0.0793643288
H  H41  1  0.88840000  0.28040000  0.27520000  1.0 0.1096134953
H  H42  1  0.71960000  0.11160000  0.77520000  1.0 0.1096134953
H  H43  1  0.72380000  0.99220000  0.31460000  1.0 0.1096134953
H  H44  1  0.00780000  0.27620000  0.81460000  1.0 0.1096134953
H  H45  1  0.99910000  0.31870000  0.33590000  1.0 0.1006528962
H  H46  1  0.68130000  0.00090000  0.83590000  1.0 0.1006528962
H  H47  1  0.84430000  0.03870000  0.37130000  1.0 0.0793643288
H  H48  1  0.96130000  0.15570000  0.87130000  1.0 0.0793643288
H  H49  1  0.38730000  0.53530000  0.50280000  1.0 0.1006528962
H  H50  1  0.46470000  0.61270000  0.00280000  1.0 0.1006528962
H  H51  1  0.25750000  0.58810000  0.43160000  1.0 0.1006528962
H  H52  1  0.41190000  0.74250000  0.93160000  1.0 0.1006528962
H  H53  1  0.42680000  0.08000000  0.35450000  1.0 0.0793643288
H  H54  1  0.92000000  0.57320000  0.85450000  1.0 0.0793643288
H  H55  1  0.15290000  0.13250000  0.51910000  1.0 0.1352821443
H  H56  1  0.86750000  0.84710000  0.01910000  1.0 0.1352821443
H  H57  1  0.13130000  0.55690000  0.38320000  1.0 0.1299717063
H  H58  1  0.44310000  0.86870000  0.88320000  1.0 0.1299717063
H  H59  1  0.72400000  0.25360000  0.31970000  1.0 0.0793643288
H  H60  1  0.74640000  0.27600000  0.81970000  1.0 0.0793643288
H  H61  1  0.08850000  0.84990000  0.52420000  1.0 0.1096134953
H  H62  1  0.15010000  0.91150000  0.02420000  1.0 0.1096134953
H  H63  1  0.33520000  0.78900000  0.30310000  1.0 0.1006528962
H  H64  1  0.21100000  0.66480000  0.80310000  1.0 0.1006528962
H  H65  1  0.03570000  0.99250000  0.56240000  1.0 0.1006528962
H  H66  1  0.00750000  0.96430000  0.06240000  1.0 0.1006528962
H  H67  1  0.45550000  0.81010000  0.35160000  1.0 0.0608845217
H  H68  1  0.18990000  0.54450000  0.85160000  1.0 0.0608845217
H  H69  1  0.66770000  0.39910000  0.24070000  1.0 0.0917556116
H  H70  1  0.60090000  0.33230000  0.74070000  1.0 0.0917556116
H  H71  1  0.88920000  0.39380000  0.32640000  1.0 0.1352821443
H  H72  1  0.60620000  0.11080000  0.82640000  1.0 0.1352821443
H  H73  1  0.36100000  0.09060000  0.40490000  1.0 0.1299717063
H  H74  1  0.90940000  0.63900000  0.90490000  1.0 0.1299717063
H  H75  1  0.20360000  0.98320000  0.47930000  1.0 0.1299717063
H  H76  1  0.01680000  0.79640000  0.97930000  1.0 0.1299717063
H  H77  1  0.34240000  0.38740000  0.50360000  1.0 0.1299717063
H  H78  1  0.61260000  0.65760000  0.00360000  1.0 0.1299717063
H  H79  1  0.83230000  0.54290000  0.24450000  1.0 0.1299717063
H  H80  1  0.45710000  0.16770000  0.74450000  1.0 0.1299717063
H  H81  1  0.51340000  0.32120000  0.28730000  1.0 0.0917556116
H  H82  1  0.67880000  0.48660000  0.78730000  1.0 0.0917556116
H  H83  1  0.42720000  0.46640000  0.38050000  1.0 0.1352821443
H  H84  1  0.53360000  0.57280000  0.88050000  1.0 0.1352821443
H  H85  1  0.45400000  0.34160000  0.33730000  1.0 0.1299717063
H  H86  1  0.65840000  0.54600000  0.83730000  1.0 0.1299717063
H  H87  1  0.47330000  0.61250000  0.38420000  1.0 0.0793643288
H  H88  1  0.38750000  0.52670000  0.88420000  1.0 0.0793643288
H  H89  1  0.28040000  0.88840000  0.22480000  1.0 0.1096134953
H  H90  1  0.11160000  0.71960000  0.72480000  1.0 0.1096134953
H  H91  1  0.99220000  0.72380000  0.18540000  1.0 0.1096134953
H  H92  1  0.27620000  0.00780000  0.68540000  1.0 0.1096134953
H  H93  1  0.31870000  0.99910000  0.16410000  1.0 0.1006528962
H  H94  1  0.00090000  0.68130000  0.66410000  1.0 0.1006528962
H  H95  1  0.03870000  0.84430000  0.12870000  1.0 0.0793643288
H  H96  1  0.15570000  0.96130000  0.62870000  1.0 0.0793643288
C  C1  1  0.71750000  0.10330000  0.25170000  1.0 0.3582212183
C  C2  1  0.89670000  0.28250000  0.75170000  1.0 0.3582212183
C  C3  1  0.22630000  0.35950000  0.09160000  1.0 0.3695319994
C  C4  1  0.64050000  0.77370000  0.59160000  1.0 0.3695319994
C  C5  1  0.65850000  0.14350000  0.19290000  1.0 0.3695319994
C  C6  1  0.85650000  0.34150000  0.69290000  1.0 0.3695319994
C  C7  1  0.67080000  0.22000000  0.16180000  1.0 0.0498056313
C  C8  1  0.78000000  0.32920000  0.66180000  1.0 0.0498056313
C  C9  1  0.31740000  0.35440000  0.05890000  1.0 0.3695319994
C  C10  1  0.64560000  0.68260000  0.55890000  1.0 0.3786059025
C  C11  1  0.07210000  0.18930000  0.00650000  1.0 0.0498056313
C  C12  1  0.81070000  0.92790000  0.50650000  1.0 0.0498056313
C  C13  1  0.48370000  0.87950000  0.21450000  1.0 0.0608845217
C  C14  1  0.12050000  0.51630000  0.71450000  1.0 0.0608845217
C  C15  1  0.57450000  0.98550000  0.21550000  1.0 0.3407969105
C  C16  1  0.01450000  0.42550000  0.71550000  1.0 0.3407969105
C  C17  1  0.52120000  0.39600000  0.02240000  1.0 0.0793643288
C  C18  1  0.60400000  0.47880000  0.52240000  1.0 0.0793643288
C  C19  1  0.62780000  0.27260000  0.09540000  1.0 0.0917556116
C  C20  1  0.72740000  0.37220000  0.59540000  1.0 0.0917556116
C  C21  1  0.13350000  0.43150000  0.14910000  1.0 0.0434448201
C  C22  1  0.56850000  0.86650000  0.64910000  1.0 0.0434448201
C  C23  1  0.41240000  0.38380000  0.05740000  1.0 0.0498056313
C  C24  1  0.61620000  0.58760000  0.55740000  1.0 0.0498056313
C  C25  1  0.07470000  0.13990000  0.98070000  1.0 -0.1712039758
C  C26  1  0.86010000  0.92530000  0.48070000  1.0 -0.1712039758
C  C27  1  0.21750000  0.39970000  0.12370000  1.0 0.0608845217
C  C28  1  0.60030000  0.78250000  0.62370000  1.0 0.0608845217
C  C29  1  0.61000000  0.19740000  0.12360000  1.0 -0.1410193365
C  C30  1  0.80260000  0.39000000  0.62360000  1.0 -0.1410193365
C  C31  1  0.15902000  0.26378000  0.03520000  1.0 0.3582212183
C  C32  1  0.73622000  0.84098000  0.53520000  1.0 0.3582212183
C  C33  1  0.31320000  0.74660000  0.19590000  1.0 0.0696991606
C  C34  1  0.25340000  0.68680000  0.69590000  1.0 0.0696991606
C  C35  1  0.90800000  0.10180000  0.97700000  1.0 0.0608845217
C  C36  1  0.89820000  0.09200000  0.47700000  1.0 0.0608845217
C  C37  1  0.74610000  0.31770000  0.17080000  1.0 -0.1586110911
C  C38  1  0.68230000  0.25390000  0.67080000  1.0 -0.1586110911
C  C39  1  0.99140000  0.07120000  0.95460000  1.0 0.0696991606
C  C40  1  0.92880000  0.00860000  0.45460000  1.0 0.0696991606
C  C41  1  0.75850000  0.38890000  0.14190000  1.0 0.0498056313
C  C42  1  0.61110000  0.24150000  0.64190000  1.0 0.0498056313
C  C43  1  0.39810000  0.71370000  0.24210000  1.0 0.0696991606
C  C44  1  0.28630000  0.60190000  0.74210000  1.0 0.0696991606
C  C45  1  0.39640000  0.84520000  0.19180000  1.0 -0.1712039758
C  C46  1  0.15480000  0.60360000  0.69180000  1.0 -0.1712039758
C  C47  1  0.13940000  0.39260000  0.11900000  1.0 -0.1331643273
C  C48  1  0.60740000  0.86060000  0.61900000  1.0 -0.1331643273
C  C49  1  0.98660000  0.16960000  0.00390000  1.0 -0.1586110911
C  C50  1  0.83040000  0.01340000  0.50390000  1.0 -0.1586110911
C  C51  1  0.43320000  0.36980000  0.02160000  1.0 -0.1522493713
C  C52  1  0.63020000  0.56680000  0.52160000  1.0 -0.1522493713
C  C53  1  0.48410000  0.81150000  0.23990000  1.0 -0.1586110911
C  C54  1  0.18850000  0.51590000  0.73990000  1.0 -0.1586110911
C  C55  1  0.27410000  0.48270000  0.18820000  1.0 0.0793643288
C  C56  1  0.51730000  0.72590000  0.68820000  1.0 0.0793643288
C  C57  1  0.47940000  0.41980000  0.09340000  1.0 -0.1410193365
C  C58  1  0.58020000  0.52060000  0.59340000  1.0 -0.1410193365
C  C59  1  0.28640000  0.44660000  0.15870000  1.0 -0.1522493713
C  C60  1  0.55340000  0.71360000  0.65870000  1.0 -0.1522493713
C  C61  1  0.56520000  0.44500000  0.09120000  1.0 0.0608845217
C  C62  1  0.55500000  0.43480000  0.59120000  1.0 0.0608845217
C  C63  1  0.79260000  0.13136000  0.28878000  1.0 0.0608845217
C  C64  1  0.86864000  0.20740000  0.78878000  1.0 0.0608845217
C  C65  1  0.87699000  0.22955000  0.29517000  1.0 -0.1712039758
C  C66  1  0.77045000  0.12301000  0.79517000  1.0 -0.1712039758
C  C67  1  0.78035000  0.05965000  0.31790000  1.0 -0.1712039758
C  C68  1  0.94035000  0.21965000  0.81790000  1.0 -0.1712039758
C  C69  1  0.94348000  0.25192000  0.33078000  1.0 0.0793643288
C  C70  1  0.74808000  0.05652000  0.83078000  1.0 0.0793643288
C  C71  1  0.85208000  0.08812000  0.35186000  1.0 0.0696991606
C  C72  1  0.91188000  0.14792000  0.85186000  1.0 0.0793643288
C  C73  1  0.10330000  0.71750000  0.24830000  1.0 0.3582212183
C  C74  1  0.28250000  0.89670000  0.74830000  1.0 0.3582212183
C  C75  1  0.35950000  0.22630000  0.40840000  1.0 0.3695319994
C  C76  1  0.77370000  0.64050000  0.90840000  1.0 0.3695319994
C  C77  1  0.14350000  0.65850000  0.30710000  1.0 0.3695319994
C  C78  1  0.34150000  0.85650000  0.80710000  1.0 0.3695319994
C  C79  1  0.22000000  0.67080000  0.33820000  1.0 0.0498056313
C  C80  1  0.32920000  0.78000000  0.83820000  1.0 0.0498056313
C  C81  1  0.35440000  0.31740000  0.44110000  1.0 0.3786059025
C  C82  1  0.68260000  0.64560000  0.94110000  1.0 0.3786059025
C  C83  1  0.18930000  0.07210000  0.49350000  1.0 0.0498056313
C  C84  1  0.92790000  0.81070000  0.99350000  1.0 0.0498056313
C  C85  1  0.87950000  0.48370000  0.28550000  1.0 0.0608845217
C  C86  1  0.51630000  0.12050000  0.78550000  1.0 0.0608845217
C  C87  1  0.98550000  0.57450000  0.28450000  1.0 0.3407969105
C  C88  1  0.42550000  0.01450000  0.78450000  1.0 0.3407969105
C  C89  1  0.39600000  0.52120000  0.47760000  1.0 0.0793643288
C  C90  1  0.47880000  0.60400000  0.97760000  1.0 0.0793643288
C  C91  1  0.27260000  0.62780000  0.40460000  1.0 0.0917556116
C  C92  1  0.37220000  0.72740000  0.90460000  1.0 0.0917556116
C  C93  1  0.43150000  0.13350000  0.35090000  1.0 0.0434448201
C  C94  1  0.86650000  0.56850000  0.85090000  1.0 0.0434448201
C  C95  1  0.38380000  0.41240000  0.44260000  1.0 0.0498056313
C  C96  1  0.58760000  0.61620000  0.94260000  1.0 0.0498056313
C  C97  1  0.13990000  0.07470000  0.51930000  1.0 -0.1712039758
C  C98  1  0.92530000  0.86010000  0.01930000  1.0 -0.1712039758
C  C99  1  0.39970000  0.21750000  0.37630000  1.0 0.0608845217
C  C100  1  0.78250000  0.60030000  0.87630000  1.0 0.0608845217
C  C101  1  0.19740000  0.61000000  0.37640000  1.0 -0.1410193365
C  C102  1  0.39000000  0.80260000  0.87640000  1.0 -0.1410193365
C  C103  1  0.26378000  0.15902000  0.46480000  1.0 0.3582212183
C  C104  1  0.84098000  0.73622000  0.96480000  1.0 0.3582212183
C  C105  1  0.74660000  0.31320000  0.30410000  1.0 0.0696991606
C  C106  1  0.68680000  0.25340000  0.80410000  1.0 0.0696991606
C  C107  1  0.10180000  0.90800000  0.52300000  1.0 0.0608845217
C  C108  1  0.09200000  0.89820000  0.02300000  1.0 0.0608845217
C  C109  1  0.31770000  0.74610000  0.32920000  1.0 -0.1586110911
C  C110  1  0.25390000  0.68230000  0.82920000  1.0 -0.1586110911
C  C111  1  0.07120000  0.99140000  0.54540000  1.0 0.0696991606
C  C112  1  0.00860000  0.92880000  0.04540000  1.0 0.0696991606
C  C113  1  0.38890000  0.75850000  0.35810000  1.0 0.0498056313
C  C114  1  0.24150000  0.61110000  0.85810000  1.0 0.0498056313
C  C115  1  0.71370000  0.39810000  0.25790000  1.0 0.0696991606
C  C116  1  0.60190000  0.28630000  0.75790000  1.0 0.0696991606
C  C117  1  0.84520000  0.39640000  0.30820000  1.0 -0.1712039758
C  C118  1  0.60360000  0.15480000  0.80820000  1.0 -0.1712039758
C  C119  1  0.39260000  0.13940000  0.38100000  1.0 -0.1331643273
C  C120  1  0.86060000  0.60740000  0.88100000  1.0 -0.1331643273
C  C121  1  0.16960000  0.98660000  0.49610000  1.0 -0.1586110911
C  C122  1  0.01340000  0.83040000  0.99610000  1.0 -0.1586110911
C  C123  1  0.36980000  0.43320000  0.47840000  1.0 -0.1522493713
C  C124  1  0.56680000  0.63020000  0.97840000  1.0 -0.1522493713
C  C125  1  0.81150000  0.48410000  0.26010000  1.0 -0.1586110911
C  C126  1  0.51590000  0.18850000  0.76010000  1.0 -0.1586110911
C  C127  1  0.48270000  0.27410000  0.31180000  1.0 0.0793643288
C  C128  1  0.72590000  0.51730000  0.81180000  1.0 0.0793643288
C  C129  1  0.41980000  0.47940000  0.40660000  1.0 -0.1410193365
C  C130  1  0.52060000  0.58020000  0.90660000  1.0 -0.1410193365
C  C131  1  0.44660000  0.28640000  0.34130000  1.0 -0.1522493713
C  C132  1  0.71360000  0.55340000  0.84130000  1.0 -0.1522493713
C  C133  1  0.44500000  0.56520000  0.40880000  1.0 0.0608845217
C  C134  1  0.43480000  0.55500000  0.90880000  1.0 0.0608845217
C  C135  1  0.13136000  0.79260000  0.21122000  1.0 0.0608845217
C  C136  1  0.20740000  0.86864000  0.71122000  1.0 0.0608845217
C  C137  1  0.22955000  0.87699000  0.20483000  1.0 -0.1712039758
C  C138  1  0.12301000  0.77045000  0.70483000  1.0 -0.1712039758
C  C139  1  0.05965000  0.78035000  0.18210000  1.0 -0.1712039758
C  C140  1  0.21965000  0.94035000  0.68210000  1.0 -0.1712039758
C  C141  1  0.25192000  0.94348000  0.16922000  1.0 0.0793643288
C  C142  1  0.05652000  0.74808000  0.66922000  1.0 0.0793643288
C  C143  1  0.08812000  0.85208000  0.14814000  1.0 0.0696991606
C  C144  1  0.14792000  0.91188000  0.64814000  1.0 0.0696991606
I  I1  1  0.03338000  0.49790000  0.20723000  1.0 0.0066957878
I  I2  1  0.50210000  0.96662000  0.70723000  1.0 0.0066957878
I  I3  1  0.81948000  0.87668000  0.87040000  1.0 -0.4384033378
I  I4  1  0.12332000  0.18052000  0.37040000  1.0 -0.4384033378
I  I5  1  0.21764000  0.47646000  0.30719000  1.0 -0.4306384843
I  I6  1  0.52354000  0.78236000  0.80719000  1.0 -0.4306384843
I  I7  1  0.73439000  0.44753000  0.98596000  1.0 -0.4384033378
I  I8  1  0.55247000  0.26561000  0.48596000  1.0 -0.4384033378
I  I9  1  0.84089000  0.63349000  0.09934000  1.0 0.0344348702
I  I10  1  0.36651000  0.15911000  0.59934000  1.0 0.0344348702
I  I11  1  0.64026000  0.88410000  0.94353000  1.0 -0.4481334087
I  I12  1  0.11590000  0.35974000  0.44353000  1.0 -0.4481334087
I  I13  1  0.84933000  0.62667000  0.09040000  1.0 0.0066957878
I  I14  1  0.37333000  0.15067000  0.59040000  1.0 0.0066957878
I  I15  1  0.03250000  0.51770000  0.19240000  1.0 0.0793643288
I  I16  1  0.48230000  0.96750000  0.69240000  1.0 0.0793643288
I  I17  1  0.49790000  0.03338000  0.29277000  1.0 0.0066957878
I  I18  1  0.96662000  0.50210000  0.79277000  1.0 0.0066957878
I  I19  1  0.87668000  0.81948000  0.62960000  1.0 -0.4384033378
I  I20  1  0.18052000  0.12332000  0.12960000  1.0 -0.4384033378
I  I21  1  0.47646000  0.21764000  0.19281000  1.0 -0.4306384843
I  I22  1  0.78236000  0.52354000  0.69281000  1.0 -0.4306384843
I  I23  1  0.44753000  0.73439000  0.51404000  1.0 -0.4384033378
I  I24  1  0.26561000  0.55247000  0.01404000  1.0 -0.4384033378
I  I25  1  0.63349000  0.84089000  0.40066000  1.0 0.0344348702
I  I26  1  0.15911000  0.36651000  0.90066000  1.0 0.0344348702
I  I27  1  0.88410000  0.64026000  0.55647000  1.0 -0.4481334087
I  I28  1  0.35974000  0.11590000  0.05647000  1.0 -0.4481334087
I  I29  1  0.62667000  0.84933000  0.40960000  1.0 0.0066957878
I  I30  1  0.15067000  0.37333000  0.90960000  1.0 0.0066957878
I  I31  1  0.51770000  0.03250000  0.30760000  1.0 0.0793643288
I  I32  1  0.96750000  0.48230000  0.80760000  1.0 0.0793643288
N  N1  1  0.31278000  0.68122000  0.22080000  1.0 -0.18883947
N  N2  1  0.31878000  0.68722000  0.72080000  1.0 -0.18883947
N  N3  1  0.64374000  0.00826000  0.24710000  1.0 -0.4211115722
N  N4  1  0.99174000  0.35626000  0.74710000  1.0 -0.4211115722
N  N5  1  0.90928000  0.05232000  0.95210000  1.0 -0.197007164
N  N6  1  0.94768000  0.09072000  0.45210000  1.0 -0.197007164
N  N7  1  0.72879000  0.17481000  0.22600000  1.0 -0.4211115722
N  N8  1  0.82519000  0.27121000  0.72600000  1.0 -0.4211115722
N  N9  1  0.69934000  0.36666000  0.10490000  1.0 -0.181762356
N  N10  1  0.63334000  0.30066000  0.60490000  1.0 -0.181762356
N  N11  1  0.24453000  0.29367000  0.02951000  1.0 -0.4110109207
N  N12  1  0.70633000  0.75547000  0.52951000  1.0 -0.4110109207
N  N13  1  0.20093000  0.47687000  0.18410000  1.0 -0.18883947
N  N14  1  0.52313000  0.79907000  0.68410000  1.0 -0.18883947
N  N15  1  0.57820000  0.04900000  0.18660000  1.0 -0.4110109207
N  N16  1  0.95100000  0.42180000  0.68660000  1.0 -0.4110109207
N  N17  1  0.58664000  0.43276000  0.05710000  1.0 -0.18883947
N  N18  1  0.56724000  0.41336000  0.55710000  1.0 -0.18883947
N  N19  1  0.14617000  0.29503000  0.06510000  1.0 -0.4110109207
N  N20  1  0.70497000  0.85383000  0.56510000  1.0 -0.4110109207
N  N21  1  0.31328000  0.39052000  0.09000000  1.0 -0.4044771787
N  N22  1  0.60948000  0.68672000  0.59000000  1.0 -0.4044771787
N  N23  1  0.93154000  0.18146000  0.35858000  1.0 -0.1712039758
N  N24  1  0.81854000  0.06846000  0.85858000  1.0 -0.1712039758
N  N25  1  0.68122000  0.31278000  0.27920000  1.0 -0.18883947
N  N26  1  0.68722000  0.31878000  0.77920000  1.0 -0.18883947
N  N27  1  0.00826000  0.64374000  0.25290000  1.0 -0.4211115722
N  N28  1  0.35626000  0.99174000  0.75290000  1.0 -0.4211115722
N  N29  1  0.05232000  0.90928000  0.54790000  1.0 -0.197007164
N  N30  1  0.09072000  0.94768000  0.04790000  1.0 -0.197007164
N  N31  1  0.17481000  0.72879000  0.27400000  1.0 -0.4211115722
N  N32  1  0.27121000  0.82519000  0.77400000  1.0 -0.4211115722
N  N33  1  0.36666000  0.69934000  0.39510000  1.0 -0.181762356
N  N34  1  0.30066000  0.63334000  0.89510000  1.0 -0.181762356
N  N35  1  0.29367000  0.24453000  0.47049000  1.0 -0.4110109207
N  N36  1  0.75547000  0.70633000  0.97049000  1.0 -0.4110109207
N  N37  1  0.47687000  0.20093000  0.31590000  1.0 -0.18883947
N  N38  1  0.79907000  0.52313000  0.81590000  1.0 -0.18883947
N  N39  1  0.04900000  0.57820000  0.31340000  1.0 -0.4110109207
N  N40  1  0.42180000  0.95100000  0.81340000  1.0 -0.4110109207
N  N41  1  0.43276000  0.58664000  0.44290000  1.0 -0.18883947
N  N42  1  0.41336000  0.56724000  0.94290000  1.0 -0.18883947
N  N43  1  0.29503000  0.14617000  0.43490000  1.0 -0.4110109207
N  N44  1  0.85383000  0.70497000  0.93490000  1.0 -0.4110109207
N  N45  1  0.39052000  0.31328000  0.41000000  1.0 -0.4044771787
N  N46  1  0.68672000  0.60948000  0.91000000  1.0 -0.4044771787
N  N47  1  0.18146000  0.93154000  0.14142000  1.0 -0.1712039758
N  N48  1  0.06846000  0.81854000  0.64142000  1.0 -0.1712039758
