# DDEC6 charges by PACMAN v1.1 (https://github.com/mtap-research/PACMAN-charge/)
data_UDEMEW_FSR_pacman
_symmetry_space_group_name_H-M   'P 1'
_cell_length_a   51.55210000
_cell_length_b   51.55210000
_cell_length_c   51.55210000
_cell_angle_alpha   60.00000000
_cell_angle_beta   60.00000000
_cell_angle_gamma   60.00000000
_symmetry_Int_Tables_number   1
_chemical_formula_structural   Cr3(C9O8)2
_chemical_formula_sum   'Cr204 C1224 O1088'
_cell_volume   96877.75936957
_cell_formula_units_Z   68
loop_
 _symmetry_equiv_pos_site_id
 _symmetry_equiv_pos_as_xyz
  1  'x, y, z'
loop_
 _atom_site_type_symbol
 _atom_site_label
 _atom_site_symmetry_multiplicity
 _atom_site_fract_x
 _atom_site_fract_y
 _atom_site_fract_z
 _atom_site_occupancy
 _atom_site_charge
Cr  Cr1  1  0.61170000  0.75210000  0.81810000  1.0 1.5857716415
Cr  Cr2  1  0.43190000  0.43190000  0.63830000  1.0 1.5857716415
Cr  Cr3  1  0.81810000  0.81810000  0.75210000  1.0 1.5857716415
Cr  Cr4  1  0.81810000  0.61170000  0.75210000  1.0 1.5857716415
Cr  Cr5  1  0.75210000  0.61170000  0.81810000  1.0 1.5857716415
Cr  Cr6  1  0.63830000  0.49790000  0.43190000  1.0 1.5857716415
Cr  Cr7  1  0.43190000  0.49790000  0.43190000  1.0 1.5857716415
Cr  Cr8  1  0.43190000  0.43190000  0.49790000  1.0 1.5857716415
Cr  Cr9  1  0.81810000  0.81810000  0.61170000  1.0 1.5857716415
Cr  Cr10  1  0.61170000  0.81810000  0.81810000  1.0 1.5857716415
Cr  Cr11  1  0.49790000  0.63830000  0.43190000  1.0 1.5857716415
Cr  Cr12  1  0.49790000  0.43190000  0.63830000  1.0 1.5857716415
Cr  Cr13  1  0.81810000  0.75210000  0.61170000  1.0 1.5857716415
Cr  Cr14  1  0.63830000  0.43190000  0.49790000  1.0 1.5857716415
Cr  Cr15  1  0.75210000  0.81810000  0.81810000  1.0 1.5857716415
Cr  Cr16  1  0.43190000  0.63830000  0.43190000  1.0 1.5857716415
Cr  Cr17  1  0.75210000  0.81810000  0.61170000  1.0 1.5857716415
Cr  Cr18  1  0.63830000  0.43190000  0.43190000  1.0 1.5857716415
Cr  Cr19  1  0.43190000  0.63830000  0.49790000  1.0 1.5857716415
Cr  Cr20  1  0.49790000  0.43190000  0.43190000  1.0 1.5857716415
Cr  Cr21  1  0.81810000  0.61170000  0.81810000  1.0 1.5857716415
Cr  Cr22  1  0.43190000  0.49790000  0.63830000  1.0 1.5857716415
Cr  Cr23  1  0.61170000  0.81810000  0.75210000  1.0 1.5857716415
Cr  Cr24  1  0.81810000  0.75210000  0.81810000  1.0 1.5857716415
Cr  Cr25  1  0.53190000  0.53190000  0.96810000  1.0 1.4797136697
Cr  Cr26  1  0.28190000  0.28190000  0.71810000  1.0 1.4797136697
Cr  Cr27  1  0.96810000  0.96810000  0.53190000  1.0 1.4797136697
Cr  Cr28  1  0.96810000  0.53190000  0.53190000  1.0 1.4797136697
Cr  Cr29  1  0.71810000  0.71810000  0.28190000  1.0 1.4797136697
Cr  Cr30  1  0.28190000  0.71810000  0.28190000  1.0 1.4797136697
Cr  Cr31  1  0.53190000  0.96810000  0.96810000  1.0 1.4797136697
Cr  Cr32  1  0.71810000  0.28190000  0.71810000  1.0 1.4797136697
Cr  Cr33  1  0.53190000  0.96810000  0.53190000  1.0 1.4797136697
Cr  Cr34  1  0.71810000  0.28190000  0.28190000  1.0 1.4797136697
Cr  Cr35  1  0.28190000  0.71810000  0.71810000  1.0 1.4797136697
Cr  Cr36  1  0.96810000  0.53190000  0.96810000  1.0 1.4797136697
Cr  Cr37  1  0.49000000  0.49020000  0.97860000  1.0 1.5382940137
Cr  Cr38  1  0.20880000  0.27140000  0.76000000  1.0 1.5382940137
Cr  Cr39  1  0.04120000  0.97860000  0.49020000  1.0 1.5382940137
Cr  Cr40  1  0.97860000  0.49000000  0.49020000  1.0 1.5382940137
Cr  Cr41  1  0.49020000  0.49000000  0.04120000  1.0 1.5382940137
Cr  Cr42  1  0.76000000  0.75980000  0.20880000  1.0 1.5382940137
Cr  Cr43  1  0.20880000  0.75980000  0.27140000  1.0 1.5382940137
Cr  Cr44  1  0.27140000  0.20880000  0.75980000  1.0 1.5382940137
Cr  Cr45  1  0.97860000  0.04120000  0.49000000  1.0 1.5382940137
Cr  Cr46  1  0.49000000  0.97860000  0.04120000  1.0 1.5382940137
Cr  Cr47  1  0.75980000  0.76000000  0.27140000  1.0 1.5382940137
Cr  Cr48  1  0.75980000  0.20880000  0.76000000  1.0 1.5382940137
Cr  Cr49  1  0.04120000  0.49020000  0.49000000  1.0 1.5382940137
Cr  Cr50  1  0.76000000  0.27140000  0.75980000  1.0 1.5382940137
Cr  Cr51  1  0.49020000  0.04120000  0.97860000  1.0 1.5382940137
Cr  Cr52  1  0.27140000  0.76000000  0.20880000  1.0 1.5382940137
Cr  Cr53  1  0.49020000  0.97860000  0.49000000  1.0 1.5382940137
Cr  Cr54  1  0.76000000  0.20880000  0.27140000  1.0 1.5382940137
Cr  Cr55  1  0.20880000  0.76000000  0.75980000  1.0 1.5382940137
Cr  Cr56  1  0.75980000  0.27140000  0.20880000  1.0 1.5382940137
Cr  Cr57  1  0.04120000  0.49000000  0.97860000  1.0 1.5382940137
Cr  Cr58  1  0.27140000  0.75980000  0.76000000  1.0 1.5382940137
Cr  Cr59  1  0.49000000  0.04120000  0.49020000  1.0 1.5382940137
Cr  Cr60  1  0.97860000  0.49020000  0.04120000  1.0 1.5382940137
Cr  Cr61  1  0.47440000  0.70240000  0.91160000  1.0 1.5382940137
Cr  Cr62  1  0.33840000  0.33840000  0.77560000  1.0 1.5382940137
Cr  Cr63  1  0.91160000  0.91160000  0.70240000  1.0 1.5382940137
Cr  Cr64  1  0.91160000  0.47440000  0.70240000  1.0 1.5382940137
Cr  Cr65  1  0.70240000  0.47440000  0.91160000  1.0 1.5382940137
Cr  Cr66  1  0.77560000  0.54760000  0.33840000  1.0 1.5382940137
Cr  Cr67  1  0.33840000  0.54760000  0.33840000  1.0 1.5382940137
Cr  Cr68  1  0.33840000  0.33840000  0.54760000  1.0 1.5382940137
Cr  Cr69  1  0.91160000  0.91160000  0.47440000  1.0 1.5382940137
Cr  Cr70  1  0.47440000  0.91160000  0.91160000  1.0 1.5382940137
Cr  Cr71  1  0.54760000  0.77560000  0.33840000  1.0 1.5382940137
Cr  Cr72  1  0.54760000  0.33840000  0.77560000  1.0 1.5382940137
Cr  Cr73  1  0.91160000  0.70240000  0.47440000  1.0 1.5382940137
Cr  Cr74  1  0.77560000  0.33840000  0.54760000  1.0 1.5382940137
Cr  Cr75  1  0.70240000  0.91160000  0.91160000  1.0 1.5382940137
Cr  Cr76  1  0.33840000  0.77560000  0.33840000  1.0 1.5382940137
Cr  Cr77  1  0.70240000  0.91160000  0.47440000  1.0 1.5382940137
Cr  Cr78  1  0.77560000  0.33840000  0.33840000  1.0 1.5382940137
Cr  Cr79  1  0.33840000  0.77560000  0.54760000  1.0 1.5382940137
Cr  Cr80  1  0.54760000  0.33840000  0.33840000  1.0 1.5382940137
Cr  Cr81  1  0.91160000  0.47440000  0.91160000  1.0 1.5382940137
Cr  Cr82  1  0.33840000  0.54760000  0.77560000  1.0 1.5382940137
Cr  Cr83  1  0.47440000  0.91160000  0.70240000  1.0 1.5382940137
Cr  Cr84  1  0.91160000  0.70240000  0.91160000  1.0 1.5382940137
Cr  Cr85  1  0.40580000  0.75100000  0.95380000  1.0 1.6437544072
Cr  Cr86  1  0.36060000  0.29620000  0.84420000  1.0 1.645162236
Cr  Cr87  1  0.88940000  0.95380000  0.75100000  1.0 1.6437544072
Cr  Cr88  1  0.95380000  0.40580000  0.75100000  1.0 1.645162236
Cr  Cr89  1  0.75100000  0.40580000  0.88940000  1.0 1.645162236
Cr  Cr90  1  0.84420000  0.49900000  0.36060000  1.0 1.6437544072
Cr  Cr91  1  0.36060000  0.49900000  0.29620000  1.0 1.645162236
Cr  Cr92  1  0.29620000  0.36060000  0.49900000  1.0 1.6437544072
Cr  Cr93  1  0.95380000  0.88940000  0.40580000  1.0 1.6437544072
Cr  Cr94  1  0.40580000  0.95380000  0.88940000  1.0 1.6437544072
Cr  Cr95  1  0.49900000  0.84420000  0.29620000  1.0 1.6437544072
Cr  Cr96  1  0.49900000  0.36060000  0.84420000  1.0 1.645162236
Cr  Cr97  1  0.88940000  0.75100000  0.40580000  1.0 1.6437544072
Cr  Cr98  1  0.84420000  0.29620000  0.49900000  1.0 1.645162236
Cr  Cr99  1  0.75100000  0.88940000  0.95380000  1.0 1.6437544072
Cr  Cr100  1  0.29620000  0.84420000  0.36060000  1.0 1.6437544072
Cr  Cr101  1  0.75100000  0.95380000  0.40580000  1.0 1.6437544072
Cr  Cr102  1  0.84420000  0.36060000  0.29620000  1.0 1.645162236
Cr  Cr103  1  0.36060000  0.84420000  0.49900000  1.0 1.6437544072
Cr  Cr104  1  0.49900000  0.29620000  0.36060000  1.0 1.645162236
Cr  Cr105  1  0.88940000  0.40580000  0.95380000  1.0 1.6437544072
Cr  Cr106  1  0.29620000  0.49900000  0.84420000  1.0 1.645162236
Cr  Cr107  1  0.40580000  0.88940000  0.75100000  1.0 1.6437544072
Cr  Cr108  1  0.95380000  0.75100000  0.88940000  1.0 1.6437544072
Cr  Cr109  1  0.84420000  0.49900000  0.29620000  1.0 1.6437544072
Cr  Cr110  1  0.88940000  0.95380000  0.40580000  1.0 1.6437544072
Cr  Cr111  1  0.36060000  0.29620000  0.49900000  1.0 1.645162236
Cr  Cr112  1  0.29620000  0.84420000  0.49900000  1.0 1.6437544072
Cr  Cr113  1  0.49900000  0.84420000  0.36060000  1.0 1.6437544072
Cr  Cr114  1  0.40580000  0.75100000  0.88940000  1.0 1.6437544072
Cr  Cr115  1  0.88940000  0.75100000  0.95380000  1.0 1.6437544072
Cr  Cr116  1  0.95380000  0.88940000  0.75100000  1.0 1.6437544072
Cr  Cr117  1  0.29620000  0.36060000  0.84420000  1.0 1.645162236
Cr  Cr118  1  0.84420000  0.29620000  0.36060000  1.0 1.645162236
Cr  Cr119  1  0.75100000  0.40580000  0.95380000  1.0 1.645162236
Cr  Cr120  1  0.75100000  0.88940000  0.40580000  1.0 1.6437544072
Cr  Cr121  1  0.36060000  0.49900000  0.84420000  1.0 1.645162236
Cr  Cr122  1  0.40580000  0.95380000  0.75100000  1.0 1.6437544072
Cr  Cr123  1  0.49900000  0.36060000  0.29620000  1.0 1.645162236
Cr  Cr124  1  0.95380000  0.40580000  0.88940000  1.0 1.645162236
Cr  Cr125  1  0.49900000  0.29620000  0.84420000  1.0 1.645162236
Cr  Cr126  1  0.40580000  0.88940000  0.95380000  1.0 1.6437544072
Cr  Cr127  1  0.88940000  0.40580000  0.75100000  1.0 1.645162236
Cr  Cr128  1  0.75100000  0.95380000  0.88940000  1.0 1.6437544072
Cr  Cr129  1  0.36060000  0.84420000  0.29620000  1.0 1.6437544072
Cr  Cr130  1  0.95380000  0.75100000  0.40580000  1.0 1.6437544072
Cr  Cr131  1  0.84420000  0.36060000  0.49900000  1.0 1.6437544072
Cr  Cr132  1  0.29620000  0.49900000  0.36060000  1.0 1.645162236
Cr  Cr133  1  0.34830000  0.58170000  0.92890000  1.0 1.6609390118
Cr  Cr134  1  0.10890000  0.32110000  0.90170000  1.0 1.6609390118
Cr  Cr135  1  0.14110000  0.92890000  0.58170000  1.0 1.6609390118
Cr  Cr136  1  0.92890000  0.34830000  0.58170000  1.0 1.6609390118
Cr  Cr137  1  0.58170000  0.34830000  0.14110000  1.0 1.6609390118
Cr  Cr138  1  0.90170000  0.66830000  0.10890000  1.0 1.6609390118
Cr  Cr139  1  0.10890000  0.66830000  0.32110000  1.0 1.6609390118
Cr  Cr140  1  0.32110000  0.10890000  0.66830000  1.0 1.6609390118
Cr  Cr141  1  0.92890000  0.14110000  0.34830000  1.0 1.6609390118
Cr  Cr142  1  0.34830000  0.92890000  0.14110000  1.0 1.6609390118
Cr  Cr143  1  0.66830000  0.90170000  0.32110000  1.0 1.6609390118
Cr  Cr144  1  0.66830000  0.10890000  0.90170000  1.0 1.6609390118
Cr  Cr145  1  0.14110000  0.58170000  0.34830000  1.0 1.6609390118
Cr  Cr146  1  0.90170000  0.32110000  0.66830000  1.0 1.6609390118
Cr  Cr147  1  0.58170000  0.14110000  0.92890000  1.0 1.6609390118
Cr  Cr148  1  0.32110000  0.90170000  0.10890000  1.0 1.6609390118
Cr  Cr149  1  0.58170000  0.92890000  0.34830000  1.0 1.6609390118
Cr  Cr150  1  0.90170000  0.10890000  0.32110000  1.0 1.6609390118
Cr  Cr151  1  0.10890000  0.90170000  0.66830000  1.0 1.6609390118
Cr  Cr152  1  0.66830000  0.32110000  0.10890000  1.0 1.6609390118
Cr  Cr153  1  0.14110000  0.34830000  0.92890000  1.0 1.6609390118
Cr  Cr154  1  0.32110000  0.66830000  0.90170000  1.0 1.6609390118
Cr  Cr155  1  0.34830000  0.14110000  0.58170000  1.0 1.6609390118
Cr  Cr156  1  0.92890000  0.58170000  0.14110000  1.0 1.6609390118
Cr  Cr157  1  0.90170000  0.66830000  0.32110000  1.0 1.6609390118
Cr  Cr158  1  0.14110000  0.92890000  0.34830000  1.0 1.6609390118
Cr  Cr159  1  0.10890000  0.32110000  0.66830000  1.0 1.6609390118
Cr  Cr160  1  0.32110000  0.90170000  0.66830000  1.0 1.6609390118
Cr  Cr161  1  0.66830000  0.90170000  0.10890000  1.0 1.6609390118
Cr  Cr162  1  0.34830000  0.58170000  0.14110000  1.0 1.6609390118
Cr  Cr163  1  0.14110000  0.58170000  0.92890000  1.0 1.6609390118
Cr  Cr164  1  0.92890000  0.14110000  0.58170000  1.0 1.6609390118
Cr  Cr165  1  0.32110000  0.10890000  0.90170000  1.0 1.6609390118
Cr  Cr166  1  0.90170000  0.32110000  0.10890000  1.0 1.6609390118
Cr  Cr167  1  0.58170000  0.34830000  0.92890000  1.0 1.6609390118
Cr  Cr168  1  0.58170000  0.14110000  0.34830000  1.0 1.6609390118
Cr  Cr169  1  0.10890000  0.66830000  0.90170000  1.0 1.6609390118
Cr  Cr170  1  0.34830000  0.92890000  0.58170000  1.0 1.6609390118
Cr  Cr171  1  0.66830000  0.10890000  0.32110000  1.0 1.6609390118
Cr  Cr172  1  0.92890000  0.34830000  0.14110000  1.0 1.6609390118
Cr  Cr173  1  0.66830000  0.32110000  0.90170000  1.0 1.6609390118
Cr  Cr174  1  0.34830000  0.14110000  0.92890000  1.0 1.6609390118
Cr  Cr175  1  0.14110000  0.34830000  0.58170000  1.0 1.6609390118
Cr  Cr176  1  0.58170000  0.92890000  0.14110000  1.0 1.6609390118
Cr  Cr177  1  0.10890000  0.90170000  0.32110000  1.0 1.6609390118
Cr  Cr178  1  0.92890000  0.58170000  0.34830000  1.0 1.6609390118
Cr  Cr179  1  0.90170000  0.10890000  0.66830000  1.0 1.6609390118
Cr  Cr180  1  0.32110000  0.66830000  0.10890000  1.0 1.6609390118
Cr  Cr181  1  0.62500000  0.27960000  0.12500000  1.0 1.5681396388
Cr  Cr182  1  0.27960000  0.12500000  0.62500000  1.0 1.5681396388
Cr  Cr183  1  0.97040000  0.12500000  0.27960000  1.0 1.5635160022
Cr  Cr184  1  0.12500000  0.62500000  0.27960000  1.0 1.5635160022
Cr  Cr185  1  0.27960000  0.62500000  0.97040000  1.0 1.5635160022
Cr  Cr186  1  0.62500000  0.97040000  0.27960000  1.0 1.5635160022
Cr  Cr187  1  0.27960000  0.97040000  0.12500000  1.0 1.5635160022
Cr  Cr188  1  0.12500000  0.27960000  0.97040000  1.0 1.5681396388
Cr  Cr189  1  0.12500000  0.97040000  0.62500000  1.0 1.5635160022
Cr  Cr190  1  0.62500000  0.12500000  0.97040000  1.0 1.5681396388
Cr  Cr191  1  0.97040000  0.62500000  0.12500000  1.0 1.5635160022
Cr  Cr192  1  0.97040000  0.27960000  0.62500000  1.0 1.5635160022
Cr  Cr193  1  0.62500000  0.97040000  0.12500000  1.0 1.5635160022
Cr  Cr194  1  0.97040000  0.12500000  0.62500000  1.0 1.5635160022
Cr  Cr195  1  0.27960000  0.12500000  0.97040000  1.0 1.5681396388
Cr  Cr196  1  0.12500000  0.62500000  0.97040000  1.0 1.5635160022
Cr  Cr197  1  0.97040000  0.62500000  0.27960000  1.0 1.5635160022
Cr  Cr198  1  0.62500000  0.27960000  0.97040000  1.0 1.5681396388
Cr  Cr199  1  0.97040000  0.27960000  0.12500000  1.0 1.5635160022
Cr  Cr200  1  0.12500000  0.97040000  0.27960000  1.0 1.5635160022
Cr  Cr201  1  0.12500000  0.27960000  0.62500000  1.0 1.5681396388
Cr  Cr202  1  0.62500000  0.12500000  0.27960000  1.0 1.5681396388
Cr  Cr203  1  0.27960000  0.62500000  0.12500000  1.0 1.5635160022
Cr  Cr204  1  0.27960000  0.97040000  0.62500000  1.0 1.5635160022
C  C1  1  0.36640000  0.89240000  0.84880000  1.0 -0.1582559241
C  C2  1  0.35760000  0.40120000  0.88360000  1.0 -0.1582559241
C  C3  1  0.89240000  0.84880000  0.89240000  1.0 -0.1582559241
C  C4  1  0.84880000  0.36640000  0.89240000  1.0 -0.1582559241
C  C5  1  0.89240000  0.36640000  0.89240000  1.0 -0.1582559241
C  C6  1  0.88360000  0.35760000  0.35760000  1.0 -0.1582559241
C  C7  1  0.35760000  0.35760000  0.40120000  1.0 -0.1582559241
C  C8  1  0.40120000  0.35760000  0.35760000  1.0 -0.1582559241
C  C9  1  0.84880000  0.89240000  0.36640000  1.0 -0.1582559241
C  C10  1  0.36640000  0.84880000  0.89240000  1.0 -0.1582559241
C  C11  1  0.35760000  0.88360000  0.40120000  1.0 -0.1582559241
C  C12  1  0.35760000  0.35760000  0.88360000  1.0 -0.1582559241
C  C13  1  0.89240000  0.89240000  0.36640000  1.0 -0.1582559241
C  C14  1  0.88360000  0.40120000  0.35760000  1.0 -0.1582559241
C  C15  1  0.89240000  0.89240000  0.84880000  1.0 -0.1582559241
C  C16  1  0.40120000  0.88360000  0.35760000  1.0 -0.1582559241
C  C17  1  0.89240000  0.84880000  0.36640000  1.0 -0.1582559241
C  C18  1  0.88360000  0.35760000  0.40120000  1.0 -0.1582559241
C  C19  1  0.35760000  0.88360000  0.35760000  1.0 -0.1582559241
C  C20  1  0.35760000  0.40120000  0.35760000  1.0 -0.1582559241
C  C21  1  0.89240000  0.36640000  0.84880000  1.0 -0.1582559241
C  C22  1  0.40120000  0.35760000  0.88360000  1.0 -0.1582559241
C  C23  1  0.36640000  0.89240000  0.89240000  1.0 -0.1582559241
C  C24  1  0.84880000  0.89240000  0.89240000  1.0 -0.1582559241
C  C25  1  0.36190000  0.86350000  0.86350000  1.0 0.1163117885
C  C26  1  0.33890000  0.38650000  0.88810000  1.0 0.1163117885
C  C27  1  0.91110000  0.86350000  0.86350000  1.0 0.1163117885
C  C28  1  0.86350000  0.36190000  0.86350000  1.0 0.1163117885
C  C29  1  0.86350000  0.36190000  0.91110000  1.0 0.1163117885
C  C30  1  0.88810000  0.38650000  0.33890000  1.0 0.1163117885
C  C31  1  0.33890000  0.38650000  0.38650000  1.0 0.1163117885
C  C32  1  0.38650000  0.33890000  0.38650000  1.0 0.1163117885
C  C33  1  0.86350000  0.91110000  0.36190000  1.0 0.1163117885
C  C34  1  0.36190000  0.86350000  0.91110000  1.0 0.1163117885
C  C35  1  0.38650000  0.88810000  0.38650000  1.0 0.1163117885
C  C36  1  0.38650000  0.33890000  0.88810000  1.0 0.1163117885
C  C37  1  0.91110000  0.86350000  0.36190000  1.0 0.1163117885
C  C38  1  0.88810000  0.38650000  0.38650000  1.0 0.1163117885
C  C39  1  0.86350000  0.91110000  0.86350000  1.0 0.1163117885
C  C40  1  0.38650000  0.88810000  0.33890000  1.0 0.1163117885
C  C41  1  0.86350000  0.86350000  0.36190000  1.0 0.1163117885
C  C42  1  0.88810000  0.33890000  0.38650000  1.0 0.1163117885
C  C43  1  0.33890000  0.88810000  0.38650000  1.0 0.1096059942
C  C44  1  0.38650000  0.38650000  0.33890000  1.0 0.1163117885
C  C45  1  0.91110000  0.36190000  0.86350000  1.0 0.1163117885
C  C46  1  0.38650000  0.38650000  0.88810000  1.0 0.1163117885
C  C47  1  0.36190000  0.91110000  0.86350000  1.0 0.1163117885
C  C48  1  0.86350000  0.86350000  0.91110000  1.0 0.1163117885
C  C49  1  0.38800000  0.89740000  0.81720000  1.0 0.6714083792
C  C50  1  0.35260000  0.43280000  0.86200000  1.0 0.6714083792
C  C51  1  0.89740000  0.81720000  0.89740000  1.0 0.6714083792
C  C52  1  0.81720000  0.38800000  0.89740000  1.0 0.6714083792
C  C53  1  0.89740000  0.38800000  0.89740000  1.0 0.6714083792
C  C54  1  0.86200000  0.35260000  0.35260000  1.0 0.6714083792
C  C55  1  0.35260000  0.35260000  0.43280000  1.0 0.6714083792
C  C56  1  0.43280000  0.35260000  0.35260000  1.0 0.6714083792
C  C57  1  0.81720000  0.89740000  0.38800000  1.0 0.6714083792
C  C58  1  0.38800000  0.81720000  0.89740000  1.0 0.6714083792
C  C59  1  0.35260000  0.86200000  0.43280000  1.0 0.6714083792
C  C60  1  0.35260000  0.35260000  0.86200000  1.0 0.6714083792
C  C61  1  0.89740000  0.89740000  0.38800000  1.0 0.6714083792
C  C62  1  0.86200000  0.43280000  0.35260000  1.0 0.6714083792
C  C63  1  0.89740000  0.89740000  0.81720000  1.0 0.6714083792
C  C64  1  0.43280000  0.86200000  0.35260000  1.0 0.6714083792
C  C65  1  0.89740000  0.81720000  0.38800000  1.0 0.6714083792
C  C66  1  0.86200000  0.35260000  0.43280000  1.0 0.6714083792
C  C67  1  0.35260000  0.86200000  0.35260000  1.0 0.6714083792
C  C68  1  0.35260000  0.43280000  0.35260000  1.0 0.6714083792
C  C69  1  0.89740000  0.38800000  0.81720000  1.0 0.6714083792
C  C70  1  0.43280000  0.35260000  0.86200000  1.0 0.6714083792
C  C71  1  0.38800000  0.89740000  0.89740000  1.0 0.6714083792
C  C72  1  0.81720000  0.89740000  0.89740000  1.0 0.6714083792
C  C73  1  0.70240000  0.70240000  0.84280000  1.0 0.0986474
C  C74  1  0.49760000  0.40720000  0.54760000  1.0 0.0986474
C  C75  1  0.75240000  0.84280000  0.70240000  1.0 0.0986474
C  C76  1  0.84280000  0.70240000  0.70240000  1.0 0.0986474
C  C77  1  0.70240000  0.70240000  0.75240000  1.0 0.0986474
C  C78  1  0.54760000  0.54760000  0.49760000  1.0 0.0986474
C  C79  1  0.49760000  0.54760000  0.40720000  1.0 0.0986474
C  C80  1  0.40720000  0.49760000  0.54760000  1.0 0.0986474
C  C81  1  0.84280000  0.75240000  0.70240000  1.0 0.0986474
C  C82  1  0.70240000  0.84280000  0.75240000  1.0 0.0986474
C  C83  1  0.54760000  0.54760000  0.40720000  1.0 0.0986474
C  C84  1  0.54760000  0.49760000  0.54760000  1.0 0.0986474
C  C85  1  0.75240000  0.70240000  0.70240000  1.0 0.0986474
C  C86  1  0.54760000  0.40720000  0.54760000  1.0 0.0986474
C  C87  1  0.70240000  0.75240000  0.84280000  1.0 0.0986474
C  C88  1  0.40720000  0.54760000  0.49760000  1.0 0.0986474
C  C89  1  0.70240000  0.84280000  0.70240000  1.0 0.0986474
C  C90  1  0.54760000  0.49760000  0.40720000  1.0 0.1096059942
C  C91  1  0.49760000  0.54760000  0.54760000  1.0 0.1096059942
C  C92  1  0.54760000  0.40720000  0.49760000  1.0 0.0986474
C  C93  1  0.75240000  0.70240000  0.84280000  1.0 0.0986474
C  C94  1  0.40720000  0.54760000  0.54760000  1.0 0.1096059942
C  C95  1  0.70240000  0.75240000  0.70240000  1.0 0.0986474
C  C96  1  0.84280000  0.70240000  0.75240000  1.0 0.0986474
C  C97  1  0.68790000  0.73890000  0.83430000  1.0 -0.139117761
C  C98  1  0.51110000  0.41570000  0.56210000  1.0 -0.139117761
C  C99  1  0.73890000  0.83430000  0.73890000  1.0 -0.139117761
C  C100  1  0.83430000  0.68790000  0.73890000  1.0 -0.139117761
C  C101  1  0.73890000  0.68790000  0.73890000  1.0 -0.139117761
C  C102  1  0.56210000  0.51110000  0.51110000  1.0 -0.139117761
C  C103  1  0.51110000  0.51110000  0.41570000  1.0 -0.139117761
C  C104  1  0.41570000  0.51110000  0.51110000  1.0 -0.139117761
C  C105  1  0.83430000  0.73890000  0.68790000  1.0 -0.139117761
C  C106  1  0.68790000  0.83430000  0.73890000  1.0 -0.139117761
C  C107  1  0.51110000  0.56210000  0.41570000  1.0 -0.139117761
C  C108  1  0.51110000  0.51110000  0.56210000  1.0 -0.139117761
C  C109  1  0.73890000  0.73890000  0.68790000  1.0 -0.139117761
C  C110  1  0.56210000  0.41570000  0.51110000  1.0 -0.139117761
C  C111  1  0.73890000  0.73890000  0.83430000  1.0 -0.139117761
C  C112  1  0.41570000  0.56210000  0.51110000  1.0 -0.139117761
C  C113  1  0.73890000  0.83430000  0.68790000  1.0 -0.139117761
C  C114  1  0.56210000  0.51110000  0.41570000  1.0 -0.139117761
C  C115  1  0.51110000  0.56210000  0.51110000  1.0 -0.139117761
C  C116  1  0.51110000  0.41570000  0.51110000  1.0 -0.139117761
C  C117  1  0.73890000  0.68790000  0.83430000  1.0 -0.139117761
C  C118  1  0.41570000  0.51110000  0.56210000  1.0 -0.139117761
C  C119  1  0.68790000  0.73890000  0.73890000  1.0 -0.139117761
C  C120  1  0.83430000  0.73890000  0.73890000  1.0 -0.139117761
C  C121  1  0.65410000  0.75210000  0.84170000  1.0 0.6413173763
C  C122  1  0.49790000  0.40830000  0.59590000  1.0 0.6413173763
C  C123  1  0.75210000  0.84170000  0.75210000  1.0 0.6413173763
C  C124  1  0.84170000  0.65410000  0.75210000  1.0 0.6413173763
C  C125  1  0.75210000  0.65410000  0.75210000  1.0 0.6413173763
C  C126  1  0.59590000  0.49790000  0.49790000  1.0 0.6413173763
C  C127  1  0.49790000  0.49790000  0.40830000  1.0 0.6413173763
C  C128  1  0.40830000  0.49790000  0.49790000  1.0 0.6413173763
C  C129  1  0.84170000  0.75210000  0.65410000  1.0 0.6413173763
C  C130  1  0.65410000  0.84170000  0.75210000  1.0 0.6413173763
C  C131  1  0.49790000  0.59590000  0.40830000  1.0 0.6413173763
C  C132  1  0.49790000  0.49790000  0.59590000  1.0 0.6413173763
C  C133  1  0.75210000  0.75210000  0.65410000  1.0 0.6413173763
C  C134  1  0.59590000  0.40830000  0.49790000  1.0 0.6413173763
C  C135  1  0.75210000  0.75210000  0.84170000  1.0 0.6413173763
C  C136  1  0.40830000  0.59590000  0.49790000  1.0 0.6413173763
C  C137  1  0.75210000  0.84170000  0.65410000  1.0 0.6413173763
C  C138  1  0.59590000  0.49790000  0.40830000  1.0 0.6413173763
C  C139  1  0.49790000  0.59590000  0.49790000  1.0 0.6413173763
C  C140  1  0.49790000  0.40830000  0.49790000  1.0 0.6413173763
C  C141  1  0.75210000  0.65410000  0.84170000  1.0 0.6413173763
C  C142  1  0.40830000  0.49790000  0.59590000  1.0 0.6413173763
C  C143  1  0.65410000  0.75210000  0.75210000  1.0 0.6413173763
C  C144  1  0.84170000  0.75210000  0.75210000  1.0 0.6413173763
C  C145  1  0.53200000  0.40180000  0.03320000  1.0 -0.1699333628
C  C146  1  0.21700000  0.21680000  0.71800000  1.0 -0.1699333628
C  C147  1  0.03300000  0.03320000  0.40180000  1.0 -0.1699333628
C  C148  1  0.03320000  0.53200000  0.40180000  1.0 -0.1699333628
C  C149  1  0.40180000  0.53200000  0.03300000  1.0 -0.1699333628
C  C150  1  0.71800000  0.84820000  0.21700000  1.0 -0.1699333628
C  C151  1  0.21700000  0.84820000  0.21680000  1.0 -0.1699333628
C  C152  1  0.21680000  0.21700000  0.84820000  1.0 -0.1699333628
C  C153  1  0.03320000  0.03300000  0.53200000  1.0 -0.1699333628
C  C154  1  0.53200000  0.03320000  0.03300000  1.0 -0.1699333628
C  C155  1  0.84820000  0.71800000  0.21680000  1.0 -0.1699333628
C  C156  1  0.84820000  0.21700000  0.71800000  1.0 -0.1699333628
C  C157  1  0.03300000  0.40180000  0.53200000  1.0 -0.1699333628
C  C158  1  0.71800000  0.21680000  0.84820000  1.0 -0.1699333628
C  C159  1  0.40180000  0.03300000  0.03320000  1.0 -0.1699333628
C  C160  1  0.21680000  0.71800000  0.21700000  1.0 -0.1699333628
C  C161  1  0.40180000  0.03320000  0.53200000  1.0 -0.1699333628
C  C162  1  0.71800000  0.21700000  0.21680000  1.0 -0.1699333628
C  C163  1  0.21700000  0.71800000  0.84820000  1.0 -0.1699333628
C  C164  1  0.84820000  0.21680000  0.21700000  1.0 -0.1699333628
C  C165  1  0.03300000  0.53200000  0.03320000  1.0 -0.1699333628
C  C166  1  0.21680000  0.84820000  0.71800000  1.0 -0.1699333628
C  C167  1  0.53200000  0.03300000  0.40180000  1.0 -0.1699333628
C  C168  1  0.03320000  0.40180000  0.03300000  1.0 -0.1699333628
C  C169  1  0.53280000  0.38060000  0.01940000  1.0 0.1586724107
C  C170  1  0.18280000  0.23060000  0.71720000  1.0 0.1586724107
C  C171  1  0.06720000  0.01940000  0.38060000  1.0 0.1586724107
C  C172  1  0.01940000  0.53280000  0.38060000  1.0 0.1531034746
C  C173  1  0.38060000  0.53280000  0.06720000  1.0 0.1586724107
C  C174  1  0.71720000  0.86940000  0.18280000  1.0 0.1586724107
C  C175  1  0.18280000  0.86940000  0.23060000  1.0 0.1586724107
C  C176  1  0.23060000  0.18280000  0.86940000  1.0 0.1586724107
C  C177  1  0.01940000  0.06720000  0.53280000  1.0 0.1586724107
C  C178  1  0.53280000  0.01940000  0.06720000  1.0 0.1586724107
C  C179  1  0.86940000  0.71720000  0.23060000  1.0 0.1531034746
C  C180  1  0.86940000  0.18280000  0.71720000  1.0 0.1586724107
C  C181  1  0.06720000  0.38060000  0.53280000  1.0 0.1586724107
C  C182  1  0.71720000  0.23060000  0.86940000  1.0 0.1586724107
C  C183  1  0.38060000  0.06720000  0.01940000  1.0 0.1586724107
C  C184  1  0.23060000  0.71720000  0.18280000  1.0 0.1531034746
C  C185  1  0.38060000  0.01940000  0.53280000  1.0 0.1586724107
C  C186  1  0.71720000  0.18280000  0.23060000  1.0 0.1586724107
C  C187  1  0.18280000  0.71720000  0.86940000  1.0 0.1531034746
C  C188  1  0.86940000  0.23060000  0.18280000  1.0 0.1586724107
C  C189  1  0.06720000  0.53280000  0.01940000  1.0 0.1586724107
C  C190  1  0.23060000  0.86940000  0.71720000  1.0 0.1586724107
C  C191  1  0.53280000  0.06720000  0.38060000  1.0 0.1586724107
C  C192  1  0.01940000  0.38060000  0.06720000  1.0 0.1586724107
C  C193  1  0.71720000  0.86940000  0.23060000  1.0 0.1531034746
C  C194  1  0.06720000  0.01940000  0.53280000  1.0 0.1531034746
C  C195  1  0.18280000  0.23060000  0.86940000  1.0 0.1531034746
C  C196  1  0.23060000  0.71720000  0.86940000  1.0 0.1531034746
C  C197  1  0.86940000  0.71720000  0.18280000  1.0 0.1531034746
C  C198  1  0.53280000  0.38060000  0.06720000  1.0 0.1531034746
C  C199  1  0.06720000  0.38060000  0.01940000  1.0 0.1531034746
C  C200  1  0.01940000  0.06720000  0.38060000  1.0 0.1531034746
C  C201  1  0.23060000  0.18280000  0.71720000  1.0 0.1531034746
C  C202  1  0.71720000  0.23060000  0.18280000  1.0 0.1531034746
C  C203  1  0.38060000  0.53280000  0.01940000  1.0 0.1531034746
C  C204  1  0.38060000  0.06720000  0.53280000  1.0 0.1531034746
C  C205  1  0.18280000  0.86940000  0.71720000  1.0 0.1531034746
C  C206  1  0.53280000  0.01940000  0.38060000  1.0 0.1531034746
C  C207  1  0.86940000  0.18280000  0.23060000  1.0 0.1531034746
C  C208  1  0.01940000  0.53280000  0.06720000  1.0 0.1531034746
C  C209  1  0.86940000  0.23060000  0.71720000  1.0 0.1531034746
C  C210  1  0.53280000  0.06720000  0.01940000  1.0 0.1586724107
C  C211  1  0.06720000  0.53280000  0.38060000  1.0 0.1531034746
C  C212  1  0.38060000  0.01940000  0.06720000  1.0 0.1531034746
C  C213  1  0.18280000  0.71720000  0.23060000  1.0 0.1531034746
C  C214  1  0.01940000  0.38060000  0.53280000  1.0 0.1531034746
C  C215  1  0.71720000  0.18280000  0.86940000  1.0 0.1531034746
C  C216  1  0.23060000  0.86940000  0.18280000  1.0 0.1531034746
C  C217  1  0.54870000  0.34310000  0.03010000  1.0 -0.0516746477
C  C218  1  0.17190000  0.21990000  0.70130000  1.0 -0.0516746477
C  C219  1  0.07810000  0.03010000  0.34310000  1.0 -0.0516746477
C  C220  1  0.03010000  0.54870000  0.34310000  1.0 -0.0516746477
C  C221  1  0.34310000  0.54870000  0.07810000  1.0 -0.0516746477
C  C222  1  0.70130000  0.90690000  0.17190000  1.0 -0.0516746477
C  C223  1  0.17190000  0.90690000  0.21990000  1.0 -0.0516746477
C  C224  1  0.21990000  0.17190000  0.90690000  1.0 -0.0516746477
C  C225  1  0.03010000  0.07810000  0.54870000  1.0 -0.0516746477
C  C226  1  0.54870000  0.03010000  0.07810000  1.0 -0.0516746477
C  C227  1  0.90690000  0.70130000  0.21990000  1.0 -0.0516746477
C  C228  1  0.90690000  0.17190000  0.70130000  1.0 -0.0516746477
C  C229  1  0.07810000  0.34310000  0.54870000  1.0 -0.0516746477
C  C230  1  0.70130000  0.21990000  0.90690000  1.0 -0.0516746477
C  C231  1  0.34310000  0.07810000  0.03010000  1.0 -0.0516746477
C  C232  1  0.21990000  0.70130000  0.17190000  1.0 -0.0516746477
C  C233  1  0.34310000  0.03010000  0.54870000  1.0 -0.0516746477
C  C234  1  0.70130000  0.17190000  0.21990000  1.0 -0.0516746477
C  C235  1  0.17190000  0.70130000  0.90690000  1.0 -0.0516746477
C  C236  1  0.90690000  0.21990000  0.17190000  1.0 -0.0516746477
C  C237  1  0.07810000  0.54870000  0.03010000  1.0 -0.0516746477
C  C238  1  0.21990000  0.90690000  0.70130000  1.0 -0.0516746477
C  C239  1  0.54870000  0.07810000  0.34310000  1.0 -0.0516746477
C  C240  1  0.03010000  0.34310000  0.07810000  1.0 -0.0516746477
C  C241  1  0.70130000  0.90690000  0.21990000  1.0 -0.0516746477
C  C242  1  0.07810000  0.03010000  0.54870000  1.0 -0.0516746477
C  C243  1  0.17190000  0.21990000  0.90690000  1.0 -0.0516746477
C  C244  1  0.21990000  0.70130000  0.90690000  1.0 -0.0516746477
C  C245  1  0.90690000  0.70130000  0.17190000  1.0 -0.0516746477
C  C246  1  0.54870000  0.34310000  0.07810000  1.0 -0.0516746477
C  C247  1  0.07810000  0.34310000  0.03010000  1.0 -0.0516746477
C  C248  1  0.03010000  0.07810000  0.34310000  1.0 -0.0516746477
C  C249  1  0.21990000  0.17190000  0.70130000  1.0 -0.0516746477
C  C250  1  0.70130000  0.21990000  0.17190000  1.0 -0.0516746477
C  C251  1  0.34310000  0.54870000  0.03010000  1.0 -0.0516746477
C  C252  1  0.34310000  0.07810000  0.54870000  1.0 -0.0516746477
C  C253  1  0.17190000  0.90690000  0.70130000  1.0 -0.0516746477
C  C254  1  0.54870000  0.03010000  0.34310000  1.0 -0.0516746477
C  C255  1  0.90690000  0.17190000  0.21990000  1.0 -0.0516746477
C  C256  1  0.03010000  0.54870000  0.07810000  1.0 -0.0516746477
C  C257  1  0.90690000  0.21990000  0.70130000  1.0 -0.0516746477
C  C258  1  0.54870000  0.07810000  0.03010000  1.0 -0.0516746477
C  C259  1  0.07810000  0.54870000  0.34310000  1.0 -0.0516746477
C  C260  1  0.34310000  0.03010000  0.07810000  1.0 -0.0516746477
C  C261  1  0.17190000  0.70130000  0.21990000  1.0 -0.0516746477
C  C262  1  0.03010000  0.34310000  0.54870000  1.0 -0.0516746477
C  C263  1  0.70130000  0.17190000  0.90690000  1.0 -0.0516746477
C  C264  1  0.21990000  0.90690000  0.17190000  1.0 -0.0516746477
C  C265  1  0.55310000  0.32550000  0.06070000  1.0 -0.0516746477
C  C266  1  0.18930000  0.18930000  0.69690000  1.0 -0.0424140728
C  C267  1  0.06070000  0.06070000  0.32550000  1.0 -0.0424140728
C  C268  1  0.06070000  0.55310000  0.32550000  1.0 -0.0516746477
C  C269  1  0.32550000  0.55310000  0.06070000  1.0 -0.0424140728
C  C270  1  0.69690000  0.92450000  0.18930000  1.0 -0.0424140728
C  C271  1  0.18930000  0.92450000  0.18930000  1.0 -0.0424140728
C  C272  1  0.18930000  0.18930000  0.92450000  1.0 -0.0424140728
C  C273  1  0.06070000  0.06070000  0.55310000  1.0 -0.0424140728
C  C274  1  0.55310000  0.06070000  0.06070000  1.0 -0.0424140728
C  C275  1  0.92450000  0.69690000  0.18930000  1.0 -0.0516746477
C  C276  1  0.92450000  0.18930000  0.69690000  1.0 -0.0424140728
C  C277  1  0.06070000  0.32550000  0.55310000  1.0 -0.0424140728
C  C278  1  0.69690000  0.18930000  0.92450000  1.0 -0.0424140728
C  C279  1  0.32550000  0.06070000  0.06070000  1.0 -0.0516746477
C  C280  1  0.18930000  0.69690000  0.18930000  1.0 -0.0516746477
C  C281  1  0.32550000  0.06070000  0.55310000  1.0 -0.0424140728
C  C282  1  0.69690000  0.18930000  0.18930000  1.0 -0.0424140728
C  C283  1  0.18930000  0.69690000  0.92450000  1.0 -0.0424140728
C  C284  1  0.92450000  0.18930000  0.18930000  1.0 -0.0424140728
C  C285  1  0.06070000  0.55310000  0.06070000  1.0 -0.0424140728
C  C286  1  0.18930000  0.92450000  0.69690000  1.0 -0.0424140728
C  C287  1  0.55310000  0.06070000  0.32550000  1.0 -0.0424140728
C  C288  1  0.06070000  0.32550000  0.06070000  1.0 -0.0424140728
C  C289  1  0.51410000  0.43410000  0.02590000  1.0 0.57752529
C  C290  1  0.22410000  0.22410000  0.73590000  1.0 0.57752529
C  C291  1  0.02590000  0.02590000  0.43410000  1.0 0.57752529
C  C292  1  0.02590000  0.51410000  0.43410000  1.0 0.57752529
C  C293  1  0.43410000  0.51410000  0.02590000  1.0 0.57752529
C  C294  1  0.73590000  0.81590000  0.22410000  1.0 0.57752529
C  C295  1  0.22410000  0.81590000  0.22410000  1.0 0.57752529
C  C296  1  0.22410000  0.22410000  0.81590000  1.0 0.57752529
C  C297  1  0.02590000  0.02590000  0.51410000  1.0 0.57752529
C  C298  1  0.51410000  0.02590000  0.02590000  1.0 0.57752529
C  C299  1  0.81590000  0.73590000  0.22410000  1.0 0.57752529
C  C300  1  0.81590000  0.22410000  0.73590000  1.0 0.57752529
C  C301  1  0.02590000  0.43410000  0.51410000  1.0 0.57752529
C  C302  1  0.73590000  0.22410000  0.81590000  1.0 0.57752529
C  C303  1  0.43410000  0.02590000  0.02590000  1.0 0.5729947392
C  C304  1  0.22410000  0.73590000  0.22410000  1.0 0.57752529
C  C305  1  0.43410000  0.02590000  0.51410000  1.0 0.57752529
C  C306  1  0.73590000  0.22410000  0.22410000  1.0 0.57752529
C  C307  1  0.22410000  0.73590000  0.81590000  1.0 0.57752529
C  C308  1  0.81590000  0.22410000  0.22410000  1.0 0.57752529
C  C309  1  0.02590000  0.51410000  0.02590000  1.0 0.57752529
C  C310  1  0.22410000  0.81590000  0.73590000  1.0 0.57752529
C  C311  1  0.51410000  0.02590000  0.43410000  1.0 0.57752529
C  C312  1  0.02590000  0.43410000  0.02590000  1.0 0.57752529
C  C313  1  0.56330000  0.33090000  0.00210000  1.0 0.6926473864
C  C314  1  0.14630000  0.24790000  0.68670000  1.0 0.6926473864
C  C315  1  0.10370000  0.00210000  0.33090000  1.0 0.6926473864
C  C316  1  0.00210000  0.56330000  0.33090000  1.0 0.6926473864
C  C317  1  0.33090000  0.56330000  0.10370000  1.0 0.6926473864
C  C318  1  0.68670000  0.91910000  0.14630000  1.0 0.6926473864
C  C319  1  0.14630000  0.91910000  0.24790000  1.0 0.6926473864
C  C320  1  0.24790000  0.14630000  0.91910000  1.0 0.6926473864
C  C321  1  0.00210000  0.10370000  0.56330000  1.0 0.6926473864
C  C322  1  0.56330000  0.00210000  0.10370000  1.0 0.6926473864
C  C323  1  0.91910000  0.68670000  0.24790000  1.0 0.6926473864
C  C324  1  0.91910000  0.14630000  0.68670000  1.0 0.6926473864
C  C325  1  0.10370000  0.33090000  0.56330000  1.0 0.6926473864
C  C326  1  0.68670000  0.24790000  0.91910000  1.0 0.6926473864
C  C327  1  0.33090000  0.10370000  0.00210000  1.0 0.6926473864
C  C328  1  0.24790000  0.68670000  0.14630000  1.0 0.6926473864
C  C329  1  0.33090000  0.00210000  0.56330000  1.0 0.6926473864
C  C330  1  0.68670000  0.14630000  0.24790000  1.0 0.6926473864
C  C331  1  0.14630000  0.68670000  0.91910000  1.0 0.6926473864
C  C332  1  0.91910000  0.24790000  0.14630000  1.0 0.6926473864
C  C333  1  0.10370000  0.56330000  0.00210000  1.0 0.6926473864
C  C334  1  0.24790000  0.91910000  0.68670000  1.0 0.6926473864
C  C335  1  0.56330000  0.10370000  0.33090000  1.0 0.6926473864
C  C336  1  0.00210000  0.33090000  0.10370000  1.0 0.6926473864
C  C337  1  0.68670000  0.91910000  0.24790000  1.0 0.6926473864
C  C338  1  0.10370000  0.00210000  0.56330000  1.0 0.6926473864
C  C339  1  0.14630000  0.24790000  0.91910000  1.0 0.6926473864
C  C340  1  0.24790000  0.68670000  0.91910000  1.0 0.6926473864
C  C341  1  0.91910000  0.68670000  0.14630000  1.0 0.6926473864
C  C342  1  0.56330000  0.33090000  0.10370000  1.0 0.6926473864
C  C343  1  0.10370000  0.33090000  0.00210000  1.0 0.6926473864
C  C344  1  0.00210000  0.10370000  0.33090000  1.0 0.6926473864
C  C345  1  0.24790000  0.14630000  0.68670000  1.0 0.6926473864
C  C346  1  0.68670000  0.24790000  0.14630000  1.0 0.6926473864
C  C347  1  0.33090000  0.56330000  0.00210000  1.0 0.6926473864
C  C348  1  0.33090000  0.10370000  0.56330000  1.0 0.6926473864
C  C349  1  0.14630000  0.91910000  0.68670000  1.0 0.6926473864
C  C350  1  0.56330000  0.00210000  0.33090000  1.0 0.6926473864
C  C351  1  0.91910000  0.14630000  0.24790000  1.0 0.6926473864
C  C352  1  0.00210000  0.56330000  0.10370000  1.0 0.6926473864
C  C353  1  0.91910000  0.24790000  0.68670000  1.0 0.6926473864
C  C354  1  0.56330000  0.10370000  0.00210000  1.0 0.6926473864
C  C355  1  0.10370000  0.56330000  0.33090000  1.0 0.6926473864
C  C356  1  0.33090000  0.00210000  0.10370000  1.0 0.6926473864
C  C357  1  0.14630000  0.68670000  0.24790000  1.0 0.6926473864
C  C358  1  0.00210000  0.33090000  0.56330000  1.0 0.6926473864
C  C359  1  0.68670000  0.14630000  0.91910000  1.0 0.6926473864
C  C360  1  0.24790000  0.91910000  0.14630000  1.0 0.6926473864
C  C361  1  0.53800000  0.78240000  0.89720000  1.0 -0.1467655239
C  C362  1  0.46760000  0.35280000  0.71200000  1.0 -0.1467655239
C  C363  1  0.78240000  0.89720000  0.78240000  1.0 -0.1467655239
C  C364  1  0.89720000  0.53800000  0.78240000  1.0 -0.1467655239
C  C365  1  0.78240000  0.53800000  0.78240000  1.0 -0.1467655239
C  C366  1  0.71200000  0.46760000  0.46760000  1.0 -0.1467655239
C  C367  1  0.46760000  0.46760000  0.35280000  1.0 -0.1467655239
C  C368  1  0.35280000  0.46760000  0.46760000  1.0 -0.1467655239
C  C369  1  0.89720000  0.78240000  0.53800000  1.0 -0.1467655239
C  C370  1  0.53800000  0.89720000  0.78240000  1.0 -0.1467655239
C  C371  1  0.46760000  0.71200000  0.35280000  1.0 -0.1467655239
C  C372  1  0.46760000  0.46760000  0.71200000  1.0 -0.1467655239
C  C373  1  0.78240000  0.78240000  0.53800000  1.0 -0.1467655239
C  C374  1  0.71200000  0.35280000  0.46760000  1.0 -0.1467655239
C  C375  1  0.78240000  0.78240000  0.89720000  1.0 -0.1467655239
C  C376  1  0.35280000  0.71200000  0.46760000  1.0 -0.1467655239
C  C377  1  0.78240000  0.89720000  0.53800000  1.0 -0.1467655239
C  C378  1  0.71200000  0.46760000  0.35280000  1.0 -0.1467655239
C  C379  1  0.46760000  0.71200000  0.46760000  1.0 -0.1467655239
C  C380  1  0.46760000  0.35280000  0.46760000  1.0 -0.1467655239
C  C381  1  0.78240000  0.53800000  0.89720000  1.0 -0.1467655239
C  C382  1  0.35280000  0.46760000  0.71200000  1.0 -0.1467655239
C  C383  1  0.53800000  0.78240000  0.78240000  1.0 -0.1467655239
C  C384  1  0.89720000  0.78240000  0.78240000  1.0 -0.1467655239
C  C385  1  0.52190000  0.76030000  0.90810000  1.0 0.0890956359
C  C386  1  0.44030000  0.34190000  0.72810000  1.0 0.0890956359
C  C387  1  0.80970000  0.90810000  0.76030000  1.0 0.0890956359
C  C388  1  0.90810000  0.52190000  0.76030000  1.0 0.0890956359
C  C389  1  0.76030000  0.52190000  0.80970000  1.0 0.0890956359
C  C390  1  0.72810000  0.48970000  0.44030000  1.0 0.0890956359
C  C391  1  0.44030000  0.48970000  0.34190000  1.0 0.0890956359
C  C392  1  0.34190000  0.44030000  0.48970000  1.0 0.0890956359
C  C393  1  0.90810000  0.80970000  0.52190000  1.0 0.0890956359
C  C394  1  0.52190000  0.90810000  0.80970000  1.0 0.0890956359
C  C395  1  0.48970000  0.72810000  0.34190000  1.0 0.0890956359
C  C396  1  0.48970000  0.44030000  0.72810000  1.0 0.0890956359
C  C397  1  0.80970000  0.76030000  0.52190000  1.0 0.0890956359
C  C398  1  0.72810000  0.34190000  0.48970000  1.0 0.0890956359
C  C399  1  0.76030000  0.80970000  0.90810000  1.0 0.0890956359
C  C400  1  0.34190000  0.72810000  0.44030000  1.0 0.0890956359
C  C401  1  0.76030000  0.90810000  0.52190000  1.0 0.0890956359
C  C402  1  0.72810000  0.44030000  0.34190000  1.0 0.0890956359
C  C403  1  0.44030000  0.72810000  0.48970000  1.0 0.0890956359
C  C404  1  0.48970000  0.34190000  0.44030000  1.0 0.0890956359
C  C405  1  0.80970000  0.52190000  0.90810000  1.0 0.0890956359
C  C406  1  0.34190000  0.48970000  0.72810000  1.0 0.0890956359
C  C407  1  0.52190000  0.80970000  0.76030000  1.0 0.0890956359
C  C408  1  0.90810000  0.76030000  0.80970000  1.0 0.0890956359
C  C409  1  0.72810000  0.48970000  0.34190000  1.0 0.0890956359
C  C410  1  0.80970000  0.90810000  0.52190000  1.0 0.0890956359
C  C411  1  0.44030000  0.34190000  0.48970000  1.0 0.0890956359
C  C412  1  0.34190000  0.72810000  0.48970000  1.0 0.0890956359
C  C413  1  0.48970000  0.72810000  0.44030000  1.0 0.0890956359
C  C414  1  0.52190000  0.76030000  0.80970000  1.0 0.0890956359
C  C415  1  0.80970000  0.76030000  0.90810000  1.0 0.0890956359
C  C416  1  0.90810000  0.80970000  0.76030000  1.0 0.0890956359
C  C417  1  0.34190000  0.44030000  0.72810000  1.0 0.0890956359
C  C418  1  0.72810000  0.34190000  0.44030000  1.0 0.0890956359
C  C419  1  0.76030000  0.52190000  0.90810000  1.0 0.0890956359
C  C420  1  0.76030000  0.80970000  0.52190000  1.0 0.0890956359
C  C421  1  0.44030000  0.48970000  0.72810000  1.0 0.0890956359
C  C422  1  0.52190000  0.90810000  0.76030000  1.0 0.0890956359
C  C423  1  0.48970000  0.44030000  0.34190000  1.0 0.0890956359
C  C424  1  0.90810000  0.52190000  0.80970000  1.0 0.0890956359
C  C425  1  0.48970000  0.34190000  0.72810000  1.0 0.0890956359
C  C426  1  0.52190000  0.80970000  0.90810000  1.0 0.0890956359
C  C427  1  0.80970000  0.52190000  0.76030000  1.0 0.0890956359
C  C428  1  0.76030000  0.90810000  0.80970000  1.0 0.0890956359
C  C429  1  0.44030000  0.72810000  0.34190000  1.0 0.0890956359
C  C430  1  0.90810000  0.76030000  0.52190000  1.0 0.0890956359
C  C431  1  0.72810000  0.44030000  0.48970000  1.0 0.0890956359
C  C432  1  0.34190000  0.48970000  0.44030000  1.0 0.0890956359
C  C433  1  0.49170000  0.76350000  0.93150000  1.0 -0.1699333628
C  C434  1  0.43670000  0.31850000  0.75830000  1.0 -0.1699333628
C  C435  1  0.81330000  0.93150000  0.76350000  1.0 -0.1699333628
C  C436  1  0.93150000  0.49170000  0.76350000  1.0 -0.1699333628
C  C437  1  0.76350000  0.49170000  0.81330000  1.0 -0.1699333628
C  C438  1  0.75830000  0.48650000  0.43670000  1.0 -0.1699333628
C  C439  1  0.43670000  0.48650000  0.31850000  1.0 -0.1699333628
C  C440  1  0.31850000  0.43670000  0.48650000  1.0 -0.1699333628
C  C441  1  0.93150000  0.81330000  0.49170000  1.0 -0.1699333628
C  C442  1  0.49170000  0.93150000  0.81330000  1.0 -0.1699333628
C  C443  1  0.48650000  0.75830000  0.31850000  1.0 -0.1699333628
C  C444  1  0.48650000  0.43670000  0.75830000  1.0 -0.1699333628
C  C445  1  0.81330000  0.76350000  0.49170000  1.0 -0.1753832585
C  C446  1  0.75830000  0.31850000  0.48650000  1.0 -0.1699333628
C  C447  1  0.76350000  0.81330000  0.93150000  1.0 -0.1699333628
C  C448  1  0.31850000  0.75830000  0.43670000  1.0 -0.1699333628
C  C449  1  0.76350000  0.93150000  0.49170000  1.0 -0.1699333628
C  C450  1  0.75830000  0.43670000  0.31850000  1.0 -0.1699333628
C  C451  1  0.43670000  0.75830000  0.48650000  1.0 -0.1699333628
C  C452  1  0.48650000  0.31850000  0.43670000  1.0 -0.1699333628
C  C453  1  0.81330000  0.49170000  0.93150000  1.0 -0.1699333628
C  C454  1  0.31850000  0.48650000  0.75830000  1.0 -0.1699333628
C  C455  1  0.49170000  0.81330000  0.76350000  1.0 -0.1699333628
C  C456  1  0.93150000  0.76350000  0.81330000  1.0 -0.1699333628
C  C457  1  0.75830000  0.48650000  0.31850000  1.0 -0.1699333628
C  C458  1  0.81330000  0.93150000  0.49170000  1.0 -0.1699333628
C  C459  1  0.43670000  0.31850000  0.48650000  1.0 -0.1699333628
C  C460  1  0.31850000  0.75830000  0.48650000  1.0 -0.1699333628
C  C461  1  0.48650000  0.75830000  0.43670000  1.0 -0.1699333628
C  C462  1  0.49170000  0.76350000  0.81330000  1.0 -0.1699333628
C  C463  1  0.81330000  0.76350000  0.93150000  1.0 -0.1699333628
C  C464  1  0.93150000  0.81330000  0.76350000  1.0 -0.1699333628
C  C465  1  0.31850000  0.43670000  0.75830000  1.0 -0.1699333628
C  C466  1  0.75830000  0.31850000  0.43670000  1.0 -0.1699333628
C  C467  1  0.76350000  0.49170000  0.93150000  1.0 -0.1699333628
C  C468  1  0.76350000  0.81330000  0.49170000  1.0 -0.1699333628
C  C469  1  0.43670000  0.48650000  0.75830000  1.0 -0.1699333628
C  C470  1  0.49170000  0.93150000  0.76350000  1.0 -0.1699333628
C  C471  1  0.48650000  0.43670000  0.31850000  1.0 -0.1699333628
C  C472  1  0.93150000  0.49170000  0.81330000  1.0 -0.1699333628
C  C473  1  0.48650000  0.31850000  0.75830000  1.0 -0.1699333628
C  C474  1  0.49170000  0.81330000  0.93150000  1.0 -0.1699333628
C  C475  1  0.81330000  0.49170000  0.76350000  1.0 -0.1699333628
C  C476  1  0.76350000  0.93150000  0.81330000  1.0 -0.1699333628
C  C477  1  0.43670000  0.75830000  0.31850000  1.0 -0.1699333628
C  C478  1  0.93150000  0.76350000  0.49170000  1.0 -0.1699333628
C  C479  1  0.75830000  0.43670000  0.48650000  1.0 -0.1699333628
C  C480  1  0.31850000  0.48650000  0.43670000  1.0 -0.1699333628
C  C481  1  0.47750000  0.78830000  0.94590000  1.0 0.1586724107
C  C482  1  0.46170000  0.30410000  0.77250000  1.0 0.1586724107
C  C483  1  0.78830000  0.94590000  0.78830000  1.0 0.1586724107
C  C484  1  0.94590000  0.47750000  0.78830000  1.0 0.1586724107
C  C485  1  0.78830000  0.47750000  0.78830000  1.0 0.1586724107
C  C486  1  0.77250000  0.46170000  0.46170000  1.0 0.1586724107
C  C487  1  0.46170000  0.46170000  0.30410000  1.0 0.1586724107
C  C488  1  0.30410000  0.46170000  0.46170000  1.0 0.1586724107
C  C489  1  0.94590000  0.78830000  0.47750000  1.0 0.1586724107
C  C490  1  0.47750000  0.94590000  0.78830000  1.0 0.1586724107
C  C491  1  0.46170000  0.77250000  0.30410000  1.0 0.1586724107
C  C492  1  0.46170000  0.46170000  0.77250000  1.0 0.1586724107
C  C493  1  0.78830000  0.78830000  0.47750000  1.0 0.1586724107
C  C494  1  0.77250000  0.30410000  0.46170000  1.0 0.1586724107
C  C495  1  0.78830000  0.78830000  0.94590000  1.0 0.1586724107
C  C496  1  0.30410000  0.77250000  0.46170000  1.0 0.1586724107
C  C497  1  0.78830000  0.94590000  0.47750000  1.0 0.1586724107
C  C498  1  0.77250000  0.46170000  0.30410000  1.0 0.1586724107
C  C499  1  0.46170000  0.77250000  0.46170000  1.0 0.1586724107
C  C500  1  0.46170000  0.30410000  0.46170000  1.0 0.1586724107
C  C501  1  0.78830000  0.47750000  0.94590000  1.0 0.1586724107
C  C502  1  0.30410000  0.46170000  0.77250000  1.0 0.1586724107
C  C503  1  0.47750000  0.78830000  0.78830000  1.0 0.1586724107
C  C504  1  0.94590000  0.78830000  0.78830000  1.0 0.1586724107
C  C505  1  0.47270000  0.74990000  0.93250000  1.0 0.6833834019
C  C506  1  0.40510000  0.31750000  0.77730000  1.0 0.6833834019
C  C507  1  0.84490000  0.93250000  0.74990000  1.0 0.6833834019
C  C508  1  0.93250000  0.47270000  0.74990000  1.0 0.6833834019
C  C509  1  0.74990000  0.47270000  0.84490000  1.0 0.6833834019
C  C510  1  0.77730000  0.50010000  0.40510000  1.0 0.6833834019
C  C511  1  0.40510000  0.50010000  0.31750000  1.0 0.6833834019
C  C512  1  0.31750000  0.40510000  0.50010000  1.0 0.6833834019
C  C513  1  0.93250000  0.84490000  0.47270000  1.0 0.6833834019
C  C514  1  0.47270000  0.93250000  0.84490000  1.0 0.6833834019
C  C515  1  0.50010000  0.77730000  0.31750000  1.0 0.6833834019
C  C516  1  0.50010000  0.40510000  0.77730000  1.0 0.6833834019
C  C517  1  0.84490000  0.74990000  0.47270000  1.0 0.6833834019
C  C518  1  0.77730000  0.31750000  0.50010000  1.0 0.6833834019
C  C519  1  0.74990000  0.84490000  0.93250000  1.0 0.6833834019
C  C520  1  0.31750000  0.77730000  0.40510000  1.0 0.6833834019
C  C521  1  0.74990000  0.93250000  0.47270000  1.0 0.6833834019
C  C522  1  0.77730000  0.40510000  0.31750000  1.0 0.6833834019
C  C523  1  0.40510000  0.77730000  0.50010000  1.0 0.6833834019
C  C524  1  0.50010000  0.31750000  0.40510000  1.0 0.6833834019
C  C525  1  0.84490000  0.47270000  0.93250000  1.0 0.6833834019
C  C526  1  0.31750000  0.50010000  0.77730000  1.0 0.6833834019
C  C527  1  0.47270000  0.84490000  0.74990000  1.0 0.6833834019
C  C528  1  0.93250000  0.74990000  0.84490000  1.0 0.6833834019
C  C529  1  0.77730000  0.50010000  0.31750000  1.0 0.6833834019
C  C530  1  0.84490000  0.93250000  0.47270000  1.0 0.6833834019
C  C531  1  0.40510000  0.31750000  0.50010000  1.0 0.6833834019
C  C532  1  0.31750000  0.77730000  0.50010000  1.0 0.6833834019
C  C533  1  0.50010000  0.77730000  0.40510000  1.0 0.6833834019
C  C534  1  0.47270000  0.74990000  0.84490000  1.0 0.6833834019
C  C535  1  0.84490000  0.74990000  0.93250000  1.0 0.6833834019
C  C536  1  0.93250000  0.84490000  0.74990000  1.0 0.6833834019
C  C537  1  0.31750000  0.40510000  0.77730000  1.0 0.6833834019
C  C538  1  0.77730000  0.31750000  0.40510000  1.0 0.6833834019
C  C539  1  0.74990000  0.47270000  0.93250000  1.0 0.6833834019
C  C540  1  0.74990000  0.84490000  0.47270000  1.0 0.6833834019
C  C541  1  0.40510000  0.50010000  0.77730000  1.0 0.6833834019
C  C542  1  0.47270000  0.93250000  0.74990000  1.0 0.6833834019
C  C543  1  0.50010000  0.40510000  0.31750000  1.0 0.6833834019
C  C544  1  0.93250000  0.47270000  0.84490000  1.0 0.6833834019
C  C545  1  0.50010000  0.31750000  0.77730000  1.0 0.6833834019
C  C546  1  0.47270000  0.84490000  0.93250000  1.0 0.6833834019
C  C547  1  0.84490000  0.47270000  0.74990000  1.0 0.6833834019
C  C548  1  0.74990000  0.93250000  0.84490000  1.0 0.6833834019
C  C549  1  0.40510000  0.77730000  0.31750000  1.0 0.6833834019
C  C550  1  0.93250000  0.74990000  0.47270000  1.0 0.6833834019
C  C551  1  0.77730000  0.40510000  0.50010000  1.0 0.6833834019
C  C552  1  0.31750000  0.50010000  0.40510000  1.0 0.6833834019
C  C553  1  0.56820000  0.78020000  0.87140000  1.0 0.6553531303
C  C554  1  0.46980000  0.37860000  0.68180000  1.0 0.6539445268
C  C555  1  0.78020000  0.87140000  0.78020000  1.0 0.6553531303
C  C556  1  0.87140000  0.56820000  0.78020000  1.0 0.6539445268
C  C557  1  0.78020000  0.56820000  0.78020000  1.0 0.6539445268
C  C558  1  0.68180000  0.46980000  0.46980000  1.0 0.6539445268
C  C559  1  0.46980000  0.46980000  0.37860000  1.0 0.6539445268
C  C560  1  0.37860000  0.46980000  0.46980000  1.0 0.6539445268
C  C561  1  0.87140000  0.78020000  0.56820000  1.0 0.6539445268
C  C562  1  0.56820000  0.87140000  0.78020000  1.0 0.6553531303
C  C563  1  0.46980000  0.68180000  0.37860000  1.0 0.6539445268
C  C564  1  0.46980000  0.46980000  0.68180000  1.0 0.6553531303
C  C565  1  0.78020000  0.78020000  0.56820000  1.0 0.6539445268
C  C566  1  0.68180000  0.37860000  0.46980000  1.0 0.6539445268
C  C567  1  0.78020000  0.78020000  0.87140000  1.0 0.6539445268
C  C568  1  0.37860000  0.68180000  0.46980000  1.0 0.6539445268
C  C569  1  0.78020000  0.87140000  0.56820000  1.0 0.6539445268
C  C570  1  0.68180000  0.46980000  0.37860000  1.0 0.6539445268
C  C571  1  0.46980000  0.68180000  0.46980000  1.0 0.6539445268
C  C572  1  0.46980000  0.37860000  0.46980000  1.0 0.6539445268
C  C573  1  0.78020000  0.56820000  0.87140000  1.0 0.6539445268
C  C574  1  0.37860000  0.46980000  0.68180000  1.0 0.6553531303
C  C575  1  0.56820000  0.78020000  0.78020000  1.0 0.6553531303
C  C576  1  0.87140000  0.78020000  0.78020000  1.0 0.6539445268
C  C577  1  0.44640000  0.64880000  0.89740000  1.0 -0.1324582924
C  C578  1  0.24260000  0.35260000  0.80360000  1.0 -0.1324582924
C  C579  1  0.00740000  0.89740000  0.64880000  1.0 -0.1324582924
C  C580  1  0.89740000  0.44640000  0.64880000  1.0 -0.1324582924
C  C581  1  0.64880000  0.44640000  0.00740000  1.0 -0.1324582924
C  C582  1  0.80360000  0.60120000  0.24260000  1.0 -0.1324582924
C  C583  1  0.24260000  0.60120000  0.35260000  1.0 -0.1324582924
C  C584  1  0.35260000  0.24260000  0.60120000  1.0 -0.1324582924
C  C585  1  0.89740000  0.00740000  0.44640000  1.0 -0.1324582924
C  C586  1  0.44640000  0.89740000  0.00740000  1.0 -0.1324582924
C  C587  1  0.60120000  0.80360000  0.35260000  1.0 -0.1324582924
C  C588  1  0.60120000  0.24260000  0.80360000  1.0 -0.1324582924
C  C589  1  0.00740000  0.64880000  0.44640000  1.0 -0.1324582924
C  C590  1  0.80360000  0.35260000  0.60120000  1.0 -0.1324582924
C  C591  1  0.64880000  0.00740000  0.89740000  1.0 -0.1324582924
C  C592  1  0.35260000  0.80360000  0.24260000  1.0 -0.139117761
C  C593  1  0.64880000  0.89740000  0.44640000  1.0 -0.1324582924
C  C594  1  0.80360000  0.24260000  0.35260000  1.0 -0.1324582924
C  C595  1  0.24260000  0.80360000  0.60120000  1.0 -0.1324582924
C  C596  1  0.60120000  0.35260000  0.24260000  1.0 -0.1324582924
C  C597  1  0.00740000  0.44640000  0.89740000  1.0 -0.1324582924
C  C598  1  0.35260000  0.60120000  0.80360000  1.0 -0.1324582924
C  C599  1  0.44640000  0.00740000  0.64880000  1.0 -0.1324582924
C  C600  1  0.89740000  0.64880000  0.00740000  1.0 -0.1324582924
C  C601  1  0.80360000  0.60120000  0.35260000  1.0 -0.1324582924
C  C602  1  0.00740000  0.89740000  0.44640000  1.0 -0.1324582924
C  C603  1  0.24260000  0.35260000  0.60120000  1.0 -0.1324582924
C  C604  1  0.35260000  0.80360000  0.60120000  1.0 -0.1324582924
C  C605  1  0.60120000  0.80360000  0.24260000  1.0 -0.139117761
C  C606  1  0.44640000  0.64880000  0.00740000  1.0 -0.1324582924
C  C607  1  0.00740000  0.64880000  0.89740000  1.0 -0.1324582924
C  C608  1  0.89740000  0.00740000  0.64880000  1.0 -0.1324582924
C  C609  1  0.35260000  0.24260000  0.80360000  1.0 -0.1324582924
C  C610  1  0.80360000  0.35260000  0.24260000  1.0 -0.1324582924
C  C611  1  0.64880000  0.44640000  0.89740000  1.0 -0.1324582924
C  C612  1  0.64880000  0.00740000  0.44640000  1.0 -0.1324582924
C  C613  1  0.24260000  0.60120000  0.80360000  1.0 -0.1324582924
C  C614  1  0.44640000  0.89740000  0.64880000  1.0 -0.1324582924
C  C615  1  0.60120000  0.24260000  0.35260000  1.0 -0.1324582924
C  C616  1  0.89740000  0.44640000  0.00740000  1.0 -0.1324582924
C  C617  1  0.60120000  0.35260000  0.80360000  1.0 -0.1324582924
C  C618  1  0.44640000  0.00740000  0.89740000  1.0 -0.1324582924
C  C619  1  0.00740000  0.44640000  0.64880000  1.0 -0.1324582924
C  C620  1  0.64880000  0.89740000  0.00740000  1.0 -0.1324582924
C  C621  1  0.24260000  0.80360000  0.35260000  1.0 -0.1324582924
C  C622  1  0.89740000  0.64880000  0.44640000  1.0 -0.1324582924
C  C623  1  0.80360000  0.24260000  0.60120000  1.0 -0.1324582924
C  C624  1  0.35260000  0.60120000  0.24260000  1.0 -0.1324582924
C  C625  1  0.42270000  0.65030000  0.88950000  1.0 0.1265160051
C  C626  1  0.21250000  0.36050000  0.82730000  1.0 0.1265160051
C  C627  1  0.03750000  0.88950000  0.65030000  1.0 0.1265160051
C  C628  1  0.88950000  0.42270000  0.65030000  1.0 0.1265160051
C  C629  1  0.65030000  0.42270000  0.03750000  1.0 0.1265160051
C  C630  1  0.82730000  0.59970000  0.21250000  1.0 0.1265160051
C  C631  1  0.21250000  0.59970000  0.36050000  1.0 0.1265160051
C  C632  1  0.36050000  0.21250000  0.59970000  1.0 0.1265160051
C  C633  1  0.88950000  0.03750000  0.42270000  1.0 0.1265160051
C  C634  1  0.42270000  0.88950000  0.03750000  1.0 0.1265160051
C  C635  1  0.59970000  0.82730000  0.36050000  1.0 0.1265160051
C  C636  1  0.59970000  0.21250000  0.82730000  1.0 0.1265160051
C  C637  1  0.03750000  0.65030000  0.42270000  1.0 0.1265160051
C  C638  1  0.82730000  0.36050000  0.59970000  1.0 0.1265160051
C  C639  1  0.65030000  0.03750000  0.88950000  1.0 0.1265160051
C  C640  1  0.36050000  0.82730000  0.21250000  1.0 0.1265160051
C  C641  1  0.65030000  0.88950000  0.42270000  1.0 0.1265160051
C  C642  1  0.82730000  0.21250000  0.36050000  1.0 0.1265160051
C  C643  1  0.21250000  0.82730000  0.59970000  1.0 0.1265160051
C  C644  1  0.59970000  0.36050000  0.21250000  1.0 0.1265160051
C  C645  1  0.03750000  0.42270000  0.88950000  1.0 0.1265160051
C  C646  1  0.36050000  0.59970000  0.82730000  1.0 0.1265160051
C  C647  1  0.42270000  0.03750000  0.65030000  1.0 0.1265160051
C  C648  1  0.88950000  0.65030000  0.03750000  1.0 0.1265160051
C  C649  1  0.82730000  0.59970000  0.36050000  1.0 0.1265160051
C  C650  1  0.03750000  0.88950000  0.42270000  1.0 0.1265160051
C  C651  1  0.21250000  0.36050000  0.59970000  1.0 0.1265160051
C  C652  1  0.36050000  0.82730000  0.59970000  1.0 0.1265160051
C  C653  1  0.59970000  0.82730000  0.21250000  1.0 0.1265160051
C  C654  1  0.42270000  0.65030000  0.03750000  1.0 0.1265160051
C  C655  1  0.03750000  0.65030000  0.88950000  1.0 0.1265160051
C  C656  1  0.88950000  0.03750000  0.65030000  1.0 0.1265160051
C  C657  1  0.36050000  0.21250000  0.82730000  1.0 0.1265160051
C  C658  1  0.82730000  0.36050000  0.21250000  1.0 0.1265160051
C  C659  1  0.65030000  0.42270000  0.88950000  1.0 0.1265160051
C  C660  1  0.65030000  0.03750000  0.42270000  1.0 0.1265160051
C  C661  1  0.21250000  0.59970000  0.82730000  1.0 0.1265160051
C  C662  1  0.42270000  0.88950000  0.65030000  1.0 0.1265160051
C  C663  1  0.59970000  0.21250000  0.36050000  1.0 0.1265160051
C  C664  1  0.88950000  0.42270000  0.03750000  1.0 0.1265160051
C  C665  1  0.59970000  0.36050000  0.82730000  1.0 0.1265160051
C  C666  1  0.42270000  0.03750000  0.88950000  1.0 0.1265160051
C  C667  1  0.03750000  0.42270000  0.65030000  1.0 0.1265160051
C  C668  1  0.65030000  0.88950000  0.03750000  1.0 0.1265160051
C  C669  1  0.21250000  0.82730000  0.36050000  1.0 0.1265160051
C  C670  1  0.88950000  0.65030000  0.42270000  1.0 0.1265160051
C  C671  1  0.82730000  0.21250000  0.59970000  1.0 0.1265160051
C  C672  1  0.36050000  0.59970000  0.21250000  1.0 0.1265160051
C  C673  1  0.41670000  0.62010000  0.90210000  1.0 -0.1243610913
C  C674  1  0.18890000  0.34790000  0.83330000  1.0 -0.1243610913
C  C675  1  0.06110000  0.90210000  0.62010000  1.0 -0.1243610913
C  C676  1  0.90210000  0.41670000  0.62010000  1.0 -0.1243610913
C  C677  1  0.62010000  0.41670000  0.06110000  1.0 -0.1243610913
C  C678  1  0.83330000  0.62990000  0.18890000  1.0 -0.1243610913
C  C679  1  0.18890000  0.62990000  0.34790000  1.0 -0.1243610913
C  C680  1  0.34790000  0.18890000  0.62990000  1.0 -0.1243610913
C  C681  1  0.90210000  0.06110000  0.41670000  1.0 -0.1243610913
C  C682  1  0.41670000  0.90210000  0.06110000  1.0 -0.1324582924
C  C683  1  0.62990000  0.83330000  0.34790000  1.0 -0.1243610913
C  C684  1  0.62990000  0.18890000  0.83330000  1.0 -0.1324582924
C  C685  1  0.06110000  0.62010000  0.41670000  1.0 -0.1324582924
C  C686  1  0.83330000  0.34790000  0.62990000  1.0 -0.1243610913
C  C687  1  0.62010000  0.06110000  0.90210000  1.0 -0.1243610913
C  C688  1  0.34790000  0.83330000  0.18890000  1.0 -0.1243610913
C  C689  1  0.62010000  0.90210000  0.41670000  1.0 -0.1243610913
C  C690  1  0.83330000  0.18890000  0.34790000  1.0 -0.1243610913
C  C691  1  0.18890000  0.83330000  0.62990000  1.0 -0.1243610913
C  C692  1  0.62990000  0.34790000  0.18890000  1.0 -0.1243610913
C  C693  1  0.06110000  0.41670000  0.90210000  1.0 -0.1243610913
C  C694  1  0.34790000  0.62990000  0.83330000  1.0 -0.1243610913
C  C695  1  0.41670000  0.06110000  0.62010000  1.0 -0.1243610913
C  C696  1  0.90210000  0.62010000  0.06110000  1.0 -0.1243610913
C  C697  1  0.83330000  0.62990000  0.34790000  1.0 -0.1324582924
C  C698  1  0.06110000  0.90210000  0.41670000  1.0 -0.1243610913
C  C699  1  0.18890000  0.34790000  0.62990000  1.0 -0.1243610913
C  C700  1  0.34790000  0.83330000  0.62990000  1.0 -0.1243610913
C  C701  1  0.62990000  0.83330000  0.18890000  1.0 -0.1243610913
C  C702  1  0.41670000  0.62010000  0.06110000  1.0 -0.1243610913
C  C703  1  0.06110000  0.62010000  0.90210000  1.0 -0.1243610913
C  C704  1  0.90210000  0.06110000  0.62010000  1.0 -0.1243610913
C  C705  1  0.34790000  0.18890000  0.83330000  1.0 -0.1324582924
C  C706  1  0.83330000  0.34790000  0.18890000  1.0 -0.1243610913
C  C707  1  0.62010000  0.41670000  0.90210000  1.0 -0.1324582924
C  C708  1  0.62010000  0.06110000  0.41670000  1.0 -0.1243610913
C  C709  1  0.18890000  0.62990000  0.83330000  1.0 -0.1243610913
C  C710  1  0.41670000  0.90210000  0.62010000  1.0 -0.1243610913
C  C711  1  0.62990000  0.18890000  0.34790000  1.0 -0.1243610913
C  C712  1  0.90210000  0.41670000  0.06110000  1.0 -0.1243610913
C  C713  1  0.62990000  0.34790000  0.83330000  1.0 -0.1243610913
C  C714  1  0.41670000  0.06110000  0.90210000  1.0 -0.1243610913
C  C715  1  0.06110000  0.41670000  0.62010000  1.0 -0.1243610913
C  C716  1  0.62010000  0.90210000  0.06110000  1.0 -0.1324582924
C  C717  1  0.18890000  0.83330000  0.34790000  1.0 -0.1243610913
C  C718  1  0.90210000  0.62010000  0.41670000  1.0 -0.1243610913
C  C719  1  0.83330000  0.18890000  0.62990000  1.0 -0.1243610913
C  C720  1  0.34790000  0.62990000  0.18890000  1.0 -0.1243610913
C  C721  1  0.43650000  0.59030000  0.91930000  1.0 0.0841362737
C  C722  1  0.19610000  0.33070000  0.81350000  1.0 0.0841362737
C  C723  1  0.05390000  0.91930000  0.59030000  1.0 0.0841362737
C  C724  1  0.91930000  0.43650000  0.59030000  1.0 0.0890956359
C  C725  1  0.59030000  0.43650000  0.05390000  1.0 0.0841362737
C  C726  1  0.81350000  0.65970000  0.19610000  1.0 0.0890956359
C  C727  1  0.19610000  0.65970000  0.33070000  1.0 0.0841362737
C  C728  1  0.33070000  0.19610000  0.65970000  1.0 0.0841362737
C  C729  1  0.91930000  0.05390000  0.43650000  1.0 0.0890956359
C  C730  1  0.43650000  0.91930000  0.05390000  1.0 0.0841362737
C  C731  1  0.65970000  0.81350000  0.33070000  1.0 0.0890956359
C  C732  1  0.65970000  0.19610000  0.81350000  1.0 0.0841362737
C  C733  1  0.05390000  0.59030000  0.43650000  1.0 0.0841362737
C  C734  1  0.81350000  0.33070000  0.65970000  1.0 0.0890956359
C  C735  1  0.59030000  0.05390000  0.91930000  1.0 0.0841362737
C  C736  1  0.33070000  0.81350000  0.19610000  1.0 0.0890956359
C  C737  1  0.59030000  0.91930000  0.43650000  1.0 0.0841362737
C  C738  1  0.81350000  0.19610000  0.33070000  1.0 0.0890956359
C  C739  1  0.19610000  0.81350000  0.65970000  1.0 0.0841362737
C  C740  1  0.65970000  0.33070000  0.19610000  1.0 0.0841362737
C  C741  1  0.05390000  0.43650000  0.91930000  1.0 0.0841362737
C  C742  1  0.33070000  0.65970000  0.81350000  1.0 0.0841362737
C  C743  1  0.43650000  0.05390000  0.59030000  1.0 0.0890956359
C  C744  1  0.91930000  0.59030000  0.05390000  1.0 0.0890956359
C  C745  1  0.81350000  0.65970000  0.33070000  1.0 0.0890956359
C  C746  1  0.05390000  0.91930000  0.43650000  1.0 0.0841362737
C  C747  1  0.19610000  0.33070000  0.65970000  1.0 0.0841362737
C  C748  1  0.33070000  0.81350000  0.65970000  1.0 0.0890956359
C  C749  1  0.65970000  0.81350000  0.19610000  1.0 0.0890956359
C  C750  1  0.43650000  0.59030000  0.05390000  1.0 0.0890956359
C  C751  1  0.05390000  0.59030000  0.91930000  1.0 0.0841362737
C  C752  1  0.91930000  0.05390000  0.59030000  1.0 0.0890956359
C  C753  1  0.33070000  0.19610000  0.81350000  1.0 0.0841362737
C  C754  1  0.81350000  0.33070000  0.19610000  1.0 0.0890956359
C  C755  1  0.59030000  0.43650000  0.91930000  1.0 0.0890956359
C  C756  1  0.59030000  0.05390000  0.43650000  1.0 0.0890956359
C  C757  1  0.19610000  0.65970000  0.81350000  1.0 0.0841362737
C  C758  1  0.43650000  0.91930000  0.59030000  1.0 0.0841362737
C  C759  1  0.65970000  0.19610000  0.33070000  1.0 0.0890956359
C  C760  1  0.91930000  0.43650000  0.05390000  1.0 0.0890956359
C  C761  1  0.65970000  0.33070000  0.81350000  1.0 0.0890956359
C  C762  1  0.43650000  0.05390000  0.91930000  1.0 0.0890956359
C  C763  1  0.05390000  0.43650000  0.59030000  1.0 0.0841362737
C  C764  1  0.59030000  0.91930000  0.05390000  1.0 0.0890956359
C  C765  1  0.19610000  0.81350000  0.33070000  1.0 0.0841362737
C  C766  1  0.91930000  0.59030000  0.43650000  1.0 0.0890956359
C  C767  1  0.81350000  0.19610000  0.65970000  1.0 0.0890956359
C  C768  1  0.33070000  0.65970000  0.19610000  1.0 0.0890956359
C  C769  1  0.46460000  0.58980000  0.92040000  1.0 -0.1046965124
C  C770  1  0.22480000  0.32960000  0.78540000  1.0 -0.1046965124
C  C771  1  0.02520000  0.92040000  0.58980000  1.0 -0.1099094808
C  C772  1  0.92040000  0.46460000  0.58980000  1.0 -0.1046965124
C  C773  1  0.58980000  0.46460000  0.02520000  1.0 -0.1099094808
C  C774  1  0.78540000  0.66020000  0.22480000  1.0 -0.1046965124
C  C775  1  0.22480000  0.66020000  0.32960000  1.0 -0.1046965124
C  C776  1  0.32960000  0.22480000  0.66020000  1.0 -0.1046965124
C  C777  1  0.92040000  0.02520000  0.46460000  1.0 -0.1046965124
C  C778  1  0.46460000  0.92040000  0.02520000  1.0 -0.1046965124
C  C779  1  0.66020000  0.78540000  0.32960000  1.0 -0.1099094808
C  C780  1  0.66020000  0.22480000  0.78540000  1.0 -0.1046965124
C  C781  1  0.02520000  0.58980000  0.46460000  1.0 -0.1046965124
C  C782  1  0.78540000  0.32960000  0.66020000  1.0 -0.1046965124
C  C783  1  0.58980000  0.02520000  0.92040000  1.0 -0.1046965124
C  C784  1  0.32960000  0.78540000  0.22480000  1.0 -0.1046965124
C  C785  1  0.58980000  0.92040000  0.46460000  1.0 -0.1099094808
C  C786  1  0.78540000  0.22480000  0.32960000  1.0 -0.1099094808
C  C787  1  0.22480000  0.78540000  0.66020000  1.0 -0.1046965124
C  C788  1  0.66020000  0.32960000  0.22480000  1.0 -0.1046965124
C  C789  1  0.02520000  0.46460000  0.92040000  1.0 -0.1099094808
C  C790  1  0.32960000  0.66020000  0.78540000  1.0 -0.1046965124
C  C791  1  0.46460000  0.02520000  0.58980000  1.0 -0.1046965124
C  C792  1  0.92040000  0.58980000  0.02520000  1.0 -0.1046965124
C  C793  1  0.78540000  0.66020000  0.32960000  1.0 -0.1099094808
C  C794  1  0.02520000  0.92040000  0.46460000  1.0 -0.1099094808
C  C795  1  0.22480000  0.32960000  0.66020000  1.0 -0.1046965124
C  C796  1  0.32960000  0.78540000  0.66020000  1.0 -0.1046965124
C  C797  1  0.66020000  0.78540000  0.22480000  1.0 -0.1046965124
C  C798  1  0.46460000  0.58980000  0.02520000  1.0 -0.1046965124
C  C799  1  0.02520000  0.58980000  0.92040000  1.0 -0.1046965124
C  C800  1  0.92040000  0.02520000  0.58980000  1.0 -0.1046965124
C  C801  1  0.32960000  0.22480000  0.78540000  1.0 -0.1046965124
C  C802  1  0.78540000  0.32960000  0.22480000  1.0 -0.1046965124
C  C803  1  0.58980000  0.46460000  0.92040000  1.0 -0.1046965124
C  C804  1  0.58980000  0.02520000  0.46460000  1.0 -0.1046965124
C  C805  1  0.22480000  0.66020000  0.78540000  1.0 -0.1046965124
C  C806  1  0.46460000  0.92040000  0.58980000  1.0 -0.1046965124
C  C807  1  0.66020000  0.22480000  0.32960000  1.0 -0.1099094808
C  C808  1  0.92040000  0.46460000  0.02520000  1.0 -0.1046965124
C  C809  1  0.66020000  0.32960000  0.78540000  1.0 -0.1046965124
C  C810  1  0.46460000  0.02520000  0.92040000  1.0 -0.1046965124
C  C811  1  0.02520000  0.46460000  0.58980000  1.0 -0.1046965124
C  C812  1  0.58980000  0.92040000  0.02520000  1.0 -0.1046965124
C  C813  1  0.22480000  0.78540000  0.32960000  1.0 -0.1046965124
C  C814  1  0.92040000  0.58980000  0.46460000  1.0 -0.1046965124
C  C815  1  0.78540000  0.22480000  0.66020000  1.0 -0.1046965124
C  C816  1  0.32960000  0.66020000  0.22480000  1.0 -0.1046965124
C  C817  1  0.47180000  0.61880000  0.90360000  1.0 0.0986474
C  C818  1  0.24420000  0.34640000  0.77820000  1.0 0.0986474
C  C819  1  0.00580000  0.90360000  0.61880000  1.0 0.0986474
C  C820  1  0.90360000  0.47180000  0.61880000  1.0 0.0986474
C  C821  1  0.61880000  0.47180000  0.00580000  1.0 0.0986474
C  C822  1  0.77820000  0.63120000  0.24420000  1.0 0.0986474
C  C823  1  0.24420000  0.63120000  0.34640000  1.0 0.0986474
C  C824  1  0.34640000  0.24420000  0.63120000  1.0 0.0986474
C  C825  1  0.90360000  0.00580000  0.47180000  1.0 0.0986474
C  C826  1  0.47180000  0.90360000  0.00580000  1.0 0.0986474
C  C827  1  0.63120000  0.77820000  0.34640000  1.0 0.0986474
C  C828  1  0.63120000  0.24420000  0.77820000  1.0 0.0986474
C  C829  1  0.00580000  0.61880000  0.47180000  1.0 0.0986474
C  C830  1  0.77820000  0.34640000  0.63120000  1.0 0.0986474
C  C831  1  0.61880000  0.00580000  0.90360000  1.0 0.0986474
C  C832  1  0.34640000  0.77820000  0.24420000  1.0 0.0986474
C  C833  1  0.61880000  0.90360000  0.47180000  1.0 0.0986474
C  C834  1  0.77820000  0.24420000  0.34640000  1.0 0.0986474
C  C835  1  0.24420000  0.77820000  0.63120000  1.0 0.0986474
C  C836  1  0.63120000  0.34640000  0.24420000  1.0 0.0986474
C  C837  1  0.00580000  0.47180000  0.90360000  1.0 0.0986474
C  C838  1  0.34640000  0.63120000  0.77820000  1.0 0.0986474
C  C839  1  0.47180000  0.00580000  0.61880000  1.0 0.0986474
C  C840  1  0.90360000  0.61880000  0.00580000  1.0 0.0986474
C  C841  1  0.77820000  0.63120000  0.34640000  1.0 0.0986474
C  C842  1  0.00580000  0.90360000  0.47180000  1.0 0.0890956359
C  C843  1  0.24420000  0.34640000  0.63120000  1.0 0.0986474
C  C844  1  0.34640000  0.77820000  0.63120000  1.0 0.0986474
C  C845  1  0.63120000  0.77820000  0.24420000  1.0 0.0986474
C  C846  1  0.47180000  0.61880000  0.00580000  1.0 0.0986474
C  C847  1  0.00580000  0.61880000  0.90360000  1.0 0.0890956359
C  C848  1  0.90360000  0.00580000  0.61880000  1.0 0.0986474
C  C849  1  0.34640000  0.24420000  0.77820000  1.0 0.0986474
C  C850  1  0.77820000  0.34640000  0.24420000  1.0 0.0986474
C  C851  1  0.61880000  0.47180000  0.90360000  1.0 0.0986474
C  C852  1  0.61880000  0.00580000  0.47180000  1.0 0.0986474
C  C853  1  0.24420000  0.63120000  0.77820000  1.0 0.0986474
C  C854  1  0.47180000  0.90360000  0.61880000  1.0 0.0986474
C  C855  1  0.63120000  0.24420000  0.34640000  1.0 0.0890956359
C  C856  1  0.90360000  0.47180000  0.00580000  1.0 0.0986474
C  C857  1  0.63120000  0.34640000  0.77820000  1.0 0.0986474
C  C858  1  0.47180000  0.00580000  0.90360000  1.0 0.0986474
C  C859  1  0.00580000  0.47180000  0.61880000  1.0 0.0986474
C  C860  1  0.61880000  0.90360000  0.00580000  1.0 0.0986474
C  C861  1  0.24420000  0.77820000  0.34640000  1.0 0.0986474
C  C862  1  0.90360000  0.61880000  0.47180000  1.0 0.0986474
C  C863  1  0.77820000  0.24420000  0.63120000  1.0 0.0986474
C  C864  1  0.34640000  0.63120000  0.24420000  1.0 0.0986474
C  C865  1  0.48700000  0.56040000  0.93560000  1.0 0.6714083792
C  C866  1  0.23300000  0.31440000  0.76300000  1.0 0.6714083792
C  C867  1  0.01700000  0.93560000  0.56040000  1.0 0.6714083792
C  C868  1  0.93560000  0.48700000  0.56040000  1.0 0.6714083792
C  C869  1  0.56040000  0.48700000  0.01700000  1.0 0.6714083792
C  C870  1  0.76300000  0.68960000  0.23300000  1.0 0.6714083792
C  C871  1  0.23300000  0.68960000  0.31440000  1.0 0.6714083792
C  C872  1  0.31440000  0.23300000  0.68960000  1.0 0.6714083792
C  C873  1  0.93560000  0.01700000  0.48700000  1.0 0.6714083792
C  C874  1  0.48700000  0.93560000  0.01700000  1.0 0.6714083792
C  C875  1  0.68960000  0.76300000  0.31440000  1.0 0.6714083792
C  C876  1  0.68960000  0.23300000  0.76300000  1.0 0.6714083792
C  C877  1  0.01700000  0.56040000  0.48700000  1.0 0.6714083792
C  C878  1  0.76300000  0.31440000  0.68960000  1.0 0.6714083792
C  C879  1  0.56040000  0.01700000  0.93560000  1.0 0.6714083792
C  C880  1  0.31440000  0.76300000  0.23300000  1.0 0.6714083792
C  C881  1  0.56040000  0.93560000  0.48700000  1.0 0.6714083792
C  C882  1  0.76300000  0.23300000  0.31440000  1.0 0.6714083792
C  C883  1  0.23300000  0.76300000  0.68960000  1.0 0.6714083792
C  C884  1  0.68960000  0.31440000  0.23300000  1.0 0.6714083792
C  C885  1  0.01700000  0.48700000  0.93560000  1.0 0.6714083792
C  C886  1  0.31440000  0.68960000  0.76300000  1.0 0.6714083792
C  C887  1  0.48700000  0.01700000  0.56040000  1.0 0.6714083792
C  C888  1  0.93560000  0.56040000  0.01700000  1.0 0.6714083792
C  C889  1  0.76300000  0.68960000  0.31440000  1.0 0.6714083792
C  C890  1  0.01700000  0.93560000  0.48700000  1.0 0.6714083792
C  C891  1  0.23300000  0.31440000  0.68960000  1.0 0.6714083792
C  C892  1  0.31440000  0.76300000  0.68960000  1.0 0.6714083792
C  C893  1  0.68960000  0.76300000  0.23300000  1.0 0.6714083792
C  C894  1  0.48700000  0.56040000  0.01700000  1.0 0.6714083792
C  C895  1  0.01700000  0.56040000  0.93560000  1.0 0.6714083792
C  C896  1  0.93560000  0.01700000  0.56040000  1.0 0.6714083792
C  C897  1  0.31440000  0.23300000  0.76300000  1.0 0.6714083792
C  C898  1  0.76300000  0.31440000  0.23300000  1.0 0.6714083792
C  C899  1  0.56040000  0.48700000  0.93560000  1.0 0.6714083792
C  C900  1  0.56040000  0.01700000  0.48700000  1.0 0.6714083792
C  C901  1  0.23300000  0.68960000  0.76300000  1.0 0.6714083792
C  C902  1  0.48700000  0.93560000  0.56040000  1.0 0.6714083792
C  C903  1  0.68960000  0.23300000  0.31440000  1.0 0.6714083792
C  C904  1  0.93560000  0.48700000  0.01700000  1.0 0.6714083792
C  C905  1  0.68960000  0.31440000  0.76300000  1.0 0.6714083792
C  C906  1  0.48700000  0.01700000  0.93560000  1.0 0.6714083792
C  C907  1  0.01700000  0.48700000  0.56040000  1.0 0.6714083792
C  C908  1  0.56040000  0.93560000  0.01700000  1.0 0.6714083792
C  C909  1  0.23300000  0.76300000  0.31440000  1.0 0.6714083792
C  C910  1  0.93560000  0.56040000  0.48700000  1.0 0.6714083792
C  C911  1  0.76300000  0.23300000  0.68960000  1.0 0.6714083792
C  C912  1  0.31440000  0.68960000  0.23300000  1.0 0.6714083792
C  C913  1  0.38600000  0.62100000  0.90740000  1.0 0.6714083792
C  C914  1  0.16440000  0.34260000  0.86400000  1.0 0.6714083792
C  C915  1  0.08560000  0.90740000  0.62100000  1.0 0.6714083792
C  C916  1  0.90740000  0.38600000  0.62100000  1.0 0.6714083792
C  C917  1  0.62100000  0.38600000  0.08560000  1.0 0.6714083792
C  C918  1  0.86400000  0.62900000  0.16440000  1.0 0.6714083792
C  C919  1  0.16440000  0.62900000  0.34260000  1.0 0.6714083792
C  C920  1  0.34260000  0.16440000  0.62900000  1.0 0.6714083792
C  C921  1  0.90740000  0.08560000  0.38600000  1.0 0.6714083792
C  C922  1  0.38600000  0.90740000  0.08560000  1.0 0.6714083792
C  C923  1  0.62900000  0.86400000  0.34260000  1.0 0.6714083792
C  C924  1  0.62900000  0.16440000  0.86400000  1.0 0.6714083792
C  C925  1  0.08560000  0.62100000  0.38600000  1.0 0.6714083792
C  C926  1  0.86400000  0.34260000  0.62900000  1.0 0.6714083792
C  C927  1  0.62100000  0.08560000  0.90740000  1.0 0.6714083792
C  C928  1  0.34260000  0.86400000  0.16440000  1.0 0.6714083792
C  C929  1  0.62100000  0.90740000  0.38600000  1.0 0.6714083792
C  C930  1  0.86400000  0.16440000  0.34260000  1.0 0.6714083792
C  C931  1  0.16440000  0.86400000  0.62900000  1.0 0.6714083792
C  C932  1  0.62900000  0.34260000  0.16440000  1.0 0.6714083792
C  C933  1  0.08560000  0.38600000  0.90740000  1.0 0.6714083792
C  C934  1  0.34260000  0.62900000  0.86400000  1.0 0.6714083792
C  C935  1  0.38600000  0.08560000  0.62100000  1.0 0.6714083792
C  C936  1  0.90740000  0.62100000  0.08560000  1.0 0.6714083792
C  C937  1  0.86400000  0.62900000  0.34260000  1.0 0.6714083792
C  C938  1  0.08560000  0.90740000  0.38600000  1.0 0.6714083792
C  C939  1  0.16440000  0.34260000  0.62900000  1.0 0.6714083792
C  C940  1  0.34260000  0.86400000  0.62900000  1.0 0.6714083792
C  C941  1  0.62900000  0.86400000  0.16440000  1.0 0.6714083792
C  C942  1  0.38600000  0.62100000  0.08560000  1.0 0.6714083792
C  C943  1  0.08560000  0.62100000  0.90740000  1.0 0.6714083792
C  C944  1  0.90740000  0.08560000  0.62100000  1.0 0.6714083792
C  C945  1  0.34260000  0.16440000  0.86400000  1.0 0.6714083792
C  C946  1  0.86400000  0.34260000  0.16440000  1.0 0.6714083792
C  C947  1  0.62100000  0.38600000  0.90740000  1.0 0.6714083792
C  C948  1  0.62100000  0.08560000  0.38600000  1.0 0.6714083792
C  C949  1  0.16440000  0.62900000  0.86400000  1.0 0.6714083792
C  C950  1  0.38600000  0.90740000  0.62100000  1.0 0.6714083792
C  C951  1  0.62900000  0.16440000  0.34260000  1.0 0.6714083792
C  C952  1  0.90740000  0.38600000  0.08560000  1.0 0.6714083792
C  C953  1  0.62900000  0.34260000  0.86400000  1.0 0.6714083792
C  C954  1  0.38600000  0.08560000  0.90740000  1.0 0.6714083792
C  C955  1  0.08560000  0.38600000  0.62100000  1.0 0.6714083792
C  C956  1  0.62100000  0.90740000  0.08560000  1.0 0.6714083792
C  C957  1  0.16440000  0.86400000  0.34260000  1.0 0.6714083792
C  C958  1  0.90740000  0.62100000  0.38600000  1.0 0.6714083792
C  C959  1  0.86400000  0.16440000  0.62900000  1.0 0.6714083792
C  C960  1  0.34260000  0.62900000  0.16440000  1.0 0.6714083792
C  C961  1  0.44850000  0.67610000  0.89670000  1.0 0.6714083792
C  C962  1  0.27130000  0.35330000  0.80150000  1.0 0.6714083792
C  C963  1  0.97870000  0.89670000  0.67610000  1.0 0.6714083792
C  C964  1  0.89670000  0.44850000  0.67610000  1.0 0.6714083792
C  C965  1  0.67610000  0.44850000  0.97870000  1.0 0.6714083792
C  C966  1  0.80150000  0.57390000  0.27130000  1.0 0.6714083792
C  C967  1  0.27130000  0.57390000  0.35330000  1.0 0.6714083792
C  C968  1  0.35330000  0.27130000  0.57390000  1.0 0.6714083792
C  C969  1  0.89670000  0.97870000  0.44850000  1.0 0.6714083792
C  C970  1  0.44850000  0.89670000  0.97870000  1.0 0.6714083792
C  C971  1  0.57390000  0.80150000  0.35330000  1.0 0.6714083792
C  C972  1  0.57390000  0.27130000  0.80150000  1.0 0.6833834019
C  C973  1  0.97870000  0.67610000  0.44850000  1.0 0.6714083792
C  C974  1  0.80150000  0.35330000  0.57390000  1.0 0.6714083792
C  C975  1  0.67610000  0.97870000  0.89670000  1.0 0.6714083792
C  C976  1  0.35330000  0.80150000  0.27130000  1.0 0.6714083792
C  C977  1  0.67610000  0.89670000  0.44850000  1.0 0.6714083792
C  C978  1  0.80150000  0.27130000  0.35330000  1.0 0.6714083792
C  C979  1  0.27130000  0.80150000  0.57390000  1.0 0.6714083792
C  C980  1  0.57390000  0.35330000  0.27130000  1.0 0.6714083792
C  C981  1  0.97870000  0.44850000  0.89670000  1.0 0.6714083792
C  C982  1  0.35330000  0.57390000  0.80150000  1.0 0.6714083792
C  C983  1  0.44850000  0.97870000  0.67610000  1.0 0.6714083792
C  C984  1  0.89670000  0.67610000  0.97870000  1.0 0.6714083792
C  C985  1  0.80150000  0.57390000  0.35330000  1.0 0.6714083792
C  C986  1  0.97870000  0.89670000  0.44850000  1.0 0.6714083792
C  C987  1  0.27130000  0.35330000  0.57390000  1.0 0.6714083792
C  C988  1  0.35330000  0.80150000  0.57390000  1.0 0.6714083792
C  C989  1  0.57390000  0.80150000  0.27130000  1.0 0.6714083792
C  C990  1  0.44850000  0.67610000  0.97870000  1.0 0.6714083792
C  C991  1  0.97870000  0.67610000  0.89670000  1.0 0.6714083792
C  C992  1  0.89670000  0.97870000  0.67610000  1.0 0.6714083792
C  C993  1  0.35330000  0.27130000  0.80150000  1.0 0.6714083792
C  C994  1  0.80150000  0.35330000  0.27130000  1.0 0.6714083792
C  C995  1  0.67610000  0.44850000  0.89670000  1.0 0.6714083792
C  C996  1  0.67610000  0.97870000  0.44850000  1.0 0.6714083792
C  C997  1  0.27130000  0.57390000  0.80150000  1.0 0.6714083792
C  C998  1  0.44850000  0.89670000  0.67610000  1.0 0.6714083792
C  C999  1  0.57390000  0.27130000  0.35330000  1.0 0.6714083792
C  C1000  1  0.89670000  0.44850000  0.97870000  1.0 0.6714083792
C  C1001  1  0.57390000  0.35330000  0.80150000  1.0 0.6714083792
C  C1002  1  0.44850000  0.97870000  0.89670000  1.0 0.6714083792
C  C1003  1  0.97870000  0.44850000  0.67610000  1.0 0.6714083792
C  C1004  1  0.67610000  0.89670000  0.97870000  1.0 0.6714083792
C  C1005  1  0.27130000  0.80150000  0.35330000  1.0 0.6714083792
C  C1006  1  0.89670000  0.67610000  0.44850000  1.0 0.6714083792
C  C1007  1  0.80150000  0.27130000  0.57390000  1.0 0.6714083792
C  C1008  1  0.35330000  0.57390000  0.27130000  1.0 0.6714083792
C  C1009  1  0.29720000  0.67560000  0.01360000  1.0 -0.1099094808
C  C1010  1  0.23640000  0.23640000  0.95280000  1.0 -0.1099094808
C  C1011  1  0.01360000  0.01360000  0.67560000  1.0 -0.1099094808
C  C1012  1  0.01360000  0.29720000  0.67560000  1.0 -0.1099094808
C  C1013  1  0.67560000  0.29720000  0.01360000  1.0 -0.1099094808
C  C1014  1  0.95280000  0.57440000  0.23640000  1.0 -0.1099094808
C  C1015  1  0.23640000  0.57440000  0.23640000  1.0 -0.1099094808
C  C1016  1  0.23640000  0.23640000  0.57440000  1.0 -0.1099094808
C  C1017  1  0.01360000  0.01360000  0.29720000  1.0 -0.1099094808
C  C1018  1  0.29720000  0.01360000  0.01360000  1.0 -0.1099094808
C  C1019  1  0.57440000  0.95280000  0.23640000  1.0 -0.1099094808
C  C1020  1  0.57440000  0.23640000  0.95280000  1.0 -0.1099094808
C  C1021  1  0.01360000  0.67560000  0.29720000  1.0 -0.1099094808
C  C1022  1  0.95280000  0.23640000  0.57440000  1.0 -0.1099094808
C  C1023  1  0.67560000  0.01360000  0.01360000  1.0 -0.1099094808
C  C1024  1  0.23640000  0.95280000  0.23640000  1.0 -0.1099094808
C  C1025  1  0.67560000  0.01360000  0.29720000  1.0 -0.1099094808
C  C1026  1  0.95280000  0.23640000  0.23640000  1.0 -0.1099094808
C  C1027  1  0.23640000  0.95280000  0.57440000  1.0 -0.1099094808
C  C1028  1  0.57440000  0.23640000  0.23640000  1.0 -0.1099094808
C  C1029  1  0.01360000  0.29720000  0.01360000  1.0 -0.1099094808
C  C1030  1  0.23640000  0.57440000  0.95280000  1.0 -0.1099094808
C  C1031  1  0.29720000  0.01360000  0.67560000  1.0 -0.1099094808
C  C1032  1  0.01360000  0.67560000  0.01360000  1.0 -0.1099094808
C  C1033  1  0.30060000  0.69180000  0.98000000  1.0 0.0339431044
C  C1034  1  0.22240000  0.27000000  0.94940000  1.0 0.0339431044
C  C1035  1  0.02760000  0.98000000  0.69180000  1.0 0.0358030848
C  C1036  1  0.98000000  0.30060000  0.69180000  1.0 0.0358030848
C  C1037  1  0.69180000  0.30060000  0.02760000  1.0 0.0358030848
C  C1038  1  0.94940000  0.55820000  0.22240000  1.0 0.0358030848
C  C1039  1  0.22240000  0.55820000  0.27000000  1.0 0.0358030848
C  C1040  1  0.27000000  0.22240000  0.55820000  1.0 0.0358030848
C  C1041  1  0.98000000  0.02760000  0.30060000  1.0 0.0358030848
C  C1042  1  0.30060000  0.98000000  0.02760000  1.0 0.0358030848
C  C1043  1  0.55820000  0.94940000  0.27000000  1.0 0.0358030848
C  C1044  1  0.55820000  0.22240000  0.94940000  1.0 0.0358030848
C  C1045  1  0.02760000  0.69180000  0.30060000  1.0 0.0358030848
C  C1046  1  0.94940000  0.27000000  0.55820000  1.0 0.0358030848
C  C1047  1  0.69180000  0.02760000  0.98000000  1.0 0.0339431044
C  C1048  1  0.27000000  0.94940000  0.22240000  1.0 0.0358030848
C  C1049  1  0.69180000  0.98000000  0.30060000  1.0 0.0358030848
C  C1050  1  0.94940000  0.22240000  0.27000000  1.0 0.0358030848
C  C1051  1  0.22240000  0.94940000  0.55820000  1.0 0.0339431044
C  C1052  1  0.55820000  0.27000000  0.22240000  1.0 0.0358030848
C  C1053  1  0.02760000  0.30060000  0.98000000  1.0 0.0339431044
C  C1054  1  0.27000000  0.55820000  0.94940000  1.0 0.0358030848
C  C1055  1  0.30060000  0.02760000  0.69180000  1.0 0.0358030848
C  C1056  1  0.98000000  0.69180000  0.02760000  1.0 0.0339431044
C  C1057  1  0.94940000  0.55820000  0.27000000  1.0 0.0358030848
C  C1058  1  0.02760000  0.98000000  0.30060000  1.0 0.0358030848
C  C1059  1  0.22240000  0.27000000  0.55820000  1.0 0.0358030848
C  C1060  1  0.27000000  0.94940000  0.55820000  1.0 0.0358030848
C  C1061  1  0.55820000  0.94940000  0.22240000  1.0 0.0358030848
C  C1062  1  0.30060000  0.69180000  0.02760000  1.0 0.0339431044
C  C1063  1  0.02760000  0.69180000  0.98000000  1.0 0.0339431044
C  C1064  1  0.98000000  0.02760000  0.69180000  1.0 0.0358030848
C  C1065  1  0.27000000  0.22240000  0.94940000  1.0 0.0339431044
C  C1066  1  0.94940000  0.27000000  0.22240000  1.0 0.0358030848
C  C1067  1  0.69180000  0.30060000  0.98000000  1.0 0.0339431044
C  C1068  1  0.69180000  0.02760000  0.30060000  1.0 0.0358030848
C  C1069  1  0.22240000  0.55820000  0.94940000  1.0 0.0358030848
C  C1070  1  0.30060000  0.98000000  0.69180000  1.0 0.0358030848
C  C1071  1  0.55820000  0.22240000  0.27000000  1.0 0.0358030848
C  C1072  1  0.98000000  0.30060000  0.02760000  1.0 0.0358030848
C  C1073  1  0.55820000  0.27000000  0.94940000  1.0 0.0339431044
C  C1074  1  0.30060000  0.02760000  0.98000000  1.0 0.0339431044
C  C1075  1  0.02760000  0.30060000  0.69180000  1.0 0.0358030848
C  C1076  1  0.69180000  0.98000000  0.02760000  1.0 0.0358030848
C  C1077  1  0.22240000  0.94940000  0.27000000  1.0 0.0358030848
C  C1078  1  0.98000000  0.69180000  0.30060000  1.0 0.0358030848
C  C1079  1  0.94940000  0.22240000  0.55820000  1.0 0.0358030848
C  C1080  1  0.27000000  0.55820000  0.22240000  1.0 0.0358030848
C  C1081  1  0.32670000  0.71010000  0.95850000  1.0 0.0116005667
C  C1082  1  0.24530000  0.29150000  0.92330000  1.0 0.0116005667
C  C1083  1  0.00470000  0.95850000  0.71010000  1.0 0.0116005667
C  C1084  1  0.95850000  0.32670000  0.71010000  1.0 0.0116005667
C  C1085  1  0.71010000  0.32670000  0.00470000  1.0 0.0116005667
C  C1086  1  0.92330000  0.53990000  0.24530000  1.0 0.0116005667
C  C1087  1  0.24530000  0.53990000  0.29150000  1.0 0.0116005667
C  C1088  1  0.29150000  0.24530000  0.53990000  1.0 0.0116005667
C  C1089  1  0.95850000  0.00470000  0.32670000  1.0 0.0116005667
C  C1090  1  0.32670000  0.95850000  0.00470000  1.0 0.0116005667
C  C1091  1  0.53990000  0.92330000  0.29150000  1.0 0.0116005667
C  C1092  1  0.53990000  0.24530000  0.92330000  1.0 0.0116005667
C  C1093  1  0.00470000  0.71010000  0.32670000  1.0 0.0116005667
C  C1094  1  0.92330000  0.29150000  0.53990000  1.0 0.0116005667
C  C1095  1  0.71010000  0.00470000  0.95850000  1.0 0.0116005667
C  C1096  1  0.29150000  0.92330000  0.24530000  1.0 0.0116005667
C  C1097  1  0.71010000  0.95850000  0.32670000  1.0 0.0116005667
C  C1098  1  0.92330000  0.24530000  0.29150000  1.0 0.0116005667
C  C1099  1  0.24530000  0.92330000  0.53990000  1.0 0.0116005667
C  C1100  1  0.53990000  0.29150000  0.24530000  1.0 0.0116005667
C  C1101  1  0.00470000  0.32670000  0.95850000  1.0 0.0116005667
C  C1102  1  0.29150000  0.53990000  0.92330000  1.0 0.0116005667
C  C1103  1  0.32670000  0.00470000  0.71010000  1.0 0.0116005667
C  C1104  1  0.95850000  0.71010000  0.00470000  1.0 0.0116005667
C  C1105  1  0.92330000  0.53990000  0.29150000  1.0 0.0116005667
C  C1106  1  0.00470000  0.95850000  0.32670000  1.0 0.0116005667
C  C1107  1  0.24530000  0.29150000  0.53990000  1.0 0.0116005667
C  C1108  1  0.29150000  0.92330000  0.53990000  1.0 0.0116005667
C  C1109  1  0.53990000  0.92330000  0.24530000  1.0 0.0116005667
C  C1110  1  0.32670000  0.71010000  0.00470000  1.0 0.0116005667
C  C1111  1  0.00470000  0.71010000  0.95850000  1.0 0.0116005667
C  C1112  1  0.95850000  0.00470000  0.71010000  1.0 0.0116005667
C  C1113  1  0.29150000  0.24530000  0.92330000  1.0 0.0116005667
C  C1114  1  0.92330000  0.29150000  0.24530000  1.0 0.0116005667
C  C1115  1  0.71010000  0.32670000  0.95850000  1.0 0.0116005667
C  C1116  1  0.71010000  0.00470000  0.32670000  1.0 0.0116005667
C  C1117  1  0.24530000  0.53990000  0.92330000  1.0 0.0116005667
C  C1118  1  0.32670000  0.95850000  0.71010000  1.0 0.0116005667
C  C1119  1  0.53990000  0.24530000  0.29150000  1.0 0.0116005667
C  C1120  1  0.95850000  0.32670000  0.00470000  1.0 0.0116005667
C  C1121  1  0.53990000  0.29150000  0.92330000  1.0 0.0116005667
C  C1122  1  0.32670000  0.00470000  0.95850000  1.0 0.0116005667
C  C1123  1  0.00470000  0.32670000  0.71010000  1.0 0.0116005667
C  C1124  1  0.71010000  0.95850000  0.00470000  1.0 0.0116005667
C  C1125  1  0.24530000  0.92330000  0.29150000  1.0 0.0116005667
C  C1126  1  0.95850000  0.71010000  0.32670000  1.0 0.0116005667
C  C1127  1  0.92330000  0.24530000  0.53990000  1.0 0.0116005667
C  C1128  1  0.29150000  0.53990000  0.24530000  1.0 0.0116005667
C  C1129  1  0.33690000  0.72010000  0.97150000  1.0 -0.0424140728
C  C1130  1  0.27850000  0.27850000  0.91310000  1.0 -0.0424140728
C  C1131  1  0.97150000  0.97150000  0.72010000  1.0 -0.0424140728
C  C1132  1  0.97150000  0.33690000  0.72010000  1.0 -0.0424140728
C  C1133  1  0.72010000  0.33690000  0.97150000  1.0 -0.0424140728
C  C1134  1  0.91310000  0.52990000  0.27850000  1.0 -0.0424140728
C  C1135  1  0.27850000  0.52990000  0.27850000  1.0 -0.0424140728
C  C1136  1  0.27850000  0.27850000  0.52990000  1.0 -0.0424140728
C  C1137  1  0.97150000  0.97150000  0.33690000  1.0 -0.0424140728
C  C1138  1  0.33690000  0.97150000  0.97150000  1.0 -0.0424140728
C  C1139  1  0.52990000  0.91310000  0.27850000  1.0 -0.0424140728
C  C1140  1  0.52990000  0.27850000  0.91310000  1.0 -0.0424140728
C  C1141  1  0.97150000  0.72010000  0.33690000  1.0 -0.0424140728
C  C1142  1  0.91310000  0.27850000  0.52990000  1.0 -0.0424140728
C  C1143  1  0.72010000  0.97150000  0.97150000  1.0 -0.0424140728
C  C1144  1  0.27850000  0.91310000  0.27850000  1.0 -0.0424140728
C  C1145  1  0.72010000  0.97150000  0.33690000  1.0 -0.0424140728
C  C1146  1  0.91310000  0.27850000  0.27850000  1.0 -0.0424140728
C  C1147  1  0.27850000  0.91310000  0.52990000  1.0 -0.0424140728
C  C1148  1  0.52990000  0.27850000  0.27850000  1.0 -0.0424140728
C  C1149  1  0.97150000  0.33690000  0.97150000  1.0 -0.0424140728
C  C1150  1  0.27850000  0.52990000  0.91310000  1.0 -0.0424140728
C  C1151  1  0.33690000  0.97150000  0.72010000  1.0 -0.0424140728
C  C1152  1  0.97150000  0.72010000  0.97150000  1.0 -0.0424140728
C  C1153  1  0.36250000  0.73250000  0.95250000  1.0 0.5729947392
C  C1154  1  0.29750000  0.29750000  0.88750000  1.0 0.5729947392
C  C1155  1  0.95250000  0.95250000  0.73250000  1.0 0.5729947392
C  C1156  1  0.95250000  0.36250000  0.73250000  1.0 0.5729947392
C  C1157  1  0.73250000  0.36250000  0.95250000  1.0 0.5729947392
C  C1158  1  0.88750000  0.51750000  0.29750000  1.0 0.5729947392
C  C1159  1  0.29750000  0.51750000  0.29750000  1.0 0.5729947392
C  C1160  1  0.29750000  0.29750000  0.51750000  1.0 0.5729947392
C  C1161  1  0.95250000  0.95250000  0.36250000  1.0 0.5729947392
C  C1162  1  0.36250000  0.95250000  0.95250000  1.0 0.57752529
C  C1163  1  0.51750000  0.88750000  0.29750000  1.0 0.5729947392
C  C1164  1  0.51750000  0.29750000  0.88750000  1.0 0.5729947392
C  C1165  1  0.95250000  0.73250000  0.36250000  1.0 0.5729947392
C  C1166  1  0.88750000  0.29750000  0.51750000  1.0 0.5729947392
C  C1167  1  0.73250000  0.95250000  0.95250000  1.0 0.5729947392
C  C1168  1  0.29750000  0.88750000  0.29750000  1.0 0.5729947392
C  C1169  1  0.73250000  0.95250000  0.36250000  1.0 0.57752529
C  C1170  1  0.88750000  0.29750000  0.29750000  1.0 0.5729947392
C  C1171  1  0.29750000  0.88750000  0.51750000  1.0 0.5729947392
C  C1172  1  0.51750000  0.29750000  0.29750000  1.0 0.5729947392
C  C1173  1  0.95250000  0.36250000  0.95250000  1.0 0.5729947392
C  C1174  1  0.29750000  0.51750000  0.88750000  1.0 0.57752529
C  C1175  1  0.36250000  0.95250000  0.73250000  1.0 0.5729947392
C  C1176  1  0.95250000  0.73250000  0.95250000  1.0 0.5729947392
C  C1177  1  0.28680000  0.56700000  0.96220000  1.0 0.6714083792
C  C1178  1  0.06600000  0.28780000  0.96320000  1.0 0.6714083792
C  C1179  1  0.18400000  0.96220000  0.56700000  1.0 0.6714083792
C  C1180  1  0.96220000  0.28680000  0.56700000  1.0 0.6714083792
C  C1181  1  0.56700000  0.28680000  0.18400000  1.0 0.6714083792
C  C1182  1  0.96320000  0.68300000  0.06600000  1.0 0.6714083792
C  C1183  1  0.06600000  0.68300000  0.28780000  1.0 0.6714083792
C  C1184  1  0.28780000  0.06600000  0.68300000  1.0 0.6714083792
C  C1185  1  0.96220000  0.18400000  0.28680000  1.0 0.6714083792
C  C1186  1  0.28680000  0.96220000  0.18400000  1.0 0.6714083792
C  C1187  1  0.68300000  0.96320000  0.28780000  1.0 0.6714083792
C  C1188  1  0.68300000  0.06600000  0.96320000  1.0 0.6714083792
C  C1189  1  0.18400000  0.56700000  0.28680000  1.0 0.6714083792
C  C1190  1  0.96320000  0.28780000  0.68300000  1.0 0.6714083792
C  C1191  1  0.56700000  0.18400000  0.96220000  1.0 0.6714083792
C  C1192  1  0.28780000  0.96320000  0.06600000  1.0 0.6714083792
C  C1193  1  0.56700000  0.96220000  0.28680000  1.0 0.6714083792
C  C1194  1  0.96320000  0.06600000  0.28780000  1.0 0.6714083792
C  C1195  1  0.06600000  0.96320000  0.68300000  1.0 0.6714083792
C  C1196  1  0.68300000  0.28780000  0.06600000  1.0 0.6714083792
C  C1197  1  0.18400000  0.28680000  0.96220000  1.0 0.6714083792
C  C1198  1  0.28780000  0.68300000  0.96320000  1.0 0.6714083792
C  C1199  1  0.28680000  0.18400000  0.56700000  1.0 0.6714083792
C  C1200  1  0.96220000  0.56700000  0.18400000  1.0 0.6714083792
C  C1201  1  0.96320000  0.68300000  0.28780000  1.0 0.6714083792
C  C1202  1  0.18400000  0.96220000  0.28680000  1.0 0.6714083792
C  C1203  1  0.06600000  0.28780000  0.68300000  1.0 0.6714083792
C  C1204  1  0.28780000  0.96320000  0.68300000  1.0 0.6714083792
C  C1205  1  0.68300000  0.96320000  0.06600000  1.0 0.6714083792
C  C1206  1  0.28680000  0.56700000  0.18400000  1.0 0.6714083792
C  C1207  1  0.18400000  0.56700000  0.96220000  1.0 0.6714083792
C  C1208  1  0.96220000  0.18400000  0.56700000  1.0 0.6714083792
C  C1209  1  0.28780000  0.06600000  0.96320000  1.0 0.6714083792
C  C1210  1  0.96320000  0.28780000  0.06600000  1.0 0.6714083792
C  C1211  1  0.56700000  0.28680000  0.96220000  1.0 0.6714083792
C  C1212  1  0.56700000  0.18400000  0.28680000  1.0 0.6714083792
C  C1213  1  0.06600000  0.68300000  0.96320000  1.0 0.6714083792
C  C1214  1  0.28680000  0.96220000  0.56700000  1.0 0.6714083792
C  C1215  1  0.68300000  0.06600000  0.28780000  1.0 0.6714083792
C  C1216  1  0.96220000  0.28680000  0.18400000  1.0 0.6714083792
C  C1217  1  0.68300000  0.28780000  0.96320000  1.0 0.6714083792
C  C1218  1  0.28680000  0.18400000  0.96220000  1.0 0.6714083792
C  C1219  1  0.18400000  0.28680000  0.56700000  1.0 0.6714083792
C  C1220  1  0.56700000  0.96220000  0.18400000  1.0 0.6714083792
C  C1221  1  0.06600000  0.96320000  0.28780000  1.0 0.6714083792
C  C1222  1  0.96220000  0.56700000  0.28680000  1.0 0.6714083792
C  C1223  1  0.96320000  0.06600000  0.68300000  1.0 0.6714083792
C  C1224  1  0.28780000  0.68300000  0.06600000  1.0 0.6714083792
O  O1  1  0.73120000  0.42880000  0.92000000  1.0 -1.1198317415
O  O2  1  0.33000000  0.33000000  0.51880000  1.0 -1.1121428406
O  O3  1  0.92000000  0.92000000  0.42880000  1.0 -1.1121428406
O  O4  1  0.92000000  0.73120000  0.42880000  1.0 -1.1121428406
O  O5  1  0.42880000  0.73120000  0.92000000  1.0 -1.1121428406
O  O6  1  0.51880000  0.82120000  0.33000000  1.0 -1.1121428406
O  O7  1  0.33000000  0.82120000  0.33000000  1.0 -1.1121428406
O  O8  1  0.33000000  0.33000000  0.82120000  1.0 -1.1121428406
O  O9  1  0.92000000  0.92000000  0.73120000  1.0 -1.1121428406
O  O10  1  0.73120000  0.92000000  0.92000000  1.0 -1.1121428406
O  O11  1  0.82120000  0.51880000  0.33000000  1.0 -1.1121428406
O  O12  1  0.82120000  0.33000000  0.51880000  1.0 -1.1121428406
O  O13  1  0.92000000  0.42880000  0.73120000  1.0 -1.1121428406
O  O14  1  0.51880000  0.33000000  0.82120000  1.0 -1.1121428406
O  O15  1  0.42880000  0.92000000  0.92000000  1.0 -1.1121428406
O  O16  1  0.33000000  0.51880000  0.33000000  1.0 -1.1121428406
O  O17  1  0.42880000  0.92000000  0.73120000  1.0 -1.1121428406
O  O18  1  0.51880000  0.33000000  0.33000000  1.0 -1.1121428406
O  O19  1  0.33000000  0.51880000  0.82120000  1.0 -1.1121428406
O  O20  1  0.82120000  0.33000000  0.33000000  1.0 -1.1121428406
O  O21  1  0.92000000  0.73120000  0.92000000  1.0 -1.1121428406
O  O22  1  0.33000000  0.82120000  0.51880000  1.0 -1.1121428406
O  O23  1  0.73120000  0.92000000  0.42880000  1.0 -1.1198317415
O  O24  1  0.92000000  0.42880000  0.92000000  1.0 -1.1198317415
O  O25  1  0.39360000  0.88060000  0.80100000  1.0 -0.5325817877
O  O26  1  0.32520000  0.44900000  0.85640000  1.0 -0.5325817877
O  O27  1  0.92480000  0.80100000  0.88060000  1.0 -0.5325817877
O  O28  1  0.80100000  0.39360000  0.88060000  1.0 -0.5325817877
O  O29  1  0.88060000  0.39360000  0.92480000  1.0 -0.5325817877
O  O30  1  0.85640000  0.36940000  0.32520000  1.0 -0.5325817877
O  O31  1  0.32520000  0.36940000  0.44900000  1.0 -0.5325817877
O  O32  1  0.44900000  0.32520000  0.36940000  1.0 -0.5325817877
O  O33  1  0.80100000  0.92480000  0.39360000  1.0 -0.5325817877
O  O34  1  0.39360000  0.80100000  0.92480000  1.0 -0.5325817877
O  O35  1  0.36940000  0.85640000  0.44900000  1.0 -0.5325817877
O  O36  1  0.36940000  0.32520000  0.85640000  1.0 -0.5325817877
O  O37  1  0.92480000  0.88060000  0.39360000  1.0 -0.5325817877
O  O38  1  0.85640000  0.44900000  0.36940000  1.0 -0.5325817877
O  O39  1  0.88060000  0.92480000  0.80100000  1.0 -0.5325817877
O  O40  1  0.44900000  0.85640000  0.32520000  1.0 -0.5325817877
O  O41  1  0.88060000  0.80100000  0.39360000  1.0 -0.5325817877
O  O42  1  0.85640000  0.32520000  0.44900000  1.0 -0.5325817877
O  O43  1  0.32520000  0.85640000  0.36940000  1.0 -0.5325817877
O  O44  1  0.36940000  0.44900000  0.32520000  1.0 -0.5325817877
O  O45  1  0.92480000  0.39360000  0.80100000  1.0 -0.5325817877
O  O46  1  0.44900000  0.36940000  0.85640000  1.0 -0.5325817877
O  O47  1  0.39360000  0.92480000  0.88060000  1.0 -0.5325817877
O  O48  1  0.80100000  0.88060000  0.92480000  1.0 -0.5325817877
O  O49  1  0.85640000  0.36940000  0.44900000  1.0 -0.5325817877
O  O50  1  0.92480000  0.80100000  0.39360000  1.0 -0.5325817877
O  O51  1  0.32520000  0.44900000  0.36940000  1.0 -0.5325817877
O  O52  1  0.44900000  0.85640000  0.36940000  1.0 -0.5325817877
O  O53  1  0.36940000  0.85640000  0.32520000  1.0 -0.5325817877
O  O54  1  0.39360000  0.88060000  0.92480000  1.0 -0.5325817877
O  O55  1  0.92480000  0.88060000  0.80100000  1.0 -0.5325817877
O  O56  1  0.80100000  0.92480000  0.88060000  1.0 -0.5325817877
O  O57  1  0.44900000  0.32520000  0.85640000  1.0 -0.5325817877
O  O58  1  0.85640000  0.44900000  0.32520000  1.0 -0.5325817877
O  O59  1  0.88060000  0.39360000  0.80100000  1.0 -0.5325817877
O  O60  1  0.88060000  0.92480000  0.39360000  1.0 -0.5325817877
O  O61  1  0.32520000  0.36940000  0.85640000  1.0 -0.5325817877
O  O62  1  0.39360000  0.80100000  0.88060000  1.0 -0.5325817877
O  O63  1  0.36940000  0.32520000  0.44900000  1.0 -0.5325817877
O  O64  1  0.80100000  0.39360000  0.92480000  1.0 -0.5325817877
O  O65  1  0.36940000  0.44900000  0.85640000  1.0 -0.5325817877
O  O66  1  0.39360000  0.92480000  0.80100000  1.0 -0.5325817877
O  O67  1  0.92480000  0.39360000  0.88060000  1.0 -0.5325817877
O  O68  1  0.88060000  0.80100000  0.92480000  1.0 -0.5325817877
O  O69  1  0.32520000  0.85640000  0.44900000  1.0 -0.5325817877
O  O70  1  0.80100000  0.88060000  0.39360000  1.0 -0.5325817877
O  O71  1  0.85640000  0.32520000  0.36940000  1.0 -0.5325817877
O  O72  1  0.44900000  0.36940000  0.32520000  1.0 -0.5325817877
O  O73  1  0.30980000  0.69020000  0.30980000  1.0 -0.3490588282
O  O74  1  0.55980000  0.94020000  0.94020000  1.0 -0.3490588282
O  O75  1  0.69020000  0.30980000  0.69020000  1.0 -0.3490588282
O  O76  1  0.30980000  0.30980000  0.69020000  1.0 -0.3490588282
O  O77  1  0.94020000  0.55980000  0.55980000  1.0 -0.373961795
O  O78  1  0.55980000  0.55980000  0.94020000  1.0 -0.3490588282
O  O79  1  0.69020000  0.69020000  0.30980000  1.0 -0.3490588282
O  O80  1  0.94020000  0.94020000  0.55980000  1.0 -0.3490588282
O  O81  1  0.69020000  0.30980000  0.30980000  1.0 -0.3490588282
O  O82  1  0.94020000  0.55980000  0.94020000  1.0 -0.3490588282
O  O83  1  0.55980000  0.94020000  0.55980000  1.0 -0.3490588282
O  O84  1  0.30980000  0.69020000  0.69020000  1.0 -0.3490588282
O  O85  1  0.62500000  0.24000000  0.12500000  1.0 -0.4187821131
O  O86  1  0.24000000  0.12500000  0.62500000  1.0 -0.4187821131
O  O87  1  0.01000000  0.12500000  0.24000000  1.0 -0.4187821131
O  O88  1  0.12500000  0.62500000  0.24000000  1.0 -0.4187821131
O  O89  1  0.24000000  0.62500000  0.01000000  1.0 -0.4428798885
O  O90  1  0.62500000  0.01000000  0.24000000  1.0 -0.4187821131
O  O91  1  0.24000000  0.01000000  0.12500000  1.0 -0.4187821131
O  O92  1  0.12500000  0.24000000  0.01000000  1.0 -0.4187821131
O  O93  1  0.12500000  0.01000000  0.62500000  1.0 -0.4187821131
O  O94  1  0.62500000  0.12500000  0.01000000  1.0 -0.4471474922
O  O95  1  0.01000000  0.62500000  0.12500000  1.0 -0.4142894698
O  O96  1  0.01000000  0.24000000  0.62500000  1.0 -0.4187821131
O  O97  1  0.62500000  0.01000000  0.12500000  1.0 -0.4142894698
O  O98  1  0.01000000  0.12500000  0.62500000  1.0 -0.4187821131
O  O99  1  0.24000000  0.12500000  0.01000000  1.0 -0.4187821131
O  O100  1  0.12500000  0.62500000  0.01000000  1.0 -0.4428798885
O  O101  1  0.01000000  0.62500000  0.24000000  1.0 -0.4187821131
O  O102  1  0.62500000  0.24000000  0.01000000  1.0 -0.4187821131
O  O103  1  0.01000000  0.24000000  0.12500000  1.0 -0.4187821131
O  O104  1  0.12500000  0.01000000  0.24000000  1.0 -0.4187821131
O  O105  1  0.12500000  0.24000000  0.62500000  1.0 -0.4187821131
O  O106  1  0.62500000  0.12500000  0.24000000  1.0 -0.4187821131
O  O107  1  0.24000000  0.62500000  0.12500000  1.0 -0.4187821131
O  O108  1  0.24000000  0.01000000  0.62500000  1.0 -0.4187821131
O  O109  1  0.61380000  0.79540000  0.79540000  1.0 -1.1198317415
O  O110  1  0.45460000  0.45460000  0.63620000  1.0 -1.1198317415
O  O111  1  0.79540000  0.79540000  0.79540000  1.0 -1.1198317415
O  O112  1  0.79540000  0.61380000  0.79540000  1.0 -1.1198317415
O  O113  1  0.63620000  0.45460000  0.45460000  1.0 -1.1252567656
O  O114  1  0.45460000  0.45460000  0.45460000  1.0 -1.1198317415
O  O115  1  0.79540000  0.79540000  0.61380000  1.0 -1.1198317415
O  O116  1  0.45460000  0.63620000  0.45460000  1.0 -1.1198317415
O  O117  1  0.50550000  0.50550000  0.99450000  1.0 -1.1121428406
O  O118  1  0.25550000  0.25550000  0.74450000  1.0 -1.1121428406
O  O119  1  0.99450000  0.99450000  0.50550000  1.0 -1.1121428406
O  O120  1  0.99450000  0.50550000  0.50550000  1.0 -1.1121428406
O  O121  1  0.74450000  0.74450000  0.25550000  1.0 -1.1121428406
O  O122  1  0.25550000  0.74450000  0.25550000  1.0 -1.1121428406
O  O123  1  0.50550000  0.99450000  0.99450000  1.0 -1.1121428406
O  O124  1  0.74450000  0.25550000  0.74450000  1.0 -1.1121428406
O  O125  1  0.50550000  0.99450000  0.50550000  1.0 -1.1121428406
O  O126  1  0.74450000  0.25550000  0.25550000  1.0 -1.1121428406
O  O127  1  0.25550000  0.74450000  0.74450000  1.0 -1.1121428406
O  O128  1  0.99450000  0.50550000  0.99450000  1.0 -1.1121428406
O  O129  1  0.58150000  0.75590000  0.85990000  1.0 -0.5441262318
O  O130  1  0.44730000  0.39010000  0.66850000  1.0 -0.5441262318
O  O131  1  0.80270000  0.85990000  0.75590000  1.0 -0.5441262318
O  O132  1  0.85990000  0.58150000  0.75590000  1.0 -0.5441262318
O  O133  1  0.75590000  0.58150000  0.80270000  1.0 -0.5441262318
O  O134  1  0.66850000  0.49410000  0.44730000  1.0 -0.5441262318
O  O135  1  0.44730000  0.49410000  0.39010000  1.0 -0.5441262318
O  O136  1  0.39010000  0.44730000  0.49410000  1.0 -0.5528392633
O  O137  1  0.85990000  0.80270000  0.58150000  1.0 -0.5441262318
O  O138  1  0.58150000  0.85990000  0.80270000  1.0 -0.5441262318
O  O139  1  0.49410000  0.66850000  0.39010000  1.0 -0.5441262318
O  O140  1  0.49410000  0.44730000  0.66850000  1.0 -0.5441262318
O  O141  1  0.80270000  0.75590000  0.58150000  1.0 -0.5441262318
O  O142  1  0.66850000  0.39010000  0.49410000  1.0 -0.5441262318
O  O143  1  0.75590000  0.80270000  0.85990000  1.0 -0.5441262318
O  O144  1  0.39010000  0.66850000  0.44730000  1.0 -0.5441262318
O  O145  1  0.75590000  0.85990000  0.58150000  1.0 -0.5441262318
O  O146  1  0.66850000  0.44730000  0.39010000  1.0 -0.5441262318
O  O147  1  0.44730000  0.66850000  0.49410000  1.0 -0.5441262318
O  O148  1  0.49410000  0.39010000  0.44730000  1.0 -0.5441262318
O  O149  1  0.80270000  0.58150000  0.85990000  1.0 -0.5441262318
O  O150  1  0.39010000  0.49410000  0.66850000  1.0 -0.5441262318
O  O151  1  0.58150000  0.80270000  0.75590000  1.0 -0.5441262318
O  O152  1  0.85990000  0.75590000  0.80270000  1.0 -0.5441262318
O  O153  1  0.66850000  0.49410000  0.39010000  1.0 -0.5441262318
O  O154  1  0.80270000  0.85990000  0.58150000  1.0 -0.5441262318
O  O155  1  0.44730000  0.39010000  0.49410000  1.0 -0.5528392633
O  O156  1  0.39010000  0.66850000  0.49410000  1.0 -0.5441262318
O  O157  1  0.49410000  0.66850000  0.44730000  1.0 -0.5441262318
O  O158  1  0.58150000  0.75590000  0.80270000  1.0 -0.5441262318
O  O159  1  0.80270000  0.75590000  0.85990000  1.0 -0.5441262318
O  O160  1  0.85990000  0.80270000  0.75590000  1.0 -0.5441262318
O  O161  1  0.39010000  0.44730000  0.66850000  1.0 -0.5441262318
O  O162  1  0.66850000  0.39010000  0.44730000  1.0 -0.5441262318
O  O163  1  0.75590000  0.58150000  0.85990000  1.0 -0.5441262318
O  O164  1  0.75590000  0.80270000  0.58150000  1.0 -0.5441262318
O  O165  1  0.44730000  0.49410000  0.66850000  1.0 -0.5441262318
O  O166  1  0.58150000  0.85990000  0.75590000  1.0 -0.5441262318
O  O167  1  0.49410000  0.44730000  0.39010000  1.0 -0.5441262318
O  O168  1  0.85990000  0.58150000  0.80270000  1.0 -0.5441262318
O  O169  1  0.49410000  0.39010000  0.66850000  1.0 -0.5441262318
O  O170  1  0.58150000  0.80270000  0.85990000  1.0 -0.5441262318
O  O171  1  0.80270000  0.58150000  0.75590000  1.0 -0.5441262318
O  O172  1  0.75590000  0.85990000  0.80270000  1.0 -0.5441262318
O  O173  1  0.44730000  0.66850000  0.39010000  1.0 -0.5441262318
O  O174  1  0.85990000  0.75590000  0.58150000  1.0 -0.5441262318
O  O175  1  0.66850000  0.44730000  0.49410000  1.0 -0.5441262318
O  O176  1  0.39010000  0.49410000  0.44730000  1.0 -0.5441262318
O  O177  1  0.64090000  0.73910000  0.83970000  1.0 -0.4187821131
O  O178  1  0.46970000  0.41030000  0.60910000  1.0 -0.4187821131
O  O179  1  0.78030000  0.83970000  0.73910000  1.0 -0.4187821131
O  O180  1  0.83970000  0.64090000  0.73910000  1.0 -0.4187821131
O  O181  1  0.73910000  0.64090000  0.78030000  1.0 -0.4187821131
O  O182  1  0.60910000  0.51090000  0.46970000  1.0 -0.4187821131
O  O183  1  0.46970000  0.51090000  0.41030000  1.0 -0.4187821131
O  O184  1  0.41030000  0.46970000  0.51090000  1.0 -0.4187821131
O  O185  1  0.83970000  0.78030000  0.64090000  1.0 -0.4187821131
O  O186  1  0.64090000  0.83970000  0.78030000  1.0 -0.4187821131
O  O187  1  0.51090000  0.60910000  0.41030000  1.0 -0.4187821131
O  O188  1  0.51090000  0.46970000  0.60910000  1.0 -0.4187821131
O  O189  1  0.78030000  0.73910000  0.64090000  1.0 -0.4187821131
O  O190  1  0.60910000  0.41030000  0.51090000  1.0 -0.4187821131
O  O191  1  0.73910000  0.78030000  0.83970000  1.0 -0.4187821131
O  O192  1  0.41030000  0.60910000  0.46970000  1.0 -0.4187821131
O  O193  1  0.73910000  0.83970000  0.64090000  1.0 -0.4187821131
O  O194  1  0.60910000  0.46970000  0.41030000  1.0 -0.4187821131
O  O195  1  0.46970000  0.60910000  0.51090000  1.0 -0.4187821131
O  O196  1  0.51090000  0.41030000  0.46970000  1.0 -0.4187821131
O  O197  1  0.78030000  0.64090000  0.83970000  1.0 -0.4187821131
O  O198  1  0.41030000  0.51090000  0.60910000  1.0 -0.4187821131
O  O199  1  0.64090000  0.78030000  0.73910000  1.0 -0.4187821131
O  O200  1  0.83970000  0.73910000  0.78030000  1.0 -0.4187821131
O  O201  1  0.60910000  0.51090000  0.41030000  1.0 -0.4187821131
O  O202  1  0.78030000  0.83970000  0.64090000  1.0 -0.4187821131
O  O203  1  0.46970000  0.41030000  0.51090000  1.0 -0.4187821131
O  O204  1  0.41030000  0.60910000  0.51090000  1.0 -0.4187821131
O  O205  1  0.51090000  0.60910000  0.46970000  1.0 -0.4187821131
O  O206  1  0.64090000  0.73910000  0.78030000  1.0 -0.4187821131
O  O207  1  0.78030000  0.73910000  0.83970000  1.0 -0.4187821131
O  O208  1  0.83970000  0.78030000  0.73910000  1.0 -0.4187821131
O  O209  1  0.41030000  0.46970000  0.60910000  1.0 -0.4187821131
O  O210  1  0.60910000  0.41030000  0.46970000  1.0 -0.4187821131
O  O211  1  0.73910000  0.64090000  0.83970000  1.0 -0.4187821131
O  O212  1  0.73910000  0.78030000  0.64090000  1.0 -0.4187821131
O  O213  1  0.46970000  0.51090000  0.60910000  1.0 -0.4187821131
O  O214  1  0.64090000  0.83970000  0.73910000  1.0 -0.4187821131
O  O215  1  0.51090000  0.46970000  0.41030000  1.0 -0.4187821131
O  O216  1  0.83970000  0.64090000  0.78030000  1.0 -0.4187821131
O  O217  1  0.51090000  0.41030000  0.60910000  1.0 -0.4187821131
O  O218  1  0.64090000  0.78030000  0.83970000  1.0 -0.4187821131
O  O219  1  0.78030000  0.64090000  0.73910000  1.0 -0.4187821131
O  O220  1  0.73910000  0.83970000  0.78030000  1.0 -0.4187821131
O  O221  1  0.46970000  0.60910000  0.41030000  1.0 -0.4187821131
O  O222  1  0.83970000  0.73910000  0.64090000  1.0 -0.4187821131
O  O223  1  0.60910000  0.46970000  0.51090000  1.0 -0.4187821131
O  O224  1  0.41030000  0.51090000  0.46970000  1.0 -0.4187821131
O  O225  1  0.51130000  0.56170000  0.93530000  1.0 -0.4694814508
O  O226  1  0.25830000  0.31470000  0.73870000  1.0 -0.4694814508
O  O227  1  0.99170000  0.93530000  0.56170000  1.0 -0.4694814508
O  O228  1  0.93530000  0.51130000  0.56170000  1.0 -0.4694814508
O  O229  1  0.56170000  0.51130000  0.99170000  1.0 -0.4694814508
O  O230  1  0.73870000  0.68830000  0.25830000  1.0 -0.4694814508
O  O231  1  0.25830000  0.68830000  0.31470000  1.0 -0.4694814508
O  O232  1  0.31470000  0.25830000  0.68830000  1.0 -0.4694814508
O  O233  1  0.93530000  0.99170000  0.51130000  1.0 -0.4694814508
O  O234  1  0.51130000  0.93530000  0.99170000  1.0 -0.4694814508
O  O235  1  0.68830000  0.73870000  0.31470000  1.0 -0.4694814508
O  O236  1  0.68830000  0.25830000  0.73870000  1.0 -0.4694814508
O  O237  1  0.99170000  0.56170000  0.51130000  1.0 -0.4694814508
O  O238  1  0.73870000  0.31470000  0.68830000  1.0 -0.4694814508
O  O239  1  0.56170000  0.99170000  0.93530000  1.0 -0.4694814508
O  O240  1  0.31470000  0.73870000  0.25830000  1.0 -0.4694814508
O  O241  1  0.56170000  0.93530000  0.51130000  1.0 -0.4694814508
O  O242  1  0.73870000  0.25830000  0.31470000  1.0 -0.4694814508
O  O243  1  0.25830000  0.73870000  0.68830000  1.0 -0.4694814508
O  O244  1  0.68830000  0.31470000  0.25830000  1.0 -0.4694814508
O  O245  1  0.99170000  0.51130000  0.93530000  1.0 -0.4694814508
O  O246  1  0.31470000  0.68830000  0.73870000  1.0 -0.4694814508
O  O247  1  0.51130000  0.99170000  0.56170000  1.0 -0.4694814508
O  O248  1  0.93530000  0.56170000  0.99170000  1.0 -0.4694814508
O  O249  1  0.73870000  0.68830000  0.31470000  1.0 -0.4694814508
O  O250  1  0.99170000  0.93530000  0.51130000  1.0 -0.4694814508
O  O251  1  0.25830000  0.31470000  0.68830000  1.0 -0.4694814508
O  O252  1  0.31470000  0.73870000  0.68830000  1.0 -0.4694814508
O  O253  1  0.68830000  0.73870000  0.25830000  1.0 -0.4694814508
O  O254  1  0.51130000  0.56170000  0.99170000  1.0 -0.4694814508
O  O255  1  0.99170000  0.56170000  0.93530000  1.0 -0.4694814508
O  O256  1  0.93530000  0.99170000  0.56170000  1.0 -0.4694814508
O  O257  1  0.31470000  0.25830000  0.73870000  1.0 -0.4694814508
O  O258  1  0.73870000  0.31470000  0.25830000  1.0 -0.4694814508
O  O259  1  0.56170000  0.51130000  0.93530000  1.0 -0.4694814508
O  O260  1  0.56170000  0.99170000  0.51130000  1.0 -0.4694814508
O  O261  1  0.25830000  0.68830000  0.73870000  1.0 -0.4694814508
O  O262  1  0.51130000  0.93530000  0.56170000  1.0 -0.4694814508
O  O263  1  0.68830000  0.25830000  0.31470000  1.0 -0.4694814508
O  O264  1  0.93530000  0.51130000  0.99170000  1.0 -0.4694814508
O  O265  1  0.68830000  0.31470000  0.73870000  1.0 -0.4694814508
O  O266  1  0.51130000  0.99170000  0.93530000  1.0 -0.4694814508
O  O267  1  0.99170000  0.51130000  0.56170000  1.0 -0.4694814508
O  O268  1  0.56170000  0.93530000  0.99170000  1.0 -0.4694814508
O  O269  1  0.25830000  0.73870000  0.31470000  1.0 -0.4694814508
O  O270  1  0.93530000  0.56170000  0.51130000  1.0 -0.4694814508
O  O271  1  0.73870000  0.25830000  0.68830000  1.0 -0.4694814508
O  O272  1  0.31470000  0.68830000  0.25830000  1.0 -0.4694814508
O  O273  1  0.50200000  0.44540000  0.00480000  1.0 -0.4627112457
O  O274  1  0.20220000  0.24520000  0.74800000  1.0 -0.4627112457
O  O275  1  0.04780000  0.00480000  0.44540000  1.0 -0.4627112457
O  O276  1  0.00480000  0.50200000  0.44540000  1.0 -0.4627112457
O  O277  1  0.44540000  0.50200000  0.04780000  1.0 -0.4627112457
O  O278  1  0.74800000  0.80460000  0.20220000  1.0 -0.4627112457
O  O279  1  0.20220000  0.80460000  0.24520000  1.0 -0.4627112457
O  O280  1  0.24520000  0.20220000  0.80460000  1.0 -0.4627112457
O  O281  1  0.00480000  0.04780000  0.50200000  1.0 -0.4627112457
O  O282  1  0.50200000  0.00480000  0.04780000  1.0 -0.4627112457
O  O283  1  0.80460000  0.74800000  0.24520000  1.0 -0.4627112457
O  O284  1  0.80460000  0.20220000  0.74800000  1.0 -0.4627112457
O  O285  1  0.04780000  0.44540000  0.50200000  1.0 -0.4627112457
O  O286  1  0.74800000  0.24520000  0.80460000  1.0 -0.4627112457
O  O287  1  0.44540000  0.04780000  0.00480000  1.0 -0.4627112457
O  O288  1  0.24520000  0.74800000  0.20220000  1.0 -0.4694814508
O  O289  1  0.44540000  0.00480000  0.50200000  1.0 -0.4627112457
O  O290  1  0.74800000  0.20220000  0.24520000  1.0 -0.4627112457
O  O291  1  0.20220000  0.74800000  0.80460000  1.0 -0.4627112457
O  O292  1  0.80460000  0.24520000  0.20220000  1.0 -0.4627112457
O  O293  1  0.04780000  0.50200000  0.00480000  1.0 -0.4627112457
O  O294  1  0.24520000  0.80460000  0.74800000  1.0 -0.4627112457
O  O295  1  0.50200000  0.04780000  0.44540000  1.0 -0.4627112457
O  O296  1  0.00480000  0.44540000  0.04780000  1.0 -0.4627112457
O  O297  1  0.74800000  0.80460000  0.24520000  1.0 -0.4627112457
O  O298  1  0.04780000  0.00480000  0.50200000  1.0 -0.4627112457
O  O299  1  0.20220000  0.24520000  0.80460000  1.0 -0.4627112457
O  O300  1  0.24520000  0.74800000  0.80460000  1.0 -0.4627112457
O  O301  1  0.80460000  0.74800000  0.20220000  1.0 -0.4627112457
O  O302  1  0.50200000  0.44540000  0.04780000  1.0 -0.4627112457
O  O303  1  0.04780000  0.44540000  0.00480000  1.0 -0.4627112457
O  O304  1  0.00480000  0.04780000  0.44540000  1.0 -0.4627112457
O  O305  1  0.24520000  0.20220000  0.74800000  1.0 -0.4627112457
O  O306  1  0.74800000  0.24520000  0.20220000  1.0 -0.4627112457
O  O307  1  0.44540000  0.50200000  0.00480000  1.0 -0.4627112457
O  O308  1  0.44540000  0.04780000  0.50200000  1.0 -0.4627112457
O  O309  1  0.20220000  0.80460000  0.74800000  1.0 -0.4627112457
O  O310  1  0.50200000  0.00480000  0.44540000  1.0 -0.4627112457
O  O311  1  0.80460000  0.20220000  0.24520000  1.0 -0.4627112457
O  O312  1  0.00480000  0.50200000  0.04780000  1.0 -0.4627112457
O  O313  1  0.80460000  0.24520000  0.74800000  1.0 -0.4627112457
O  O314  1  0.50200000  0.04780000  0.00480000  1.0 -0.4627112457
O  O315  1  0.04780000  0.50200000  0.44540000  1.0 -0.4627112457
O  O316  1  0.44540000  0.00480000  0.04780000  1.0 -0.4627112457
O  O317  1  0.20220000  0.74800000  0.24520000  1.0 -0.4627112457
O  O318  1  0.00480000  0.44540000  0.50200000  1.0 -0.4627112457
O  O319  1  0.74800000  0.20220000  0.80460000  1.0 -0.4627112457
O  O320  1  0.24520000  0.80460000  0.20220000  1.0 -0.4627112457
O  O321  1  0.48390000  0.53390000  0.94690000  1.0 -0.4627112457
O  O322  1  0.21470000  0.30310000  0.76610000  1.0 -0.4627112457
O  O323  1  0.03530000  0.94690000  0.53390000  1.0 -0.4627112457
O  O324  1  0.94690000  0.48390000  0.53390000  1.0 -0.4627112457
O  O325  1  0.53390000  0.48390000  0.03530000  1.0 -0.4627112457
O  O326  1  0.76610000  0.71610000  0.21470000  1.0 -0.4627112457
O  O327  1  0.21470000  0.71610000  0.30310000  1.0 -0.4627112457
O  O328  1  0.30310000  0.21470000  0.71610000  1.0 -0.4627112457
O  O329  1  0.94690000  0.03530000  0.48390000  1.0 -0.4627112457
O  O330  1  0.48390000  0.94690000  0.03530000  1.0 -0.4627112457
O  O331  1  0.71610000  0.76610000  0.30310000  1.0 -0.4627112457
O  O332  1  0.71610000  0.21470000  0.76610000  1.0 -0.4627112457
O  O333  1  0.03530000  0.53390000  0.48390000  1.0 -0.4627112457
O  O334  1  0.76610000  0.30310000  0.71610000  1.0 -0.4627112457
O  O335  1  0.53390000  0.03530000  0.94690000  1.0 -0.4627112457
O  O336  1  0.30310000  0.76610000  0.21470000  1.0 -0.4627112457
O  O337  1  0.53390000  0.94690000  0.48390000  1.0 -0.4627112457
O  O338  1  0.76610000  0.21470000  0.30310000  1.0 -0.4627112457
O  O339  1  0.21470000  0.76610000  0.71610000  1.0 -0.4627112457
O  O340  1  0.71610000  0.30310000  0.21470000  1.0 -0.4627112457
O  O341  1  0.03530000  0.48390000  0.94690000  1.0 -0.4627112457
O  O342  1  0.30310000  0.71610000  0.76610000  1.0 -0.4627112457
O  O343  1  0.48390000  0.03530000  0.53390000  1.0 -0.4627112457
O  O344  1  0.94690000  0.53390000  0.03530000  1.0 -0.4627112457
O  O345  1  0.76610000  0.71610000  0.30310000  1.0 -0.4627112457
O  O346  1  0.03530000  0.94690000  0.48390000  1.0 -0.4627112457
O  O347  1  0.21470000  0.30310000  0.71610000  1.0 -0.4627112457
O  O348  1  0.30310000  0.76610000  0.71610000  1.0 -0.4627112457
O  O349  1  0.71610000  0.76610000  0.21470000  1.0 -0.4627112457
O  O350  1  0.48390000  0.53390000  0.03530000  1.0 -0.4627112457
O  O351  1  0.03530000  0.53390000  0.94690000  1.0 -0.4627112457
O  O352  1  0.94690000  0.03530000  0.53390000  1.0 -0.4627112457
O  O353  1  0.30310000  0.21470000  0.76610000  1.0 -0.4627112457
O  O354  1  0.76610000  0.30310000  0.21470000  1.0 -0.4627112457
O  O355  1  0.53390000  0.48390000  0.94690000  1.0 -0.4627112457
O  O356  1  0.53390000  0.03530000  0.48390000  1.0 -0.4627112457
O  O357  1  0.21470000  0.71610000  0.76610000  1.0 -0.4627112457
O  O358  1  0.48390000  0.94690000  0.53390000  1.0 -0.4627112457
O  O359  1  0.71610000  0.21470000  0.30310000  1.0 -0.4627112457
O  O360  1  0.94690000  0.48390000  0.03530000  1.0 -0.4627112457
O  O361  1  0.71610000  0.30310000  0.76610000  1.0 -0.4627112457
O  O362  1  0.48390000  0.03530000  0.94690000  1.0 -0.4627112457
O  O363  1  0.03530000  0.48390000  0.53390000  1.0 -0.4627112457
O  O364  1  0.53390000  0.94690000  0.03530000  1.0 -0.4627112457
O  O365  1  0.21470000  0.76610000  0.30310000  1.0 -0.4627112457
O  O366  1  0.94690000  0.53390000  0.48390000  1.0 -0.4627112457
O  O367  1  0.76610000  0.21470000  0.71610000  1.0 -0.4627112457
O  O368  1  0.30310000  0.71610000  0.21470000  1.0 -0.4627112457
O  O369  1  0.48460000  0.73000000  0.91820000  1.0 -0.4694814508
O  O370  1  0.38280000  0.33180000  0.76540000  1.0 -0.4694814508
O  O371  1  0.86720000  0.91820000  0.73000000  1.0 -0.4694814508
O  O372  1  0.91820000  0.48460000  0.73000000  1.0 -0.4694814508
O  O373  1  0.73000000  0.48460000  0.86720000  1.0 -0.4694814508
O  O374  1  0.76540000  0.52000000  0.38280000  1.0 -0.4694814508
O  O375  1  0.38280000  0.52000000  0.33180000  1.0 -0.4694814508
O  O376  1  0.33180000  0.38280000  0.52000000  1.0 -0.4694814508
O  O377  1  0.91820000  0.86720000  0.48460000  1.0 -0.4694814508
O  O378  1  0.48460000  0.91820000  0.86720000  1.0 -0.4694814508
O  O379  1  0.52000000  0.76540000  0.33180000  1.0 -0.4694814508
O  O380  1  0.52000000  0.38280000  0.76540000  1.0 -0.4694814508
O  O381  1  0.86720000  0.73000000  0.48460000  1.0 -0.4694814508
O  O382  1  0.76540000  0.33180000  0.52000000  1.0 -0.4694814508
O  O383  1  0.73000000  0.86720000  0.91820000  1.0 -0.4694814508
O  O384  1  0.33180000  0.76540000  0.38280000  1.0 -0.4694814508
O  O385  1  0.73000000  0.91820000  0.48460000  1.0 -0.4694814508
O  O386  1  0.76540000  0.38280000  0.33180000  1.0 -0.4694814508
O  O387  1  0.38280000  0.76540000  0.52000000  1.0 -0.4694814508
O  O388  1  0.52000000  0.33180000  0.38280000  1.0 -0.4694814508
O  O389  1  0.86720000  0.48460000  0.91820000  1.0 -0.4694814508
O  O390  1  0.33180000  0.52000000  0.76540000  1.0 -0.4694814508
O  O391  1  0.48460000  0.86720000  0.73000000  1.0 -0.4694814508
O  O392  1  0.91820000  0.73000000  0.86720000  1.0 -0.4694814508
O  O393  1  0.76540000  0.52000000  0.33180000  1.0 -0.4694814508
O  O394  1  0.86720000  0.91820000  0.48460000  1.0 -0.4694814508
O  O395  1  0.38280000  0.33180000  0.52000000  1.0 -0.4694814508
O  O396  1  0.33180000  0.76540000  0.52000000  1.0 -0.4694814508
O  O397  1  0.52000000  0.76540000  0.38280000  1.0 -0.4694814508
O  O398  1  0.48460000  0.73000000  0.86720000  1.0 -0.4694814508
O  O399  1  0.86720000  0.73000000  0.91820000  1.0 -0.4694814508
O  O400  1  0.91820000  0.86720000  0.73000000  1.0 -0.4694814508
O  O401  1  0.33180000  0.38280000  0.76540000  1.0 -0.4694814508
O  O402  1  0.76540000  0.33180000  0.38280000  1.0 -0.4694814508
O  O403  1  0.73000000  0.48460000  0.91820000  1.0 -0.4694814508
O  O404  1  0.73000000  0.86720000  0.48460000  1.0 -0.4694814508
O  O405  1  0.38280000  0.52000000  0.76540000  1.0 -0.4694814508
O  O406  1  0.48460000  0.91820000  0.73000000  1.0 -0.4694814508
O  O407  1  0.52000000  0.38280000  0.33180000  1.0 -0.4694814508
O  O408  1  0.91820000  0.48460000  0.86720000  1.0 -0.4694814508
O  O409  1  0.52000000  0.33180000  0.76540000  1.0 -0.4694814508
O  O410  1  0.48460000  0.86720000  0.91820000  1.0 -0.4694814508
O  O411  1  0.86720000  0.48460000  0.73000000  1.0 -0.4694814508
O  O412  1  0.73000000  0.91820000  0.86720000  1.0 -0.4694814508
O  O413  1  0.38280000  0.76540000  0.33180000  1.0 -0.4694814508
O  O414  1  0.91820000  0.73000000  0.48460000  1.0 -0.4694814508
O  O415  1  0.76540000  0.38280000  0.52000000  1.0 -0.4694814508
O  O416  1  0.33180000  0.52000000  0.38280000  1.0 -0.4694814508
O  O417  1  0.47360000  0.67260000  0.89920000  1.0 -0.488204189
O  O418  1  0.29540000  0.35080000  0.77640000  1.0 -0.488204189
O  O419  1  0.95460000  0.89920000  0.67260000  1.0 -0.488204189
O  O420  1  0.89920000  0.47360000  0.67260000  1.0 -0.488204189
O  O421  1  0.67260000  0.47360000  0.95460000  1.0 -0.488204189
O  O422  1  0.77640000  0.57740000  0.29540000  1.0 -0.488204189
O  O423  1  0.29540000  0.57740000  0.35080000  1.0 -0.488204189
O  O424  1  0.35080000  0.29540000  0.57740000  1.0 -0.488204189
O  O425  1  0.89920000  0.95460000  0.47360000  1.0 -0.488204189
O  O426  1  0.47360000  0.89920000  0.95460000  1.0 -0.488204189
O  O427  1  0.57740000  0.77640000  0.35080000  1.0 -0.488204189
O  O428  1  0.57740000  0.29540000  0.77640000  1.0 -0.488204189
O  O429  1  0.95460000  0.67260000  0.47360000  1.0 -0.488204189
O  O430  1  0.77640000  0.35080000  0.57740000  1.0 -0.488204189
O  O431  1  0.67260000  0.95460000  0.89920000  1.0 -0.488204189
O  O432  1  0.35080000  0.77640000  0.29540000  1.0 -0.488204189
O  O433  1  0.67260000  0.89920000  0.47360000  1.0 -0.488204189
O  O434  1  0.77640000  0.29540000  0.35080000  1.0 -0.488204189
O  O435  1  0.29540000  0.77640000  0.57740000  1.0 -0.488204189
O  O436  1  0.57740000  0.35080000  0.29540000  1.0 -0.488204189
O  O437  1  0.95460000  0.47360000  0.89920000  1.0 -0.488204189
O  O438  1  0.35080000  0.57740000  0.77640000  1.0 -0.488204189
O  O439  1  0.47360000  0.95460000  0.67260000  1.0 -0.488204189
O  O440  1  0.89920000  0.67260000  0.95460000  1.0 -0.488204189
O  O441  1  0.77640000  0.57740000  0.35080000  1.0 -0.488204189
O  O442  1  0.95460000  0.89920000  0.47360000  1.0 -0.488204189
O  O443  1  0.29540000  0.35080000  0.57740000  1.0 -0.488204189
O  O444  1  0.35080000  0.77640000  0.57740000  1.0 -0.488204189
O  O445  1  0.57740000  0.77640000  0.29540000  1.0 -0.488204189
O  O446  1  0.47360000  0.67260000  0.95460000  1.0 -0.488204189
O  O447  1  0.95460000  0.67260000  0.89920000  1.0 -0.488204189
O  O448  1  0.89920000  0.95460000  0.67260000  1.0 -0.488204189
O  O449  1  0.35080000  0.29540000  0.77640000  1.0 -0.488204189
O  O450  1  0.77640000  0.35080000  0.29540000  1.0 -0.488204189
O  O451  1  0.67260000  0.47360000  0.89920000  1.0 -0.488204189
O  O452  1  0.67260000  0.95460000  0.47360000  1.0 -0.488204189
O  O453  1  0.29540000  0.57740000  0.77640000  1.0 -0.488204189
O  O454  1  0.47360000  0.89920000  0.67260000  1.0 -0.488204189
O  O455  1  0.57740000  0.29540000  0.35080000  1.0 -0.488204189
O  O456  1  0.89920000  0.47360000  0.95460000  1.0 -0.488204189
O  O457  1  0.57740000  0.35080000  0.77640000  1.0 -0.488204189
O  O458  1  0.47360000  0.95460000  0.89920000  1.0 -0.488204189
O  O459  1  0.95460000  0.47360000  0.67260000  1.0 -0.488204189
O  O460  1  0.67260000  0.89920000  0.95460000  1.0 -0.488204189
O  O461  1  0.29540000  0.77640000  0.35080000  1.0 -0.488204189
O  O462  1  0.89920000  0.67260000  0.47360000  1.0 -0.488204189
O  O463  1  0.77640000  0.29540000  0.57740000  1.0 -0.488204189
O  O464  1  0.35080000  0.57740000  0.29540000  1.0 -0.488204189
O  O465  1  0.44280000  0.75400000  0.95200000  1.0 -0.5007010656
O  O466  1  0.39880000  0.29800000  0.80720000  1.0 -0.5007010656
O  O467  1  0.85120000  0.95200000  0.75400000  1.0 -0.5007010656
O  O468  1  0.95200000  0.44280000  0.75400000  1.0 -0.5007010656
O  O469  1  0.75400000  0.44280000  0.85120000  1.0 -0.5007010656
O  O470  1  0.80720000  0.49600000  0.39880000  1.0 -0.5007010656
O  O471  1  0.39880000  0.49600000  0.29800000  1.0 -0.5007010656
O  O472  1  0.29800000  0.39880000  0.49600000  1.0 -0.5007010656
O  O473  1  0.95200000  0.85120000  0.44280000  1.0 -0.5007010656
O  O474  1  0.44280000  0.95200000  0.85120000  1.0 -0.5007010656
O  O475  1  0.49600000  0.80720000  0.29800000  1.0 -0.5007010656
O  O476  1  0.49600000  0.39880000  0.80720000  1.0 -0.5007010656
O  O477  1  0.85120000  0.75400000  0.44280000  1.0 -0.5007010656
O  O478  1  0.80720000  0.29800000  0.49600000  1.0 -0.5007010656
O  O479  1  0.75400000  0.85120000  0.95200000  1.0 -0.5007010656
O  O480  1  0.29800000  0.80720000  0.39880000  1.0 -0.5007010656
O  O481  1  0.75400000  0.95200000  0.44280000  1.0 -0.5007010656
O  O482  1  0.80720000  0.39880000  0.29800000  1.0 -0.5007010656
O  O483  1  0.39880000  0.80720000  0.49600000  1.0 -0.5007010656
O  O484  1  0.49600000  0.29800000  0.39880000  1.0 -0.5007010656
O  O485  1  0.85120000  0.44280000  0.95200000  1.0 -0.5007010656
O  O486  1  0.29800000  0.49600000  0.80720000  1.0 -0.5007010656
O  O487  1  0.44280000  0.85120000  0.75400000  1.0 -0.5007010656
O  O488  1  0.95200000  0.75400000  0.85120000  1.0 -0.488204189
O  O489  1  0.80720000  0.49600000  0.29800000  1.0 -0.5007010656
O  O490  1  0.85120000  0.95200000  0.44280000  1.0 -0.5007010656
O  O491  1  0.39880000  0.29800000  0.49600000  1.0 -0.5007010656
O  O492  1  0.29800000  0.80720000  0.49600000  1.0 -0.5007010656
O  O493  1  0.49600000  0.80720000  0.39880000  1.0 -0.5007010656
O  O494  1  0.44280000  0.75400000  0.85120000  1.0 -0.5007010656
O  O495  1  0.85120000  0.75400000  0.95200000  1.0 -0.5007010656
O  O496  1  0.95200000  0.85120000  0.75400000  1.0 -0.5007010656
O  O497  1  0.29800000  0.39880000  0.80720000  1.0 -0.5007010656
O  O498  1  0.80720000  0.29800000  0.39880000  1.0 -0.5007010656
O  O499  1  0.75400000  0.44280000  0.95200000  1.0 -0.5007010656
O  O500  1  0.75400000  0.85120000  0.44280000  1.0 -0.5007010656
O  O501  1  0.39880000  0.49600000  0.80720000  1.0 -0.5007010656
O  O502  1  0.44280000  0.95200000  0.75400000  1.0 -0.5007010656
O  O503  1  0.49600000  0.39880000  0.29800000  1.0 -0.5007010656
O  O504  1  0.95200000  0.44280000  0.85120000  1.0 -0.5007010656
O  O505  1  0.49600000  0.29800000  0.80720000  1.0 -0.5007010656
O  O506  1  0.44280000  0.85120000  0.95200000  1.0 -0.5007010656
O  O507  1  0.85120000  0.44280000  0.75400000  1.0 -0.5007010656
O  O508  1  0.75400000  0.95200000  0.85120000  1.0 -0.5007010656
O  O509  1  0.39880000  0.80720000  0.29800000  1.0 -0.5007010656
O  O510  1  0.95200000  0.75400000  0.44280000  1.0 -0.5007010656
O  O511  1  0.80720000  0.39880000  0.49600000  1.0 -0.5007010656
O  O512  1  0.29800000  0.49600000  0.39880000  1.0 -0.5007010656
O  O513  1  0.37610000  0.73430000  0.96630000  1.0 -0.4142894698
O  O514  1  0.32670000  0.28370000  0.87390000  1.0 -0.4142894698
O  O515  1  0.92330000  0.96630000  0.73430000  1.0 -0.4142894698
O  O516  1  0.96630000  0.37610000  0.73430000  1.0 -0.4142894698
O  O517  1  0.73430000  0.37610000  0.92330000  1.0 -0.4142894698
O  O518  1  0.87390000  0.51570000  0.32670000  1.0 -0.4142894698
O  O519  1  0.32670000  0.51570000  0.28370000  1.0 -0.4142894698
O  O520  1  0.28370000  0.32670000  0.51570000  1.0 -0.4142894698
O  O521  1  0.96630000  0.92330000  0.37610000  1.0 -0.4142894698
O  O522  1  0.37610000  0.96630000  0.92330000  1.0 -0.4142894698
O  O523  1  0.51570000  0.87390000  0.28370000  1.0 -0.4142894698
O  O524  1  0.51570000  0.32670000  0.87390000  1.0 -0.4142894698
O  O525  1  0.92330000  0.73430000  0.37610000  1.0 -0.4142894698
O  O526  1  0.87390000  0.28370000  0.51570000  1.0 -0.4142894698
O  O527  1  0.73430000  0.92330000  0.96630000  1.0 -0.4142894698
O  O528  1  0.28370000  0.87390000  0.32670000  1.0 -0.4142894698
O  O529  1  0.73430000  0.96630000  0.37610000  1.0 -0.4142894698
O  O530  1  0.87390000  0.32670000  0.28370000  1.0 -0.4142894698
O  O531  1  0.32670000  0.87390000  0.51570000  1.0 -0.4142894698
O  O532  1  0.51570000  0.28370000  0.32670000  1.0 -0.4142894698
O  O533  1  0.92330000  0.37610000  0.96630000  1.0 -0.4142894698
O  O534  1  0.28370000  0.51570000  0.87390000  1.0 -0.4142894698
O  O535  1  0.37610000  0.92330000  0.73430000  1.0 -0.4142894698
O  O536  1  0.96630000  0.73430000  0.92330000  1.0 -0.4142894698
O  O537  1  0.87390000  0.51570000  0.28370000  1.0 -0.4142894698
O  O538  1  0.92330000  0.96630000  0.37610000  1.0 -0.4142894698
O  O539  1  0.32670000  0.28370000  0.51570000  1.0 -0.4142894698
O  O540  1  0.28370000  0.87390000  0.51570000  1.0 -0.4142894698
O  O541  1  0.51570000  0.87390000  0.32670000  1.0 -0.4142894698
O  O542  1  0.37610000  0.73430000  0.92330000  1.0 -0.4142894698
O  O543  1  0.92330000  0.73430000  0.96630000  1.0 -0.4142894698
O  O544  1  0.96630000  0.92330000  0.73430000  1.0 -0.4142894698
O  O545  1  0.28370000  0.32670000  0.87390000  1.0 -0.4142894698
O  O546  1  0.87390000  0.28370000  0.32670000  1.0 -0.4142894698
O  O547  1  0.73430000  0.37610000  0.96630000  1.0 -0.4142894698
O  O548  1  0.73430000  0.92330000  0.37610000  1.0 -0.4142894698
O  O549  1  0.32670000  0.51570000  0.87390000  1.0 -0.4142894698
O  O550  1  0.37610000  0.96630000  0.73430000  1.0 -0.4142894698
O  O551  1  0.51570000  0.32670000  0.28370000  1.0 -0.4142894698
O  O552  1  0.96630000  0.37610000  0.92330000  1.0 -0.4142894698
O  O553  1  0.51570000  0.28370000  0.87390000  1.0 -0.4142894698
O  O554  1  0.37610000  0.92330000  0.96630000  1.0 -0.4142894698
O  O555  1  0.92330000  0.37610000  0.73430000  1.0 -0.4142894698
O  O556  1  0.73430000  0.96630000  0.92330000  1.0 -0.4142894698
O  O557  1  0.32670000  0.87390000  0.28370000  1.0 -0.4142894698
O  O558  1  0.96630000  0.73430000  0.37610000  1.0 -0.4142894698
O  O559  1  0.87390000  0.32670000  0.51570000  1.0 -0.4142894698
O  O560  1  0.28370000  0.51570000  0.32670000  1.0 -0.4142894698
O  O561  1  0.42630000  0.70470000  0.89310000  1.0 -0.5220854121
O  O562  1  0.27410000  0.35690000  0.82370000  1.0 -0.5220854121
O  O563  1  0.97590000  0.89310000  0.70470000  1.0 -0.5220854121
O  O564  1  0.89310000  0.42630000  0.70470000  1.0 -0.5220854121
O  O565  1  0.70470000  0.42630000  0.97590000  1.0 -0.5220854121
O  O566  1  0.82370000  0.54530000  0.27410000  1.0 -0.5220854121
O  O567  1  0.27410000  0.54530000  0.35690000  1.0 -0.5220854121
O  O568  1  0.35690000  0.27410000  0.54530000  1.0 -0.5220854121
O  O569  1  0.89310000  0.97590000  0.42630000  1.0 -0.5220854121
O  O570  1  0.42630000  0.89310000  0.97590000  1.0 -0.5220854121
O  O571  1  0.54530000  0.82370000  0.35690000  1.0 -0.5220854121
O  O572  1  0.54530000  0.27410000  0.82370000  1.0 -0.5220854121
O  O573  1  0.97590000  0.70470000  0.42630000  1.0 -0.5220854121
O  O574  1  0.82370000  0.35690000  0.54530000  1.0 -0.5220854121
O  O575  1  0.70470000  0.97590000  0.89310000  1.0 -0.5220854121
O  O576  1  0.35690000  0.82370000  0.27410000  1.0 -0.5220854121
O  O577  1  0.70470000  0.89310000  0.42630000  1.0 -0.5220854121
O  O578  1  0.82370000  0.27410000  0.35690000  1.0 -0.5220854121
O  O579  1  0.27410000  0.82370000  0.54530000  1.0 -0.5220854121
O  O580  1  0.54530000  0.35690000  0.27410000  1.0 -0.5220854121
O  O581  1  0.97590000  0.42630000  0.89310000  1.0 -0.5220854121
O  O582  1  0.35690000  0.54530000  0.82370000  1.0 -0.5220854121
O  O583  1  0.42630000  0.97590000  0.70470000  1.0 -0.5220854121
O  O584  1  0.89310000  0.70470000  0.97590000  1.0 -0.5220854121
O  O585  1  0.82370000  0.54530000  0.35690000  1.0 -0.5220854121
O  O586  1  0.97590000  0.89310000  0.42630000  1.0 -0.5220854121
O  O587  1  0.27410000  0.35690000  0.54530000  1.0 -0.5220854121
O  O588  1  0.35690000  0.82370000  0.54530000  1.0 -0.5220854121
O  O589  1  0.54530000  0.82370000  0.27410000  1.0 -0.5220854121
O  O590  1  0.42630000  0.70470000  0.97590000  1.0 -0.5220854121
O  O591  1  0.97590000  0.70470000  0.89310000  1.0 -0.5220854121
O  O592  1  0.89310000  0.97590000  0.70470000  1.0 -0.5220854121
O  O593  1  0.35690000  0.27410000  0.82370000  1.0 -0.5220854121
O  O594  1  0.82370000  0.35690000  0.27410000  1.0 -0.5220854121
O  O595  1  0.70470000  0.42630000  0.89310000  1.0 -0.5220854121
O  O596  1  0.70470000  0.97590000  0.42630000  1.0 -0.5220854121
O  O597  1  0.27410000  0.54530000  0.82370000  1.0 -0.5220854121
O  O598  1  0.42630000  0.89310000  0.70470000  1.0 -0.5220854121
O  O599  1  0.54530000  0.27410000  0.35690000  1.0 -0.5220854121
O  O600  1  0.89310000  0.42630000  0.97590000  1.0 -0.5220854121
O  O601  1  0.54530000  0.35690000  0.82370000  1.0 -0.5220854121
O  O602  1  0.42630000  0.97590000  0.89310000  1.0 -0.5220854121
O  O603  1  0.97590000  0.42630000  0.70470000  1.0 -0.5220854121
O  O604  1  0.70470000  0.89310000  0.97590000  1.0 -0.5220854121
O  O605  1  0.27410000  0.82370000  0.35690000  1.0 -0.5220854121
O  O606  1  0.89310000  0.70470000  0.42630000  1.0 -0.5220854121
O  O607  1  0.82370000  0.27410000  0.54530000  1.0 -0.5220854121
O  O608  1  0.35690000  0.54530000  0.27410000  1.0 -0.5220854121
O  O609  1  0.26860000  0.58800000  0.97880000  1.0 -0.488204189
O  O610  1  0.08540000  0.27120000  0.98140000  1.0 -0.488204189
O  O611  1  0.16460000  0.97880000  0.58800000  1.0 -0.488204189
O  O612  1  0.97880000  0.26860000  0.58800000  1.0 -0.488204189
O  O613  1  0.58800000  0.26860000  0.16460000  1.0 -0.488204189
O  O614  1  0.98140000  0.66200000  0.08540000  1.0 -0.488204189
O  O615  1  0.08540000  0.66200000  0.27120000  1.0 -0.488204189
O  O616  1  0.27120000  0.08540000  0.66200000  1.0 -0.488204189
O  O617  1  0.97880000  0.16460000  0.26860000  1.0 -0.488204189
O  O618  1  0.26860000  0.97880000  0.16460000  1.0 -0.488204189
O  O619  1  0.66200000  0.98140000  0.27120000  1.0 -0.488204189
O  O620  1  0.66200000  0.08540000  0.98140000  1.0 -0.488204189
O  O621  1  0.16460000  0.58800000  0.26860000  1.0 -0.488204189
O  O622  1  0.98140000  0.27120000  0.66200000  1.0 -0.488204189
O  O623  1  0.58800000  0.16460000  0.97880000  1.0 -0.488204189
O  O624  1  0.27120000  0.98140000  0.08540000  1.0 -0.488204189
O  O625  1  0.58800000  0.97880000  0.26860000  1.0 -0.488204189
O  O626  1  0.98140000  0.08540000  0.27120000  1.0 -0.488204189
O  O627  1  0.08540000  0.98140000  0.66200000  1.0 -0.488204189
O  O628  1  0.66200000  0.27120000  0.08540000  1.0 -0.488204189
O  O629  1  0.16460000  0.26860000  0.97880000  1.0 -0.488204189
O  O630  1  0.27120000  0.66200000  0.98140000  1.0 -0.488204189
O  O631  1  0.26860000  0.16460000  0.58800000  1.0 -0.488204189
O  O632  1  0.97880000  0.58800000  0.16460000  1.0 -0.488204189
O  O633  1  0.98140000  0.66200000  0.27120000  1.0 -0.488204189
O  O634  1  0.16460000  0.97880000  0.26860000  1.0 -0.488204189
O  O635  1  0.08540000  0.27120000  0.66200000  1.0 -0.488204189
O  O636  1  0.27120000  0.98140000  0.66200000  1.0 -0.488204189
O  O637  1  0.66200000  0.98140000  0.08540000  1.0 -0.488204189
O  O638  1  0.26860000  0.58800000  0.16460000  1.0 -0.488204189
O  O639  1  0.16460000  0.58800000  0.97880000  1.0 -0.488204189
O  O640  1  0.97880000  0.16460000  0.58800000  1.0 -0.488204189
O  O641  1  0.27120000  0.08540000  0.98140000  1.0 -0.488204189
O  O642  1  0.98140000  0.27120000  0.08540000  1.0 -0.488204189
O  O643  1  0.58800000  0.26860000  0.97880000  1.0 -0.488204189
O  O644  1  0.58800000  0.16460000  0.26860000  1.0 -0.488204189
O  O645  1  0.08540000  0.66200000  0.98140000  1.0 -0.488204189
O  O646  1  0.26860000  0.97880000  0.58800000  1.0 -0.488204189
O  O647  1  0.66200000  0.08540000  0.27120000  1.0 -0.488204189
O  O648  1  0.97880000  0.26860000  0.16460000  1.0 -0.488204189
O  O649  1  0.66200000  0.27120000  0.98140000  1.0 -0.488204189
O  O650  1  0.26860000  0.16460000  0.97880000  1.0 -0.488204189
O  O651  1  0.16460000  0.26860000  0.58800000  1.0 -0.488204189
O  O652  1  0.58800000  0.97880000  0.16460000  1.0 -0.488204189
O  O653  1  0.08540000  0.98140000  0.27120000  1.0 -0.488204189
O  O654  1  0.97880000  0.58800000  0.26860000  1.0 -0.488204189
O  O655  1  0.98140000  0.08540000  0.66200000  1.0 -0.488204189
O  O656  1  0.27120000  0.66200000  0.08540000  1.0 -0.488204189
O  O657  1  0.58770000  0.30290000  0.00190000  1.0 -0.5528392633
O  O658  1  0.14250000  0.24810000  0.66230000  1.0 -0.5528392633
O  O659  1  0.10750000  0.00190000  0.30290000  1.0 -0.5528392633
O  O660  1  0.00190000  0.58770000  0.30290000  1.0 -0.5528392633
O  O661  1  0.30290000  0.58770000  0.10750000  1.0 -0.5528392633
O  O662  1  0.66230000  0.94710000  0.14250000  1.0 -0.5528392633
O  O663  1  0.14250000  0.94710000  0.24810000  1.0 -0.5528392633
O  O664  1  0.24810000  0.14250000  0.94710000  1.0 -0.5528392633
O  O665  1  0.00190000  0.10750000  0.58770000  1.0 -0.5528392633
O  O666  1  0.58770000  0.00190000  0.10750000  1.0 -0.5528392633
O  O667  1  0.94710000  0.66230000  0.24810000  1.0 -0.5528392633
O  O668  1  0.94710000  0.14250000  0.66230000  1.0 -0.5528392633
O  O669  1  0.10750000  0.30290000  0.58770000  1.0 -0.5528392633
O  O670  1  0.66230000  0.24810000  0.94710000  1.0 -0.5553486831
O  O671  1  0.30290000  0.10750000  0.00190000  1.0 -0.5528392633
O  O672  1  0.24810000  0.66230000  0.14250000  1.0 -0.5528392633
O  O673  1  0.30290000  0.00190000  0.58770000  1.0 -0.5528392633
O  O674  1  0.66230000  0.14250000  0.24810000  1.0 -0.5528392633
O  O675  1  0.14250000  0.66230000  0.94710000  1.0 -0.5528392633
O  O676  1  0.94710000  0.24810000  0.14250000  1.0 -0.5528392633
O  O677  1  0.10750000  0.58770000  0.00190000  1.0 -0.5528392633
O  O678  1  0.24810000  0.94710000  0.66230000  1.0 -0.5528392633
O  O679  1  0.58770000  0.10750000  0.30290000  1.0 -0.5528392633
O  O680  1  0.00190000  0.30290000  0.10750000  1.0 -0.5528392633
O  O681  1  0.66230000  0.94710000  0.24810000  1.0 -0.5528392633
O  O682  1  0.10750000  0.00190000  0.58770000  1.0 -0.5528392633
O  O683  1  0.14250000  0.24810000  0.94710000  1.0 -0.5528392633
O  O684  1  0.24810000  0.66230000  0.94710000  1.0 -0.5528392633
O  O685  1  0.94710000  0.66230000  0.14250000  1.0 -0.5528392633
O  O686  1  0.58770000  0.30290000  0.10750000  1.0 -0.5528392633
O  O687  1  0.10750000  0.30290000  0.00190000  1.0 -0.5528392633
O  O688  1  0.00190000  0.10750000  0.30290000  1.0 -0.5528392633
O  O689  1  0.24810000  0.14250000  0.66230000  1.0 -0.5528392633
O  O690  1  0.66230000  0.24810000  0.14250000  1.0 -0.5528392633
O  O691  1  0.30290000  0.58770000  0.00190000  1.0 -0.5528392633
O  O692  1  0.30290000  0.10750000  0.58770000  1.0 -0.5528392633
O  O693  1  0.14250000  0.94710000  0.66230000  1.0 -0.5528392633
O  O694  1  0.58770000  0.00190000  0.30290000  1.0 -0.5528392633
O  O695  1  0.94710000  0.14250000  0.24810000  1.0 -0.5528392633
O  O696  1  0.00190000  0.58770000  0.10750000  1.0 -0.5528392633
O  O697  1  0.94710000  0.24810000  0.66230000  1.0 -0.5528392633
O  O698  1  0.58770000  0.10750000  0.00190000  1.0 -0.5528392633
O  O699  1  0.10750000  0.58770000  0.30290000  1.0 -0.5528392633
O  O700  1  0.30290000  0.00190000  0.10750000  1.0 -0.5528392633
O  O701  1  0.14250000  0.66230000  0.24810000  1.0 -0.5528392633
O  O702  1  0.00190000  0.30290000  0.58770000  1.0 -0.5528392633
O  O703  1  0.66230000  0.14250000  0.94710000  1.0 -0.5528392633
O  O704  1  0.24810000  0.94710000  0.14250000  1.0 -0.5528392633
O  O705  1  0.31710000  0.55970000  0.95270000  1.0 -0.5058986448
O  O706  1  0.07950000  0.29730000  0.93290000  1.0 -0.5058986448
O  O707  1  0.17050000  0.95270000  0.55970000  1.0 -0.5058986448
O  O708  1  0.95270000  0.31710000  0.55970000  1.0 -0.5058986448
O  O709  1  0.55970000  0.31710000  0.17050000  1.0 -0.5058986448
O  O710  1  0.93290000  0.69030000  0.07950000  1.0 -0.5058986448
O  O711  1  0.07950000  0.69030000  0.29730000  1.0 -0.5058986448
O  O712  1  0.29730000  0.07950000  0.69030000  1.0 -0.5058986448
O  O713  1  0.95270000  0.17050000  0.31710000  1.0 -0.5007010656
O  O714  1  0.31710000  0.95270000  0.17050000  1.0 -0.5058986448
O  O715  1  0.69030000  0.93290000  0.29730000  1.0 -0.5058986448
O  O716  1  0.69030000  0.07950000  0.93290000  1.0 -0.5007010656
O  O717  1  0.17050000  0.55970000  0.31710000  1.0 -0.5058986448
O  O718  1  0.93290000  0.29730000  0.69030000  1.0 -0.5058986448
O  O719  1  0.55970000  0.17050000  0.95270000  1.0 -0.5058986448
O  O720  1  0.29730000  0.93290000  0.07950000  1.0 -0.5058986448
O  O721  1  0.55970000  0.95270000  0.31710000  1.0 -0.5058986448
O  O722  1  0.93290000  0.07950000  0.29730000  1.0 -0.5058986448
O  O723  1  0.07950000  0.93290000  0.69030000  1.0 -0.5058986448
O  O724  1  0.69030000  0.29730000  0.07950000  1.0 -0.5007010656
O  O725  1  0.17050000  0.31710000  0.95270000  1.0 -0.5058986448
O  O726  1  0.29730000  0.69030000  0.93290000  1.0 -0.5007010656
O  O727  1  0.31710000  0.17050000  0.55970000  1.0 -0.5058986448
O  O728  1  0.95270000  0.55970000  0.17050000  1.0 -0.5058986448
O  O729  1  0.93290000  0.69030000  0.29730000  1.0 -0.5058986448
O  O730  1  0.17050000  0.95270000  0.31710000  1.0 -0.5058986448
O  O731  1  0.07950000  0.29730000  0.69030000  1.0 -0.5058986448
O  O732  1  0.29730000  0.93290000  0.69030000  1.0 -0.5058986448
O  O733  1  0.69030000  0.93290000  0.07950000  1.0 -0.5058986448
O  O734  1  0.31710000  0.55970000  0.17050000  1.0 -0.5058986448
O  O735  1  0.17050000  0.55970000  0.95270000  1.0 -0.5058986448
O  O736  1  0.95270000  0.17050000  0.55970000  1.0 -0.5058986448
O  O737  1  0.29730000  0.07950000  0.93290000  1.0 -0.5007010656
O  O738  1  0.93290000  0.29730000  0.07950000  1.0 -0.5007010656
O  O739  1  0.55970000  0.31710000  0.95270000  1.0 -0.5058986448
O  O740  1  0.55970000  0.17050000  0.31710000  1.0 -0.5058986448
O  O741  1  0.07950000  0.69030000  0.93290000  1.0 -0.5007010656
O  O742  1  0.31710000  0.95270000  0.55970000  1.0 -0.5058986448
O  O743  1  0.69030000  0.07950000  0.29730000  1.0 -0.5058986448
O  O744  1  0.95270000  0.31710000  0.17050000  1.0 -0.5058986448
O  O745  1  0.69030000  0.29730000  0.93290000  1.0 -0.5007010656
O  O746  1  0.31710000  0.17050000  0.95270000  1.0 -0.5058986448
O  O747  1  0.17050000  0.31710000  0.55970000  1.0 -0.5058986448
O  O748  1  0.55970000  0.95270000  0.17050000  1.0 -0.5058986448
O  O749  1  0.07950000  0.93290000  0.29730000  1.0 -0.5058986448
O  O750  1  0.95270000  0.55970000  0.31710000  1.0 -0.5007010656
O  O751  1  0.93290000  0.07950000  0.69030000  1.0 -0.5007010656
O  O752  1  0.29730000  0.69030000  0.07950000  1.0 -0.5058986448
O  O753  1  0.55670000  0.35170000  0.97470000  1.0 -0.5441262318
O  O754  1  0.13310000  0.27530000  0.69330000  1.0 -0.5441262318
O  O755  1  0.11690000  0.97470000  0.35170000  1.0 -0.5441262318
O  O756  1  0.97470000  0.55670000  0.35170000  1.0 -0.5441262318
O  O757  1  0.35170000  0.55670000  0.11690000  1.0 -0.5441262318
O  O758  1  0.69330000  0.89830000  0.13310000  1.0 -0.5441262318
O  O759  1  0.13310000  0.89830000  0.27530000  1.0 -0.5441262318
O  O760  1  0.27530000  0.13310000  0.89830000  1.0 -0.5441262318
O  O761  1  0.97470000  0.11690000  0.55670000  1.0 -0.5441262318
O  O762  1  0.55670000  0.97470000  0.11690000  1.0 -0.5441262318
O  O763  1  0.89830000  0.69330000  0.27530000  1.0 -0.5441262318
O  O764  1  0.89830000  0.13310000  0.69330000  1.0 -0.5441262318
O  O765  1  0.11690000  0.35170000  0.55670000  1.0 -0.5441262318
O  O766  1  0.69330000  0.27530000  0.89830000  1.0 -0.5441262318
O  O767  1  0.35170000  0.11690000  0.97470000  1.0 -0.5441262318
O  O768  1  0.27530000  0.69330000  0.13310000  1.0 -0.5441262318
O  O769  1  0.35170000  0.97470000  0.55670000  1.0 -0.5441262318
O  O770  1  0.69330000  0.13310000  0.27530000  1.0 -0.5441262318
O  O771  1  0.13310000  0.69330000  0.89830000  1.0 -0.5441262318
O  O772  1  0.89830000  0.27530000  0.13310000  1.0 -0.5441262318
O  O773  1  0.11690000  0.55670000  0.97470000  1.0 -0.5441262318
O  O774  1  0.27530000  0.89830000  0.69330000  1.0 -0.5441262318
O  O775  1  0.55670000  0.11690000  0.35170000  1.0 -0.5441262318
O  O776  1  0.97470000  0.35170000  0.11690000  1.0 -0.5441262318
O  O777  1  0.69330000  0.89830000  0.27530000  1.0 -0.5441262318
O  O778  1  0.11690000  0.97470000  0.55670000  1.0 -0.5441262318
O  O779  1  0.13310000  0.27530000  0.89830000  1.0 -0.5441262318
O  O780  1  0.27530000  0.69330000  0.89830000  1.0 -0.5441262318
O  O781  1  0.89830000  0.69330000  0.13310000  1.0 -0.5441262318
O  O782  1  0.55670000  0.35170000  0.11690000  1.0 -0.5528392633
O  O783  1  0.11690000  0.35170000  0.97470000  1.0 -0.5441262318
O  O784  1  0.97470000  0.11690000  0.35170000  1.0 -0.5441262318
O  O785  1  0.27530000  0.13310000  0.69330000  1.0 -0.5441262318
O  O786  1  0.69330000  0.27530000  0.13310000  1.0 -0.5441262318
O  O787  1  0.35170000  0.55670000  0.97470000  1.0 -0.5441262318
O  O788  1  0.35170000  0.11690000  0.55670000  1.0 -0.5441262318
O  O789  1  0.13310000  0.89830000  0.69330000  1.0 -0.5441262318
O  O790  1  0.55670000  0.97470000  0.35170000  1.0 -0.5441262318
O  O791  1  0.89830000  0.13310000  0.27530000  1.0 -0.5441262318
O  O792  1  0.97470000  0.55670000  0.11690000  1.0 -0.5441262318
O  O793  1  0.89830000  0.27530000  0.69330000  1.0 -0.5441262318
O  O794  1  0.55670000  0.11690000  0.97470000  1.0 -0.5441262318
O  O795  1  0.11690000  0.55670000  0.35170000  1.0 -0.5441262318
O  O796  1  0.35170000  0.97470000  0.11690000  1.0 -0.5528392633
O  O797  1  0.13310000  0.69330000  0.27530000  1.0 -0.5441262318
O  O798  1  0.97470000  0.35170000  0.55670000  1.0 -0.5441262318
O  O799  1  0.69330000  0.13310000  0.89830000  1.0 -0.5441262318
O  O800  1  0.27530000  0.89830000  0.13310000  1.0 -0.5441262318
O  O801  1  0.38180000  0.59500000  0.91820000  1.0 -0.4627112457
O  O802  1  0.14500000  0.33180000  0.86820000  1.0 -0.4627112457
O  O803  1  0.10500000  0.91820000  0.59500000  1.0 -0.4627112457
O  O804  1  0.91820000  0.38180000  0.59500000  1.0 -0.4627112457
O  O805  1  0.59500000  0.38180000  0.10500000  1.0 -0.4627112457
O  O806  1  0.86820000  0.65500000  0.14500000  1.0 -0.4627112457
O  O807  1  0.14500000  0.65500000  0.33180000  1.0 -0.4627112457
O  O808  1  0.33180000  0.14500000  0.65500000  1.0 -0.4627112457
O  O809  1  0.91820000  0.10500000  0.38180000  1.0 -0.4627112457
O  O810  1  0.38180000  0.91820000  0.10500000  1.0 -0.4627112457
O  O811  1  0.65500000  0.86820000  0.33180000  1.0 -0.4627112457
O  O812  1  0.65500000  0.14500000  0.86820000  1.0 -0.4627112457
O  O813  1  0.10500000  0.59500000  0.38180000  1.0 -0.4627112457
O  O814  1  0.86820000  0.33180000  0.65500000  1.0 -0.4627112457
O  O815  1  0.59500000  0.10500000  0.91820000  1.0 -0.4627112457
O  O816  1  0.33180000  0.86820000  0.14500000  1.0 -0.4627112457
O  O817  1  0.59500000  0.91820000  0.38180000  1.0 -0.4627112457
O  O818  1  0.86820000  0.14500000  0.33180000  1.0 -0.4627112457
O  O819  1  0.14500000  0.86820000  0.65500000  1.0 -0.4627112457
O  O820  1  0.65500000  0.33180000  0.14500000  1.0 -0.4627112457
O  O821  1  0.10500000  0.38180000  0.91820000  1.0 -0.4627112457
O  O822  1  0.33180000  0.65500000  0.86820000  1.0 -0.4627112457
O  O823  1  0.38180000  0.10500000  0.59500000  1.0 -0.4627112457
O  O824  1  0.91820000  0.59500000  0.10500000  1.0 -0.4627112457
O  O825  1  0.86820000  0.65500000  0.33180000  1.0 -0.4627112457
O  O826  1  0.10500000  0.91820000  0.38180000  1.0 -0.4627112457
O  O827  1  0.14500000  0.33180000  0.65500000  1.0 -0.4627112457
O  O828  1  0.33180000  0.86820000  0.65500000  1.0 -0.4627112457
O  O829  1  0.65500000  0.86820000  0.14500000  1.0 -0.4627112457
O  O830  1  0.38180000  0.59500000  0.10500000  1.0 -0.4627112457
O  O831  1  0.10500000  0.59500000  0.91820000  1.0 -0.4627112457
O  O832  1  0.91820000  0.10500000  0.59500000  1.0 -0.4627112457
O  O833  1  0.33180000  0.14500000  0.86820000  1.0 -0.4627112457
O  O834  1  0.86820000  0.33180000  0.14500000  1.0 -0.4627112457
O  O835  1  0.59500000  0.38180000  0.91820000  1.0 -0.4627112457
O  O836  1  0.59500000  0.10500000  0.38180000  1.0 -0.4627112457
O  O837  1  0.14500000  0.65500000  0.86820000  1.0 -0.4627112457
O  O838  1  0.38180000  0.91820000  0.59500000  1.0 -0.4627112457
O  O839  1  0.65500000  0.14500000  0.33180000  1.0 -0.4627112457
O  O840  1  0.91820000  0.38180000  0.10500000  1.0 -0.4627112457
O  O841  1  0.65500000  0.33180000  0.86820000  1.0 -0.4627112457
O  O842  1  0.38180000  0.10500000  0.91820000  1.0 -0.4627112457
O  O843  1  0.10500000  0.38180000  0.59500000  1.0 -0.4627112457
O  O844  1  0.59500000  0.91820000  0.10500000  1.0 -0.4627112457
O  O845  1  0.14500000  0.86820000  0.33180000  1.0 -0.4627112457
O  O846  1  0.91820000  0.59500000  0.38180000  1.0 -0.4627112457
O  O847  1  0.86820000  0.14500000  0.65500000  1.0 -0.4627112457
O  O848  1  0.33180000  0.65500000  0.14500000  1.0 -0.4627112457
O  O849  1  0.36490000  0.64830000  0.89870000  1.0 -0.5007010656
O  O850  1  0.16190000  0.35130000  0.88510000  1.0 -0.5007010656
O  O851  1  0.08810000  0.89870000  0.64830000  1.0 -0.5007010656
O  O852  1  0.89870000  0.36490000  0.64830000  1.0 -0.5007010656
O  O853  1  0.64830000  0.36490000  0.08810000  1.0 -0.5007010656
O  O854  1  0.88510000  0.60170000  0.16190000  1.0 -0.5007010656
O  O855  1  0.16190000  0.60170000  0.35130000  1.0 -0.5007010656
O  O856  1  0.35130000  0.16190000  0.60170000  1.0 -0.5007010656
O  O857  1  0.89870000  0.08810000  0.36490000  1.0 -0.5007010656
O  O858  1  0.36490000  0.89870000  0.08810000  1.0 -0.5007010656
O  O859  1  0.60170000  0.88510000  0.35130000  1.0 -0.5007010656
O  O860  1  0.60170000  0.16190000  0.88510000  1.0 -0.5007010656
O  O861  1  0.08810000  0.64830000  0.36490000  1.0 -0.5007010656
O  O862  1  0.88510000  0.35130000  0.60170000  1.0 -0.5007010656
O  O863  1  0.64830000  0.08810000  0.89870000  1.0 -0.5007010656
O  O864  1  0.35130000  0.88510000  0.16190000  1.0 -0.5007010656
O  O865  1  0.64830000  0.89870000  0.36490000  1.0 -0.5007010656
O  O866  1  0.88510000  0.16190000  0.35130000  1.0 -0.5007010656
O  O867  1  0.16190000  0.88510000  0.60170000  1.0 -0.5007010656
O  O868  1  0.60170000  0.35130000  0.16190000  1.0 -0.5007010656
O  O869  1  0.08810000  0.36490000  0.89870000  1.0 -0.5007010656
O  O870  1  0.35130000  0.60170000  0.88510000  1.0 -0.5007010656
O  O871  1  0.36490000  0.08810000  0.64830000  1.0 -0.5007010656
O  O872  1  0.89870000  0.64830000  0.08810000  1.0 -0.5007010656
O  O873  1  0.88510000  0.60170000  0.35130000  1.0 -0.5007010656
O  O874  1  0.08810000  0.89870000  0.36490000  1.0 -0.5007010656
O  O875  1  0.16190000  0.35130000  0.60170000  1.0 -0.5007010656
O  O876  1  0.35130000  0.88510000  0.60170000  1.0 -0.5007010656
O  O877  1  0.60170000  0.88510000  0.16190000  1.0 -0.5007010656
O  O878  1  0.36490000  0.64830000  0.08810000  1.0 -0.5007010656
O  O879  1  0.08810000  0.64830000  0.89870000  1.0 -0.5007010656
O  O880  1  0.89870000  0.08810000  0.64830000  1.0 -0.5007010656
O  O881  1  0.35130000  0.16190000  0.88510000  1.0 -0.5007010656
O  O882  1  0.88510000  0.35130000  0.16190000  1.0 -0.5007010656
O  O883  1  0.64830000  0.36490000  0.89870000  1.0 -0.5007010656
O  O884  1  0.64830000  0.08810000  0.36490000  1.0 -0.5007010656
O  O885  1  0.16190000  0.60170000  0.88510000  1.0 -0.5007010656
O  O886  1  0.36490000  0.89870000  0.64830000  1.0 -0.5007010656
O  O887  1  0.60170000  0.16190000  0.35130000  1.0 -0.5007010656
O  O888  1  0.89870000  0.36490000  0.08810000  1.0 -0.5007010656
O  O889  1  0.60170000  0.35130000  0.88510000  1.0 -0.5007010656
O  O890  1  0.36490000  0.08810000  0.89870000  1.0 -0.5007010656
O  O891  1  0.08810000  0.36490000  0.64830000  1.0 -0.5007010656
O  O892  1  0.64830000  0.89870000  0.08810000  1.0 -0.5007010656
O  O893  1  0.16190000  0.88510000  0.35130000  1.0 -0.5007010656
O  O894  1  0.89870000  0.64830000  0.36490000  1.0 -0.5007010656
O  O895  1  0.88510000  0.16190000  0.60170000  1.0 -0.5007010656
O  O896  1  0.35130000  0.60170000  0.16190000  1.0 -0.5007010656
O  O897  1  0.62060000  0.70620000  0.83660000  1.0 -0.4627112457
O  O898  1  0.41340000  0.41340000  0.62940000  1.0 -0.4627112457
O  O899  1  0.83660000  0.83660000  0.70620000  1.0 -0.4627112457
O  O900  1  0.83660000  0.62060000  0.70620000  1.0 -0.4627112457
O  O901  1  0.70620000  0.62060000  0.83660000  1.0 -0.4627112457
O  O902  1  0.62940000  0.54380000  0.41340000  1.0 -0.4627112457
O  O903  1  0.41340000  0.54380000  0.41340000  1.0 -0.4627112457
O  O904  1  0.41340000  0.41340000  0.54380000  1.0 -0.4627112457
O  O905  1  0.83660000  0.83660000  0.62060000  1.0 -0.4627112457
O  O906  1  0.62060000  0.83660000  0.83660000  1.0 -0.4627112457
O  O907  1  0.54380000  0.62940000  0.41340000  1.0 -0.4627112457
O  O908  1  0.54380000  0.41340000  0.62940000  1.0 -0.4627112457
O  O909  1  0.83660000  0.70620000  0.62060000  1.0 -0.4627112457
O  O910  1  0.62940000  0.41340000  0.54380000  1.0 -0.4627112457
O  O911  1  0.70620000  0.83660000  0.83660000  1.0 -0.4627112457
O  O912  1  0.41340000  0.62940000  0.41340000  1.0 -0.4627112457
O  O913  1  0.70620000  0.83660000  0.62060000  1.0 -0.4627112457
O  O914  1  0.62940000  0.41340000  0.41340000  1.0 -0.4627112457
O  O915  1  0.41340000  0.62940000  0.54380000  1.0 -0.4627112457
O  O916  1  0.54380000  0.41340000  0.41340000  1.0 -0.4627112457
O  O917  1  0.83660000  0.62060000  0.83660000  1.0 -0.4627112457
O  O918  1  0.41340000  0.54380000  0.62940000  1.0 -0.4627112457
O  O919  1  0.62060000  0.83660000  0.70620000  1.0 -0.4627112457
O  O920  1  0.83660000  0.70620000  0.83660000  1.0 -0.4627112457
O  O921  1  0.48150000  0.48150000  0.95090000  1.0 -0.5007010656
O  O922  1  0.16390000  0.29910000  0.76850000  1.0 -0.5007010656
O  O923  1  0.08610000  0.95090000  0.48150000  1.0 -0.5007010656
O  O924  1  0.95090000  0.48150000  0.48150000  1.0 -0.5007010656
O  O925  1  0.48150000  0.48150000  0.08610000  1.0 -0.5007010656
O  O926  1  0.76850000  0.76850000  0.16390000  1.0 -0.5007010656
O  O927  1  0.16390000  0.76850000  0.29910000  1.0 -0.5007010656
O  O928  1  0.29910000  0.16390000  0.76850000  1.0 -0.5007010656
O  O929  1  0.95090000  0.08610000  0.48150000  1.0 -0.5007010656
O  O930  1  0.48150000  0.95090000  0.08610000  1.0 -0.5007010656
O  O931  1  0.76850000  0.76850000  0.29910000  1.0 -0.5007010656
O  O932  1  0.76850000  0.16390000  0.76850000  1.0 -0.5007010656
O  O933  1  0.08610000  0.48150000  0.48150000  1.0 -0.5007010656
O  O934  1  0.76850000  0.29910000  0.76850000  1.0 -0.5007010656
O  O935  1  0.48150000  0.08610000  0.95090000  1.0 -0.5007010656
O  O936  1  0.29910000  0.76850000  0.16390000  1.0 -0.5007010656
O  O937  1  0.48150000  0.95090000  0.48150000  1.0 -0.5007010656
O  O938  1  0.76850000  0.16390000  0.29910000  1.0 -0.5325817877
O  O939  1  0.16390000  0.76850000  0.76850000  1.0 -0.5007010656
O  O940  1  0.76850000  0.29910000  0.16390000  1.0 -0.5007010656
O  O941  1  0.08610000  0.48150000  0.95090000  1.0 -0.5007010656
O  O942  1  0.29910000  0.76850000  0.76850000  1.0 -0.5007010656
O  O943  1  0.48150000  0.08610000  0.48150000  1.0 -0.5007010656
O  O944  1  0.95090000  0.48150000  0.08610000  1.0 -0.5007010656
O  O945  1  0.52107000  0.68753000  0.89573000  1.0 -0.4428798885
O  O946  1  0.35433000  0.35427000  0.72893000  1.0 -0.4428798885
O  O947  1  0.89567000  0.89573000  0.68753000  1.0 -0.4428798885
O  O948  1  0.89573000  0.52107000  0.68753000  1.0 -0.4627112457
O  O949  1  0.68753000  0.52107000  0.89567000  1.0 -0.4428798885
O  O950  1  0.72893000  0.56247000  0.35433000  1.0 -0.4428798885
O  O951  1  0.35433000  0.56247000  0.35427000  1.0 -0.4428798885
O  O952  1  0.35427000  0.35433000  0.56247000  1.0 -0.4428798885
O  O953  1  0.89573000  0.89567000  0.52107000  1.0 -0.4428798885
O  O954  1  0.52107000  0.89573000  0.89567000  1.0 -0.4428798885
O  O955  1  0.56247000  0.72893000  0.35427000  1.0 -0.4428798885
O  O956  1  0.56247000  0.35433000  0.72893000  1.0 -0.4428798885
O  O957  1  0.89567000  0.68753000  0.52107000  1.0 -0.4428798885
O  O958  1  0.72893000  0.35427000  0.56247000  1.0 -0.4627112457
O  O959  1  0.68753000  0.89567000  0.89573000  1.0 -0.4428798885
O  O960  1  0.35427000  0.72893000  0.35433000  1.0 -0.4428798885
O  O961  1  0.68753000  0.89573000  0.52107000  1.0 -0.4428798885
O  O962  1  0.72893000  0.35433000  0.35427000  1.0 -0.4428798885
O  O963  1  0.35433000  0.72893000  0.56247000  1.0 -0.4428798885
O  O964  1  0.56247000  0.35427000  0.35433000  1.0 -0.4428798885
O  O965  1  0.89567000  0.52107000  0.89573000  1.0 -0.4471474922
O  O966  1  0.35427000  0.56247000  0.72893000  1.0 -0.4428798885
O  O967  1  0.52107000  0.89567000  0.68753000  1.0 -0.4428798885
O  O968  1  0.89573000  0.68753000  0.89567000  1.0 -0.4428798885
O  O969  1  0.38710000  0.75950000  0.99330000  1.0 -0.6538311726
O  O970  1  0.38990000  0.25670000  0.86290000  1.0 -0.6320692582
O  O971  1  0.86010000  0.99330000  0.75950000  1.0 -0.6320692582
O  O972  1  0.99330000  0.38710000  0.75950000  1.0 -0.6320692582
O  O973  1  0.75950000  0.38710000  0.86010000  1.0 -0.6320692582
O  O974  1  0.86290000  0.49050000  0.38990000  1.0 -0.6320692582
O  O975  1  0.38990000  0.49050000  0.25670000  1.0 -0.6320692582
O  O976  1  0.25670000  0.38990000  0.49050000  1.0 -0.6320692582
O  O977  1  0.99330000  0.86010000  0.38710000  1.0 -0.6320692582
O  O978  1  0.38710000  0.99330000  0.86010000  1.0 -0.6320692582
O  O979  1  0.49050000  0.86290000  0.25670000  1.0 -0.6320692582
O  O980  1  0.49050000  0.38990000  0.86290000  1.0 -0.6320692582
O  O981  1  0.86010000  0.75950000  0.38710000  1.0 -0.6320692582
O  O982  1  0.86290000  0.25670000  0.49050000  1.0 -0.6320692582
O  O983  1  0.75950000  0.86010000  0.99330000  1.0 -0.6320692582
O  O984  1  0.25670000  0.86290000  0.38990000  1.0 -0.6320692582
O  O985  1  0.75950000  0.99330000  0.38710000  1.0 -0.6320692582
O  O986  1  0.86290000  0.38990000  0.25670000  1.0 -0.6320692582
O  O987  1  0.38990000  0.86290000  0.49050000  1.0 -0.6320692582
O  O988  1  0.49050000  0.25670000  0.38990000  1.0 -0.6320692582
O  O989  1  0.86010000  0.38710000  0.99330000  1.0 -0.6559796221
O  O990  1  0.25670000  0.49050000  0.86290000  1.0 -0.6320692582
O  O991  1  0.38710000  0.86010000  0.75950000  1.0 -0.6320692582
O  O992  1  0.99330000  0.75950000  0.86010000  1.0 -0.6559796221
O  O993  1  0.86290000  0.49050000  0.25670000  1.0 -0.6320692582
O  O994  1  0.86010000  0.99330000  0.38710000  1.0 -0.6320692582
O  O995  1  0.38990000  0.25670000  0.49050000  1.0 -0.6320692582
O  O996  1  0.25670000  0.86290000  0.49050000  1.0 -0.6320692582
O  O997  1  0.49050000  0.86290000  0.38990000  1.0 -0.6320692582
O  O998  1  0.38710000  0.75950000  0.86010000  1.0 -0.6559796221
O  O999  1  0.86010000  0.75950000  0.99330000  1.0 -0.6538311726
O  O1000  1  0.99330000  0.86010000  0.75950000  1.0 -0.6320692582
O  O1001  1  0.25670000  0.38990000  0.86290000  1.0 -0.6320692582
O  O1002  1  0.86290000  0.25670000  0.38990000  1.0 -0.6320692582
O  O1003  1  0.75950000  0.38710000  0.99330000  1.0 -0.6320692582
O  O1004  1  0.75950000  0.86010000  0.38710000  1.0 -0.6320692582
O  O1005  1  0.38990000  0.49050000  0.86290000  1.0 -0.6320692582
O  O1006  1  0.38710000  0.99330000  0.75950000  1.0 -0.6320692582
O  O1007  1  0.49050000  0.38990000  0.25670000  1.0 -0.6320692582
O  O1008  1  0.99330000  0.38710000  0.86010000  1.0 -0.6320692582
O  O1009  1  0.49050000  0.25670000  0.86290000  1.0 -0.6320692582
O  O1010  1  0.38710000  0.86010000  0.99330000  1.0 -0.6320692582
O  O1011  1  0.86010000  0.38710000  0.75950000  1.0 -0.6320692582
O  O1012  1  0.75950000  0.99330000  0.86010000  1.0 -0.6320692582
O  O1013  1  0.38990000  0.86290000  0.25670000  1.0 -0.6320692582
O  O1014  1  0.99330000  0.75950000  0.38710000  1.0 -0.6320692582
O  O1015  1  0.86290000  0.38990000  0.49050000  1.0 -0.6320692582
O  O1016  1  0.25670000  0.49050000  0.38990000  1.0 -0.6320692582
O  O1017  1  0.37630000  0.54270000  0.92230000  1.0 -0.6373530107
O  O1018  1  0.09130000  0.32770000  0.87370000  1.0 -0.6373530107
O  O1019  1  0.15870000  0.92230000  0.54270000  1.0 -0.6373530107
O  O1020  1  0.92230000  0.37630000  0.54270000  1.0 -0.6373530107
O  O1021  1  0.54270000  0.37630000  0.15870000  1.0 -0.6373530107
O  O1022  1  0.87370000  0.70730000  0.09130000  1.0 -0.6373530107
O  O1023  1  0.09130000  0.70730000  0.32770000  1.0 -0.6373530107
O  O1024  1  0.32770000  0.09130000  0.70730000  1.0 -0.6373530107
O  O1025  1  0.92230000  0.15870000  0.37630000  1.0 -0.6373530107
O  O1026  1  0.37630000  0.92230000  0.15870000  1.0 -0.6373530107
O  O1027  1  0.70730000  0.87370000  0.32770000  1.0 -0.6373530107
O  O1028  1  0.70730000  0.09130000  0.87370000  1.0 -0.6320692582
O  O1029  1  0.15870000  0.54270000  0.37630000  1.0 -0.6373530107
O  O1030  1  0.87370000  0.32770000  0.70730000  1.0 -0.6373530107
O  O1031  1  0.54270000  0.15870000  0.92230000  1.0 -0.6320692582
O  O1032  1  0.32770000  0.87370000  0.09130000  1.0 -0.6373530107
O  O1033  1  0.54270000  0.92230000  0.37630000  1.0 -0.6373530107
O  O1034  1  0.87370000  0.09130000  0.32770000  1.0 -0.6373530107
O  O1035  1  0.09130000  0.87370000  0.70730000  1.0 -0.6373530107
O  O1036  1  0.70730000  0.32770000  0.09130000  1.0 -0.6373530107
O  O1037  1  0.15870000  0.37630000  0.92230000  1.0 -0.6373530107
O  O1038  1  0.32770000  0.70730000  0.87370000  1.0 -0.6320692582
O  O1039  1  0.37630000  0.15870000  0.54270000  1.0 -0.6373530107
O  O1040  1  0.92230000  0.54270000  0.15870000  1.0 -0.6373530107
O  O1041  1  0.87370000  0.70730000  0.32770000  1.0 -0.6373530107
O  O1042  1  0.15870000  0.92230000  0.37630000  1.0 -0.6373530107
O  O1043  1  0.09130000  0.32770000  0.70730000  1.0 -0.6373530107
O  O1044  1  0.32770000  0.87370000  0.70730000  1.0 -0.6373530107
O  O1045  1  0.70730000  0.87370000  0.09130000  1.0 -0.6373530107
O  O1046  1  0.37630000  0.54270000  0.15870000  1.0 -0.6373530107
O  O1047  1  0.15870000  0.54270000  0.92230000  1.0 -0.6373530107
O  O1048  1  0.92230000  0.15870000  0.54270000  1.0 -0.6373530107
O  O1049  1  0.32770000  0.09130000  0.87370000  1.0 -0.6320692582
O  O1050  1  0.87370000  0.32770000  0.09130000  1.0 -0.6373530107
O  O1051  1  0.54270000  0.37630000  0.92230000  1.0 -0.6373530107
O  O1052  1  0.54270000  0.15870000  0.37630000  1.0 -0.6373530107
O  O1053  1  0.09130000  0.70730000  0.87370000  1.0 -0.6320692582
O  O1054  1  0.37630000  0.92230000  0.54270000  1.0 -0.6373530107
O  O1055  1  0.70730000  0.09130000  0.32770000  1.0 -0.6373530107
O  O1056  1  0.92230000  0.37630000  0.15870000  1.0 -0.6373530107
O  O1057  1  0.70730000  0.32770000  0.87370000  1.0 -0.6320692582
O  O1058  1  0.37630000  0.15870000  0.92230000  1.0 -0.6320692582
O  O1059  1  0.15870000  0.37630000  0.54270000  1.0 -0.6373530107
O  O1060  1  0.54270000  0.92230000  0.15870000  1.0 -0.6373530107
O  O1061  1  0.09130000  0.87370000  0.32770000  1.0 -0.6373530107
O  O1062  1  0.92230000  0.54270000  0.37630000  1.0 -0.6373530107
O  O1063  1  0.87370000  0.09130000  0.70730000  1.0 -0.6373530107
O  O1064  1  0.32770000  0.70730000  0.09130000  1.0 -0.6373530107
O  O1065  1  0.62500000  0.31800000  0.12500000  1.0 -1.1480532872
O  O1066  1  0.31800000  0.12500000  0.62500000  1.0 -1.1480532872
O  O1067  1  0.93200000  0.12500000  0.31800000  1.0 -1.1480532872
O  O1068  1  0.12500000  0.62500000  0.31800000  1.0 -1.1480532872
O  O1069  1  0.31800000  0.62500000  0.93200000  1.0 -1.1480532872
O  O1070  1  0.62500000  0.93200000  0.31800000  1.0 -1.1480532872
O  O1071  1  0.31800000  0.93200000  0.12500000  1.0 -1.1480532872
O  O1072  1  0.12500000  0.31800000  0.93200000  1.0 -1.1480532872
O  O1073  1  0.12500000  0.93200000  0.62500000  1.0 -1.1480532872
O  O1074  1  0.62500000  0.12500000  0.93200000  1.0 -1.1480532872
O  O1075  1  0.93200000  0.62500000  0.12500000  1.0 -1.1480532872
O  O1076  1  0.93200000  0.31800000  0.62500000  1.0 -1.1480532872
O  O1077  1  0.62500000  0.93200000  0.12500000  1.0 -1.1480532872
O  O1078  1  0.93200000  0.12500000  0.62500000  1.0 -1.1480532872
O  O1079  1  0.31800000  0.12500000  0.93200000  1.0 -1.1480532872
O  O1080  1  0.12500000  0.62500000  0.93200000  1.0 -1.1480532872
O  O1081  1  0.93200000  0.62500000  0.31800000  1.0 -1.1480532872
O  O1082  1  0.62500000  0.31800000  0.93200000  1.0 -1.1480532872
O  O1083  1  0.93200000  0.31800000  0.12500000  1.0 -1.1480532872
O  O1084  1  0.12500000  0.93200000  0.31800000  1.0 -1.1480532872
O  O1085  1  0.12500000  0.31800000  0.62500000  1.0 -1.1480532872
O  O1086  1  0.62500000  0.12500000  0.31800000  1.0 -1.1480532872
O  O1087  1  0.31800000  0.62500000  0.12500000  1.0 -1.1480532872
O  O1088  1  0.31800000  0.93200000  0.62500000  1.0 -1.1480532872
