# DDEC6 charges by PACMAN v1.1 (https://github.com/mtap-research/PACMAN-charge/)
data_UDEMEW_ASR_pacman
_symmetry_space_group_name_H-M   'P 1'
_cell_length_a   51.55210000
_cell_length_b   51.55210000
_cell_length_c   51.55210000
_cell_angle_alpha   60.00000000
_cell_angle_beta   60.00000000
_cell_angle_gamma   60.00000000
_symmetry_Int_Tables_number   1
_chemical_formula_structural   Cr51H72(C18O13)17
_chemical_formula_sum   'Cr204 H288 C1224 O884'
_cell_volume   96877.75936957
_cell_formula_units_Z   4
loop_
 _symmetry_equiv_pos_site_id
 _symmetry_equiv_pos_as_xyz
  1  'x, y, z'
loop_
 _atom_site_type_symbol
 _atom_site_label
 _atom_site_symmetry_multiplicity
 _atom_site_fract_x
 _atom_site_fract_y
 _atom_site_fract_z
 _atom_site_occupancy
 _atom_site_charge
Cr  Cr1  1  0.74634000  0.89055000  0.95500000  1.0 1.5880611991
Cr  Cr2  1  0.58531000  0.13928000  0.92989000  1.0 1.6089276775
Cr  Cr3  1  0.89055000  0.74634000  0.40811000  1.0 1.5880611991
Cr  Cr4  1  0.13928000  0.58531000  0.34552000  1.0 1.6089276775
Cr  Cr5  1  0.95500000  0.40811000  0.74634000  1.0 1.5880611991
Cr  Cr6  1  0.92989000  0.34552000  0.58531000  1.0 1.6089276775
Cr  Cr7  1  0.40811000  0.95500000  0.89055000  1.0 1.5880611991
Cr  Cr8  1  0.34552000  0.92989000  0.13928000  1.0 1.6089276775
Cr  Cr9  1  0.95500000  0.74634000  0.89055000  1.0 1.5880611991
Cr  Cr10  1  0.92989000  0.58531000  0.13928000  1.0 1.6089276775
Cr  Cr11  1  0.40811000  0.89055000  0.74634000  1.0 1.5880611991
Cr  Cr12  1  0.34552000  0.13928000  0.58531000  1.0 1.6089276775
Cr  Cr13  1  0.74634000  0.95500000  0.40811000  1.0 1.5880611991
Cr  Cr14  1  0.58531000  0.92989000  0.34552000  1.0 1.6089276775
Cr  Cr15  1  0.89055000  0.40811000  0.95500000  1.0 1.5880611991
Cr  Cr16  1  0.13928000  0.34552000  0.92989000  1.0 1.6089276775
Cr  Cr17  1  0.89055000  0.95500000  0.74634000  1.0 1.5880611991
Cr  Cr18  1  0.13928000  0.92989000  0.58531000  1.0 1.6089276775
Cr  Cr19  1  0.74634000  0.40811000  0.89055000  1.0 1.5880611991
Cr  Cr20  1  0.58531000  0.34552000  0.13928000  1.0 1.6089276775
Cr  Cr21  1  0.40811000  0.74634000  0.95500000  1.0 1.5880611991
Cr  Cr22  1  0.34552000  0.58531000  0.92989000  1.0 1.6089276775
Cr  Cr23  1  0.95500000  0.89055000  0.40811000  1.0 1.5880611991
Cr  Cr24  1  0.92989000  0.13928000  0.34552000  1.0 1.6089276775
Cr  Cr25  1  0.50366000  0.35945000  0.84189000  1.0 1.5880611991
Cr  Cr26  1  0.66469000  0.11072000  0.90448000  1.0 1.6089276775
Cr  Cr27  1  0.35945000  0.50366000  0.29500000  1.0 1.5880611991
Cr  Cr28  1  0.11072000  0.66469000  0.32011000  1.0 1.6089276775
Cr  Cr29  1  0.29500000  0.84189000  0.35945000  1.0 1.5880611991
Cr  Cr30  1  0.32011000  0.90448000  0.11072000  1.0 1.6089276775
Cr  Cr31  1  0.84189000  0.29500000  0.50366000  1.0 1.5880611991
Cr  Cr32  1  0.90448000  0.32011000  0.66469000  1.0 1.6089276775
Cr  Cr33  1  0.29500000  0.50366000  0.84189000  1.0 1.5880611991
Cr  Cr34  1  0.32011000  0.66469000  0.90448000  1.0 1.6089276775
Cr  Cr35  1  0.84189000  0.35945000  0.29500000  1.0 1.5880611991
Cr  Cr36  1  0.90448000  0.11072000  0.32011000  1.0 1.6089276775
Cr  Cr37  1  0.50366000  0.29500000  0.35945000  1.0 1.5880611991
Cr  Cr38  1  0.66469000  0.32011000  0.11072000  1.0 1.6089276775
Cr  Cr39  1  0.35945000  0.84189000  0.50366000  1.0 1.5880611991
Cr  Cr40  1  0.11072000  0.90448000  0.66469000  1.0 1.6089276775
Cr  Cr41  1  0.35945000  0.29500000  0.84189000  1.0 1.5880611991
Cr  Cr42  1  0.11072000  0.32011000  0.90448000  1.0 1.6089276775
Cr  Cr43  1  0.50366000  0.84189000  0.29500000  1.0 1.5880611991
Cr  Cr44  1  0.66469000  0.90448000  0.32011000  1.0 1.6089276775
Cr  Cr45  1  0.84189000  0.50366000  0.35945000  1.0 1.5880611991
Cr  Cr46  1  0.90448000  0.66469000  0.11072000  1.0 1.6089276775
Cr  Cr47  1  0.29500000  0.35945000  0.50366000  1.0 1.5880611991
Cr  Cr48  1  0.32011000  0.11072000  0.66469000  1.0 1.6089276775
Cr  Cr49  1  0.50366000  0.35945000  0.29500000  1.0 1.5880611991
Cr  Cr50  1  0.66469000  0.11072000  0.32011000  1.0 1.6089276775
Cr  Cr51  1  0.35945000  0.50366000  0.84189000  1.0 1.5880611991
Cr  Cr52  1  0.11072000  0.66469000  0.90448000  1.0 1.6089276775
Cr  Cr53  1  0.29500000  0.84189000  0.50366000  1.0 1.5880611991
Cr  Cr54  1  0.32011000  0.90448000  0.66469000  1.0 1.6089276775
Cr  Cr55  1  0.84189000  0.29500000  0.35945000  1.0 1.5880611991
Cr  Cr56  1  0.90448000  0.32011000  0.11072000  1.0 1.6089276775
Cr  Cr57  1  0.29500000  0.50366000  0.35945000  1.0 1.5880611991
Cr  Cr58  1  0.32011000  0.66469000  0.11072000  1.0 1.6089276775
Cr  Cr59  1  0.84189000  0.35945000  0.50366000  1.0 1.5880611991
Cr  Cr60  1  0.90448000  0.11072000  0.66469000  1.0 1.6089276775
Cr  Cr61  1  0.50366000  0.29500000  0.84189000  1.0 1.5880611991
Cr  Cr62  1  0.66469000  0.32011000  0.90448000  1.0 1.6089276775
Cr  Cr63  1  0.35945000  0.84189000  0.29500000  1.0 1.5880611991
Cr  Cr64  1  0.11072000  0.90448000  0.32011000  1.0 1.6089276775
Cr  Cr65  1  0.35945000  0.29500000  0.50366000  1.0 1.5880611991
Cr  Cr66  1  0.11072000  0.32011000  0.66469000  1.0 1.6089276775
Cr  Cr67  1  0.50366000  0.84189000  0.35945000  1.0 1.5880611991
Cr  Cr68  1  0.66469000  0.90448000  0.11072000  1.0 1.6089276775
Cr  Cr69  1  0.84189000  0.50366000  0.29500000  1.0 1.5880611991
Cr  Cr70  1  0.90448000  0.66469000  0.32011000  1.0 1.6089276775
Cr  Cr71  1  0.29500000  0.35945000  0.84189000  1.0 1.5880611991
Cr  Cr72  1  0.32011000  0.11072000  0.90448000  1.0 1.6089276775
Cr  Cr73  1  0.74634000  0.89055000  0.40811000  1.0 1.5880611991
Cr  Cr74  1  0.58531000  0.13928000  0.34552000  1.0 1.6089276775
Cr  Cr75  1  0.89055000  0.74634000  0.95500000  1.0 1.5880611991
Cr  Cr76  1  0.13928000  0.58531000  0.92989000  1.0 1.6089276775
Cr  Cr77  1  0.95500000  0.40811000  0.89055000  1.0 1.5880611991
Cr  Cr78  1  0.92989000  0.34552000  0.13928000  1.0 1.6089276775
Cr  Cr79  1  0.40811000  0.95500000  0.74634000  1.0 1.5880611991
Cr  Cr80  1  0.34552000  0.92989000  0.58531000  1.0 1.6089276775
Cr  Cr81  1  0.95500000  0.74634000  0.40811000  1.0 1.5880611991
Cr  Cr82  1  0.92989000  0.58531000  0.34552000  1.0 1.6089276775
Cr  Cr83  1  0.40811000  0.89055000  0.95500000  1.0 1.5880611991
Cr  Cr84  1  0.34552000  0.13928000  0.92989000  1.0 1.6089276775
Cr  Cr85  1  0.74634000  0.95500000  0.89055000  1.0 1.5880611991
Cr  Cr86  1  0.58531000  0.92989000  0.13928000  1.0 1.6089276775
Cr  Cr87  1  0.89055000  0.40811000  0.74634000  1.0 1.5880611991
Cr  Cr88  1  0.13928000  0.34552000  0.58531000  1.0 1.6089276775
Cr  Cr89  1  0.89055000  0.95500000  0.40811000  1.0 1.5880611991
Cr  Cr90  1  0.13928000  0.92989000  0.34552000  1.0 1.6089276775
Cr  Cr91  1  0.74634000  0.40811000  0.95500000  1.0 1.5880611991
Cr  Cr92  1  0.58531000  0.34552000  0.92989000  1.0 1.6089276775
Cr  Cr93  1  0.40811000  0.74634000  0.89055000  1.0 1.5880611991
Cr  Cr94  1  0.34552000  0.58531000  0.13928000  1.0 1.6089276775
Cr  Cr95  1  0.95500000  0.89055000  0.74634000  1.0 1.5880611991
Cr  Cr96  1  0.92989000  0.13928000  0.58531000  1.0 1.6089276775
Cr  Cr97  1  0.75267000  0.81744000  0.81744000  1.0 1.5999515723
Cr  Cr98  1  0.70539000  0.91025000  0.91025000  1.0 1.6089276775
Cr  Cr99  1  0.81744000  0.75267000  0.61245000  1.0 1.5999515723
Cr  Cr100  1  0.91025000  0.70539000  0.47411000  1.0 1.6089276775
Cr  Cr101  1  0.81744000  0.61245000  0.75267000  1.0 1.5999515723
Cr  Cr102  1  0.91025000  0.47411000  0.70539000  1.0 1.6089276775
Cr  Cr103  1  0.61245000  0.81744000  0.81744000  1.0 1.5999515723
Cr  Cr104  1  0.47411000  0.91025000  0.91025000  1.0 1.6089276775
Cr  Cr105  1  0.81744000  0.75267000  0.81744000  1.0 1.5999515723
Cr  Cr106  1  0.91025000  0.70539000  0.91025000  1.0 1.6089276775
Cr  Cr107  1  0.61245000  0.81744000  0.75267000  1.0 1.5999515723
Cr  Cr108  1  0.47411000  0.91025000  0.70539000  1.0 1.6089276775
Cr  Cr109  1  0.75267000  0.81744000  0.61245000  1.0 1.5999515723
Cr  Cr110  1  0.70539000  0.91025000  0.47411000  1.0 1.6089276775
Cr  Cr111  1  0.81744000  0.61245000  0.81744000  1.0 1.5999515723
Cr  Cr112  1  0.91025000  0.47411000  0.91025000  1.0 1.6089276775
Cr  Cr113  1  0.81744000  0.81744000  0.75267000  1.0 1.5999515723
Cr  Cr114  1  0.91025000  0.91025000  0.70539000  1.0 1.6089276775
Cr  Cr115  1  0.75267000  0.61245000  0.81744000  1.0 1.5999515723
Cr  Cr116  1  0.70539000  0.47411000  0.91025000  1.0 1.6089276775
Cr  Cr117  1  0.61245000  0.75267000  0.81744000  1.0 1.5999515723
Cr  Cr118  1  0.47411000  0.70539000  0.91025000  1.0 1.6089276775
Cr  Cr119  1  0.81744000  0.81744000  0.61245000  1.0 1.5999515723
Cr  Cr120  1  0.91025000  0.91025000  0.47411000  1.0 1.6089276775
Cr  Cr121  1  0.49733000  0.43256000  0.63755000  1.0 1.5999515723
Cr  Cr122  1  0.54461000  0.33975000  0.77589000  1.0 1.6089276775
Cr  Cr123  1  0.43256000  0.49733000  0.43256000  1.0 1.5999515723
Cr  Cr124  1  0.33975000  0.54461000  0.33975000  1.0 1.6089276775
Cr  Cr125  1  0.43256000  0.63755000  0.43256000  1.0 1.5999515723
Cr  Cr126  1  0.33975000  0.77589000  0.33975000  1.0 1.6089276775
Cr  Cr127  1  0.63755000  0.43256000  0.49733000  1.0 1.5999515723
Cr  Cr128  1  0.77589000  0.33975000  0.54461000  1.0 1.6089276775
Cr  Cr129  1  0.43256000  0.49733000  0.63755000  1.0 1.5999515723
Cr  Cr130  1  0.33975000  0.54461000  0.77589000  1.0 1.6089276775
Cr  Cr131  1  0.63755000  0.43256000  0.43256000  1.0 1.5999515723
Cr  Cr132  1  0.77589000  0.33975000  0.33975000  1.0 1.6089276775
Cr  Cr133  1  0.49733000  0.43256000  0.43256000  1.0 1.5999515723
Cr  Cr134  1  0.54461000  0.33975000  0.33975000  1.0 1.6089276775
Cr  Cr135  1  0.43256000  0.63755000  0.49733000  1.0 1.5999515723
Cr  Cr136  1  0.33975000  0.77589000  0.54461000  1.0 1.6089276775
Cr  Cr137  1  0.43256000  0.43256000  0.63755000  1.0 1.5999515723
Cr  Cr138  1  0.33975000  0.33975000  0.77589000  1.0 1.6089276775
Cr  Cr139  1  0.49733000  0.63755000  0.43256000  1.0 1.5999515723
Cr  Cr140  1  0.54461000  0.77589000  0.33975000  1.0 1.6089276775
Cr  Cr141  1  0.63755000  0.49733000  0.43256000  1.0 1.5999515723
Cr  Cr142  1  0.77589000  0.54461000  0.33975000  1.0 1.6089276775
Cr  Cr143  1  0.43256000  0.43256000  0.49733000  1.0 1.5999515723
Cr  Cr144  1  0.33975000  0.33975000  0.54461000  1.0 1.6089276775
Cr  Cr145  1  0.53061000  0.96939000  0.96939000  1.0 1.5999515723
Cr  Cr146  1  0.96939000  0.53061000  0.53061000  1.0 1.5999515723
Cr  Cr147  1  0.96939000  0.53061000  0.96939000  1.0 1.5999515723
Cr  Cr148  1  0.53061000  0.96939000  0.53061000  1.0 1.5999515723
Cr  Cr149  1  0.96939000  0.96939000  0.53061000  1.0 1.5999515723
Cr  Cr150  1  0.53061000  0.53061000  0.96939000  1.0 1.5999515723
Cr  Cr151  1  0.71939000  0.28061000  0.71939000  1.0 1.5999515723
Cr  Cr152  1  0.28061000  0.71939000  0.28061000  1.0 1.5999515723
Cr  Cr153  1  0.28061000  0.71939000  0.71939000  1.0 1.5999515723
Cr  Cr154  1  0.71939000  0.28061000  0.28061000  1.0 1.5999515723
Cr  Cr155  1  0.28061000  0.28061000  0.71939000  1.0 1.5999515723
Cr  Cr156  1  0.71939000  0.71939000  0.28061000  1.0 1.5999515723
Cr  Cr157  1  0.49080000  0.04143000  0.97696000  1.0 1.5880611991
Cr  Cr158  1  0.04143000  0.49080000  0.49080000  1.0 1.5880611991
Cr  Cr159  1  0.97696000  0.49080000  0.49080000  1.0 1.5880611991
Cr  Cr160  1  0.49080000  0.97696000  0.04143000  1.0 1.5880611991
Cr  Cr161  1  0.97696000  0.49080000  0.04143000  1.0 1.5880611991
Cr  Cr162  1  0.49080000  0.04143000  0.49080000  1.0 1.5880611991
Cr  Cr163  1  0.49080000  0.97696000  0.49080000  1.0 1.5880611991
Cr  Cr164  1  0.04143000  0.49080000  0.97696000  1.0 1.5880611991
Cr  Cr165  1  0.04143000  0.97696000  0.49080000  1.0 1.5880611991
Cr  Cr166  1  0.49080000  0.49080000  0.04143000  1.0 1.5880611991
Cr  Cr167  1  0.49080000  0.49080000  0.97696000  1.0 1.5880611991
Cr  Cr168  1  0.97696000  0.04143000  0.49080000  1.0 1.5880611991
Cr  Cr169  1  0.75920000  0.20857000  0.75920000  1.0 1.5880611991
Cr  Cr170  1  0.20857000  0.75920000  0.27304000  1.0 1.5880611991
Cr  Cr171  1  0.27304000  0.75920000  0.20857000  1.0 1.5880611991
Cr  Cr172  1  0.75920000  0.27304000  0.75920000  1.0 1.5880611991
Cr  Cr173  1  0.27304000  0.75920000  0.75920000  1.0 1.5880611991
Cr  Cr174  1  0.75920000  0.20857000  0.27304000  1.0 1.5880611991
Cr  Cr175  1  0.75920000  0.27304000  0.20857000  1.0 1.5880611991
Cr  Cr176  1  0.20857000  0.75920000  0.75920000  1.0 1.5880611991
Cr  Cr177  1  0.20857000  0.27304000  0.75920000  1.0 1.5880611991
Cr  Cr178  1  0.75920000  0.75920000  0.27304000  1.0 1.5880611991
Cr  Cr179  1  0.75920000  0.75920000  0.20857000  1.0 1.5880611991
Cr  Cr180  1  0.27304000  0.20857000  0.75920000  1.0 1.5880611991
Cr  Cr181  1  0.27693000  0.97307000  0.12500000  1.0 1.5614735472
Cr  Cr182  1  0.97307000  0.27693000  0.62500000  1.0 1.5614735472
Cr  Cr183  1  0.12500000  0.62500000  0.27693000  1.0 1.5614735472
Cr  Cr184  1  0.62500000  0.12500000  0.97307000  1.0 1.5614735472
Cr  Cr185  1  0.12500000  0.27693000  0.97307000  1.0 1.5614735472
Cr  Cr186  1  0.62500000  0.97307000  0.27693000  1.0 1.5614735472
Cr  Cr187  1  0.27693000  0.12500000  0.62500000  1.0 1.5614735472
Cr  Cr188  1  0.97307000  0.62500000  0.12500000  1.0 1.5614735472
Cr  Cr189  1  0.97307000  0.12500000  0.27693000  1.0 1.5614735472
Cr  Cr190  1  0.27693000  0.62500000  0.97307000  1.0 1.5614735472
Cr  Cr191  1  0.62500000  0.27693000  0.12500000  1.0 1.5614735472
Cr  Cr192  1  0.12500000  0.97307000  0.62500000  1.0 1.5614735472
Cr  Cr193  1  0.97307000  0.27693000  0.12500000  1.0 1.5614735472
Cr  Cr194  1  0.27693000  0.97307000  0.62500000  1.0 1.5614735472
Cr  Cr195  1  0.12500000  0.62500000  0.97307000  1.0 1.5614735472
Cr  Cr196  1  0.62500000  0.12500000  0.27693000  1.0 1.5614735472
Cr  Cr197  1  0.12500000  0.97307000  0.27693000  1.0 1.5614735472
Cr  Cr198  1  0.62500000  0.27693000  0.97307000  1.0 1.5614735472
Cr  Cr199  1  0.97307000  0.12500000  0.62500000  1.0 1.5614735472
Cr  Cr200  1  0.27693000  0.62500000  0.12500000  1.0 1.5614735472
Cr  Cr201  1  0.27693000  0.12500000  0.97307000  1.0 1.5614735472
Cr  Cr202  1  0.97307000  0.62500000  0.27693000  1.0 1.5614735472
Cr  Cr203  1  0.62500000  0.97307000  0.12500000  1.0 1.5614735472
Cr  Cr204  1  0.12500000  0.27693000  0.62500000  1.0 1.5614735472
H  H1  1  0.39126000  0.08004000  0.99649000  1.0 0.1120458071
H  H2  1  0.74397000  0.82719000  0.89547000  1.0 0.1120458071
H  H3  1  0.67161000  0.03685000  0.88891000  1.0 0.1120458071
H  H4  1  0.56957000  0.07194000  0.92615000  1.0 0.1120458071
H  H5  1  0.61811000  0.97973000  0.91544000  1.0 0.1120458071
H  H6  1  0.71339000  0.01907000  0.93592000  1.0 0.1120458071
H  H7  1  0.08004000  0.39126000  0.53221000  1.0 0.1120458071
H  H8  1  0.82719000  0.74397000  0.53337000  1.0 0.1120458071
H  H9  1  0.03685000  0.67161000  0.40263000  1.0 0.1120458071
H  H10  1  0.07194000  0.56957000  0.43234000  1.0 0.1120458071
H  H11  1  0.97973000  0.61811000  0.48672000  1.0 0.1120458071
H  H12  1  0.01907000  0.71339000  0.33162000  1.0 0.1120458071
H  H13  1  0.99649000  0.53221000  0.39126000  1.0 0.1120458071
H  H14  1  0.89547000  0.53337000  0.74397000  1.0 0.1120458071
H  H15  1  0.88891000  0.40263000  0.67161000  1.0 0.1120458071
H  H16  1  0.92615000  0.43234000  0.56957000  1.0 0.1120458071
H  H17  1  0.91544000  0.48672000  0.61811000  1.0 0.1120458071
H  H18  1  0.93592000  0.33162000  0.71339000  1.0 0.1120458071
H  H19  1  0.53221000  0.99649000  0.08004000  1.0 0.1120458071
H  H20  1  0.53337000  0.89547000  0.82719000  1.0 0.1120458071
H  H21  1  0.40263000  0.88891000  0.03685000  1.0 0.1120458071
H  H22  1  0.43234000  0.92615000  0.07194000  1.0 0.1120458071
H  H23  1  0.48672000  0.91544000  0.97973000  1.0 0.1120458071
H  H24  1  0.33162000  0.93592000  0.01907000  1.0 0.1120458071
H  H25  1  0.99649000  0.39126000  0.08004000  1.0 0.1120458071
H  H26  1  0.89547000  0.74397000  0.82719000  1.0 0.1120458071
H  H27  1  0.88891000  0.67161000  0.03685000  1.0 0.1120458071
H  H28  1  0.92615000  0.56957000  0.07194000  1.0 0.1120458071
H  H29  1  0.91544000  0.61811000  0.97973000  1.0 0.1120458071
H  H30  1  0.93592000  0.71339000  0.01907000  1.0 0.1120458071
H  H31  1  0.53221000  0.08004000  0.39126000  1.0 0.1120458071
H  H32  1  0.53337000  0.82719000  0.74397000  1.0 0.1120458071
H  H33  1  0.40263000  0.03685000  0.67161000  1.0 0.1120458071
H  H34  1  0.43234000  0.07194000  0.56957000  1.0 0.1120458071
H  H35  1  0.48672000  0.97973000  0.61811000  1.0 0.1120458071
H  H36  1  0.33162000  0.01907000  0.71339000  1.0 0.1120458071
H  H37  1  0.39126000  0.99649000  0.53221000  1.0 0.1120458071
H  H38  1  0.74397000  0.89547000  0.53337000  1.0 0.1120458071
H  H39  1  0.67161000  0.88891000  0.40263000  1.0 0.1120458071
H  H40  1  0.56957000  0.92615000  0.43234000  1.0 0.1120458071
H  H41  1  0.61811000  0.91544000  0.48672000  1.0 0.1120458071
H  H42  1  0.71339000  0.93592000  0.33162000  1.0 0.1120458071
H  H43  1  0.08004000  0.53221000  0.99649000  1.0 0.1120458071
H  H44  1  0.82719000  0.53337000  0.89547000  1.0 0.1120458071
H  H45  1  0.03685000  0.40263000  0.88891000  1.0 0.1120458071
H  H46  1  0.07194000  0.43234000  0.92615000  1.0 0.1120458071
H  H47  1  0.97973000  0.48672000  0.91544000  1.0 0.1120458071
H  H48  1  0.01907000  0.33162000  0.93592000  1.0 0.1120458071
H  H49  1  0.08004000  0.99649000  0.39126000  1.0 0.1120458071
H  H50  1  0.82719000  0.89547000  0.74397000  1.0 0.1120458071
H  H51  1  0.03685000  0.88891000  0.67161000  1.0 0.1120458071
H  H52  1  0.07194000  0.92615000  0.56957000  1.0 0.1120458071
H  H53  1  0.97973000  0.91544000  0.61811000  1.0 0.1120458071
H  H54  1  0.01907000  0.93592000  0.71339000  1.0 0.1120458071
H  H55  1  0.39126000  0.53221000  0.08004000  1.0 0.1120458071
H  H56  1  0.74397000  0.53337000  0.82719000  1.0 0.1120458071
H  H57  1  0.67161000  0.40263000  0.03685000  1.0 0.1120458071
H  H58  1  0.56957000  0.43234000  0.07194000  1.0 0.1120458071
H  H59  1  0.61811000  0.48672000  0.97973000  1.0 0.1120458071
H  H60  1  0.71339000  0.33162000  0.01907000  1.0 0.1120458071
H  H61  1  0.53221000  0.39126000  0.99649000  1.0 0.1120458071
H  H62  1  0.53337000  0.74397000  0.89547000  1.0 0.1120458071
H  H63  1  0.40263000  0.67161000  0.88891000  1.0 0.1120458071
H  H64  1  0.43234000  0.56957000  0.92615000  1.0 0.1120458071
H  H65  1  0.48672000  0.61811000  0.91544000  1.0 0.1120458071
H  H66  1  0.33162000  0.71339000  0.93592000  1.0 0.1120458071
H  H67  1  0.99649000  0.08004000  0.53221000  1.0 0.1120458071
H  H68  1  0.89547000  0.82719000  0.53337000  1.0 0.1120458071
H  H69  1  0.88891000  0.03685000  0.40263000  1.0 0.1120458071
H  H70  1  0.92615000  0.07194000  0.43234000  1.0 0.1120458071
H  H71  1  0.91544000  0.97973000  0.48672000  1.0 0.1120458071
H  H72  1  0.93592000  0.01907000  0.33162000  1.0 0.1120458071
H  H73  1  0.85874000  0.16996000  0.71779000  1.0 0.1120458071
H  H74  1  0.50603000  0.42281000  0.71663000  1.0 0.1120458071
H  H75  1  0.57839000  0.21315000  0.84737000  1.0 0.1120458071
H  H76  1  0.68043000  0.17806000  0.81766000  1.0 0.1120458071
H  H77  1  0.63189000  0.27027000  0.76328000  1.0 0.1120458071
H  H78  1  0.53661000  0.23093000  0.91838000  1.0 0.1120458071
H  H79  1  0.16996000  0.85874000  0.25351000  1.0 0.1120458071
H  H80  1  0.42281000  0.50603000  0.35453000  1.0 0.1120458071
H  H81  1  0.21315000  0.57839000  0.36109000  1.0 0.1120458071
H  H82  1  0.17806000  0.68043000  0.32385000  1.0 0.1120458071
H  H83  1  0.27027000  0.63189000  0.33456000  1.0 0.1120458071
H  H84  1  0.23093000  0.53661000  0.31408000  1.0 0.1120458071
H  H85  1  0.25351000  0.71779000  0.16996000  1.0 0.1120458071
H  H86  1  0.35453000  0.71663000  0.42281000  1.0 0.1120458071
H  H87  1  0.36109000  0.84737000  0.21315000  1.0 0.1120458071
H  H88  1  0.32385000  0.81766000  0.17806000  1.0 0.1120458071
H  H89  1  0.33456000  0.76328000  0.27027000  1.0 0.1120458071
H  H90  1  0.31408000  0.91838000  0.23093000  1.0 0.1120458071
H  H91  1  0.71779000  0.25351000  0.85874000  1.0 0.1120458071
H  H92  1  0.71663000  0.35453000  0.50603000  1.0 0.1120458071
H  H93  1  0.84737000  0.36109000  0.57839000  1.0 0.1120458071
H  H94  1  0.81766000  0.32385000  0.68043000  1.0 0.1120458071
H  H95  1  0.76328000  0.33456000  0.63189000  1.0 0.1120458071
H  H96  1  0.91838000  0.31408000  0.53661000  1.0 0.1120458071
H  H97  1  0.25351000  0.85874000  0.71779000  1.0 0.1120458071
H  H98  1  0.35453000  0.50603000  0.71663000  1.0 0.1120458071
H  H99  1  0.36109000  0.57839000  0.84737000  1.0 0.1120458071
H  H100  1  0.32385000  0.68043000  0.81766000  1.0 0.1120458071
H  H101  1  0.33456000  0.63189000  0.76328000  1.0 0.1120458071
H  H102  1  0.31408000  0.53661000  0.91838000  1.0 0.1120458071
H  H103  1  0.71779000  0.16996000  0.25351000  1.0 0.1120458071
H  H104  1  0.71663000  0.42281000  0.35453000  1.0 0.1120458071
H  H105  1  0.84737000  0.21315000  0.36109000  1.0 0.1120458071
H  H106  1  0.81766000  0.17806000  0.32385000  1.0 0.1120458071
H  H107  1  0.76328000  0.27027000  0.33456000  1.0 0.1120458071
H  H108  1  0.91838000  0.23093000  0.31408000  1.0 0.1120458071
H  H109  1  0.85874000  0.25351000  0.16996000  1.0 0.1120458071
H  H110  1  0.50603000  0.35453000  0.42281000  1.0 0.1120458071
H  H111  1  0.57839000  0.36109000  0.21315000  1.0 0.1120458071
H  H112  1  0.68043000  0.32385000  0.17806000  1.0 0.1120458071
H  H113  1  0.63189000  0.33456000  0.27027000  1.0 0.1120458071
H  H114  1  0.53661000  0.31408000  0.23093000  1.0 0.1120458071
H  H115  1  0.16996000  0.71779000  0.85874000  1.0 0.1120458071
H  H116  1  0.42281000  0.71663000  0.50603000  1.0 0.1120458071
H  H117  1  0.21315000  0.84737000  0.57839000  1.0 0.1120458071
H  H118  1  0.17806000  0.81766000  0.68043000  1.0 0.1120458071
H  H119  1  0.27027000  0.76328000  0.63189000  1.0 0.1120458071
H  H120  1  0.23093000  0.91838000  0.53661000  1.0 0.1120458071
H  H121  1  0.16996000  0.25351000  0.71779000  1.0 0.1120458071
H  H122  1  0.42281000  0.35453000  0.71663000  1.0 0.1120458071
H  H123  1  0.21315000  0.36109000  0.84737000  1.0 0.1120458071
H  H124  1  0.17806000  0.32385000  0.81766000  1.0 0.1120458071
H  H125  1  0.27027000  0.33456000  0.76328000  1.0 0.1120458071
H  H126  1  0.23093000  0.31408000  0.91838000  1.0 0.1120458071
H  H127  1  0.85874000  0.71779000  0.25351000  1.0 0.1120458071
H  H128  1  0.50603000  0.71663000  0.35453000  1.0 0.1120458071
H  H129  1  0.57839000  0.84737000  0.36109000  1.0 0.1120458071
H  H130  1  0.68043000  0.81766000  0.32385000  1.0 0.1120458071
H  H131  1  0.63189000  0.76328000  0.33456000  1.0 0.1120458071
H  H132  1  0.53661000  0.91838000  0.31408000  1.0 0.1120458071
H  H133  1  0.71779000  0.85874000  0.16996000  1.0 0.1120458071
H  H134  1  0.71663000  0.50603000  0.42281000  1.0 0.1120458071
H  H135  1  0.84737000  0.57839000  0.21315000  1.0 0.1120458071
H  H136  1  0.81766000  0.68043000  0.17806000  1.0 0.1120458071
H  H137  1  0.76328000  0.63189000  0.27027000  1.0 0.1120458071
H  H138  1  0.91838000  0.53661000  0.23093000  1.0 0.1120458071
H  H139  1  0.25351000  0.16996000  0.85874000  1.0 0.1120458071
H  H140  1  0.35453000  0.42281000  0.50603000  1.0 0.1120458071
H  H141  1  0.36109000  0.21315000  0.57839000  1.0 0.1120458071
H  H142  1  0.32385000  0.17806000  0.68043000  1.0 0.1120458071
H  H143  1  0.33456000  0.27027000  0.63189000  1.0 0.1120458071
H  H144  1  0.31408000  0.23093000  0.53661000  1.0 0.1120458071
H  H145  1  0.85874000  0.16996000  0.25351000  1.0 0.1120458071
H  H146  1  0.50603000  0.42281000  0.35453000  1.0 0.1120458071
H  H147  1  0.57839000  0.21315000  0.36109000  1.0 0.1120458071
H  H148  1  0.68043000  0.17806000  0.32385000  1.0 0.1120458071
H  H149  1  0.63189000  0.27027000  0.33456000  1.0 0.1120458071
H  H150  1  0.53661000  0.23093000  0.31408000  1.0 0.1120458071
H  H151  1  0.16996000  0.85874000  0.71779000  1.0 0.1120458071
H  H152  1  0.42281000  0.50603000  0.71663000  1.0 0.1120458071
H  H153  1  0.21315000  0.57839000  0.84737000  1.0 0.1120458071
H  H154  1  0.17806000  0.68043000  0.81766000  1.0 0.1120458071
H  H155  1  0.27027000  0.63189000  0.76328000  1.0 0.1120458071
H  H156  1  0.23093000  0.53661000  0.91838000  1.0 0.1120458071
H  H157  1  0.25351000  0.71779000  0.85874000  1.0 0.1120458071
H  H158  1  0.35453000  0.71663000  0.50603000  1.0 0.1120458071
H  H159  1  0.36109000  0.84737000  0.57839000  1.0 0.1120458071
H  H160  1  0.32385000  0.81766000  0.68043000  1.0 0.1120458071
H  H161  1  0.33456000  0.76328000  0.63189000  1.0 0.1120458071
H  H162  1  0.31408000  0.91838000  0.53661000  1.0 0.1120458071
H  H163  1  0.71779000  0.25351000  0.16996000  1.0 0.1120458071
H  H164  1  0.71663000  0.35453000  0.42281000  1.0 0.1120458071
H  H165  1  0.84737000  0.36109000  0.21315000  1.0 0.1120458071
H  H166  1  0.81766000  0.32385000  0.17806000  1.0 0.1120458071
H  H167  1  0.76328000  0.33456000  0.27027000  1.0 0.1120458071
H  H168  1  0.91838000  0.31408000  0.23093000  1.0 0.1120458071
H  H169  1  0.25351000  0.85874000  0.16996000  1.0 0.1120458071
H  H170  1  0.35453000  0.50603000  0.42281000  1.0 0.1120458071
H  H171  1  0.36109000  0.57839000  0.21315000  1.0 0.1120458071
H  H172  1  0.32385000  0.68043000  0.17806000  1.0 0.1120458071
H  H173  1  0.33456000  0.63189000  0.27027000  1.0 0.1120458071
H  H174  1  0.31408000  0.53661000  0.23093000  1.0 0.1120458071
H  H175  1  0.71779000  0.16996000  0.85874000  1.0 0.1120458071
H  H176  1  0.71663000  0.42281000  0.50603000  1.0 0.1120458071
H  H177  1  0.84737000  0.21315000  0.57839000  1.0 0.1120458071
H  H178  1  0.81766000  0.17806000  0.68043000  1.0 0.1120458071
H  H179  1  0.76328000  0.27027000  0.63189000  1.0 0.1120458071
H  H180  1  0.91838000  0.23093000  0.53661000  1.0 0.1120458071
H  H181  1  0.85874000  0.25351000  0.71779000  1.0 0.1120458071
H  H182  1  0.50603000  0.35453000  0.71663000  1.0 0.1120458071
H  H183  1  0.57839000  0.36109000  0.84737000  1.0 0.1120458071
H  H184  1  0.68043000  0.32385000  0.81766000  1.0 0.1120458071
H  H185  1  0.63189000  0.33456000  0.76328000  1.0 0.1120458071
H  H186  1  0.53661000  0.31408000  0.91838000  1.0 0.1120458071
H  H187  1  0.16996000  0.71779000  0.25351000  1.0 0.1120458071
H  H188  1  0.42281000  0.71663000  0.35453000  1.0 0.1120458071
H  H189  1  0.21315000  0.84737000  0.36109000  1.0 0.1120458071
H  H190  1  0.17806000  0.81766000  0.32385000  1.0 0.1120458071
H  H191  1  0.27027000  0.76328000  0.33456000  1.0 0.1120458071
H  H192  1  0.23093000  0.91838000  0.31408000  1.0 0.1120458071
H  H193  1  0.16996000  0.25351000  0.85874000  1.0 0.1120458071
H  H194  1  0.42281000  0.35453000  0.50603000  1.0 0.1120458071
H  H195  1  0.21315000  0.36109000  0.57839000  1.0 0.1120458071
H  H196  1  0.17806000  0.32385000  0.68043000  1.0 0.1120458071
H  H197  1  0.27027000  0.33456000  0.63189000  1.0 0.1120458071
H  H198  1  0.23093000  0.31408000  0.53661000  1.0 0.1120458071
H  H199  1  0.85874000  0.71779000  0.16996000  1.0 0.1120458071
H  H200  1  0.50603000  0.71663000  0.42281000  1.0 0.1120458071
H  H201  1  0.57839000  0.84737000  0.21315000  1.0 0.1120458071
H  H202  1  0.68043000  0.81766000  0.17806000  1.0 0.1120458071
H  H203  1  0.63189000  0.76328000  0.27027000  1.0 0.1120458071
H  H204  1  0.53661000  0.91838000  0.23093000  1.0 0.1120458071
H  H205  1  0.71779000  0.85874000  0.25351000  1.0 0.1120458071
H  H206  1  0.71663000  0.50603000  0.35453000  1.0 0.1120458071
H  H207  1  0.84737000  0.57839000  0.36109000  1.0 0.1120458071
H  H208  1  0.81766000  0.68043000  0.32385000  1.0 0.1120458071
H  H209  1  0.76328000  0.63189000  0.33456000  1.0 0.1120458071
H  H210  1  0.91838000  0.53661000  0.31408000  1.0 0.1120458071
H  H211  1  0.25351000  0.16996000  0.71779000  1.0 0.1120458071
H  H212  1  0.35453000  0.42281000  0.71663000  1.0 0.1120458071
H  H213  1  0.36109000  0.21315000  0.84737000  1.0 0.1120458071
H  H214  1  0.32385000  0.17806000  0.81766000  1.0 0.1120458071
H  H215  1  0.33456000  0.27027000  0.76328000  1.0 0.1120458071
H  H216  1  0.31408000  0.23093000  0.91838000  1.0 0.1120458071
H  H217  1  0.39126000  0.08004000  0.53221000  1.0 0.1120458071
H  H218  1  0.74397000  0.82719000  0.53337000  1.0 0.1120458071
H  H219  1  0.67161000  0.03685000  0.40263000  1.0 0.1120458071
H  H220  1  0.56957000  0.07194000  0.43234000  1.0 0.1120458071
H  H221  1  0.61811000  0.97973000  0.48672000  1.0 0.1120458071
H  H222  1  0.71339000  0.01907000  0.33162000  1.0 0.1120458071
H  H223  1  0.08004000  0.39126000  0.99649000  1.0 0.1120458071
H  H224  1  0.82719000  0.74397000  0.89547000  1.0 0.1120458071
H  H225  1  0.03685000  0.67161000  0.88891000  1.0 0.1120458071
H  H226  1  0.07194000  0.56957000  0.92615000  1.0 0.1120458071
H  H227  1  0.97973000  0.61811000  0.91544000  1.0 0.1120458071
H  H228  1  0.01907000  0.71339000  0.93592000  1.0 0.1120458071
H  H229  1  0.99649000  0.53221000  0.08004000  1.0 0.1120458071
H  H230  1  0.89547000  0.53337000  0.82719000  1.0 0.1120458071
H  H231  1  0.88891000  0.40263000  0.03685000  1.0 0.1120458071
H  H232  1  0.92615000  0.43234000  0.07194000  1.0 0.1120458071
H  H233  1  0.91544000  0.48672000  0.97973000  1.0 0.1120458071
H  H234  1  0.93592000  0.33162000  0.01907000  1.0 0.1120458071
H  H235  1  0.53221000  0.99649000  0.39126000  1.0 0.1120458071
H  H236  1  0.53337000  0.89547000  0.74397000  1.0 0.1120458071
H  H237  1  0.40263000  0.88891000  0.67161000  1.0 0.1120458071
H  H238  1  0.43234000  0.92615000  0.56957000  1.0 0.1120458071
H  H239  1  0.48672000  0.91544000  0.61811000  1.0 0.1120458071
H  H240  1  0.33162000  0.93592000  0.71339000  1.0 0.1120458071
H  H241  1  0.99649000  0.39126000  0.53221000  1.0 0.1120458071
H  H242  1  0.89547000  0.74397000  0.53337000  1.0 0.1120458071
H  H243  1  0.88891000  0.67161000  0.40263000  1.0 0.1120458071
H  H244  1  0.92615000  0.56957000  0.43234000  1.0 0.1120458071
H  H245  1  0.91544000  0.61811000  0.48672000  1.0 0.1120458071
H  H246  1  0.93592000  0.71339000  0.33162000  1.0 0.1120458071
H  H247  1  0.53221000  0.08004000  0.99649000  1.0 0.1120458071
H  H248  1  0.53337000  0.82719000  0.89547000  1.0 0.1120458071
H  H249  1  0.40263000  0.03685000  0.88891000  1.0 0.1120458071
H  H250  1  0.43234000  0.07194000  0.92615000  1.0 0.1120458071
H  H251  1  0.48672000  0.97973000  0.91544000  1.0 0.1120458071
H  H252  1  0.33162000  0.01907000  0.93592000  1.0 0.1120458071
H  H253  1  0.39126000  0.99649000  0.08004000  1.0 0.1120458071
H  H254  1  0.74397000  0.89547000  0.82719000  1.0 0.1120458071
H  H255  1  0.67161000  0.88891000  0.03685000  1.0 0.1120458071
H  H256  1  0.56957000  0.92615000  0.07194000  1.0 0.1120458071
H  H257  1  0.61811000  0.91544000  0.97973000  1.0 0.1120458071
H  H258  1  0.71339000  0.93592000  0.01907000  1.0 0.1120458071
H  H259  1  0.08004000  0.53221000  0.39126000  1.0 0.1120458071
H  H260  1  0.82719000  0.53337000  0.74397000  1.0 0.1120458071
H  H261  1  0.03685000  0.40263000  0.67161000  1.0 0.1120458071
H  H262  1  0.07194000  0.43234000  0.56957000  1.0 0.1120458071
H  H263  1  0.97973000  0.48672000  0.61811000  1.0 0.1120458071
H  H264  1  0.01907000  0.33162000  0.71339000  1.0 0.1120458071
H  H265  1  0.08004000  0.99649000  0.53221000  1.0 0.1120458071
H  H266  1  0.82719000  0.89547000  0.53337000  1.0 0.1120458071
H  H267  1  0.03685000  0.88891000  0.40263000  1.0 0.1120458071
H  H268  1  0.07194000  0.92615000  0.43234000  1.0 0.1120458071
H  H269  1  0.97973000  0.91544000  0.48672000  1.0 0.1120458071
H  H270  1  0.01907000  0.93592000  0.33162000  1.0 0.1120458071
H  H271  1  0.39126000  0.53221000  0.99649000  1.0 0.1120458071
H  H272  1  0.74397000  0.53337000  0.89547000  1.0 0.1120458071
H  H273  1  0.67161000  0.40263000  0.88891000  1.0 0.1120458071
H  H274  1  0.56957000  0.43234000  0.92615000  1.0 0.1120458071
H  H275  1  0.61811000  0.48672000  0.91544000  1.0 0.1120458071
H  H276  1  0.71339000  0.33162000  0.93592000  1.0 0.1120458071
H  H277  1  0.53221000  0.39126000  0.08004000  1.0 0.1120458071
H  H278  1  0.53337000  0.74397000  0.82719000  1.0 0.1120458071
H  H279  1  0.40263000  0.67161000  0.03685000  1.0 0.1120458071
H  H280  1  0.43234000  0.56957000  0.07194000  1.0 0.1120458071
H  H281  1  0.48672000  0.61811000  0.97973000  1.0 0.1120458071
H  H282  1  0.33162000  0.71339000  0.01907000  1.0 0.1120458071
H  H283  1  0.99649000  0.08004000  0.39126000  1.0 0.1120458071
H  H284  1  0.89547000  0.82719000  0.74397000  1.0 0.1120458071
H  H285  1  0.88891000  0.03685000  0.67161000  1.0 0.1120458071
H  H286  1  0.92615000  0.07194000  0.56957000  1.0 0.1120458071
H  H287  1  0.91544000  0.97973000  0.61811000  1.0 0.1120458071
H  H288  1  0.93592000  0.01907000  0.71339000  1.0 0.1120458071
C  C1  1  0.37864000  0.06475000  0.01749000  1.0 -0.1071942596
C  C2  1  0.34622000  0.07125000  0.02258000  1.0 -0.060658876
C  C3  1  0.33057000  0.09781000  0.99719000  1.0 0.6298589973
C  C4  1  0.76349000  0.81042000  0.90451000  1.0 -0.0815406929
C  C5  1  0.76901000  0.81651000  0.92482000  1.0 -0.0924933774
C  C6  1  0.75053000  0.84750000  0.93060000  1.0 0.6101473818
C  C7  1  0.64847000  0.00575000  0.90025000  1.0 -0.060658876
C  C8  1  0.64899000  0.03414000  0.89694000  1.0 -0.0815406929
C  C9  1  0.62094000  0.05793000  0.90647000  1.0 -0.060658876
C  C10  1  0.59130000  0.05401000  0.91785000  1.0 -0.0924933774
C  C11  1  0.58959000  0.02608000  0.92083000  1.0 -0.060658876
C  C12  1  0.61864000  0.00208000  0.91177000  1.0 -0.0924933774
C  C13  1  0.55833000  0.01976000  0.93795000  1.0 0.6101473818
C  C14  1  0.62301000  0.08460000  0.90853000  1.0 0.6023470412
C  C15  1  0.67891000  0.97844000  0.89695000  1.0 0.6101473818
C  C16  1  0.68853000  0.02860000  0.98047000  1.0 -0.0815406929
C  C17  1  0.70729000  0.00846000  0.96148000  1.0 -0.0924933774
C  C18  1  0.57534000  0.18578000  0.95360000  1.0 0.6298589973
C  C19  1  0.06475000  0.37864000  0.53912000  1.0 -0.1071942596
C  C20  1  0.07125000  0.34622000  0.55995000  1.0 -0.060658876
C  C21  1  0.09781000  0.33057000  0.57443000  1.0 0.6298589973
C  C22  1  0.81042000  0.76349000  0.52158000  1.0 -0.0815406929
C  C23  1  0.81651000  0.76901000  0.48966000  1.0 -0.0815406929
C  C24  1  0.84750000  0.75053000  0.47137000  1.0 0.6101473818
C  C25  1  0.00575000  0.64847000  0.44553000  1.0 -0.060658876
C  C26  1  0.03414000  0.64899000  0.41993000  1.0 -0.0815406929
C  C27  1  0.05793000  0.62094000  0.41466000  1.0 -0.060658876
C  C28  1  0.05401000  0.59130000  0.43684000  1.0 -0.0924933774
C  C29  1  0.02608000  0.58959000  0.46350000  1.0 -0.060658876
C  C30  1  0.00208000  0.61864000  0.46751000  1.0 -0.0924933774
C  C31  1  0.01976000  0.55833000  0.48396000  1.0 0.6101473818
C  C32  1  0.08460000  0.62301000  0.38386000  1.0 0.6023470412
C  C33  1  0.97844000  0.67891000  0.44570000  1.0 0.6101473818
C  C34  1  0.02860000  0.68853000  0.30240000  1.0 -0.0815406929
C  C35  1  0.00846000  0.70729000  0.32277000  1.0 -0.0924933774
C  C36  1  0.18578000  0.57534000  0.28528000  1.0 0.6298589973
C  C37  1  0.01749000  0.53912000  0.37864000  1.0 -0.1071942596
C  C38  1  0.02258000  0.55995000  0.34622000  1.0 -0.060658876
C  C39  1  0.99719000  0.57443000  0.33057000  1.0 0.6298589973
C  C40  1  0.90451000  0.52158000  0.76349000  1.0 -0.0815406929
C  C41  1  0.92482000  0.48966000  0.76901000  1.0 -0.0815406929
C  C42  1  0.93060000  0.47137000  0.75053000  1.0 0.6101473818
C  C43  1  0.90025000  0.44553000  0.64847000  1.0 -0.060658876
C  C44  1  0.89694000  0.41993000  0.64899000  1.0 -0.0815406929
C  C45  1  0.90647000  0.41466000  0.62094000  1.0 -0.060658876
C  C46  1  0.91785000  0.43684000  0.59130000  1.0 -0.0924933774
C  C47  1  0.92083000  0.46350000  0.58959000  1.0 -0.060658876
C  C48  1  0.91177000  0.46751000  0.61864000  1.0 -0.0924933774
C  C49  1  0.93795000  0.48396000  0.55833000  1.0 0.6101473818
C  C50  1  0.90853000  0.38386000  0.62301000  1.0 0.6023470412
C  C51  1  0.89695000  0.44570000  0.67891000  1.0 0.6101473818
C  C52  1  0.98047000  0.30240000  0.68853000  1.0 -0.0815406929
C  C53  1  0.96148000  0.32277000  0.70729000  1.0 -0.0924933774
C  C54  1  0.95360000  0.28528000  0.57534000  1.0 0.6298589973
C  C55  1  0.53912000  0.01749000  0.06475000  1.0 -0.1071942596
C  C56  1  0.55995000  0.02258000  0.07125000  1.0 -0.060658876
C  C57  1  0.57443000  0.99719000  0.09781000  1.0 0.6298589973
C  C58  1  0.52158000  0.90451000  0.81042000  1.0 -0.0815406929
C  C59  1  0.48966000  0.92482000  0.81651000  1.0 -0.0924933774
C  C60  1  0.47137000  0.93060000  0.84750000  1.0 0.6101473818
C  C61  1  0.44553000  0.90025000  0.00575000  1.0 -0.060658876
C  C62  1  0.41993000  0.89694000  0.03414000  1.0 -0.0815406929
C  C63  1  0.41466000  0.90647000  0.05793000  1.0 -0.060658876
C  C64  1  0.43684000  0.91785000  0.05401000  1.0 -0.0924933774
C  C65  1  0.46350000  0.92083000  0.02608000  1.0 -0.060658876
C  C66  1  0.46751000  0.91177000  0.00208000  1.0 -0.0924933774
C  C67  1  0.48396000  0.93795000  0.01976000  1.0 0.6101473818
C  C68  1  0.38386000  0.90853000  0.08460000  1.0 0.6023470412
C  C69  1  0.44570000  0.89695000  0.97844000  1.0 0.6101473818
C  C70  1  0.30240000  0.98047000  0.02860000  1.0 -0.0815406929
C  C71  1  0.32277000  0.96148000  0.00846000  1.0 -0.0924933774
C  C72  1  0.28528000  0.95360000  0.18578000  1.0 0.6298589973
C  C73  1  0.01749000  0.37864000  0.06475000  1.0 -0.1071942596
C  C74  1  0.02258000  0.34622000  0.07125000  1.0 -0.060658876
C  C75  1  0.99719000  0.33057000  0.09781000  1.0 0.6298589973
C  C76  1  0.90451000  0.76349000  0.81042000  1.0 -0.0815406929
C  C77  1  0.92482000  0.76901000  0.81651000  1.0 -0.0924933774
C  C78  1  0.93060000  0.75053000  0.84750000  1.0 0.6101473818
C  C79  1  0.90025000  0.64847000  0.00575000  1.0 -0.060658876
C  C80  1  0.89694000  0.64899000  0.03414000  1.0 -0.0815406929
C  C81  1  0.90647000  0.62094000  0.05793000  1.0 -0.060658876
C  C82  1  0.91785000  0.59130000  0.05401000  1.0 -0.0924933774
C  C83  1  0.92083000  0.58959000  0.02608000  1.0 -0.060658876
C  C84  1  0.91177000  0.61864000  0.00208000  1.0 -0.0924933774
C  C85  1  0.93795000  0.55833000  0.01976000  1.0 0.6101473818
C  C86  1  0.90853000  0.62301000  0.08460000  1.0 0.6023470412
C  C87  1  0.89695000  0.67891000  0.97844000  1.0 0.6101473818
C  C88  1  0.98047000  0.68853000  0.02860000  1.0 -0.0815406929
C  C89  1  0.96148000  0.70729000  0.00846000  1.0 -0.0924933774
C  C90  1  0.95360000  0.57534000  0.18578000  1.0 0.6298589973
C  C91  1  0.53912000  0.06475000  0.37864000  1.0 -0.1071942596
C  C92  1  0.55995000  0.07125000  0.34622000  1.0 -0.060658876
C  C93  1  0.57443000  0.09781000  0.33057000  1.0 0.6298589973
C  C94  1  0.52158000  0.81042000  0.76349000  1.0 -0.0815406929
C  C95  1  0.48966000  0.81651000  0.76901000  1.0 -0.0924933774
C  C96  1  0.47137000  0.84750000  0.75053000  1.0 0.6101473818
C  C97  1  0.44553000  0.00575000  0.64847000  1.0 -0.060658876
C  C98  1  0.41993000  0.03414000  0.64899000  1.0 -0.0815406929
C  C99  1  0.41466000  0.05793000  0.62094000  1.0 -0.060658876
C  C100  1  0.43684000  0.05401000  0.59130000  1.0 -0.0924933774
C  C101  1  0.46350000  0.02608000  0.58959000  1.0 -0.060658876
C  C102  1  0.46751000  0.00208000  0.61864000  1.0 -0.0924933774
C  C103  1  0.48396000  0.01976000  0.55833000  1.0 0.6101473818
C  C104  1  0.38386000  0.08460000  0.62301000  1.0 0.6023470412
C  C105  1  0.44570000  0.97844000  0.67891000  1.0 0.6101473818
C  C106  1  0.30240000  0.02860000  0.68853000  1.0 -0.0815406929
C  C107  1  0.32277000  0.00846000  0.70729000  1.0 -0.0924933774
C  C108  1  0.28528000  0.18578000  0.57534000  1.0 0.6298589973
C  C109  1  0.37864000  0.01749000  0.53912000  1.0 -0.1071942596
C  C110  1  0.34622000  0.02258000  0.55995000  1.0 -0.060658876
C  C111  1  0.33057000  0.99719000  0.57443000  1.0 0.6298589973
C  C112  1  0.76349000  0.90451000  0.52158000  1.0 -0.0815406929
C  C113  1  0.76901000  0.92482000  0.48966000  1.0 -0.0815406929
C  C114  1  0.75053000  0.93060000  0.47137000  1.0 0.6101473818
C  C115  1  0.64847000  0.90025000  0.44553000  1.0 -0.060658876
C  C116  1  0.64899000  0.89694000  0.41993000  1.0 -0.0815406929
C  C117  1  0.62094000  0.90647000  0.41466000  1.0 -0.060658876
C  C118  1  0.59130000  0.91785000  0.43684000  1.0 -0.0924933774
C  C119  1  0.58959000  0.92083000  0.46350000  1.0 -0.060658876
C  C120  1  0.61864000  0.91177000  0.46751000  1.0 -0.0924933774
C  C121  1  0.55833000  0.93795000  0.48396000  1.0 0.6101473818
C  C122  1  0.62301000  0.90853000  0.38386000  1.0 0.6023470412
C  C123  1  0.67891000  0.89695000  0.44570000  1.0 0.6101473818
C  C124  1  0.68853000  0.98047000  0.30240000  1.0 -0.0815406929
C  C125  1  0.70729000  0.96148000  0.32277000  1.0 -0.0924933774
C  C126  1  0.57534000  0.95360000  0.28528000  1.0 0.6298589973
C  C127  1  0.06475000  0.53912000  0.01749000  1.0 -0.1071942596
C  C128  1  0.07125000  0.55995000  0.02258000  1.0 -0.060658876
C  C129  1  0.09781000  0.57443000  0.99719000  1.0 0.6298589973
C  C130  1  0.81042000  0.52158000  0.90451000  1.0 -0.0815406929
C  C131  1  0.81651000  0.48966000  0.92482000  1.0 -0.0815406929
C  C132  1  0.84750000  0.47137000  0.93060000  1.0 0.6101473818
C  C133  1  0.00575000  0.44553000  0.90025000  1.0 -0.060658876
C  C134  1  0.03414000  0.41993000  0.89694000  1.0 -0.0815406929
C  C135  1  0.05793000  0.41466000  0.90647000  1.0 -0.060658876
C  C136  1  0.05401000  0.43684000  0.91785000  1.0 -0.0924933774
C  C137  1  0.02608000  0.46350000  0.92083000  1.0 -0.060658876
C  C138  1  0.00208000  0.46751000  0.91177000  1.0 -0.0924933774
C  C139  1  0.01976000  0.48396000  0.93795000  1.0 0.6101473818
C  C140  1  0.08460000  0.38386000  0.90853000  1.0 0.6023470412
C  C141  1  0.97844000  0.44570000  0.89695000  1.0 0.6101473818
C  C142  1  0.02860000  0.30240000  0.98047000  1.0 -0.0815406929
C  C143  1  0.00846000  0.32277000  0.96148000  1.0 -0.0924933774
C  C144  1  0.18578000  0.28528000  0.95360000  1.0 0.6298589973
C  C145  1  0.06475000  0.01749000  0.37864000  1.0 -0.1071942596
C  C146  1  0.07125000  0.02258000  0.34622000  1.0 -0.060658876
C  C147  1  0.09781000  0.99719000  0.33057000  1.0 0.6298589973
C  C148  1  0.81042000  0.90451000  0.76349000  1.0 -0.0815406929
C  C149  1  0.81651000  0.92482000  0.76901000  1.0 -0.0815406929
C  C150  1  0.84750000  0.93060000  0.75053000  1.0 0.6101473818
C  C151  1  0.00575000  0.90025000  0.64847000  1.0 -0.060658876
C  C152  1  0.03414000  0.89694000  0.64899000  1.0 -0.0815406929
C  C153  1  0.05793000  0.90647000  0.62094000  1.0 -0.060658876
C  C154  1  0.05401000  0.91785000  0.59130000  1.0 -0.0924933774
C  C155  1  0.02608000  0.92083000  0.58959000  1.0 -0.060658876
C  C156  1  0.00208000  0.91177000  0.61864000  1.0 -0.0924933774
C  C157  1  0.01976000  0.93795000  0.55833000  1.0 0.6101473818
C  C158  1  0.08460000  0.90853000  0.62301000  1.0 0.6023470412
C  C159  1  0.97844000  0.89695000  0.67891000  1.0 0.6101473818
C  C160  1  0.02860000  0.98047000  0.68853000  1.0 -0.0815406929
C  C161  1  0.00846000  0.96148000  0.70729000  1.0 -0.0924933774
C  C162  1  0.18578000  0.95360000  0.57534000  1.0 0.6298589973
C  C163  1  0.37864000  0.53912000  0.06475000  1.0 -0.1071942596
C  C164  1  0.34622000  0.55995000  0.07125000  1.0 -0.060658876
C  C165  1  0.33057000  0.57443000  0.09781000  1.0 0.6298589973
C  C166  1  0.76349000  0.52158000  0.81042000  1.0 -0.0815406929
C  C167  1  0.76901000  0.48966000  0.81651000  1.0 -0.0815406929
C  C168  1  0.75053000  0.47137000  0.84750000  1.0 0.6101473818
C  C169  1  0.64847000  0.44553000  0.00575000  1.0 -0.060658876
C  C170  1  0.64899000  0.41993000  0.03414000  1.0 -0.0815406929
C  C171  1  0.62094000  0.41466000  0.05793000  1.0 -0.060658876
C  C172  1  0.59130000  0.43684000  0.05401000  1.0 -0.0924933774
C  C173  1  0.58959000  0.46350000  0.02608000  1.0 -0.060658876
C  C174  1  0.61864000  0.46751000  0.00208000  1.0 -0.0924933774
C  C175  1  0.55833000  0.48396000  0.01976000  1.0 0.6101473818
C  C176  1  0.62301000  0.38386000  0.08460000  1.0 0.6023470412
C  C177  1  0.67891000  0.44570000  0.97844000  1.0 0.6101473818
C  C178  1  0.68853000  0.30240000  0.02860000  1.0 -0.0815406929
C  C179  1  0.70729000  0.32277000  0.00846000  1.0 -0.0924933774
C  C180  1  0.57534000  0.28528000  0.18578000  1.0 0.6298589973
C  C181  1  0.53912000  0.37864000  0.01749000  1.0 -0.1071942596
C  C182  1  0.55995000  0.34622000  0.02258000  1.0 -0.060658876
C  C183  1  0.57443000  0.33057000  0.99719000  1.0 0.6298589973
C  C184  1  0.52158000  0.76349000  0.90451000  1.0 -0.0815406929
C  C185  1  0.48966000  0.76901000  0.92482000  1.0 -0.0924933774
C  C186  1  0.47137000  0.75053000  0.93060000  1.0 0.6101473818
C  C187  1  0.44553000  0.64847000  0.90025000  1.0 -0.060658876
C  C188  1  0.41993000  0.64899000  0.89694000  1.0 -0.0815406929
C  C189  1  0.41466000  0.62094000  0.90647000  1.0 -0.060658876
C  C190  1  0.43684000  0.59130000  0.91785000  1.0 -0.0924933774
C  C191  1  0.46350000  0.58959000  0.92083000  1.0 -0.060658876
C  C192  1  0.46751000  0.61864000  0.91177000  1.0 -0.0924933774
C  C193  1  0.48396000  0.55833000  0.93795000  1.0 0.6101473818
C  C194  1  0.38386000  0.62301000  0.90853000  1.0 0.6023470412
C  C195  1  0.44570000  0.67891000  0.89695000  1.0 0.6101473818
C  C196  1  0.30240000  0.68853000  0.98047000  1.0 -0.0815406929
C  C197  1  0.32277000  0.70729000  0.96148000  1.0 -0.0924933774
C  C198  1  0.28528000  0.57534000  0.95360000  1.0 0.6298589973
C  C199  1  0.01749000  0.06475000  0.53912000  1.0 -0.1071942596
C  C200  1  0.02258000  0.07125000  0.55995000  1.0 -0.060658876
C  C201  1  0.99719000  0.09781000  0.57443000  1.0 0.6298589973
C  C202  1  0.90451000  0.81042000  0.52158000  1.0 -0.0815406929
C  C203  1  0.92482000  0.81651000  0.48966000  1.0 -0.0815406929
C  C204  1  0.93060000  0.84750000  0.47137000  1.0 0.6101473818
C  C205  1  0.90025000  0.00575000  0.44553000  1.0 -0.060658876
C  C206  1  0.89694000  0.03414000  0.41993000  1.0 -0.0815406929
C  C207  1  0.90647000  0.05793000  0.41466000  1.0 -0.060658876
C  C208  1  0.91785000  0.05401000  0.43684000  1.0 -0.0924933774
C  C209  1  0.92083000  0.02608000  0.46350000  1.0 -0.060658876
C  C210  1  0.91177000  0.00208000  0.46751000  1.0 -0.0924933774
C  C211  1  0.93795000  0.01976000  0.48396000  1.0 0.6101473818
C  C212  1  0.90853000  0.08460000  0.38386000  1.0 0.6023470412
C  C213  1  0.89695000  0.97844000  0.44570000  1.0 0.6101473818
C  C214  1  0.98047000  0.02860000  0.30240000  1.0 -0.0815406929
C  C215  1  0.96148000  0.00846000  0.32277000  1.0 -0.0924933774
C  C216  1  0.95360000  0.18578000  0.28528000  1.0 0.6298589973
C  C217  1  0.87136000  0.18525000  0.71088000  1.0 -0.1071942596
C  C218  1  0.90378000  0.17875000  0.69005000  1.0 -0.060658876
C  C219  1  0.91943000  0.15219000  0.67557000  1.0 0.6298589973
C  C220  1  0.48651000  0.43958000  0.72842000  1.0 -0.0815406929
C  C221  1  0.48099000  0.43349000  0.76034000  1.0 -0.0815406929
C  C222  1  0.49947000  0.40250000  0.77863000  1.0 0.6101473818
C  C223  1  0.60153000  0.24425000  0.80447000  1.0 -0.060658876
C  C224  1  0.60101000  0.21586000  0.83007000  1.0 -0.0815406929
C  C225  1  0.62906000  0.19207000  0.83534000  1.0 -0.060658876
C  C226  1  0.65870000  0.19599000  0.81316000  1.0 -0.0924933774
C  C227  1  0.66041000  0.22392000  0.78650000  1.0 -0.060658876
C  C228  1  0.63136000  0.24792000  0.78249000  1.0 -0.0924933774
C  C229  1  0.69167000  0.23024000  0.76604000  1.0 0.6101473818
C  C230  1  0.62699000  0.16540000  0.86614000  1.0 0.6023470412
C  C231  1  0.57109000  0.27156000  0.80430000  1.0 0.6101473818
C  C232  1  0.56147000  0.22140000  0.94760000  1.0 -0.0815406929
C  C233  1  0.54271000  0.24154000  0.92723000  1.0 -0.0924933774
C  C234  1  0.67466000  0.06422000  0.96472000  1.0 0.6298589973
C  C235  1  0.18525000  0.87136000  0.23251000  1.0 -0.1071942596
C  C236  1  0.17875000  0.90378000  0.22742000  1.0 -0.060658876
C  C237  1  0.15219000  0.91943000  0.25281000  1.0 0.6298589973
C  C238  1  0.43958000  0.48651000  0.34549000  1.0 -0.0815406929
C  C239  1  0.43349000  0.48099000  0.32518000  1.0 -0.0815406929
C  C240  1  0.40250000  0.49947000  0.31940000  1.0 0.6101473818
C  C241  1  0.24425000  0.60153000  0.34975000  1.0 -0.060658876
C  C242  1  0.21586000  0.60101000  0.35306000  1.0 -0.0815406929
C  C243  1  0.19207000  0.62906000  0.34353000  1.0 -0.060658876
C  C244  1  0.19599000  0.65870000  0.33215000  1.0 -0.0924933774
C  C245  1  0.22392000  0.66041000  0.32917000  1.0 -0.060658876
C  C246  1  0.24792000  0.63136000  0.33823000  1.0 -0.0924933774
C  C247  1  0.23024000  0.69167000  0.31205000  1.0 0.6101473818
C  C248  1  0.16540000  0.62699000  0.34147000  1.0 0.6023470412
C  C249  1  0.27156000  0.57109000  0.35305000  1.0 0.6101473818
C  C250  1  0.22140000  0.56147000  0.26953000  1.0 -0.0815406929
C  C251  1  0.24154000  0.54271000  0.28852000  1.0 -0.0924933774
C  C252  1  0.06422000  0.67466000  0.29640000  1.0 0.6298589973
C  C253  1  0.23251000  0.71088000  0.18525000  1.0 -0.1071942596
C  C254  1  0.22742000  0.69005000  0.17875000  1.0 -0.060658876
C  C255  1  0.25281000  0.67557000  0.15219000  1.0 0.6298589973
C  C256  1  0.34549000  0.72842000  0.43958000  1.0 -0.0815406929
C  C257  1  0.32518000  0.76034000  0.43349000  1.0 -0.0815406929
C  C258  1  0.31940000  0.77863000  0.40250000  1.0 0.6101473818
C  C259  1  0.34975000  0.80447000  0.24425000  1.0 -0.060658876
C  C260  1  0.35306000  0.83007000  0.21586000  1.0 -0.0815406929
C  C261  1  0.34353000  0.83534000  0.19207000  1.0 -0.060658876
C  C262  1  0.33215000  0.81316000  0.19599000  1.0 -0.0924933774
C  C263  1  0.32917000  0.78650000  0.22392000  1.0 -0.060658876
C  C264  1  0.33823000  0.78249000  0.24792000  1.0 -0.0924933774
C  C265  1  0.31205000  0.76604000  0.23024000  1.0 0.6101473818
C  C266  1  0.34147000  0.86614000  0.16540000  1.0 0.6023470412
C  C267  1  0.35305000  0.80430000  0.27156000  1.0 0.6101473818
C  C268  1  0.26953000  0.94760000  0.22140000  1.0 -0.0815406929
C  C269  1  0.28852000  0.92723000  0.24154000  1.0 -0.0924933774
C  C270  1  0.29640000  0.96472000  0.06422000  1.0 0.6298589973
C  C271  1  0.71088000  0.23251000  0.87136000  1.0 -0.1071942596
C  C272  1  0.69005000  0.22742000  0.90378000  1.0 -0.060658876
C  C273  1  0.67557000  0.25281000  0.91943000  1.0 0.6298589973
C  C274  1  0.72842000  0.34549000  0.48651000  1.0 -0.0815406929
C  C275  1  0.76034000  0.32518000  0.48099000  1.0 -0.0815406929
C  C276  1  0.77863000  0.31940000  0.49947000  1.0 0.6101473818
C  C277  1  0.80447000  0.34975000  0.60153000  1.0 -0.060658876
C  C278  1  0.83007000  0.35306000  0.60101000  1.0 -0.0815406929
C  C279  1  0.83534000  0.34353000  0.62906000  1.0 -0.060658876
C  C280  1  0.81316000  0.33215000  0.65870000  1.0 -0.0924933774
C  C281  1  0.78650000  0.32917000  0.66041000  1.0 -0.060658876
C  C282  1  0.78249000  0.33823000  0.63136000  1.0 -0.0924933774
C  C283  1  0.76604000  0.31205000  0.69167000  1.0 0.6101473818
C  C284  1  0.86614000  0.34147000  0.62699000  1.0 0.6023470412
C  C285  1  0.80430000  0.35305000  0.57109000  1.0 0.6101473818
C  C286  1  0.94760000  0.26953000  0.56147000  1.0 -0.0815406929
C  C287  1  0.92723000  0.28852000  0.54271000  1.0 -0.0924933774
C  C288  1  0.96472000  0.29640000  0.67466000  1.0 0.6298589973
C  C289  1  0.23251000  0.87136000  0.71088000  1.0 -0.1071942596
C  C290  1  0.22742000  0.90378000  0.69005000  1.0 -0.060658876
C  C291  1  0.25281000  0.91943000  0.67557000  1.0 0.6298589973
C  C292  1  0.34549000  0.48651000  0.72842000  1.0 -0.0815406929
C  C293  1  0.32518000  0.48099000  0.76034000  1.0 -0.0815406929
C  C294  1  0.31940000  0.49947000  0.77863000  1.0 0.6101473818
C  C295  1  0.34975000  0.60153000  0.80447000  1.0 -0.060658876
C  C296  1  0.35306000  0.60101000  0.83007000  1.0 -0.0815406929
C  C297  1  0.34353000  0.62906000  0.83534000  1.0 -0.060658876
C  C298  1  0.33215000  0.65870000  0.81316000  1.0 -0.0924933774
C  C299  1  0.32917000  0.66041000  0.78650000  1.0 -0.060658876
C  C300  1  0.33823000  0.63136000  0.78249000  1.0 -0.0924933774
C  C301  1  0.31205000  0.69167000  0.76604000  1.0 0.6101473818
C  C302  1  0.34147000  0.62699000  0.86614000  1.0 0.6023470412
C  C303  1  0.35305000  0.57109000  0.80430000  1.0 0.6101473818
C  C304  1  0.26953000  0.56147000  0.94760000  1.0 -0.0815406929
C  C305  1  0.28852000  0.54271000  0.92723000  1.0 -0.0924933774
C  C306  1  0.29640000  0.67466000  0.96472000  1.0 0.6298589973
C  C307  1  0.71088000  0.18525000  0.23251000  1.0 -0.1071942596
C  C308  1  0.69005000  0.17875000  0.22742000  1.0 -0.060658876
C  C309  1  0.67557000  0.15219000  0.25281000  1.0 0.6298589973
C  C310  1  0.72842000  0.43958000  0.34549000  1.0 -0.0815406929
C  C311  1  0.76034000  0.43349000  0.32518000  1.0 -0.0815406929
C  C312  1  0.77863000  0.40250000  0.31940000  1.0 0.6101473818
C  C313  1  0.80447000  0.24425000  0.34975000  1.0 -0.060658876
C  C314  1  0.83007000  0.21586000  0.35306000  1.0 -0.0815406929
C  C315  1  0.83534000  0.19207000  0.34353000  1.0 -0.060658876
C  C316  1  0.81316000  0.19599000  0.33215000  1.0 -0.0924933774
C  C317  1  0.78650000  0.22392000  0.32917000  1.0 -0.060658876
C  C318  1  0.78249000  0.24792000  0.33823000  1.0 -0.0924933774
C  C319  1  0.76604000  0.23024000  0.31205000  1.0 0.6101473818
C  C320  1  0.86614000  0.16540000  0.34147000  1.0 0.6023470412
C  C321  1  0.80430000  0.27156000  0.35305000  1.0 0.6101473818
C  C322  1  0.94760000  0.22140000  0.26953000  1.0 -0.0815406929
C  C323  1  0.92723000  0.24154000  0.28852000  1.0 -0.0924933774
C  C324  1  0.96472000  0.06422000  0.29640000  1.0 0.6298589973
C  C325  1  0.87136000  0.23251000  0.18525000  1.0 -0.1071942596
C  C326  1  0.90378000  0.22742000  0.17875000  1.0 -0.060658876
C  C327  1  0.91943000  0.25281000  0.15219000  1.0 0.6298589973
C  C328  1  0.48651000  0.34549000  0.43958000  1.0 -0.0815406929
C  C329  1  0.48099000  0.32518000  0.43349000  1.0 -0.0815406929
C  C330  1  0.49947000  0.31940000  0.40250000  1.0 0.6101473818
C  C331  1  0.60153000  0.34975000  0.24425000  1.0 -0.060658876
C  C332  1  0.60101000  0.35306000  0.21586000  1.0 -0.0815406929
C  C333  1  0.62906000  0.34353000  0.19207000  1.0 -0.060658876
C  C334  1  0.65870000  0.33215000  0.19599000  1.0 -0.0924933774
C  C335  1  0.66041000  0.32917000  0.22392000  1.0 -0.060658876
C  C336  1  0.63136000  0.33823000  0.24792000  1.0 -0.0924933774
C  C337  1  0.69167000  0.31205000  0.23024000  1.0 0.6101473818
C  C338  1  0.62699000  0.34147000  0.16540000  1.0 0.6023470412
C  C339  1  0.57109000  0.35305000  0.27156000  1.0 0.6101473818
C  C340  1  0.56147000  0.26953000  0.22140000  1.0 -0.0815406929
C  C341  1  0.54271000  0.28852000  0.24154000  1.0 -0.0924933774
C  C342  1  0.67466000  0.29640000  0.06422000  1.0 0.6298589973
C  C343  1  0.18525000  0.71088000  0.87136000  1.0 -0.1071942596
C  C344  1  0.17875000  0.69005000  0.90378000  1.0 -0.060658876
C  C345  1  0.15219000  0.67557000  0.91943000  1.0 0.6298589973
C  C346  1  0.43958000  0.72842000  0.48651000  1.0 -0.0815406929
C  C347  1  0.43349000  0.76034000  0.48099000  1.0 -0.0815406929
C  C348  1  0.40250000  0.77863000  0.49947000  1.0 0.6101473818
C  C349  1  0.24425000  0.80447000  0.60153000  1.0 -0.060658876
C  C350  1  0.21586000  0.83007000  0.60101000  1.0 -0.0815406929
C  C351  1  0.19207000  0.83534000  0.62906000  1.0 -0.060658876
C  C352  1  0.19599000  0.81316000  0.65870000  1.0 -0.0924933774
C  C353  1  0.22392000  0.78650000  0.66041000  1.0 -0.060658876
C  C354  1  0.24792000  0.78249000  0.63136000  1.0 -0.0924933774
C  C355  1  0.23024000  0.76604000  0.69167000  1.0 0.6101473818
C  C356  1  0.16540000  0.86614000  0.62699000  1.0 0.6023470412
C  C357  1  0.27156000  0.80430000  0.57109000  1.0 0.6101473818
C  C358  1  0.22140000  0.94760000  0.56147000  1.0 -0.0815406929
C  C359  1  0.24154000  0.92723000  0.54271000  1.0 -0.0924933774
C  C360  1  0.06422000  0.96472000  0.67466000  1.0 0.6298589973
C  C361  1  0.18525000  0.23251000  0.71088000  1.0 -0.1071942596
C  C362  1  0.17875000  0.22742000  0.69005000  1.0 -0.060658876
C  C363  1  0.15219000  0.25281000  0.67557000  1.0 0.6298589973
C  C364  1  0.43958000  0.34549000  0.72842000  1.0 -0.0815406929
C  C365  1  0.43349000  0.32518000  0.76034000  1.0 -0.0815406929
C  C366  1  0.40250000  0.31940000  0.77863000  1.0 0.6101473818
C  C367  1  0.24425000  0.34975000  0.80447000  1.0 -0.060658876
C  C368  1  0.21586000  0.35306000  0.83007000  1.0 -0.0815406929
C  C369  1  0.19207000  0.34353000  0.83534000  1.0 -0.060658876
C  C370  1  0.19599000  0.33215000  0.81316000  1.0 -0.0924933774
C  C371  1  0.22392000  0.32917000  0.78650000  1.0 -0.060658876
C  C372  1  0.24792000  0.33823000  0.78249000  1.0 -0.0924933774
C  C373  1  0.23024000  0.31205000  0.76604000  1.0 0.6101473818
C  C374  1  0.16540000  0.34147000  0.86614000  1.0 0.6023470412
C  C375  1  0.27156000  0.35305000  0.80430000  1.0 0.6101473818
C  C376  1  0.22140000  0.26953000  0.94760000  1.0 -0.0815406929
C  C377  1  0.24154000  0.28852000  0.92723000  1.0 -0.0924933774
C  C378  1  0.06422000  0.29640000  0.96472000  1.0 0.6298589973
C  C379  1  0.87136000  0.71088000  0.23251000  1.0 -0.1071942596
C  C380  1  0.90378000  0.69005000  0.22742000  1.0 -0.060658876
C  C381  1  0.91943000  0.67557000  0.25281000  1.0 0.6298589973
C  C382  1  0.48651000  0.72842000  0.34549000  1.0 -0.0815406929
C  C383  1  0.48099000  0.76034000  0.32518000  1.0 -0.0815406929
C  C384  1  0.49947000  0.77863000  0.31940000  1.0 0.6101473818
C  C385  1  0.60153000  0.80447000  0.34975000  1.0 -0.060658876
C  C386  1  0.60101000  0.83007000  0.35306000  1.0 -0.0815406929
C  C387  1  0.62906000  0.83534000  0.34353000  1.0 -0.060658876
C  C388  1  0.65870000  0.81316000  0.33215000  1.0 -0.0924933774
C  C389  1  0.66041000  0.78650000  0.32917000  1.0 -0.060658876
C  C390  1  0.63136000  0.78249000  0.33823000  1.0 -0.0924933774
C  C391  1  0.69167000  0.76604000  0.31205000  1.0 0.6101473818
C  C392  1  0.62699000  0.86614000  0.34147000  1.0 0.6023470412
C  C393  1  0.57109000  0.80430000  0.35305000  1.0 0.6101473818
C  C394  1  0.56147000  0.94760000  0.26953000  1.0 -0.0815406929
C  C395  1  0.54271000  0.92723000  0.28852000  1.0 -0.0924933774
C  C396  1  0.67466000  0.96472000  0.29640000  1.0 0.6298589973
C  C397  1  0.71088000  0.87136000  0.18525000  1.0 -0.1071942596
C  C398  1  0.69005000  0.90378000  0.17875000  1.0 -0.060658876
C  C399  1  0.67557000  0.91943000  0.15219000  1.0 0.6298589973
C  C400  1  0.72842000  0.48651000  0.43958000  1.0 -0.0815406929
C  C401  1  0.76034000  0.48099000  0.43349000  1.0 -0.0815406929
C  C402  1  0.77863000  0.49947000  0.40250000  1.0 0.6101473818
C  C403  1  0.80447000  0.60153000  0.24425000  1.0 -0.060658876
C  C404  1  0.83007000  0.60101000  0.21586000  1.0 -0.0815406929
C  C405  1  0.83534000  0.62906000  0.19207000  1.0 -0.060658876
C  C406  1  0.81316000  0.65870000  0.19599000  1.0 -0.0924933774
C  C407  1  0.78650000  0.66041000  0.22392000  1.0 -0.060658876
C  C408  1  0.78249000  0.63136000  0.24792000  1.0 -0.0924933774
C  C409  1  0.76604000  0.69167000  0.23024000  1.0 0.6101473818
C  C410  1  0.86614000  0.62699000  0.16540000  1.0 0.6023470412
C  C411  1  0.80430000  0.57109000  0.27156000  1.0 0.6101473818
C  C412  1  0.94760000  0.56147000  0.22140000  1.0 -0.0815406929
C  C413  1  0.92723000  0.54271000  0.24154000  1.0 -0.0924933774
C  C414  1  0.96472000  0.67466000  0.06422000  1.0 0.6298589973
C  C415  1  0.23251000  0.18525000  0.87136000  1.0 -0.1071942596
C  C416  1  0.22742000  0.17875000  0.90378000  1.0 -0.060658876
C  C417  1  0.25281000  0.15219000  0.91943000  1.0 0.6298589973
C  C418  1  0.34549000  0.43958000  0.48651000  1.0 -0.0815406929
C  C419  1  0.32518000  0.43349000  0.48099000  1.0 -0.0815406929
C  C420  1  0.31940000  0.40250000  0.49947000  1.0 0.6101473818
C  C421  1  0.34975000  0.24425000  0.60153000  1.0 -0.060658876
C  C422  1  0.35306000  0.21586000  0.60101000  1.0 -0.0815406929
C  C423  1  0.34353000  0.19207000  0.62906000  1.0 -0.060658876
C  C424  1  0.33215000  0.19599000  0.65870000  1.0 -0.0924933774
C  C425  1  0.32917000  0.22392000  0.66041000  1.0 -0.060658876
C  C426  1  0.33823000  0.24792000  0.63136000  1.0 -0.0924933774
C  C427  1  0.31205000  0.23024000  0.69167000  1.0 0.6101473818
C  C428  1  0.34147000  0.16540000  0.62699000  1.0 0.6023470412
C  C429  1  0.35305000  0.27156000  0.57109000  1.0 0.6101473818
C  C430  1  0.26953000  0.22140000  0.56147000  1.0 -0.0815406929
C  C431  1  0.28852000  0.24154000  0.54271000  1.0 -0.0924933774
C  C432  1  0.29640000  0.06422000  0.67466000  1.0 0.6298589973
C  C433  1  0.87136000  0.18525000  0.23251000  1.0 -0.1071942596
C  C434  1  0.90378000  0.17875000  0.22742000  1.0 -0.060658876
C  C435  1  0.91943000  0.15219000  0.25281000  1.0 0.6298589973
C  C436  1  0.48651000  0.43958000  0.34549000  1.0 -0.0815406929
C  C437  1  0.48099000  0.43349000  0.32518000  1.0 -0.0815406929
C  C438  1  0.49947000  0.40250000  0.31940000  1.0 0.6101473818
C  C439  1  0.60153000  0.24425000  0.34975000  1.0 -0.060658876
C  C440  1  0.60101000  0.21586000  0.35306000  1.0 -0.0815406929
C  C441  1  0.62906000  0.19207000  0.34353000  1.0 -0.060658876
C  C442  1  0.65870000  0.19599000  0.33215000  1.0 -0.0924933774
C  C443  1  0.66041000  0.22392000  0.32917000  1.0 -0.060658876
C  C444  1  0.63136000  0.24792000  0.33823000  1.0 -0.0924933774
C  C445  1  0.69167000  0.23024000  0.31205000  1.0 0.6101473818
C  C446  1  0.62699000  0.16540000  0.34147000  1.0 0.6023470412
C  C447  1  0.57109000  0.27156000  0.35305000  1.0 0.6101473818
C  C448  1  0.56147000  0.22140000  0.26953000  1.0 -0.0815406929
C  C449  1  0.54271000  0.24154000  0.28852000  1.0 -0.0924933774
C  C450  1  0.67466000  0.06422000  0.29640000  1.0 0.6298589973
C  C451  1  0.18525000  0.87136000  0.71088000  1.0 -0.1071942596
C  C452  1  0.17875000  0.90378000  0.69005000  1.0 -0.060658876
C  C453  1  0.15219000  0.91943000  0.67557000  1.0 0.6298589973
C  C454  1  0.43958000  0.48651000  0.72842000  1.0 -0.0815406929
C  C455  1  0.43349000  0.48099000  0.76034000  1.0 -0.0815406929
C  C456  1  0.40250000  0.49947000  0.77863000  1.0 0.6101473818
C  C457  1  0.24425000  0.60153000  0.80447000  1.0 -0.060658876
C  C458  1  0.21586000  0.60101000  0.83007000  1.0 -0.0815406929
C  C459  1  0.19207000  0.62906000  0.83534000  1.0 -0.060658876
C  C460  1  0.19599000  0.65870000  0.81316000  1.0 -0.0924933774
C  C461  1  0.22392000  0.66041000  0.78650000  1.0 -0.060658876
C  C462  1  0.24792000  0.63136000  0.78249000  1.0 -0.0924933774
C  C463  1  0.23024000  0.69167000  0.76604000  1.0 0.6101473818
C  C464  1  0.16540000  0.62699000  0.86614000  1.0 0.6023470412
C  C465  1  0.27156000  0.57109000  0.80430000  1.0 0.6101473818
C  C466  1  0.22140000  0.56147000  0.94760000  1.0 -0.0815406929
C  C467  1  0.24154000  0.54271000  0.92723000  1.0 -0.0924933774
C  C468  1  0.06422000  0.67466000  0.96472000  1.0 0.6298589973
C  C469  1  0.23251000  0.71088000  0.87136000  1.0 -0.1071942596
C  C470  1  0.22742000  0.69005000  0.90378000  1.0 -0.060658876
C  C471  1  0.25281000  0.67557000  0.91943000  1.0 0.6298589973
C  C472  1  0.34549000  0.72842000  0.48651000  1.0 -0.0815406929
C  C473  1  0.32518000  0.76034000  0.48099000  1.0 -0.0815406929
C  C474  1  0.31940000  0.77863000  0.49947000  1.0 0.6101473818
C  C475  1  0.34975000  0.80447000  0.60153000  1.0 -0.060658876
C  C476  1  0.35306000  0.83007000  0.60101000  1.0 -0.0815406929
C  C477  1  0.34353000  0.83534000  0.62906000  1.0 -0.060658876
C  C478  1  0.33215000  0.81316000  0.65870000  1.0 -0.0924933774
C  C479  1  0.32917000  0.78650000  0.66041000  1.0 -0.060658876
C  C480  1  0.33823000  0.78249000  0.63136000  1.0 -0.0924933774
C  C481  1  0.31205000  0.76604000  0.69167000  1.0 0.6101473818
C  C482  1  0.34147000  0.86614000  0.62699000  1.0 0.6023470412
C  C483  1  0.35305000  0.80430000  0.57109000  1.0 0.6101473818
C  C484  1  0.26953000  0.94760000  0.56147000  1.0 -0.0815406929
C  C485  1  0.28852000  0.92723000  0.54271000  1.0 -0.0924933774
C  C486  1  0.29640000  0.96472000  0.67466000  1.0 0.6298589973
C  C487  1  0.71088000  0.23251000  0.18525000  1.0 -0.1071942596
C  C488  1  0.69005000  0.22742000  0.17875000  1.0 -0.060658876
C  C489  1  0.67557000  0.25281000  0.15219000  1.0 0.6298589973
C  C490  1  0.72842000  0.34549000  0.43958000  1.0 -0.0815406929
C  C491  1  0.76034000  0.32518000  0.43349000  1.0 -0.0815406929
C  C492  1  0.77863000  0.31940000  0.40250000  1.0 0.6101473818
C  C493  1  0.80447000  0.34975000  0.24425000  1.0 -0.060658876
C  C494  1  0.83007000  0.35306000  0.21586000  1.0 -0.0815406929
C  C495  1  0.83534000  0.34353000  0.19207000  1.0 -0.060658876
C  C496  1  0.81316000  0.33215000  0.19599000  1.0 -0.0924933774
C  C497  1  0.78650000  0.32917000  0.22392000  1.0 -0.060658876
C  C498  1  0.78249000  0.33823000  0.24792000  1.0 -0.0924933774
C  C499  1  0.76604000  0.31205000  0.23024000  1.0 0.6101473818
C  C500  1  0.86614000  0.34147000  0.16540000  1.0 0.6023470412
C  C501  1  0.80430000  0.35305000  0.27156000  1.0 0.6101473818
C  C502  1  0.94760000  0.26953000  0.22140000  1.0 -0.0815406929
C  C503  1  0.92723000  0.28852000  0.24154000  1.0 -0.0924933774
C  C504  1  0.96472000  0.29640000  0.06422000  1.0 0.6298589973
C  C505  1  0.23251000  0.87136000  0.18525000  1.0 -0.1071942596
C  C506  1  0.22742000  0.90378000  0.17875000  1.0 -0.060658876
C  C507  1  0.25281000  0.91943000  0.15219000  1.0 0.6298589973
C  C508  1  0.34549000  0.48651000  0.43958000  1.0 -0.0815406929
C  C509  1  0.32518000  0.48099000  0.43349000  1.0 -0.0815406929
C  C510  1  0.31940000  0.49947000  0.40250000  1.0 0.6101473818
C  C511  1  0.34975000  0.60153000  0.24425000  1.0 -0.060658876
C  C512  1  0.35306000  0.60101000  0.21586000  1.0 -0.0815406929
C  C513  1  0.34353000  0.62906000  0.19207000  1.0 -0.060658876
C  C514  1  0.33215000  0.65870000  0.19599000  1.0 -0.0924933774
C  C515  1  0.32917000  0.66041000  0.22392000  1.0 -0.060658876
C  C516  1  0.33823000  0.63136000  0.24792000  1.0 -0.0924933774
C  C517  1  0.31205000  0.69167000  0.23024000  1.0 0.6101473818
C  C518  1  0.34147000  0.62699000  0.16540000  1.0 0.6023470412
C  C519  1  0.35305000  0.57109000  0.27156000  1.0 0.6101473818
C  C520  1  0.26953000  0.56147000  0.22140000  1.0 -0.0815406929
C  C521  1  0.28852000  0.54271000  0.24154000  1.0 -0.0924933774
C  C522  1  0.29640000  0.67466000  0.06422000  1.0 0.6298589973
C  C523  1  0.71088000  0.18525000  0.87136000  1.0 -0.1071942596
C  C524  1  0.69005000  0.17875000  0.90378000  1.0 -0.060658876
C  C525  1  0.67557000  0.15219000  0.91943000  1.0 0.6298589973
C  C526  1  0.72842000  0.43958000  0.48651000  1.0 -0.0815406929
C  C527  1  0.76034000  0.43349000  0.48099000  1.0 -0.0815406929
C  C528  1  0.77863000  0.40250000  0.49947000  1.0 0.6101473818
C  C529  1  0.80447000  0.24425000  0.60153000  1.0 -0.060658876
C  C530  1  0.83007000  0.21586000  0.60101000  1.0 -0.0815406929
C  C531  1  0.83534000  0.19207000  0.62906000  1.0 -0.060658876
C  C532  1  0.81316000  0.19599000  0.65870000  1.0 -0.0924933774
C  C533  1  0.78650000  0.22392000  0.66041000  1.0 -0.060658876
C  C534  1  0.78249000  0.24792000  0.63136000  1.0 -0.0924933774
C  C535  1  0.76604000  0.23024000  0.69167000  1.0 0.6101473818
C  C536  1  0.86614000  0.16540000  0.62699000  1.0 0.6023470412
C  C537  1  0.80430000  0.27156000  0.57109000  1.0 0.6101473818
C  C538  1  0.94760000  0.22140000  0.56147000  1.0 -0.0815406929
C  C539  1  0.92723000  0.24154000  0.54271000  1.0 -0.0924933774
C  C540  1  0.96472000  0.06422000  0.67466000  1.0 0.6298589973
C  C541  1  0.87136000  0.23251000  0.71088000  1.0 -0.1071942596
C  C542  1  0.90378000  0.22742000  0.69005000  1.0 -0.060658876
C  C543  1  0.91943000  0.25281000  0.67557000  1.0 0.6298589973
C  C544  1  0.48651000  0.34549000  0.72842000  1.0 -0.0815406929
C  C545  1  0.48099000  0.32518000  0.76034000  1.0 -0.0815406929
C  C546  1  0.49947000  0.31940000  0.77863000  1.0 0.6101473818
C  C547  1  0.60153000  0.34975000  0.80447000  1.0 -0.060658876
C  C548  1  0.60101000  0.35306000  0.83007000  1.0 -0.0815406929
C  C549  1  0.62906000  0.34353000  0.83534000  1.0 -0.060658876
C  C550  1  0.65870000  0.33215000  0.81316000  1.0 -0.0924933774
C  C551  1  0.66041000  0.32917000  0.78650000  1.0 -0.060658876
C  C552  1  0.63136000  0.33823000  0.78249000  1.0 -0.0924933774
C  C553  1  0.69167000  0.31205000  0.76604000  1.0 0.6101473818
C  C554  1  0.62699000  0.34147000  0.86614000  1.0 0.6023470412
C  C555  1  0.57109000  0.35305000  0.80430000  1.0 0.6101473818
C  C556  1  0.56147000  0.26953000  0.94760000  1.0 -0.0815406929
C  C557  1  0.54271000  0.28852000  0.92723000  1.0 -0.0924933774
C  C558  1  0.67466000  0.29640000  0.96472000  1.0 0.6298589973
C  C559  1  0.18525000  0.71088000  0.23251000  1.0 -0.1071942596
C  C560  1  0.17875000  0.69005000  0.22742000  1.0 -0.060658876
C  C561  1  0.15219000  0.67557000  0.25281000  1.0 0.6298589973
C  C562  1  0.43958000  0.72842000  0.34549000  1.0 -0.0815406929
C  C563  1  0.43349000  0.76034000  0.32518000  1.0 -0.0815406929
C  C564  1  0.40250000  0.77863000  0.31940000  1.0 0.6101473818
C  C565  1  0.24425000  0.80447000  0.34975000  1.0 -0.060658876
C  C566  1  0.21586000  0.83007000  0.35306000  1.0 -0.0815406929
C  C567  1  0.19207000  0.83534000  0.34353000  1.0 -0.060658876
C  C568  1  0.19599000  0.81316000  0.33215000  1.0 -0.0924933774
C  C569  1  0.22392000  0.78650000  0.32917000  1.0 -0.060658876
C  C570  1  0.24792000  0.78249000  0.33823000  1.0 -0.0924933774
C  C571  1  0.23024000  0.76604000  0.31205000  1.0 0.6101473818
C  C572  1  0.16540000  0.86614000  0.34147000  1.0 0.6023470412
C  C573  1  0.27156000  0.80430000  0.35305000  1.0 0.6101473818
C  C574  1  0.22140000  0.94760000  0.26953000  1.0 -0.0815406929
C  C575  1  0.24154000  0.92723000  0.28852000  1.0 -0.0924933774
C  C576  1  0.06422000  0.96472000  0.29640000  1.0 0.6298589973
C  C577  1  0.18525000  0.23251000  0.87136000  1.0 -0.1071942596
C  C578  1  0.17875000  0.22742000  0.90378000  1.0 -0.060658876
C  C579  1  0.15219000  0.25281000  0.91943000  1.0 0.6298589973
C  C580  1  0.43958000  0.34549000  0.48651000  1.0 -0.0815406929
C  C581  1  0.43349000  0.32518000  0.48099000  1.0 -0.0815406929
C  C582  1  0.40250000  0.31940000  0.49947000  1.0 0.6101473818
C  C583  1  0.24425000  0.34975000  0.60153000  1.0 -0.060658876
C  C584  1  0.21586000  0.35306000  0.60101000  1.0 -0.0815406929
C  C585  1  0.19207000  0.34353000  0.62906000  1.0 -0.060658876
C  C586  1  0.19599000  0.33215000  0.65870000  1.0 -0.0924933774
C  C587  1  0.22392000  0.32917000  0.66041000  1.0 -0.060658876
C  C588  1  0.24792000  0.33823000  0.63136000  1.0 -0.0924933774
C  C589  1  0.23024000  0.31205000  0.69167000  1.0 0.6101473818
C  C590  1  0.16540000  0.34147000  0.62699000  1.0 0.6023470412
C  C591  1  0.27156000  0.35305000  0.57109000  1.0 0.6101473818
C  C592  1  0.22140000  0.26953000  0.56147000  1.0 -0.0815406929
C  C593  1  0.24154000  0.28852000  0.54271000  1.0 -0.0924933774
C  C594  1  0.06422000  0.29640000  0.67466000  1.0 0.6298589973
C  C595  1  0.87136000  0.71088000  0.18525000  1.0 -0.1071942596
C  C596  1  0.90378000  0.69005000  0.17875000  1.0 -0.060658876
C  C597  1  0.91943000  0.67557000  0.15219000  1.0 0.6298589973
C  C598  1  0.48651000  0.72842000  0.43958000  1.0 -0.0815406929
C  C599  1  0.48099000  0.76034000  0.43349000  1.0 -0.0815406929
C  C600  1  0.49947000  0.77863000  0.40250000  1.0 0.6101473818
C  C601  1  0.60153000  0.80447000  0.24425000  1.0 -0.060658876
C  C602  1  0.60101000  0.83007000  0.21586000  1.0 -0.0815406929
C  C603  1  0.62906000  0.83534000  0.19207000  1.0 -0.060658876
C  C604  1  0.65870000  0.81316000  0.19599000  1.0 -0.0924933774
C  C605  1  0.66041000  0.78650000  0.22392000  1.0 -0.060658876
C  C606  1  0.63136000  0.78249000  0.24792000  1.0 -0.0924933774
C  C607  1  0.69167000  0.76604000  0.23024000  1.0 0.6101473818
C  C608  1  0.62699000  0.86614000  0.16540000  1.0 0.6023470412
C  C609  1  0.57109000  0.80430000  0.27156000  1.0 0.6101473818
C  C610  1  0.56147000  0.94760000  0.22140000  1.0 -0.0815406929
C  C611  1  0.54271000  0.92723000  0.24154000  1.0 -0.0924933774
C  C612  1  0.67466000  0.96472000  0.06422000  1.0 0.6298589973
C  C613  1  0.71088000  0.87136000  0.23251000  1.0 -0.1071942596
C  C614  1  0.69005000  0.90378000  0.22742000  1.0 -0.060658876
C  C615  1  0.67557000  0.91943000  0.25281000  1.0 0.6298589973
C  C616  1  0.72842000  0.48651000  0.34549000  1.0 -0.0815406929
C  C617  1  0.76034000  0.48099000  0.32518000  1.0 -0.0815406929
C  C618  1  0.77863000  0.49947000  0.31940000  1.0 0.6101473818
C  C619  1  0.80447000  0.60153000  0.34975000  1.0 -0.060658876
C  C620  1  0.83007000  0.60101000  0.35306000  1.0 -0.0815406929
C  C621  1  0.83534000  0.62906000  0.34353000  1.0 -0.060658876
C  C622  1  0.81316000  0.65870000  0.33215000  1.0 -0.0924933774
C  C623  1  0.78650000  0.66041000  0.32917000  1.0 -0.060658876
C  C624  1  0.78249000  0.63136000  0.33823000  1.0 -0.0924933774
C  C625  1  0.76604000  0.69167000  0.31205000  1.0 0.6101473818
C  C626  1  0.86614000  0.62699000  0.34147000  1.0 0.6023470412
C  C627  1  0.80430000  0.57109000  0.35305000  1.0 0.6101473818
C  C628  1  0.94760000  0.56147000  0.26953000  1.0 -0.0815406929
C  C629  1  0.92723000  0.54271000  0.28852000  1.0 -0.0924933774
C  C630  1  0.96472000  0.67466000  0.29640000  1.0 0.6298589973
C  C631  1  0.23251000  0.18525000  0.71088000  1.0 -0.1071942596
C  C632  1  0.22742000  0.17875000  0.69005000  1.0 -0.060658876
C  C633  1  0.25281000  0.15219000  0.67557000  1.0 0.6298589973
C  C634  1  0.34549000  0.43958000  0.72842000  1.0 -0.0815406929
C  C635  1  0.32518000  0.43349000  0.76034000  1.0 -0.0815406929
C  C636  1  0.31940000  0.40250000  0.77863000  1.0 0.6101473818
C  C637  1  0.34975000  0.24425000  0.80447000  1.0 -0.060658876
C  C638  1  0.35306000  0.21586000  0.83007000  1.0 -0.0815406929
C  C639  1  0.34353000  0.19207000  0.83534000  1.0 -0.060658876
C  C640  1  0.33215000  0.19599000  0.81316000  1.0 -0.0924933774
C  C641  1  0.32917000  0.22392000  0.78650000  1.0 -0.060658876
C  C642  1  0.33823000  0.24792000  0.78249000  1.0 -0.0924933774
C  C643  1  0.31205000  0.23024000  0.76604000  1.0 0.6101473818
C  C644  1  0.34147000  0.16540000  0.86614000  1.0 0.6023470412
C  C645  1  0.35305000  0.27156000  0.80430000  1.0 0.6101473818
C  C646  1  0.26953000  0.22140000  0.94760000  1.0 -0.0815406929
C  C647  1  0.28852000  0.24154000  0.92723000  1.0 -0.0924933774
C  C648  1  0.29640000  0.06422000  0.96472000  1.0 0.6298589973
C  C649  1  0.37864000  0.06475000  0.53912000  1.0 -0.1071942596
C  C650  1  0.34622000  0.07125000  0.55995000  1.0 -0.060658876
C  C651  1  0.33057000  0.09781000  0.57443000  1.0 0.6298589973
C  C652  1  0.76349000  0.81042000  0.52158000  1.0 -0.0815406929
C  C653  1  0.76901000  0.81651000  0.48966000  1.0 -0.0815406929
C  C654  1  0.75053000  0.84750000  0.47137000  1.0 0.6101473818
C  C655  1  0.64847000  0.00575000  0.44553000  1.0 -0.060658876
C  C656  1  0.64899000  0.03414000  0.41993000  1.0 -0.0815406929
C  C657  1  0.62094000  0.05793000  0.41466000  1.0 -0.060658876
C  C658  1  0.59130000  0.05401000  0.43684000  1.0 -0.0924933774
C  C659  1  0.58959000  0.02608000  0.46350000  1.0 -0.060658876
C  C660  1  0.61864000  0.00208000  0.46751000  1.0 -0.0924933774
C  C661  1  0.55833000  0.01976000  0.48396000  1.0 0.6101473818
C  C662  1  0.62301000  0.08460000  0.38386000  1.0 0.6023470412
C  C663  1  0.67891000  0.97844000  0.44570000  1.0 0.6101473818
C  C664  1  0.68853000  0.02860000  0.30240000  1.0 -0.0815406929
C  C665  1  0.70729000  0.00846000  0.32277000  1.0 -0.0924933774
C  C666  1  0.57534000  0.18578000  0.28528000  1.0 0.6298589973
C  C667  1  0.06475000  0.37864000  0.01749000  1.0 -0.1071942596
C  C668  1  0.07125000  0.34622000  0.02258000  1.0 -0.060658876
C  C669  1  0.09781000  0.33057000  0.99719000  1.0 0.6298589973
C  C670  1  0.81042000  0.76349000  0.90451000  1.0 -0.0815406929
C  C671  1  0.81651000  0.76901000  0.92482000  1.0 -0.0924933774
C  C672  1  0.84750000  0.75053000  0.93060000  1.0 0.6101473818
C  C673  1  0.00575000  0.64847000  0.90025000  1.0 -0.060658876
C  C674  1  0.03414000  0.64899000  0.89694000  1.0 -0.0815406929
C  C675  1  0.05793000  0.62094000  0.90647000  1.0 -0.060658876
C  C676  1  0.05401000  0.59130000  0.91785000  1.0 -0.0924933774
C  C677  1  0.02608000  0.58959000  0.92083000  1.0 -0.060658876
C  C678  1  0.00208000  0.61864000  0.91177000  1.0 -0.0924933774
C  C679  1  0.01976000  0.55833000  0.93795000  1.0 0.6101473818
C  C680  1  0.08460000  0.62301000  0.90853000  1.0 0.6023470412
C  C681  1  0.97844000  0.67891000  0.89695000  1.0 0.6101473818
C  C682  1  0.02860000  0.68853000  0.98047000  1.0 -0.0815406929
C  C683  1  0.00846000  0.70729000  0.96148000  1.0 -0.0924933774
C  C684  1  0.18578000  0.57534000  0.95360000  1.0 0.6298589973
C  C685  1  0.01749000  0.53912000  0.06475000  1.0 -0.1071942596
C  C686  1  0.02258000  0.55995000  0.07125000  1.0 -0.060658876
C  C687  1  0.99719000  0.57443000  0.09781000  1.0 0.6298589973
C  C688  1  0.90451000  0.52158000  0.81042000  1.0 -0.0815406929
C  C689  1  0.92482000  0.48966000  0.81651000  1.0 -0.0815406929
C  C690  1  0.93060000  0.47137000  0.84750000  1.0 0.6101473818
C  C691  1  0.90025000  0.44553000  0.00575000  1.0 -0.060658876
C  C692  1  0.89694000  0.41993000  0.03414000  1.0 -0.0815406929
C  C693  1  0.90647000  0.41466000  0.05793000  1.0 -0.060658876
C  C694  1  0.91785000  0.43684000  0.05401000  1.0 -0.0924933774
C  C695  1  0.92083000  0.46350000  0.02608000  1.0 -0.060658876
C  C696  1  0.91177000  0.46751000  0.00208000  1.0 -0.0924933774
C  C697  1  0.93795000  0.48396000  0.01976000  1.0 0.6101473818
C  C698  1  0.90853000  0.38386000  0.08460000  1.0 0.6023470412
C  C699  1  0.89695000  0.44570000  0.97844000  1.0 0.6101473818
C  C700  1  0.98047000  0.30240000  0.02860000  1.0 -0.0815406929
C  C701  1  0.96148000  0.32277000  0.00846000  1.0 -0.0924933774
C  C702  1  0.95360000  0.28528000  0.18578000  1.0 0.6298589973
C  C703  1  0.53912000  0.01749000  0.37864000  1.0 -0.1071942596
C  C704  1  0.55995000  0.02258000  0.34622000  1.0 -0.060658876
C  C705  1  0.57443000  0.99719000  0.33057000  1.0 0.6298589973
C  C706  1  0.52158000  0.90451000  0.76349000  1.0 -0.0815406929
C  C707  1  0.48966000  0.92482000  0.76901000  1.0 -0.0924933774
C  C708  1  0.47137000  0.93060000  0.75053000  1.0 0.6101473818
C  C709  1  0.44553000  0.90025000  0.64847000  1.0 -0.060658876
C  C710  1  0.41993000  0.89694000  0.64899000  1.0 -0.0815406929
C  C711  1  0.41466000  0.90647000  0.62094000  1.0 -0.060658876
C  C712  1  0.43684000  0.91785000  0.59130000  1.0 -0.0924933774
C  C713  1  0.46350000  0.92083000  0.58959000  1.0 -0.060658876
C  C714  1  0.46751000  0.91177000  0.61864000  1.0 -0.0924933774
C  C715  1  0.48396000  0.93795000  0.55833000  1.0 0.6101473818
C  C716  1  0.38386000  0.90853000  0.62301000  1.0 0.6023470412
C  C717  1  0.44570000  0.89695000  0.67891000  1.0 0.6101473818
C  C718  1  0.30240000  0.98047000  0.68853000  1.0 -0.0815406929
C  C719  1  0.32277000  0.96148000  0.70729000  1.0 -0.0924933774
C  C720  1  0.28528000  0.95360000  0.57534000  1.0 0.6298589973
C  C721  1  0.01749000  0.37864000  0.53912000  1.0 -0.1071942596
C  C722  1  0.02258000  0.34622000  0.55995000  1.0 -0.060658876
C  C723  1  0.99719000  0.33057000  0.57443000  1.0 0.6298589973
C  C724  1  0.90451000  0.76349000  0.52158000  1.0 -0.0815406929
C  C725  1  0.92482000  0.76901000  0.48966000  1.0 -0.0815406929
C  C726  1  0.93060000  0.75053000  0.47137000  1.0 0.6101473818
C  C727  1  0.90025000  0.64847000  0.44553000  1.0 -0.060658876
C  C728  1  0.89694000  0.64899000  0.41993000  1.0 -0.0815406929
C  C729  1  0.90647000  0.62094000  0.41466000  1.0 -0.060658876
C  C730  1  0.91785000  0.59130000  0.43684000  1.0 -0.0924933774
C  C731  1  0.92083000  0.58959000  0.46350000  1.0 -0.060658876
C  C732  1  0.91177000  0.61864000  0.46751000  1.0 -0.0924933774
C  C733  1  0.93795000  0.55833000  0.48396000  1.0 0.6101473818
C  C734  1  0.90853000  0.62301000  0.38386000  1.0 0.6023470412
C  C735  1  0.89695000  0.67891000  0.44570000  1.0 0.6101473818
C  C736  1  0.98047000  0.68853000  0.30240000  1.0 -0.0815406929
C  C737  1  0.96148000  0.70729000  0.32277000  1.0 -0.0924933774
C  C738  1  0.95360000  0.57534000  0.28528000  1.0 0.6298589973
C  C739  1  0.53912000  0.06475000  0.01749000  1.0 -0.1071942596
C  C740  1  0.55995000  0.07125000  0.02258000  1.0 -0.060658876
C  C741  1  0.57443000  0.09781000  0.99719000  1.0 0.6298589973
C  C742  1  0.52158000  0.81042000  0.90451000  1.0 -0.0815406929
C  C743  1  0.48966000  0.81651000  0.92482000  1.0 -0.0924933774
C  C744  1  0.47137000  0.84750000  0.93060000  1.0 0.6101473818
C  C745  1  0.44553000  0.00575000  0.90025000  1.0 -0.060658876
C  C746  1  0.41993000  0.03414000  0.89694000  1.0 -0.0815406929
C  C747  1  0.41466000  0.05793000  0.90647000  1.0 -0.060658876
C  C748  1  0.43684000  0.05401000  0.91785000  1.0 -0.0924933774
C  C749  1  0.46350000  0.02608000  0.92083000  1.0 -0.060658876
C  C750  1  0.46751000  0.00208000  0.91177000  1.0 -0.0924933774
C  C751  1  0.48396000  0.01976000  0.93795000  1.0 0.6101473818
C  C752  1  0.38386000  0.08460000  0.90853000  1.0 0.6023470412
C  C753  1  0.44570000  0.97844000  0.89695000  1.0 0.6101473818
C  C754  1  0.30240000  0.02860000  0.98047000  1.0 -0.0815406929
C  C755  1  0.32277000  0.00846000  0.96148000  1.0 -0.0924933774
C  C756  1  0.28528000  0.18578000  0.95360000  1.0 0.6298589973
C  C757  1  0.37864000  0.01749000  0.06475000  1.0 -0.1071942596
C  C758  1  0.34622000  0.02258000  0.07125000  1.0 -0.060658876
C  C759  1  0.33057000  0.99719000  0.09781000  1.0 0.6298589973
C  C760  1  0.76349000  0.90451000  0.81042000  1.0 -0.0815406929
C  C761  1  0.76901000  0.92482000  0.81651000  1.0 -0.0815406929
C  C762  1  0.75053000  0.93060000  0.84750000  1.0 0.6101473818
C  C763  1  0.64847000  0.90025000  0.00575000  1.0 -0.060658876
C  C764  1  0.64899000  0.89694000  0.03414000  1.0 -0.0815406929
C  C765  1  0.62094000  0.90647000  0.05793000  1.0 -0.060658876
C  C766  1  0.59130000  0.91785000  0.05401000  1.0 -0.0924933774
C  C767  1  0.58959000  0.92083000  0.02608000  1.0 -0.060658876
C  C768  1  0.61864000  0.91177000  0.00208000  1.0 -0.0924933774
C  C769  1  0.55833000  0.93795000  0.01976000  1.0 0.6101473818
C  C770  1  0.62301000  0.90853000  0.08460000  1.0 0.6023470412
C  C771  1  0.67891000  0.89695000  0.97844000  1.0 0.6101473818
C  C772  1  0.68853000  0.98047000  0.02860000  1.0 -0.0815406929
C  C773  1  0.70729000  0.96148000  0.00846000  1.0 -0.0924933774
C  C774  1  0.57534000  0.95360000  0.18578000  1.0 0.6298589973
C  C775  1  0.06475000  0.53912000  0.37864000  1.0 -0.1071942596
C  C776  1  0.07125000  0.55995000  0.34622000  1.0 -0.060658876
C  C777  1  0.09781000  0.57443000  0.33057000  1.0 0.6298589973
C  C778  1  0.81042000  0.52158000  0.76349000  1.0 -0.0815406929
C  C779  1  0.81651000  0.48966000  0.76901000  1.0 -0.0815406929
C  C780  1  0.84750000  0.47137000  0.75053000  1.0 0.6101473818
C  C781  1  0.00575000  0.44553000  0.64847000  1.0 -0.060658876
C  C782  1  0.03414000  0.41993000  0.64899000  1.0 -0.0815406929
C  C783  1  0.05793000  0.41466000  0.62094000  1.0 -0.060658876
C  C784  1  0.05401000  0.43684000  0.59130000  1.0 -0.0924933774
C  C785  1  0.02608000  0.46350000  0.58959000  1.0 -0.060658876
C  C786  1  0.00208000  0.46751000  0.61864000  1.0 -0.0924933774
C  C787  1  0.01976000  0.48396000  0.55833000  1.0 0.6101473818
C  C788  1  0.08460000  0.38386000  0.62301000  1.0 0.6023470412
C  C789  1  0.97844000  0.44570000  0.67891000  1.0 0.6101473818
C  C790  1  0.02860000  0.30240000  0.68853000  1.0 -0.0815406929
C  C791  1  0.00846000  0.32277000  0.70729000  1.0 -0.0924933774
C  C792  1  0.18578000  0.28528000  0.57534000  1.0 0.6298589973
C  C793  1  0.06475000  0.01749000  0.53912000  1.0 -0.1071942596
C  C794  1  0.07125000  0.02258000  0.55995000  1.0 -0.060658876
C  C795  1  0.09781000  0.99719000  0.57443000  1.0 0.6298589973
C  C796  1  0.81042000  0.90451000  0.52158000  1.0 -0.0815406929
C  C797  1  0.81651000  0.92482000  0.48966000  1.0 -0.0815406929
C  C798  1  0.84750000  0.93060000  0.47137000  1.0 0.6101473818
C  C799  1  0.00575000  0.90025000  0.44553000  1.0 -0.060658876
C  C800  1  0.03414000  0.89694000  0.41993000  1.0 -0.0815406929
C  C801  1  0.05793000  0.90647000  0.41466000  1.0 -0.060658876
C  C802  1  0.05401000  0.91785000  0.43684000  1.0 -0.0924933774
C  C803  1  0.02608000  0.92083000  0.46350000  1.0 -0.060658876
C  C804  1  0.00208000  0.91177000  0.46751000  1.0 -0.0924933774
C  C805  1  0.01976000  0.93795000  0.48396000  1.0 0.6101473818
C  C806  1  0.08460000  0.90853000  0.38386000  1.0 0.6023470412
C  C807  1  0.97844000  0.89695000  0.44570000  1.0 0.6101473818
C  C808  1  0.02860000  0.98047000  0.30240000  1.0 -0.0815406929
C  C809  1  0.00846000  0.96148000  0.32277000  1.0 -0.0924933774
C  C810  1  0.18578000  0.95360000  0.28528000  1.0 0.6298589973
C  C811  1  0.37864000  0.53912000  0.01749000  1.0 -0.1071942596
C  C812  1  0.34622000  0.55995000  0.02258000  1.0 -0.060658876
C  C813  1  0.33057000  0.57443000  0.99719000  1.0 0.6298589973
C  C814  1  0.76349000  0.52158000  0.90451000  1.0 -0.0815406929
C  C815  1  0.76901000  0.48966000  0.92482000  1.0 -0.0815406929
C  C816  1  0.75053000  0.47137000  0.93060000  1.0 0.6101473818
C  C817  1  0.64847000  0.44553000  0.90025000  1.0 -0.060658876
C  C818  1  0.64899000  0.41993000  0.89694000  1.0 -0.0815406929
C  C819  1  0.62094000  0.41466000  0.90647000  1.0 -0.060658876
C  C820  1  0.59130000  0.43684000  0.91785000  1.0 -0.0924933774
C  C821  1  0.58959000  0.46350000  0.92083000  1.0 -0.060658876
C  C822  1  0.61864000  0.46751000  0.91177000  1.0 -0.0924933774
C  C823  1  0.55833000  0.48396000  0.93795000  1.0 0.6101473818
C  C824  1  0.62301000  0.38386000  0.90853000  1.0 0.6023470412
C  C825  1  0.67891000  0.44570000  0.89695000  1.0 0.6101473818
C  C826  1  0.68853000  0.30240000  0.98047000  1.0 -0.0815406929
C  C827  1  0.70729000  0.32277000  0.96148000  1.0 -0.0924933774
C  C828  1  0.57534000  0.28528000  0.95360000  1.0 0.6298589973
C  C829  1  0.53912000  0.37864000  0.06475000  1.0 -0.1071942596
C  C830  1  0.55995000  0.34622000  0.07125000  1.0 -0.060658876
C  C831  1  0.57443000  0.33057000  0.09781000  1.0 0.6298589973
C  C832  1  0.52158000  0.76349000  0.81042000  1.0 -0.0815406929
C  C833  1  0.48966000  0.76901000  0.81651000  1.0 -0.0924933774
C  C834  1  0.47137000  0.75053000  0.84750000  1.0 0.6101473818
C  C835  1  0.44553000  0.64847000  0.00575000  1.0 -0.060658876
C  C836  1  0.41993000  0.64899000  0.03414000  1.0 -0.0815406929
C  C837  1  0.41466000  0.62094000  0.05793000  1.0 -0.060658876
C  C838  1  0.43684000  0.59130000  0.05401000  1.0 -0.0924933774
C  C839  1  0.46350000  0.58959000  0.02608000  1.0 -0.060658876
C  C840  1  0.46751000  0.61864000  0.00208000  1.0 -0.0924933774
C  C841  1  0.48396000  0.55833000  0.01976000  1.0 0.6101473818
C  C842  1  0.38386000  0.62301000  0.08460000  1.0 0.6023470412
C  C843  1  0.44570000  0.67891000  0.97844000  1.0 0.6101473818
C  C844  1  0.30240000  0.68853000  0.02860000  1.0 -0.0815406929
C  C845  1  0.32277000  0.70729000  0.00846000  1.0 -0.0924933774
C  C846  1  0.28528000  0.57534000  0.18578000  1.0 0.6298589973
C  C847  1  0.01749000  0.06475000  0.37864000  1.0 -0.1071942596
C  C848  1  0.02258000  0.07125000  0.34622000  1.0 -0.060658876
C  C849  1  0.99719000  0.09781000  0.33057000  1.0 0.6298589973
C  C850  1  0.90451000  0.81042000  0.76349000  1.0 -0.0815406929
C  C851  1  0.92482000  0.81651000  0.76901000  1.0 -0.0924933774
C  C852  1  0.93060000  0.84750000  0.75053000  1.0 0.6101473818
C  C853  1  0.90025000  0.00575000  0.64847000  1.0 -0.060658876
C  C854  1  0.89694000  0.03414000  0.64899000  1.0 -0.0815406929
C  C855  1  0.90647000  0.05793000  0.62094000  1.0 -0.060658876
C  C856  1  0.91785000  0.05401000  0.59130000  1.0 -0.0924933774
C  C857  1  0.92083000  0.02608000  0.58959000  1.0 -0.060658876
C  C858  1  0.91177000  0.00208000  0.61864000  1.0 -0.0924933774
C  C859  1  0.93795000  0.01976000  0.55833000  1.0 0.6101473818
C  C860  1  0.90853000  0.08460000  0.62301000  1.0 0.6023470412
C  C861  1  0.89695000  0.97844000  0.67891000  1.0 0.6101473818
C  C862  1  0.98047000  0.02860000  0.68853000  1.0 -0.0815406929
C  C863  1  0.96148000  0.00846000  0.70729000  1.0 -0.0924933774
C  C864  1  0.95360000  0.18578000  0.57534000  1.0 0.6298589973
C  C865  1  0.67905000  0.01402000  0.01402000  1.0 0.0308547906
C  C866  1  0.71639000  0.97489000  0.97489000  1.0 -0.060658876
C  C867  1  0.73124000  0.95428000  0.95428000  1.0 0.6101473818
C  C868  1  0.01402000  0.67905000  0.29291000  1.0 0.0246749521
C  C869  1  0.97489000  0.71639000  0.33383000  1.0 -0.060658876
C  C870  1  0.95428000  0.73124000  0.36020000  1.0 0.6101473818
C  C871  1  0.01402000  0.29291000  0.67905000  1.0 0.0246749521
C  C872  1  0.97489000  0.33383000  0.71639000  1.0 -0.060658876
C  C873  1  0.95428000  0.36020000  0.73124000  1.0 0.6101473818
C  C874  1  0.29291000  0.01402000  0.01402000  1.0 0.0246749521
C  C875  1  0.33383000  0.97489000  0.97489000  1.0 -0.060658876
C  C876  1  0.36020000  0.95428000  0.95428000  1.0 0.6101473818
C  C877  1  0.01402000  0.67905000  0.01402000  1.0 0.0246749521
C  C878  1  0.97489000  0.71639000  0.97489000  1.0 -0.060658876
C  C879  1  0.95428000  0.73124000  0.95428000  1.0 0.6101473818
C  C880  1  0.29291000  0.01402000  0.67905000  1.0 0.0246749521
C  C881  1  0.33383000  0.97489000  0.71639000  1.0 -0.060658876
C  C882  1  0.36020000  0.95428000  0.73124000  1.0 0.6101473818
C  C883  1  0.67905000  0.01402000  0.29291000  1.0 0.0246749521
C  C884  1  0.71639000  0.97489000  0.33383000  1.0 -0.060658876
C  C885  1  0.73124000  0.95428000  0.36020000  1.0 0.6101473818
C  C886  1  0.01402000  0.29291000  0.01402000  1.0 0.0308547906
C  C887  1  0.97489000  0.33383000  0.97489000  1.0 -0.060658876
C  C888  1  0.95428000  0.36020000  0.95428000  1.0 0.6101473818
C  C889  1  0.01402000  0.01402000  0.67905000  1.0 0.0246749521
C  C890  1  0.97489000  0.97489000  0.71639000  1.0 -0.060658876
C  C891  1  0.95428000  0.95428000  0.73124000  1.0 0.6101473818
C  C892  1  0.67905000  0.29291000  0.01402000  1.0 0.0308547906
C  C893  1  0.71639000  0.33383000  0.97489000  1.0 -0.060658876
C  C894  1  0.73124000  0.36020000  0.95428000  1.0 0.6101473818
C  C895  1  0.29291000  0.67905000  0.01402000  1.0 0.0308547906
C  C896  1  0.33383000  0.71639000  0.97489000  1.0 -0.060658876
C  C897  1  0.36020000  0.73124000  0.95428000  1.0 0.6101473818
C  C898  1  0.01402000  0.01402000  0.29291000  1.0 0.0246749521
C  C899  1  0.97489000  0.97489000  0.33383000  1.0 -0.060658876
C  C900  1  0.95428000  0.95428000  0.36020000  1.0 0.6101473818
C  C901  1  0.57095000  0.23598000  0.95709000  1.0 0.0246749521
C  C902  1  0.53361000  0.27511000  0.91617000  1.0 -0.060658876
C  C903  1  0.51876000  0.29572000  0.88980000  1.0 0.6101473818
C  C904  1  0.23598000  0.57095000  0.23598000  1.0 0.0246749521
C  C905  1  0.27511000  0.53361000  0.27511000  1.0 -0.060658876
C  C906  1  0.29572000  0.51876000  0.29572000  1.0 0.6101473818
C  C907  1  0.23598000  0.95709000  0.23598000  1.0 0.0246749521
C  C908  1  0.27511000  0.91617000  0.27511000  1.0 -0.060658876
C  C909  1  0.29572000  0.88980000  0.29572000  1.0 0.6101473818
C  C910  1  0.95709000  0.23598000  0.57095000  1.0 0.0308547906
C  C911  1  0.91617000  0.27511000  0.53361000  1.0 -0.060658876
C  C912  1  0.88980000  0.29572000  0.51876000  1.0 0.6101473818
C  C913  1  0.23598000  0.57095000  0.95709000  1.0 0.0246749521
C  C914  1  0.27511000  0.53361000  0.91617000  1.0 -0.060658876
C  C915  1  0.29572000  0.51876000  0.88980000  1.0 0.6101473818
C  C916  1  0.95709000  0.23598000  0.23598000  1.0 0.0246749521
C  C917  1  0.91617000  0.27511000  0.27511000  1.0 -0.060658876
C  C918  1  0.88980000  0.29572000  0.29572000  1.0 0.6101473818
C  C919  1  0.57095000  0.23598000  0.23598000  1.0 0.0246749521
C  C920  1  0.53361000  0.27511000  0.27511000  1.0 -0.060658876
C  C921  1  0.51876000  0.29572000  0.29572000  1.0 0.6101473818
C  C922  1  0.23598000  0.95709000  0.57095000  1.0 0.0246749521
C  C923  1  0.27511000  0.91617000  0.53361000  1.0 -0.060658876
C  C924  1  0.29572000  0.88980000  0.51876000  1.0 0.6101473818
C  C925  1  0.23598000  0.23598000  0.95709000  1.0 0.0246749521
C  C926  1  0.27511000  0.27511000  0.91617000  1.0 -0.060658876
C  C927  1  0.29572000  0.29572000  0.88980000  1.0 0.6101473818
C  C928  1  0.57095000  0.95709000  0.23598000  1.0 0.0308547906
C  C929  1  0.53361000  0.91617000  0.27511000  1.0 -0.060658876
C  C930  1  0.51876000  0.88980000  0.29572000  1.0 0.6101473818
C  C931  1  0.95709000  0.57095000  0.23598000  1.0 0.0308547906
C  C932  1  0.91617000  0.53361000  0.27511000  1.0 -0.060658876
C  C933  1  0.88980000  0.51876000  0.29572000  1.0 0.6101473818
C  C934  1  0.23598000  0.23598000  0.57095000  1.0 0.0246749521
C  C935  1  0.27511000  0.27511000  0.53361000  1.0 -0.060658876
C  C936  1  0.29572000  0.29572000  0.51876000  1.0 0.6101473818
C  C937  1  0.39566000  0.03797000  0.03797000  1.0 -0.0502483891
C  C938  1  0.33087000  0.04951000  0.04951000  1.0 -0.0214841076
C  C939  1  0.43201000  0.02914000  0.02914000  1.0 0.6240779298
C  C940  1  0.03797000  0.39566000  0.52840000  1.0 -0.0502483891
C  C941  1  0.04951000  0.33087000  0.57011000  1.0 -0.0214841076
C  C942  1  0.02914000  0.43201000  0.50971000  1.0 0.6240779298
C  C943  1  0.03797000  0.52840000  0.39566000  1.0 -0.0502483891
C  C944  1  0.04951000  0.57011000  0.33087000  1.0 -0.0214841076
C  C945  1  0.02914000  0.50971000  0.43201000  1.0 0.6240779298
C  C946  1  0.52840000  0.03797000  0.03797000  1.0 -0.0502483891
C  C947  1  0.57011000  0.04951000  0.04951000  1.0 -0.0214841076
C  C948  1  0.50971000  0.02914000  0.02914000  1.0 0.6240779298
C  C949  1  0.03797000  0.39566000  0.03797000  1.0 -0.0502483891
C  C950  1  0.04951000  0.33087000  0.04951000  1.0 -0.0214841076
C  C951  1  0.02914000  0.43201000  0.02914000  1.0 0.6240779298
C  C952  1  0.52840000  0.03797000  0.39566000  1.0 -0.0502483891
C  C953  1  0.57011000  0.04951000  0.33087000  1.0 -0.0214841076
C  C954  1  0.50971000  0.02914000  0.43201000  1.0 0.6240779298
C  C955  1  0.39566000  0.03797000  0.52840000  1.0 -0.0502483891
C  C956  1  0.33087000  0.04951000  0.57011000  1.0 -0.0214841076
C  C957  1  0.43201000  0.02914000  0.50971000  1.0 0.6240779298
C  C958  1  0.03797000  0.52840000  0.03797000  1.0 -0.0502483891
C  C959  1  0.04951000  0.57011000  0.04951000  1.0 -0.0214841076
C  C960  1  0.02914000  0.50971000  0.02914000  1.0 0.6240779298
C  C961  1  0.03797000  0.03797000  0.39566000  1.0 -0.0502483891
C  C962  1  0.04951000  0.04951000  0.33087000  1.0 -0.0214841076
C  C963  1  0.02914000  0.02914000  0.43201000  1.0 0.6240779298
C  C964  1  0.39566000  0.52840000  0.03797000  1.0 -0.0502483891
C  C965  1  0.33087000  0.57011000  0.04951000  1.0 -0.0214841076
C  C966  1  0.43201000  0.50971000  0.02914000  1.0 0.6240779298
C  C967  1  0.52840000  0.39566000  0.03797000  1.0 -0.0502483891
C  C968  1  0.57011000  0.33087000  0.04951000  1.0 -0.0214841076
C  C969  1  0.50971000  0.43201000  0.02914000  1.0 0.6240779298
C  C970  1  0.03797000  0.03797000  0.52840000  1.0 -0.0502483891
C  C971  1  0.04951000  0.04951000  0.57011000  1.0 -0.0214841076
C  C972  1  0.02914000  0.02914000  0.50971000  1.0 0.6240779298
C  C973  1  0.85434000  0.21203000  0.72160000  1.0 -0.0502483891
C  C974  1  0.91913000  0.20049000  0.67989000  1.0 -0.0214841076
C  C975  1  0.81799000  0.22086000  0.74029000  1.0 0.6240779298
C  C976  1  0.21203000  0.85434000  0.21203000  1.0 -0.0502483891
C  C977  1  0.20049000  0.91913000  0.20049000  1.0 -0.0214841076
C  C978  1  0.22086000  0.81799000  0.22086000  1.0 0.6240779298
C  C979  1  0.21203000  0.72160000  0.21203000  1.0 -0.0502483891
C  C980  1  0.20049000  0.67989000  0.20049000  1.0 -0.0214841076
C  C981  1  0.22086000  0.74029000  0.22086000  1.0 0.6240779298
C  C982  1  0.72160000  0.21203000  0.85434000  1.0 -0.0502483891
C  C983  1  0.67989000  0.20049000  0.91913000  1.0 -0.0214841076
C  C984  1  0.74029000  0.22086000  0.81799000  1.0 0.6240779298
C  C985  1  0.21203000  0.85434000  0.72160000  1.0 -0.0502483891
C  C986  1  0.20049000  0.91913000  0.67989000  1.0 -0.0214841076
C  C987  1  0.22086000  0.81799000  0.74029000  1.0 0.6240779298
C  C988  1  0.72160000  0.21203000  0.21203000  1.0 -0.0502483891
C  C989  1  0.67989000  0.20049000  0.20049000  1.0 -0.0214841076
C  C990  1  0.74029000  0.22086000  0.22086000  1.0 0.6240779298
C  C991  1  0.85434000  0.21203000  0.21203000  1.0 -0.0502483891
C  C992  1  0.91913000  0.20049000  0.20049000  1.0 -0.0214841076
C  C993  1  0.81799000  0.22086000  0.22086000  1.0 0.6240779298
C  C994  1  0.21203000  0.72160000  0.85434000  1.0 -0.0502483891
C  C995  1  0.20049000  0.67989000  0.91913000  1.0 -0.0214841076
C  C996  1  0.22086000  0.74029000  0.81799000  1.0 0.6240779298
C  C997  1  0.21203000  0.21203000  0.72160000  1.0 -0.0502483891
C  C998  1  0.20049000  0.20049000  0.67989000  1.0 -0.0214841076
C  C999  1  0.22086000  0.22086000  0.74029000  1.0 0.6240779298
C  C1000  1  0.85434000  0.72160000  0.21203000  1.0 -0.0502483891
C  C1001  1  0.91913000  0.67989000  0.20049000  1.0 -0.0214841076
C  C1002  1  0.81799000  0.74029000  0.22086000  1.0 0.6240779298
C  C1003  1  0.72160000  0.85434000  0.21203000  1.0 -0.0502483891
C  C1004  1  0.67989000  0.91913000  0.20049000  1.0 -0.0214841076
C  C1005  1  0.74029000  0.81799000  0.22086000  1.0 0.6240779298
C  C1006  1  0.21203000  0.21203000  0.85434000  1.0 -0.0502483891
C  C1007  1  0.20049000  0.20049000  0.91913000  1.0 -0.0214841076
C  C1008  1  0.22086000  0.22086000  0.81799000  1.0 0.6240779298
C  C1009  1  0.70352000  0.75042000  0.84255000  1.0 0.0374629673
C  C1010  1  0.75042000  0.70352000  0.70352000  1.0 0.0374629673
C  C1011  1  0.84255000  0.70352000  0.70352000  1.0 0.0374629673
C  C1012  1  0.70352000  0.84255000  0.75042000  1.0 0.0374629673
C  C1013  1  0.84255000  0.70352000  0.75042000  1.0 0.0374629673
C  C1014  1  0.70352000  0.75042000  0.70352000  1.0 0.0374629673
C  C1015  1  0.70352000  0.84255000  0.70352000  1.0 0.0374629673
C  C1016  1  0.75042000  0.70352000  0.84255000  1.0 0.0308547906
C  C1017  1  0.75042000  0.84255000  0.70352000  1.0 0.0374629673
C  C1018  1  0.70352000  0.70352000  0.75042000  1.0 0.0374629673
C  C1019  1  0.70352000  0.70352000  0.84255000  1.0 0.0308547906
C  C1020  1  0.84255000  0.75042000  0.70352000  1.0 0.0374629673
C  C1021  1  0.54648000  0.49958000  0.54648000  1.0 0.0374629673
C  C1022  1  0.49958000  0.54648000  0.40745000  1.0 0.0374629673
C  C1023  1  0.40745000  0.54648000  0.49958000  1.0 0.0374629673
C  C1024  1  0.54648000  0.40745000  0.54648000  1.0 0.0374629673
C  C1025  1  0.40745000  0.54648000  0.54648000  1.0 0.0374629673
C  C1026  1  0.54648000  0.49958000  0.40745000  1.0 0.0374629673
C  C1027  1  0.54648000  0.40745000  0.49958000  1.0 0.0374629673
C  C1028  1  0.49958000  0.54648000  0.54648000  1.0 0.0374629673
C  C1029  1  0.49958000  0.40745000  0.54648000  1.0 0.0374629673
C  C1030  1  0.54648000  0.54648000  0.40745000  1.0 0.0374629673
C  C1031  1  0.54648000  0.54648000  0.49958000  1.0 0.0374629673
C  C1032  1  0.40745000  0.49958000  0.54648000  1.0 0.0374629673
C  C1033  1  0.88823000  0.88823000  0.83992000  1.0 -0.0989484458
C  C1034  1  0.90340000  0.90340000  0.80443000  1.0 0.6457207489
C  C1035  1  0.78456000  0.78456000  0.89336000  1.0 -0.0683778313
C  C1036  1  0.79576000  0.79576000  0.93452000  1.0 0.0374629673
C  C1037  1  0.78290000  0.78290000  0.86611000  1.0 0.6101473818
C  C1038  1  0.88823000  0.88823000  0.38362000  1.0 -0.0989484458
C  C1039  1  0.90340000  0.90340000  0.38877000  1.0 0.6457207489
C  C1040  1  0.78456000  0.78456000  0.53752000  1.0 -0.0683778313
C  C1041  1  0.79576000  0.79576000  0.47396000  1.0 0.0374629673
C  C1042  1  0.78290000  0.78290000  0.56809000  1.0 0.6101473818
C  C1043  1  0.83992000  0.38362000  0.88823000  1.0 -0.0989484458
C  C1044  1  0.80443000  0.38877000  0.90340000  1.0 0.6457207489
C  C1045  1  0.89336000  0.53752000  0.78456000  1.0 -0.0683778313
C  C1046  1  0.93452000  0.47396000  0.79576000  1.0 0.0374629673
C  C1047  1  0.86611000  0.56809000  0.78290000  1.0 0.6101473818
C  C1048  1  0.38362000  0.83992000  0.88823000  1.0 -0.0989484458
C  C1049  1  0.38877000  0.80443000  0.90340000  1.0 0.6457207489
C  C1050  1  0.53752000  0.89336000  0.78456000  1.0 -0.0683778313
C  C1051  1  0.47396000  0.93452000  0.79576000  1.0 0.0374629673
C  C1052  1  0.56809000  0.86611000  0.78290000  1.0 0.6101473818
C  C1053  1  0.83992000  0.88823000  0.88823000  1.0 -0.0989484458
C  C1054  1  0.80443000  0.90340000  0.90340000  1.0 0.6457207489
C  C1055  1  0.89336000  0.78456000  0.78456000  1.0 -0.0683778313
C  C1056  1  0.93452000  0.79576000  0.79576000  1.0 0.0374629673
C  C1057  1  0.86611000  0.78290000  0.78290000  1.0 0.6101473818
C  C1058  1  0.38362000  0.88823000  0.88823000  1.0 -0.0989484458
C  C1059  1  0.38877000  0.90340000  0.90340000  1.0 0.6457207489
C  C1060  1  0.53752000  0.78456000  0.78456000  1.0 -0.0683778313
C  C1061  1  0.47396000  0.79576000  0.79576000  1.0 0.0374629673
C  C1062  1  0.56809000  0.78290000  0.78290000  1.0 0.6101473818
C  C1063  1  0.88823000  0.83992000  0.38362000  1.0 -0.0989484458
C  C1064  1  0.90340000  0.80443000  0.38877000  1.0 0.6457207489
C  C1065  1  0.78456000  0.89336000  0.53752000  1.0 -0.0683778313
C  C1066  1  0.79576000  0.93452000  0.47396000  1.0 0.0374629673
C  C1067  1  0.78290000  0.86611000  0.56809000  1.0 0.6101473818
C  C1068  1  0.88823000  0.38362000  0.83992000  1.0 -0.0989484458
C  C1069  1  0.90340000  0.38877000  0.80443000  1.0 0.6457207489
C  C1070  1  0.78456000  0.53752000  0.89336000  1.0 -0.0683778313
C  C1071  1  0.79576000  0.47396000  0.93452000  1.0 0.0374629673
C  C1072  1  0.78290000  0.56809000  0.86611000  1.0 0.6101473818
C  C1073  1  0.88823000  0.83992000  0.88823000  1.0 -0.0989484458
C  C1074  1  0.90340000  0.80443000  0.90340000  1.0 0.6457207489
C  C1075  1  0.78456000  0.89336000  0.78456000  1.0 -0.0683778313
C  C1076  1  0.79576000  0.93452000  0.79576000  1.0 0.0374629673
C  C1077  1  0.78290000  0.86611000  0.78290000  1.0 0.6101473818
C  C1078  1  0.88823000  0.38362000  0.88823000  1.0 -0.0989484458
C  C1079  1  0.90340000  0.38877000  0.90340000  1.0 0.6457207489
C  C1080  1  0.78456000  0.53752000  0.78456000  1.0 -0.0683778313
C  C1081  1  0.79576000  0.47396000  0.79576000  1.0 0.0374629673
C  C1082  1  0.78290000  0.56809000  0.78290000  1.0 0.6101473818
C  C1083  1  0.38362000  0.88823000  0.83992000  1.0 -0.0989484458
C  C1084  1  0.38877000  0.90340000  0.80443000  1.0 0.6457207489
C  C1085  1  0.53752000  0.78456000  0.89336000  1.0 -0.0683778313
C  C1086  1  0.47396000  0.79576000  0.93452000  1.0 0.0374629673
C  C1087  1  0.56809000  0.78290000  0.86611000  1.0 0.6101473818
C  C1088  1  0.83992000  0.88823000  0.38362000  1.0 -0.0989484458
C  C1089  1  0.80443000  0.90340000  0.38877000  1.0 0.6457207489
C  C1090  1  0.89336000  0.78456000  0.53752000  1.0 -0.0683778313
C  C1091  1  0.93452000  0.79576000  0.47396000  1.0 0.0374629673
C  C1092  1  0.86611000  0.78290000  0.56809000  1.0 0.6101473818
C  C1093  1  0.36177000  0.36177000  0.86638000  1.0 -0.0989484458
C  C1094  1  0.34660000  0.34660000  0.86123000  1.0 0.6457207489
C  C1095  1  0.46544000  0.46544000  0.71248000  1.0 -0.0683778313
C  C1096  1  0.45424000  0.45424000  0.77604000  1.0 0.0374629673
C  C1097  1  0.46710000  0.46710000  0.68191000  1.0 0.6101473818
C  C1098  1  0.36177000  0.36177000  0.41008000  1.0 -0.0989484458
C  C1099  1  0.34660000  0.34660000  0.44557000  1.0 0.6457207489
C  C1100  1  0.46544000  0.46544000  0.35664000  1.0 -0.0683778313
C  C1101  1  0.45424000  0.45424000  0.31548000  1.0 0.0374629673
C  C1102  1  0.46710000  0.46710000  0.38389000  1.0 0.6101473818
C  C1103  1  0.41008000  0.86638000  0.36177000  1.0 -0.0989484458
C  C1104  1  0.44557000  0.86123000  0.34660000  1.0 0.6457207489
C  C1105  1  0.35664000  0.71248000  0.46544000  1.0 -0.0683778313
C  C1106  1  0.31548000  0.77604000  0.45424000  1.0 0.0374629673
C  C1107  1  0.38389000  0.68191000  0.46710000  1.0 0.6101473818
C  C1108  1  0.86638000  0.41008000  0.36177000  1.0 -0.0989484458
C  C1109  1  0.86123000  0.44557000  0.34660000  1.0 0.6457207489
C  C1110  1  0.71248000  0.35664000  0.46544000  1.0 -0.0683778313
C  C1111  1  0.77604000  0.31548000  0.45424000  1.0 0.0374629673
C  C1112  1  0.68191000  0.38389000  0.46710000  1.0 0.6101473818
C  C1113  1  0.41008000  0.36177000  0.86638000  1.0 -0.0989484458
C  C1114  1  0.44557000  0.34660000  0.86123000  1.0 0.6457207489
C  C1115  1  0.35664000  0.46544000  0.71248000  1.0 -0.0683778313
C  C1116  1  0.31548000  0.45424000  0.77604000  1.0 0.0374629673
C  C1117  1  0.38389000  0.46710000  0.68191000  1.0 0.6101473818
C  C1118  1  0.86638000  0.36177000  0.41008000  1.0 -0.0989484458
C  C1119  1  0.86123000  0.34660000  0.44557000  1.0 0.6457207489
C  C1120  1  0.71248000  0.46544000  0.35664000  1.0 -0.0683778313
C  C1121  1  0.77604000  0.45424000  0.31548000  1.0 0.0374629673
C  C1122  1  0.68191000  0.46710000  0.38389000  1.0 0.6101473818
C  C1123  1  0.36177000  0.41008000  0.36177000  1.0 -0.0989484458
C  C1124  1  0.34660000  0.44557000  0.34660000  1.0 0.6457207489
C  C1125  1  0.46544000  0.35664000  0.46544000  1.0 -0.0683778313
C  C1126  1  0.45424000  0.31548000  0.45424000  1.0 0.0374629673
C  C1127  1  0.46710000  0.38389000  0.46710000  1.0 0.6101473818
C  C1128  1  0.36177000  0.86638000  0.36177000  1.0 -0.0989484458
C  C1129  1  0.34660000  0.86123000  0.34660000  1.0 0.6457207489
C  C1130  1  0.46544000  0.71248000  0.46544000  1.0 -0.0683778313
C  C1131  1  0.45424000  0.77604000  0.45424000  1.0 0.0374629673
C  C1132  1  0.46710000  0.68191000  0.46710000  1.0 0.6101473818
C  C1133  1  0.36177000  0.41008000  0.86638000  1.0 -0.0989484458
C  C1134  1  0.34660000  0.44557000  0.86123000  1.0 0.6457207489
C  C1135  1  0.46544000  0.35664000  0.71248000  1.0 -0.0683778313
C  C1136  1  0.45424000  0.31548000  0.77604000  1.0 0.0374629673
C  C1137  1  0.46710000  0.38389000  0.68191000  1.0 0.6101473818
C  C1138  1  0.36177000  0.86638000  0.41008000  1.0 -0.0989484458
C  C1139  1  0.34660000  0.86123000  0.44557000  1.0 0.6457207489
C  C1140  1  0.46544000  0.71248000  0.35664000  1.0 -0.0683778313
C  C1141  1  0.45424000  0.77604000  0.31548000  1.0 0.0374629673
C  C1142  1  0.46710000  0.68191000  0.38389000  1.0 0.6101473818
C  C1143  1  0.86638000  0.36177000  0.36177000  1.0 -0.0989484458
C  C1144  1  0.86123000  0.34660000  0.34660000  1.0 0.6457207489
C  C1145  1  0.71248000  0.46544000  0.46544000  1.0 -0.0683778313
C  C1146  1  0.77604000  0.45424000  0.45424000  1.0 0.0374629673
C  C1147  1  0.68191000  0.46710000  0.46710000  1.0 0.6101473818
C  C1148  1  0.41008000  0.36177000  0.36177000  1.0 -0.0989484458
C  C1149  1  0.44557000  0.34660000  0.34660000  1.0 0.6457207489
C  C1150  1  0.35664000  0.46544000  0.46544000  1.0 -0.0683778313
C  C1151  1  0.31548000  0.45424000  0.45424000  1.0 0.0374629673
C  C1152  1  0.38389000  0.46710000  0.46710000  1.0 0.6101473818
C  C1153  1  0.73491000  0.73491000  0.84281000  1.0 -0.0989484458
C  C1154  1  0.75340000  0.75340000  0.83639000  1.0 0.6298589973
C  C1155  1  0.73491000  0.73491000  0.68737000  1.0 -0.0989484458
C  C1156  1  0.75340000  0.75340000  0.65681000  1.0 0.6298589973
C  C1157  1  0.84281000  0.68737000  0.73491000  1.0 -0.0989484458
C  C1158  1  0.83639000  0.65681000  0.75340000  1.0 0.6298589973
C  C1159  1  0.68737000  0.84281000  0.73491000  1.0 -0.0989484458
C  C1160  1  0.65681000  0.83639000  0.75340000  1.0 0.6298589973
C  C1161  1  0.84281000  0.73491000  0.73491000  1.0 -0.0989484458
C  C1162  1  0.83639000  0.75340000  0.75340000  1.0 0.6298589973
C  C1163  1  0.68737000  0.73491000  0.73491000  1.0 -0.0989484458
C  C1164  1  0.65681000  0.75340000  0.75340000  1.0 0.6298589973
C  C1165  1  0.73491000  0.84281000  0.68737000  1.0 -0.0989484458
C  C1166  1  0.75340000  0.83639000  0.65681000  1.0 0.6298589973
C  C1167  1  0.73491000  0.68737000  0.84281000  1.0 -0.0989484458
C  C1168  1  0.75340000  0.65681000  0.83639000  1.0 0.6298589973
C  C1169  1  0.73491000  0.84281000  0.73491000  1.0 -0.0989484458
C  C1170  1  0.75340000  0.83639000  0.75340000  1.0 0.6298589973
C  C1171  1  0.73491000  0.68737000  0.73491000  1.0 -0.0989484458
C  C1172  1  0.75340000  0.65681000  0.75340000  1.0 0.6298589973
C  C1173  1  0.68737000  0.73491000  0.84281000  1.0 -0.0989484458
C  C1174  1  0.65681000  0.75340000  0.83639000  1.0 0.6298589973
C  C1175  1  0.84281000  0.73491000  0.68737000  1.0 -0.0989484458
C  C1176  1  0.83639000  0.75340000  0.65681000  1.0 0.6298589973
C  C1177  1  0.51509000  0.51509000  0.56263000  1.0 -0.0989484458
C  C1178  1  0.49660000  0.49660000  0.59319000  1.0 0.6298589973
C  C1179  1  0.51509000  0.51509000  0.40719000  1.0 -0.0989484458
C  C1180  1  0.49660000  0.49660000  0.41361000  1.0 0.6298589973
C  C1181  1  0.40719000  0.56263000  0.51509000  1.0 -0.0989484458
C  C1182  1  0.41361000  0.59319000  0.49660000  1.0 0.6298589973
C  C1183  1  0.56263000  0.40719000  0.51509000  1.0 -0.0989484458
C  C1184  1  0.59319000  0.41361000  0.49660000  1.0 0.6298589973
C  C1185  1  0.40719000  0.51509000  0.56263000  1.0 -0.0989484458
C  C1186  1  0.41361000  0.49660000  0.59319000  1.0 0.6298589973
C  C1187  1  0.56263000  0.51509000  0.40719000  1.0 -0.0989484458
C  C1188  1  0.59319000  0.49660000  0.41361000  1.0 0.6298589973
C  C1189  1  0.51509000  0.40719000  0.51509000  1.0 -0.0989484458
C  C1190  1  0.49660000  0.41361000  0.49660000  1.0 0.6298589973
C  C1191  1  0.51509000  0.56263000  0.51509000  1.0 -0.0989484458
C  C1192  1  0.49660000  0.59319000  0.49660000  1.0 0.6298589973
C  C1193  1  0.51509000  0.40719000  0.56263000  1.0 -0.0989484458
C  C1194  1  0.49660000  0.41361000  0.59319000  1.0 0.6298589973
C  C1195  1  0.51509000  0.56263000  0.40719000  1.0 -0.0989484458
C  C1196  1  0.49660000  0.59319000  0.41361000  1.0 0.6298589973
C  C1197  1  0.56263000  0.51509000  0.51509000  1.0 -0.0989484458
C  C1198  1  0.59319000  0.49660000  0.49660000  1.0 0.6298589973
C  C1199  1  0.40719000  0.51509000  0.51509000  1.0 -0.0989484458
C  C1200  1  0.41361000  0.49660000  0.49660000  1.0 0.6298589973
C  C1201  1  0.85632000  0.90346000  0.85632000  1.0 0.0308547906
C  C1202  1  0.90346000  0.85632000  0.38390000  1.0 0.0308547906
C  C1203  1  0.85632000  0.38390000  0.85632000  1.0 0.0308547906
C  C1204  1  0.38390000  0.85632000  0.90346000  1.0 0.0308547906
C  C1205  1  0.85632000  0.85632000  0.90346000  1.0 0.0308547906
C  C1206  1  0.38390000  0.90346000  0.85632000  1.0 0.0308547906
C  C1207  1  0.85632000  0.85632000  0.38390000  1.0 0.0308547906
C  C1208  1  0.90346000  0.38390000  0.85632000  1.0 0.0308547906
C  C1209  1  0.90346000  0.85632000  0.85632000  1.0 0.0308547906
C  C1210  1  0.85632000  0.38390000  0.90346000  1.0 0.0308547906
C  C1211  1  0.38390000  0.85632000  0.85632000  1.0 0.0308547906
C  C1212  1  0.85632000  0.90346000  0.38390000  1.0 0.0308547906
C  C1213  1  0.39368000  0.34654000  0.86610000  1.0 0.0308547906
C  C1214  1  0.34654000  0.39368000  0.39368000  1.0 0.0308547906
C  C1215  1  0.39368000  0.86610000  0.34654000  1.0 0.0308547906
C  C1216  1  0.86610000  0.39368000  0.39368000  1.0 0.0308547906
C  C1217  1  0.39368000  0.39368000  0.86610000  1.0 0.0308547906
C  C1218  1  0.86610000  0.34654000  0.39368000  1.0 0.0308547906
C  C1219  1  0.39368000  0.39368000  0.34654000  1.0 0.0308547906
C  C1220  1  0.34654000  0.86610000  0.39368000  1.0 0.0308547906
C  C1221  1  0.34654000  0.39368000  0.86610000  1.0 0.0308547906
C  C1222  1  0.39368000  0.86610000  0.39368000  1.0 0.0308547906
C  C1223  1  0.86610000  0.39368000  0.34654000  1.0 0.0308547906
C  C1224  1  0.39368000  0.34654000  0.39368000  1.0 0.0308547906
O  O1  1  0.76118000  0.80445000  0.85440000  1.0 -0.5793780054
O  O2  1  0.73951000  0.78283000  0.83271000  1.0 -0.5793780054
O  O3  1  0.55889000  0.99271000  0.94308000  1.0 -0.5908740932
O  O4  1  0.44698000  0.04674000  0.00357000  1.0 -0.6108463363
O  O5  1  0.53276000  0.04073000  0.94818000  1.0 -0.6002569897
O  O6  1  0.72993000  0.86735000  0.91703000  1.0 -0.5793780054
O  O7  1  0.67764000  0.95214000  0.90269000  1.0 -0.572580145
O  O8  1  0.75723000  0.85369000  0.94707000  1.0 -0.5793780054
O  O9  1  0.88755000  0.93086000  0.78978000  1.0 -0.5908740932
O  O10  1  0.73654000  0.92441000  0.96755000  1.0 -0.6002569897
O  O11  1  0.70453000  0.98201000  0.89050000  1.0 -0.5908740932
O  O12  1  0.59473000  0.16727000  0.96916000  1.0 -0.6002569897
O  O13  1  0.30193000  0.10300000  0.00097000  1.0 -0.6108463363
O  O14  1  0.56832000  0.17564000  0.94087000  1.0 -0.5793780054
O  O15  1  0.34748000  0.11342000  0.97168000  1.0 -0.6002569897
O  O16  1  0.59725000  0.10559000  0.91740000  1.0 -0.5615901934
O  O17  1  0.65013000  0.08466000  0.90273000  1.0 -0.5908740932
O  O18  1  0.80445000  0.76118000  0.57997000  1.0 -0.5793780054
O  O19  1  0.78283000  0.73951000  0.64495000  1.0 -0.5793780054
O  O20  1  0.99271000  0.55889000  0.50532000  1.0 -0.5908740932
O  O21  1  0.04674000  0.44698000  0.50271000  1.0 -0.6108463363
O  O22  1  0.04073000  0.53276000  0.47833000  1.0 -0.6002569897
O  O23  1  0.86735000  0.72993000  0.48569000  1.0 -0.5793780054
O  O24  1  0.95214000  0.67764000  0.46753000  1.0 -0.572580145
O  O25  1  0.85369000  0.75723000  0.44201000  1.0 -0.5793780054
O  O26  1  0.93086000  0.88755000  0.39181000  1.0 -0.5908740932
O  O27  1  0.92441000  0.73654000  0.37150000  1.0 -0.6002569897
O  O28  1  0.98201000  0.70453000  0.42296000  1.0 -0.5908740932
O  O29  1  0.16727000  0.59473000  0.26884000  1.0 -0.6002569897
O  O30  1  0.10300000  0.30193000  0.59410000  1.0 -0.6108463363
O  O31  1  0.17564000  0.56832000  0.31517000  1.0 -0.5793780054
O  O32  1  0.11342000  0.34748000  0.56742000  1.0 -0.6002569897
O  O33  1  0.10559000  0.59725000  0.37976000  1.0 -0.5615901934
O  O34  1  0.08466000  0.65013000  0.36248000  1.0 -0.5908740932
O  O35  1  0.85440000  0.57997000  0.76118000  1.0 -0.5793780054
O  O36  1  0.83271000  0.64495000  0.73951000  1.0 -0.5793780054
O  O37  1  0.94308000  0.50532000  0.55889000  1.0 -0.5908740932
O  O38  1  0.00357000  0.50271000  0.44698000  1.0 -0.6108463363
O  O39  1  0.94818000  0.47833000  0.53276000  1.0 -0.6002569897
O  O40  1  0.91703000  0.48569000  0.72993000  1.0 -0.5793780054
O  O41  1  0.90269000  0.46753000  0.67764000  1.0 -0.572580145
O  O42  1  0.94707000  0.44201000  0.75723000  1.0 -0.5793780054
O  O43  1  0.78978000  0.39181000  0.88755000  1.0 -0.5908740932
O  O44  1  0.96755000  0.37150000  0.73654000  1.0 -0.6002569897
O  O45  1  0.89050000  0.42296000  0.70453000  1.0 -0.5908740932
O  O46  1  0.96916000  0.26884000  0.59473000  1.0 -0.6002569897
O  O47  1  0.00097000  0.59410000  0.30193000  1.0 -0.6108463363
O  O48  1  0.94087000  0.31517000  0.56832000  1.0 -0.5793780054
O  O49  1  0.97168000  0.56742000  0.34748000  1.0 -0.6002569897
O  O50  1  0.91740000  0.37976000  0.59725000  1.0 -0.5615901934
O  O51  1  0.90273000  0.36248000  0.65013000  1.0 -0.5908740932
O  O52  1  0.57997000  0.85440000  0.80445000  1.0 -0.5793780054
O  O53  1  0.64495000  0.83271000  0.78283000  1.0 -0.5793780054
O  O54  1  0.50532000  0.94308000  0.99271000  1.0 -0.5908740932
O  O55  1  0.50271000  0.00357000  0.04674000  1.0 -0.6108463363
O  O56  1  0.47833000  0.94818000  0.04073000  1.0 -0.6002569897
O  O57  1  0.48569000  0.91703000  0.86735000  1.0 -0.5793780054
O  O58  1  0.46753000  0.90269000  0.95214000  1.0 -0.572580145
O  O59  1  0.44201000  0.94707000  0.85369000  1.0 -0.5793780054
O  O60  1  0.39181000  0.78978000  0.93086000  1.0 -0.5908740932
O  O61  1  0.37150000  0.96755000  0.92441000  1.0 -0.6002569897
O  O62  1  0.42296000  0.89050000  0.98201000  1.0 -0.5908740932
O  O63  1  0.26884000  0.96916000  0.16727000  1.0 -0.6002569897
O  O64  1  0.59410000  0.00097000  0.10300000  1.0 -0.6108463363
O  O65  1  0.31517000  0.94087000  0.17564000  1.0 -0.5793780054
O  O66  1  0.56742000  0.97168000  0.11342000  1.0 -0.6002569897
O  O67  1  0.37976000  0.91740000  0.10559000  1.0 -0.5615901934
O  O68  1  0.36248000  0.90273000  0.08466000  1.0 -0.5908740932
O  O69  1  0.85440000  0.76118000  0.80445000  1.0 -0.5793780054
O  O70  1  0.83271000  0.73951000  0.78283000  1.0 -0.5793780054
O  O71  1  0.94308000  0.55889000  0.99271000  1.0 -0.5908740932
O  O72  1  0.00357000  0.44698000  0.04674000  1.0 -0.6108463363
O  O73  1  0.94818000  0.53276000  0.04073000  1.0 -0.6002569897
O  O74  1  0.91703000  0.72993000  0.86735000  1.0 -0.5793780054
O  O75  1  0.90269000  0.67764000  0.95214000  1.0 -0.572580145
O  O76  1  0.94707000  0.75723000  0.85369000  1.0 -0.5793780054
O  O77  1  0.78978000  0.88755000  0.93086000  1.0 -0.5908740932
O  O78  1  0.96755000  0.73654000  0.92441000  1.0 -0.6002569897
O  O79  1  0.89050000  0.70453000  0.98201000  1.0 -0.5908740932
O  O80  1  0.96916000  0.59473000  0.16727000  1.0 -0.6002569897
O  O81  1  0.00097000  0.30193000  0.10300000  1.0 -0.6108463363
O  O82  1  0.94087000  0.56832000  0.17564000  1.0 -0.5793780054
O  O83  1  0.97168000  0.34748000  0.11342000  1.0 -0.6002569897
O  O84  1  0.91740000  0.59725000  0.10559000  1.0 -0.5615901934
O  O85  1  0.90273000  0.65013000  0.08466000  1.0 -0.5908740932
O  O86  1  0.57997000  0.80445000  0.76118000  1.0 -0.5793780054
O  O87  1  0.64495000  0.78283000  0.73951000  1.0 -0.5793780054
O  O88  1  0.50532000  0.99271000  0.55889000  1.0 -0.5908740932
O  O89  1  0.50271000  0.04674000  0.44698000  1.0 -0.6108463363
O  O90  1  0.47833000  0.04073000  0.53276000  1.0 -0.6002569897
O  O91  1  0.48569000  0.86735000  0.72993000  1.0 -0.5793780054
O  O92  1  0.46753000  0.95214000  0.67764000  1.0 -0.572580145
O  O93  1  0.44201000  0.85369000  0.75723000  1.0 -0.5793780054
O  O94  1  0.39181000  0.93086000  0.88755000  1.0 -0.5908740932
O  O95  1  0.37150000  0.92441000  0.73654000  1.0 -0.6002569897
O  O96  1  0.42296000  0.98201000  0.70453000  1.0 -0.5908740932
O  O97  1  0.26884000  0.16727000  0.59473000  1.0 -0.6002569897
O  O98  1  0.59410000  0.10300000  0.30193000  1.0 -0.6108463363
O  O99  1  0.31517000  0.17564000  0.56832000  1.0 -0.5793780054
O  O100  1  0.56742000  0.11342000  0.34748000  1.0 -0.6002569897
O  O101  1  0.37976000  0.10559000  0.59725000  1.0 -0.5615901934
O  O102  1  0.36248000  0.08466000  0.65013000  1.0 -0.5908740932
O  O103  1  0.76118000  0.85440000  0.57997000  1.0 -0.5793780054
O  O104  1  0.73951000  0.83271000  0.64495000  1.0 -0.5793780054
O  O105  1  0.55889000  0.94308000  0.50532000  1.0 -0.5908740932
O  O106  1  0.44698000  0.00357000  0.50271000  1.0 -0.6108463363
O  O107  1  0.53276000  0.94818000  0.47833000  1.0 -0.6002569897
O  O108  1  0.72993000  0.91703000  0.48569000  1.0 -0.5793780054
O  O109  1  0.67764000  0.90269000  0.46753000  1.0 -0.572580145
O  O110  1  0.75723000  0.94707000  0.44201000  1.0 -0.5793780054
O  O111  1  0.88755000  0.78978000  0.39181000  1.0 -0.5908740932
O  O112  1  0.73654000  0.96755000  0.37150000  1.0 -0.6002569897
O  O113  1  0.70453000  0.89050000  0.42296000  1.0 -0.5908740932
O  O114  1  0.59473000  0.96916000  0.26884000  1.0 -0.6002569897
O  O115  1  0.30193000  0.00097000  0.59410000  1.0 -0.6108463363
O  O116  1  0.56832000  0.94087000  0.31517000  1.0 -0.5793780054
O  O117  1  0.34748000  0.97168000  0.56742000  1.0 -0.6002569897
O  O118  1  0.59725000  0.91740000  0.37976000  1.0 -0.5615901934
O  O119  1  0.65013000  0.90273000  0.36248000  1.0 -0.5908740932
O  O120  1  0.80445000  0.57997000  0.85440000  1.0 -0.5793780054
O  O121  1  0.78283000  0.64495000  0.83271000  1.0 -0.5793780054
O  O122  1  0.99271000  0.50532000  0.94308000  1.0 -0.5908740932
O  O123  1  0.04674000  0.50271000  0.00357000  1.0 -0.6108463363
O  O124  1  0.04073000  0.47833000  0.94818000  1.0 -0.6002569897
O  O125  1  0.86735000  0.48569000  0.91703000  1.0 -0.5793780054
O  O126  1  0.95214000  0.46753000  0.90269000  1.0 -0.572580145
O  O127  1  0.85369000  0.44201000  0.94707000  1.0 -0.5793780054
O  O128  1  0.93086000  0.39181000  0.78978000  1.0 -0.5908740932
O  O129  1  0.92441000  0.37150000  0.96755000  1.0 -0.6002569897
O  O130  1  0.98201000  0.42296000  0.89050000  1.0 -0.5908740932
O  O131  1  0.16727000  0.26884000  0.96916000  1.0 -0.6002569897
O  O132  1  0.10300000  0.59410000  0.00097000  1.0 -0.6108463363
O  O133  1  0.17564000  0.31517000  0.94087000  1.0 -0.5793780054
O  O134  1  0.11342000  0.56742000  0.97168000  1.0 -0.6002569897
O  O135  1  0.10559000  0.37976000  0.91740000  1.0 -0.5615901934
O  O136  1  0.08466000  0.36248000  0.90273000  1.0 -0.5908740932
O  O137  1  0.80445000  0.85440000  0.76118000  1.0 -0.5793780054
O  O138  1  0.78283000  0.83271000  0.73951000  1.0 -0.5793780054
O  O139  1  0.99271000  0.94308000  0.55889000  1.0 -0.5908740932
O  O140  1  0.04674000  0.00357000  0.44698000  1.0 -0.6108463363
O  O141  1  0.04073000  0.94818000  0.53276000  1.0 -0.6002569897
O  O142  1  0.86735000  0.91703000  0.72993000  1.0 -0.5793780054
O  O143  1  0.95214000  0.90269000  0.67764000  1.0 -0.572580145
O  O144  1  0.85369000  0.94707000  0.75723000  1.0 -0.5793780054
O  O145  1  0.93086000  0.78978000  0.88755000  1.0 -0.5908740932
O  O146  1  0.92441000  0.96755000  0.73654000  1.0 -0.6002569897
O  O147  1  0.98201000  0.89050000  0.70453000  1.0 -0.5908740932
O  O148  1  0.16727000  0.96916000  0.59473000  1.0 -0.6002569897
O  O149  1  0.10300000  0.00097000  0.30193000  1.0 -0.6108463363
O  O150  1  0.17564000  0.94087000  0.56832000  1.0 -0.5793780054
O  O151  1  0.11342000  0.97168000  0.34748000  1.0 -0.6002569897
O  O152  1  0.10559000  0.91740000  0.59725000  1.0 -0.5615901934
O  O153  1  0.08466000  0.90273000  0.65013000  1.0 -0.5908740932
O  O154  1  0.76118000  0.57997000  0.80445000  1.0 -0.5793780054
O  O155  1  0.73951000  0.64495000  0.78283000  1.0 -0.5793780054
O  O156  1  0.55889000  0.50532000  0.99271000  1.0 -0.5908740932
O  O157  1  0.44698000  0.50271000  0.04674000  1.0 -0.6108463363
O  O158  1  0.53276000  0.47833000  0.04073000  1.0 -0.6002569897
O  O159  1  0.72993000  0.48569000  0.86735000  1.0 -0.5793780054
O  O160  1  0.67764000  0.46753000  0.95214000  1.0 -0.572580145
O  O161  1  0.75723000  0.44201000  0.85369000  1.0 -0.5793780054
O  O162  1  0.88755000  0.39181000  0.93086000  1.0 -0.5908740932
O  O163  1  0.73654000  0.37150000  0.92441000  1.0 -0.6002569897
O  O164  1  0.70453000  0.42296000  0.98201000  1.0 -0.5908740932
O  O165  1  0.59473000  0.26884000  0.16727000  1.0 -0.6002569897
O  O166  1  0.30193000  0.59410000  0.10300000  1.0 -0.6108463363
O  O167  1  0.56832000  0.31517000  0.17564000  1.0 -0.5793780054
O  O168  1  0.34748000  0.56742000  0.11342000  1.0 -0.6002569897
O  O169  1  0.59725000  0.37976000  0.10559000  1.0 -0.5615901934
O  O170  1  0.65013000  0.36248000  0.08466000  1.0 -0.5908740932
O  O171  1  0.57997000  0.76118000  0.85440000  1.0 -0.5793780054
O  O172  1  0.64495000  0.73951000  0.83271000  1.0 -0.5793780054
O  O173  1  0.50532000  0.55889000  0.94308000  1.0 -0.5908740932
O  O174  1  0.50271000  0.44698000  0.00357000  1.0 -0.6108463363
O  O175  1  0.47833000  0.53276000  0.94818000  1.0 -0.6002569897
O  O176  1  0.48569000  0.72993000  0.91703000  1.0 -0.5793780054
O  O177  1  0.46753000  0.67764000  0.90269000  1.0 -0.572580145
O  O178  1  0.44201000  0.75723000  0.94707000  1.0 -0.5793780054
O  O179  1  0.39181000  0.88755000  0.78978000  1.0 -0.5908740932
O  O180  1  0.37150000  0.73654000  0.96755000  1.0 -0.6002569897
O  O181  1  0.42296000  0.70453000  0.89050000  1.0 -0.5908740932
O  O182  1  0.26884000  0.59473000  0.96916000  1.0 -0.6002569897
O  O183  1  0.59410000  0.30193000  0.00097000  1.0 -0.6108463363
O  O184  1  0.31517000  0.56832000  0.94087000  1.0 -0.5793780054
O  O185  1  0.56742000  0.34748000  0.97168000  1.0 -0.6002569897
O  O186  1  0.37976000  0.59725000  0.91740000  1.0 -0.5615901934
O  O187  1  0.36248000  0.65013000  0.90273000  1.0 -0.5908740932
O  O188  1  0.85440000  0.80445000  0.57997000  1.0 -0.5793780054
O  O189  1  0.83271000  0.78283000  0.64495000  1.0 -0.5793780054
O  O190  1  0.94308000  0.99271000  0.50532000  1.0 -0.5908740932
O  O191  1  0.00357000  0.04674000  0.50271000  1.0 -0.6108463363
O  O192  1  0.94818000  0.04073000  0.47833000  1.0 -0.6002569897
O  O193  1  0.91703000  0.86735000  0.48569000  1.0 -0.5793780054
O  O194  1  0.90269000  0.95214000  0.46753000  1.0 -0.572580145
O  O195  1  0.94707000  0.85369000  0.44201000  1.0 -0.5793780054
O  O196  1  0.78978000  0.93086000  0.39181000  1.0 -0.5908740932
O  O197  1  0.96755000  0.92441000  0.37150000  1.0 -0.6002569897
O  O198  1  0.89050000  0.98201000  0.42296000  1.0 -0.5908740932
O  O199  1  0.96916000  0.16727000  0.26884000  1.0 -0.6002569897
O  O200  1  0.00097000  0.10300000  0.59410000  1.0 -0.6108463363
O  O201  1  0.94087000  0.17564000  0.31517000  1.0 -0.5793780054
O  O202  1  0.97168000  0.11342000  0.56742000  1.0 -0.6002569897
O  O203  1  0.91740000  0.10559000  0.37976000  1.0 -0.5615901934
O  O204  1  0.90273000  0.08466000  0.36248000  1.0 -0.5908740932
O  O205  1  0.48882000  0.44555000  0.67003000  1.0 -0.5793780054
O  O206  1  0.51049000  0.46717000  0.60505000  1.0 -0.5793780054
O  O207  1  0.69111000  0.25729000  0.74468000  1.0 -0.5908740932
O  O208  1  0.80302000  0.20326000  0.74729000  1.0 -0.6108463363
O  O209  1  0.71724000  0.20927000  0.77167000  1.0 -0.6002569897
O  O210  1  0.52007000  0.38265000  0.76431000  1.0 -0.5793780054
O  O211  1  0.57236000  0.29786000  0.78247000  1.0 -0.572580145
O  O212  1  0.49277000  0.39631000  0.80799000  1.0 -0.5793780054
O  O213  1  0.36245000  0.31914000  0.85819000  1.0 -0.5908740932
O  O214  1  0.51346000  0.32559000  0.87850000  1.0 -0.6002569897
O  O215  1  0.54547000  0.26799000  0.82704000  1.0 -0.5908740932
O  O216  1  0.65527000  0.08273000  0.98116000  1.0 -0.6002569897
O  O217  1  0.94807000  0.14700000  0.65590000  1.0 -0.6108463363
O  O218  1  0.68168000  0.07436000  0.93483000  1.0 -0.5793780054
O  O219  1  0.90252000  0.13658000  0.68258000  1.0 -0.6002569897
O  O220  1  0.65275000  0.14441000  0.87024000  1.0 -0.5615901934
O  O221  1  0.59987000  0.16534000  0.88752000  1.0 -0.5908740932
O  O222  1  0.44555000  0.48882000  0.39560000  1.0 -0.5793780054
O  O223  1  0.46717000  0.51049000  0.41729000  1.0 -0.5793780054
O  O224  1  0.25729000  0.69111000  0.30692000  1.0 -0.5908740932
O  O225  1  0.20326000  0.80302000  0.24643000  1.0 -0.6108463363
O  O226  1  0.20927000  0.71724000  0.30182000  1.0 -0.6002569897
O  O227  1  0.38265000  0.52007000  0.33297000  1.0 -0.5793780054
O  O228  1  0.29786000  0.57236000  0.34731000  1.0 -0.572580145
O  O229  1  0.39631000  0.49277000  0.30293000  1.0 -0.5793780054
O  O230  1  0.31914000  0.36245000  0.46022000  1.0 -0.5908740932
O  O231  1  0.32559000  0.51346000  0.28245000  1.0 -0.6002569897
O  O232  1  0.26799000  0.54547000  0.35950000  1.0 -0.5908740932
O  O233  1  0.08273000  0.65527000  0.28084000  1.0 -0.6002569897
O  O234  1  0.14700000  0.94807000  0.24903000  1.0 -0.6108463363
O  O235  1  0.07436000  0.68168000  0.30913000  1.0 -0.5793780054
O  O236  1  0.13658000  0.90252000  0.27832000  1.0 -0.6002569897
O  O237  1  0.14441000  0.65275000  0.33260000  1.0 -0.5615901934
O  O238  1  0.16534000  0.59987000  0.34727000  1.0 -0.5908740932
O  O239  1  0.39560000  0.67003000  0.44555000  1.0 -0.5793780054
O  O240  1  0.41729000  0.60505000  0.46717000  1.0 -0.5793780054
O  O241  1  0.30692000  0.74468000  0.25729000  1.0 -0.5908740932
O  O242  1  0.24643000  0.74729000  0.20326000  1.0 -0.6108463363
O  O243  1  0.30182000  0.77167000  0.20927000  1.0 -0.6002569897
O  O244  1  0.33297000  0.76431000  0.38265000  1.0 -0.5793780054
O  O245  1  0.34731000  0.78247000  0.29786000  1.0 -0.572580145
O  O246  1  0.30293000  0.80799000  0.39631000  1.0 -0.5793780054
O  O247  1  0.46022000  0.85819000  0.31914000  1.0 -0.5908740932
O  O248  1  0.28245000  0.87850000  0.32559000  1.0 -0.6002569897
O  O249  1  0.35950000  0.82704000  0.26799000  1.0 -0.5908740932
O  O250  1  0.28084000  0.98116000  0.08273000  1.0 -0.6002569897
O  O251  1  0.24903000  0.65590000  0.14700000  1.0 -0.6108463363
O  O252  1  0.30913000  0.93483000  0.07436000  1.0 -0.5793780054
O  O253  1  0.27832000  0.68258000  0.13658000  1.0 -0.6002569897
O  O254  1  0.33260000  0.87024000  0.14441000  1.0 -0.5615901934
O  O255  1  0.34727000  0.88752000  0.16534000  1.0 -0.5908740932
O  O256  1  0.67003000  0.39560000  0.48882000  1.0 -0.5793780054
O  O257  1  0.60505000  0.41729000  0.51049000  1.0 -0.5793780054
O  O258  1  0.74468000  0.30692000  0.69111000  1.0 -0.5908740932
O  O259  1  0.74729000  0.24643000  0.80302000  1.0 -0.6108463363
O  O260  1  0.77167000  0.30182000  0.71724000  1.0 -0.6002569897
O  O261  1  0.76431000  0.33297000  0.52007000  1.0 -0.5793780054
O  O262  1  0.78247000  0.34731000  0.57236000  1.0 -0.572580145
O  O263  1  0.80799000  0.30293000  0.49277000  1.0 -0.5793780054
O  O264  1  0.85819000  0.46022000  0.36245000  1.0 -0.5908740932
O  O265  1  0.87850000  0.28245000  0.51346000  1.0 -0.6002569897
O  O266  1  0.82704000  0.35950000  0.54547000  1.0 -0.5908740932
O  O267  1  0.98116000  0.28084000  0.65527000  1.0 -0.6002569897
O  O268  1  0.65590000  0.24903000  0.94807000  1.0 -0.6108463363
O  O269  1  0.93483000  0.30913000  0.68168000  1.0 -0.5793780054
O  O270  1  0.68258000  0.27832000  0.90252000  1.0 -0.6002569897
O  O271  1  0.87024000  0.33260000  0.65275000  1.0 -0.5615901934
O  O272  1  0.88752000  0.34727000  0.59987000  1.0 -0.5908740932
O  O273  1  0.39560000  0.48882000  0.67003000  1.0 -0.5793780054
O  O274  1  0.41729000  0.51049000  0.60505000  1.0 -0.5793780054
O  O275  1  0.30692000  0.69111000  0.74468000  1.0 -0.5908740932
O  O276  1  0.24643000  0.80302000  0.74729000  1.0 -0.6108463363
O  O277  1  0.30182000  0.71724000  0.77167000  1.0 -0.6002569897
O  O278  1  0.33297000  0.52007000  0.76431000  1.0 -0.5793780054
O  O279  1  0.34731000  0.57236000  0.78247000  1.0 -0.572580145
O  O280  1  0.30293000  0.49277000  0.80799000  1.0 -0.5793780054
O  O281  1  0.46022000  0.36245000  0.85819000  1.0 -0.5908740932
O  O282  1  0.28245000  0.51346000  0.87850000  1.0 -0.6002569897
O  O283  1  0.35950000  0.54547000  0.82704000  1.0 -0.5908740932
O  O284  1  0.28084000  0.65527000  0.98116000  1.0 -0.6002569897
O  O285  1  0.24903000  0.94807000  0.65590000  1.0 -0.6108463363
O  O286  1  0.30913000  0.68168000  0.93483000  1.0 -0.5793780054
O  O287  1  0.27832000  0.90252000  0.68258000  1.0 -0.6002569897
O  O288  1  0.33260000  0.65275000  0.87024000  1.0 -0.5615901934
O  O289  1  0.34727000  0.59987000  0.88752000  1.0 -0.5908740932
O  O290  1  0.67003000  0.44555000  0.39560000  1.0 -0.5793780054
O  O291  1  0.60505000  0.46717000  0.41729000  1.0 -0.5793780054
O  O292  1  0.74468000  0.25729000  0.30692000  1.0 -0.5908740932
O  O293  1  0.74729000  0.20326000  0.24643000  1.0 -0.6108463363
O  O294  1  0.77167000  0.20927000  0.30182000  1.0 -0.6002569897
O  O295  1  0.76431000  0.38265000  0.33297000  1.0 -0.5793780054
O  O296  1  0.78247000  0.29786000  0.34731000  1.0 -0.572580145
O  O297  1  0.80799000  0.39631000  0.30293000  1.0 -0.5793780054
O  O298  1  0.85819000  0.31914000  0.46022000  1.0 -0.5908740932
O  O299  1  0.87850000  0.32559000  0.28245000  1.0 -0.6002569897
O  O300  1  0.82704000  0.26799000  0.35950000  1.0 -0.5908740932
O  O301  1  0.98116000  0.08273000  0.28084000  1.0 -0.6002569897
O  O302  1  0.65590000  0.14700000  0.24903000  1.0 -0.6108463363
O  O303  1  0.93483000  0.07436000  0.30913000  1.0 -0.5793780054
O  O304  1  0.68258000  0.13658000  0.27832000  1.0 -0.6002569897
O  O305  1  0.87024000  0.14441000  0.33260000  1.0 -0.5615901934
O  O306  1  0.88752000  0.16534000  0.34727000  1.0 -0.5908740932
O  O307  1  0.48882000  0.39560000  0.44555000  1.0 -0.5793780054
O  O308  1  0.51049000  0.41729000  0.46717000  1.0 -0.5793780054
O  O309  1  0.69111000  0.30692000  0.25729000  1.0 -0.5908740932
O  O310  1  0.80302000  0.24643000  0.20326000  1.0 -0.6108463363
O  O311  1  0.71724000  0.30182000  0.20927000  1.0 -0.6002569897
O  O312  1  0.52007000  0.33297000  0.38265000  1.0 -0.5793780054
O  O313  1  0.57236000  0.34731000  0.29786000  1.0 -0.572580145
O  O314  1  0.49277000  0.30293000  0.39631000  1.0 -0.5793780054
O  O315  1  0.36245000  0.46022000  0.31914000  1.0 -0.5908740932
O  O316  1  0.51346000  0.28245000  0.32559000  1.0 -0.6002569897
O  O317  1  0.54547000  0.35950000  0.26799000  1.0 -0.5908740932
O  O318  1  0.65527000  0.28084000  0.08273000  1.0 -0.6002569897
O  O319  1  0.94807000  0.24903000  0.14700000  1.0 -0.6108463363
O  O320  1  0.68168000  0.30913000  0.07436000  1.0 -0.5793780054
O  O321  1  0.90252000  0.27832000  0.13658000  1.0 -0.6002569897
O  O322  1  0.65275000  0.33260000  0.14441000  1.0 -0.5615901934
O  O323  1  0.59987000  0.34727000  0.16534000  1.0 -0.5908740932
O  O324  1  0.44555000  0.67003000  0.48882000  1.0 -0.5793780054
O  O325  1  0.46717000  0.60505000  0.51049000  1.0 -0.5793780054
O  O326  1  0.25729000  0.74468000  0.69111000  1.0 -0.5908740932
O  O327  1  0.20326000  0.74729000  0.80302000  1.0 -0.6108463363
O  O328  1  0.20927000  0.77167000  0.71724000  1.0 -0.6002569897
O  O329  1  0.38265000  0.76431000  0.52007000  1.0 -0.5793780054
O  O330  1  0.29786000  0.78247000  0.57236000  1.0 -0.572580145
O  O331  1  0.39631000  0.80799000  0.49277000  1.0 -0.5793780054
O  O332  1  0.31914000  0.85819000  0.36245000  1.0 -0.5908740932
O  O333  1  0.32559000  0.87850000  0.51346000  1.0 -0.6002569897
O  O334  1  0.26799000  0.82704000  0.54547000  1.0 -0.5908740932
O  O335  1  0.08273000  0.98116000  0.65527000  1.0 -0.6002569897
O  O336  1  0.14700000  0.65590000  0.94807000  1.0 -0.6108463363
O  O337  1  0.07436000  0.93483000  0.68168000  1.0 -0.5793780054
O  O338  1  0.13658000  0.68258000  0.90252000  1.0 -0.6002569897
O  O339  1  0.14441000  0.87024000  0.65275000  1.0 -0.5615901934
O  O340  1  0.16534000  0.88752000  0.59987000  1.0 -0.5908740932
O  O341  1  0.44555000  0.39560000  0.67003000  1.0 -0.5793780054
O  O342  1  0.46717000  0.41729000  0.60505000  1.0 -0.5793780054
O  O343  1  0.25729000  0.30692000  0.74468000  1.0 -0.5908740932
O  O344  1  0.20326000  0.24643000  0.74729000  1.0 -0.6108463363
O  O345  1  0.20927000  0.30182000  0.77167000  1.0 -0.6002569897
O  O346  1  0.38265000  0.33297000  0.76431000  1.0 -0.5793780054
O  O347  1  0.29786000  0.34731000  0.78247000  1.0 -0.572580145
O  O348  1  0.39631000  0.30293000  0.80799000  1.0 -0.5793780054
O  O349  1  0.31914000  0.46022000  0.85819000  1.0 -0.5908740932
O  O350  1  0.32559000  0.28245000  0.87850000  1.0 -0.6002569897
O  O351  1  0.26799000  0.35950000  0.82704000  1.0 -0.5908740932
O  O352  1  0.08273000  0.28084000  0.98116000  1.0 -0.6002569897
O  O353  1  0.14700000  0.24903000  0.65590000  1.0 -0.6108463363
O  O354  1  0.07436000  0.30913000  0.93483000  1.0 -0.5793780054
O  O355  1  0.13658000  0.27832000  0.68258000  1.0 -0.6002569897
O  O356  1  0.14441000  0.33260000  0.87024000  1.0 -0.5615901934
O  O357  1  0.16534000  0.34727000  0.88752000  1.0 -0.5908740932
O  O358  1  0.48882000  0.67003000  0.39560000  1.0 -0.5793780054
O  O359  1  0.51049000  0.60505000  0.41729000  1.0 -0.5793780054
O  O360  1  0.69111000  0.74468000  0.30692000  1.0 -0.5908740932
O  O361  1  0.80302000  0.74729000  0.24643000  1.0 -0.6108463363
O  O362  1  0.71724000  0.77167000  0.30182000  1.0 -0.6002569897
O  O363  1  0.52007000  0.76431000  0.33297000  1.0 -0.5793780054
O  O364  1  0.57236000  0.78247000  0.34731000  1.0 -0.572580145
O  O365  1  0.49277000  0.80799000  0.30293000  1.0 -0.5793780054
O  O366  1  0.36245000  0.85819000  0.46022000  1.0 -0.5908740932
O  O367  1  0.51346000  0.87850000  0.28245000  1.0 -0.6002569897
O  O368  1  0.54547000  0.82704000  0.35950000  1.0 -0.5908740932
O  O369  1  0.65527000  0.98116000  0.28084000  1.0 -0.6002569897
O  O370  1  0.94807000  0.65590000  0.24903000  1.0 -0.6108463363
O  O371  1  0.68168000  0.93483000  0.30913000  1.0 -0.5793780054
O  O372  1  0.90252000  0.68258000  0.27832000  1.0 -0.6002569897
O  O373  1  0.65275000  0.87024000  0.33260000  1.0 -0.5615901934
O  O374  1  0.59987000  0.88752000  0.34727000  1.0 -0.5908740932
O  O375  1  0.67003000  0.48882000  0.44555000  1.0 -0.5793780054
O  O376  1  0.60505000  0.51049000  0.46717000  1.0 -0.5793780054
O  O377  1  0.74468000  0.69111000  0.25729000  1.0 -0.5908740932
O  O378  1  0.74729000  0.80302000  0.20326000  1.0 -0.6108463363
O  O379  1  0.77167000  0.71724000  0.20927000  1.0 -0.6002569897
O  O380  1  0.76431000  0.52007000  0.38265000  1.0 -0.5793780054
O  O381  1  0.78247000  0.57236000  0.29786000  1.0 -0.572580145
O  O382  1  0.80799000  0.49277000  0.39631000  1.0 -0.5793780054
O  O383  1  0.85819000  0.36245000  0.31914000  1.0 -0.5908740932
O  O384  1  0.87850000  0.51346000  0.32559000  1.0 -0.6002569897
O  O385  1  0.82704000  0.54547000  0.26799000  1.0 -0.5908740932
O  O386  1  0.98116000  0.65527000  0.08273000  1.0 -0.6002569897
O  O387  1  0.65590000  0.94807000  0.14700000  1.0 -0.6108463363
O  O388  1  0.93483000  0.68168000  0.07436000  1.0 -0.5793780054
O  O389  1  0.68258000  0.90252000  0.13658000  1.0 -0.6002569897
O  O390  1  0.87024000  0.65275000  0.14441000  1.0 -0.5615901934
O  O391  1  0.88752000  0.59987000  0.16534000  1.0 -0.5908740932
O  O392  1  0.39560000  0.44555000  0.48882000  1.0 -0.5793780054
O  O393  1  0.41729000  0.46717000  0.51049000  1.0 -0.5793780054
O  O394  1  0.30692000  0.25729000  0.69111000  1.0 -0.5908740932
O  O395  1  0.24643000  0.20326000  0.80302000  1.0 -0.6108463363
O  O396  1  0.30182000  0.20927000  0.71724000  1.0 -0.6002569897
O  O397  1  0.33297000  0.38265000  0.52007000  1.0 -0.5793780054
O  O398  1  0.34731000  0.29786000  0.57236000  1.0 -0.572580145
O  O399  1  0.30293000  0.39631000  0.49277000  1.0 -0.5793780054
O  O400  1  0.46022000  0.31914000  0.36245000  1.0 -0.5908740932
O  O401  1  0.28245000  0.32559000  0.51346000  1.0 -0.6002569897
O  O402  1  0.35950000  0.26799000  0.54547000  1.0 -0.5908740932
O  O403  1  0.28084000  0.08273000  0.65527000  1.0 -0.6002569897
O  O404  1  0.24903000  0.14700000  0.94807000  1.0 -0.6108463363
O  O405  1  0.30913000  0.07436000  0.68168000  1.0 -0.5793780054
O  O406  1  0.27832000  0.13658000  0.90252000  1.0 -0.6002569897
O  O407  1  0.33260000  0.14441000  0.65275000  1.0 -0.5615901934
O  O408  1  0.34727000  0.16534000  0.59987000  1.0 -0.5908740932
O  O409  1  0.48882000  0.44555000  0.39560000  1.0 -0.5793780054
O  O410  1  0.51049000  0.46717000  0.41729000  1.0 -0.5793780054
O  O411  1  0.69111000  0.25729000  0.30692000  1.0 -0.5908740932
O  O412  1  0.80302000  0.20326000  0.24643000  1.0 -0.6108463363
O  O413  1  0.71724000  0.20927000  0.30182000  1.0 -0.6002569897
O  O414  1  0.52007000  0.38265000  0.33297000  1.0 -0.5793780054
O  O415  1  0.57236000  0.29786000  0.34731000  1.0 -0.572580145
O  O416  1  0.49277000  0.39631000  0.30293000  1.0 -0.5793780054
O  O417  1  0.36245000  0.31914000  0.46022000  1.0 -0.5908740932
O  O418  1  0.51346000  0.32559000  0.28245000  1.0 -0.6002569897
O  O419  1  0.54547000  0.26799000  0.35950000  1.0 -0.5908740932
O  O420  1  0.65527000  0.08273000  0.28084000  1.0 -0.6002569897
O  O421  1  0.94807000  0.14700000  0.24903000  1.0 -0.6108463363
O  O422  1  0.68168000  0.07436000  0.30913000  1.0 -0.5793780054
O  O423  1  0.90252000  0.13658000  0.27832000  1.0 -0.6002569897
O  O424  1  0.65275000  0.14441000  0.33260000  1.0 -0.5615901934
O  O425  1  0.59987000  0.16534000  0.34727000  1.0 -0.5908740932
O  O426  1  0.44555000  0.48882000  0.67003000  1.0 -0.5793780054
O  O427  1  0.46717000  0.51049000  0.60505000  1.0 -0.5793780054
O  O428  1  0.25729000  0.69111000  0.74468000  1.0 -0.5908740932
O  O429  1  0.20326000  0.80302000  0.74729000  1.0 -0.6108463363
O  O430  1  0.20927000  0.71724000  0.77167000  1.0 -0.6002569897
O  O431  1  0.38265000  0.52007000  0.76431000  1.0 -0.5793780054
O  O432  1  0.29786000  0.57236000  0.78247000  1.0 -0.572580145
O  O433  1  0.39631000  0.49277000  0.80799000  1.0 -0.5793780054
O  O434  1  0.31914000  0.36245000  0.85819000  1.0 -0.5908740932
O  O435  1  0.32559000  0.51346000  0.87850000  1.0 -0.6002569897
O  O436  1  0.26799000  0.54547000  0.82704000  1.0 -0.5908740932
O  O437  1  0.08273000  0.65527000  0.98116000  1.0 -0.6002569897
O  O438  1  0.14700000  0.94807000  0.65590000  1.0 -0.6108463363
O  O439  1  0.07436000  0.68168000  0.93483000  1.0 -0.5793780054
O  O440  1  0.13658000  0.90252000  0.68258000  1.0 -0.6002569897
O  O441  1  0.14441000  0.65275000  0.87024000  1.0 -0.5615901934
O  O442  1  0.16534000  0.59987000  0.88752000  1.0 -0.5908740932
O  O443  1  0.39560000  0.67003000  0.48882000  1.0 -0.5793780054
O  O444  1  0.41729000  0.60505000  0.51049000  1.0 -0.5793780054
O  O445  1  0.30692000  0.74468000  0.69111000  1.0 -0.5908740932
O  O446  1  0.24643000  0.74729000  0.80302000  1.0 -0.6108463363
O  O447  1  0.30182000  0.77167000  0.71724000  1.0 -0.6002569897
O  O448  1  0.33297000  0.76431000  0.52007000  1.0 -0.5793780054
O  O449  1  0.34731000  0.78247000  0.57236000  1.0 -0.572580145
O  O450  1  0.30293000  0.80799000  0.49277000  1.0 -0.5793780054
O  O451  1  0.46022000  0.85819000  0.36245000  1.0 -0.5908740932
O  O452  1  0.28245000  0.87850000  0.51346000  1.0 -0.6002569897
O  O453  1  0.35950000  0.82704000  0.54547000  1.0 -0.5908740932
O  O454  1  0.28084000  0.98116000  0.65527000  1.0 -0.6002569897
O  O455  1  0.24903000  0.65590000  0.94807000  1.0 -0.6108463363
O  O456  1  0.30913000  0.93483000  0.68168000  1.0 -0.5793780054
O  O457  1  0.27832000  0.68258000  0.90252000  1.0 -0.6002569897
O  O458  1  0.33260000  0.87024000  0.65275000  1.0 -0.5615901934
O  O459  1  0.34727000  0.88752000  0.59987000  1.0 -0.5908740932
O  O460  1  0.67003000  0.39560000  0.44555000  1.0 -0.5793780054
O  O461  1  0.60505000  0.41729000  0.46717000  1.0 -0.5793780054
O  O462  1  0.74468000  0.30692000  0.25729000  1.0 -0.5908740932
O  O463  1  0.74729000  0.24643000  0.20326000  1.0 -0.6108463363
O  O464  1  0.77167000  0.30182000  0.20927000  1.0 -0.6002569897
O  O465  1  0.76431000  0.33297000  0.38265000  1.0 -0.5793780054
O  O466  1  0.78247000  0.34731000  0.29786000  1.0 -0.572580145
O  O467  1  0.80799000  0.30293000  0.39631000  1.0 -0.5793780054
O  O468  1  0.85819000  0.46022000  0.31914000  1.0 -0.5908740932
O  O469  1  0.87850000  0.28245000  0.32559000  1.0 -0.6002569897
O  O470  1  0.82704000  0.35950000  0.26799000  1.0 -0.5908740932
O  O471  1  0.98116000  0.28084000  0.08273000  1.0 -0.6002569897
O  O472  1  0.65590000  0.24903000  0.14700000  1.0 -0.6108463363
O  O473  1  0.93483000  0.30913000  0.07436000  1.0 -0.5793780054
O  O474  1  0.68258000  0.27832000  0.13658000  1.0 -0.6002569897
O  O475  1  0.87024000  0.33260000  0.14441000  1.0 -0.5615901934
O  O476  1  0.88752000  0.34727000  0.16534000  1.0 -0.5908740932
O  O477  1  0.39560000  0.48882000  0.44555000  1.0 -0.5793780054
O  O478  1  0.41729000  0.51049000  0.46717000  1.0 -0.5793780054
O  O479  1  0.30692000  0.69111000  0.25729000  1.0 -0.5908740932
O  O480  1  0.24643000  0.80302000  0.20326000  1.0 -0.6108463363
O  O481  1  0.30182000  0.71724000  0.20927000  1.0 -0.6002569897
O  O482  1  0.33297000  0.52007000  0.38265000  1.0 -0.5793780054
O  O483  1  0.34731000  0.57236000  0.29786000  1.0 -0.572580145
O  O484  1  0.30293000  0.49277000  0.39631000  1.0 -0.5793780054
O  O485  1  0.46022000  0.36245000  0.31914000  1.0 -0.5908740932
O  O486  1  0.28245000  0.51346000  0.32559000  1.0 -0.6002569897
O  O487  1  0.35950000  0.54547000  0.26799000  1.0 -0.5908740932
O  O488  1  0.28084000  0.65527000  0.08273000  1.0 -0.6002569897
O  O489  1  0.24903000  0.94807000  0.14700000  1.0 -0.6108463363
O  O490  1  0.30913000  0.68168000  0.07436000  1.0 -0.5793780054
O  O491  1  0.27832000  0.90252000  0.13658000  1.0 -0.6002569897
O  O492  1  0.33260000  0.65275000  0.14441000  1.0 -0.5615901934
O  O493  1  0.34727000  0.59987000  0.16534000  1.0 -0.5908740932
O  O494  1  0.67003000  0.44555000  0.48882000  1.0 -0.5793780054
O  O495  1  0.60505000  0.46717000  0.51049000  1.0 -0.5793780054
O  O496  1  0.74468000  0.25729000  0.69111000  1.0 -0.5908740932
O  O497  1  0.74729000  0.20326000  0.80302000  1.0 -0.6108463363
O  O498  1  0.77167000  0.20927000  0.71724000  1.0 -0.6002569897
O  O499  1  0.76431000  0.38265000  0.52007000  1.0 -0.5793780054
O  O500  1  0.78247000  0.29786000  0.57236000  1.0 -0.572580145
O  O501  1  0.80799000  0.39631000  0.49277000  1.0 -0.5793780054
O  O502  1  0.85819000  0.31914000  0.36245000  1.0 -0.5908740932
O  O503  1  0.87850000  0.32559000  0.51346000  1.0 -0.6002569897
O  O504  1  0.82704000  0.26799000  0.54547000  1.0 -0.5908740932
O  O505  1  0.98116000  0.08273000  0.65527000  1.0 -0.6002569897
O  O506  1  0.65590000  0.14700000  0.94807000  1.0 -0.6108463363
O  O507  1  0.93483000  0.07436000  0.68168000  1.0 -0.5793780054
O  O508  1  0.68258000  0.13658000  0.90252000  1.0 -0.6002569897
O  O509  1  0.87024000  0.14441000  0.65275000  1.0 -0.5615901934
O  O510  1  0.88752000  0.16534000  0.59987000  1.0 -0.5908740932
O  O511  1  0.48882000  0.39560000  0.67003000  1.0 -0.5793780054
O  O512  1  0.51049000  0.41729000  0.60505000  1.0 -0.5793780054
O  O513  1  0.69111000  0.30692000  0.74468000  1.0 -0.5908740932
O  O514  1  0.80302000  0.24643000  0.74729000  1.0 -0.6108463363
O  O515  1  0.71724000  0.30182000  0.77167000  1.0 -0.6002569897
O  O516  1  0.52007000  0.33297000  0.76431000  1.0 -0.5793780054
O  O517  1  0.57236000  0.34731000  0.78247000  1.0 -0.572580145
O  O518  1  0.49277000  0.30293000  0.80799000  1.0 -0.5793780054
O  O519  1  0.36245000  0.46022000  0.85819000  1.0 -0.5908740932
O  O520  1  0.51346000  0.28245000  0.87850000  1.0 -0.6002569897
O  O521  1  0.54547000  0.35950000  0.82704000  1.0 -0.5908740932
O  O522  1  0.65527000  0.28084000  0.98116000  1.0 -0.6002569897
O  O523  1  0.94807000  0.24903000  0.65590000  1.0 -0.6108463363
O  O524  1  0.68168000  0.30913000  0.93483000  1.0 -0.5793780054
O  O525  1  0.90252000  0.27832000  0.68258000  1.0 -0.6002569897
O  O526  1  0.65275000  0.33260000  0.87024000  1.0 -0.5615901934
O  O527  1  0.59987000  0.34727000  0.88752000  1.0 -0.5908740932
O  O528  1  0.44555000  0.67003000  0.39560000  1.0 -0.5793780054
O  O529  1  0.46717000  0.60505000  0.41729000  1.0 -0.5793780054
O  O530  1  0.25729000  0.74468000  0.30692000  1.0 -0.5908740932
O  O531  1  0.20326000  0.74729000  0.24643000  1.0 -0.6108463363
O  O532  1  0.20927000  0.77167000  0.30182000  1.0 -0.6002569897
O  O533  1  0.38265000  0.76431000  0.33297000  1.0 -0.5793780054
O  O534  1  0.29786000  0.78247000  0.34731000  1.0 -0.572580145
O  O535  1  0.39631000  0.80799000  0.30293000  1.0 -0.5793780054
O  O536  1  0.31914000  0.85819000  0.46022000  1.0 -0.5908740932
O  O537  1  0.32559000  0.87850000  0.28245000  1.0 -0.6002569897
O  O538  1  0.26799000  0.82704000  0.35950000  1.0 -0.5908740932
O  O539  1  0.08273000  0.98116000  0.28084000  1.0 -0.6002569897
O  O540  1  0.14700000  0.65590000  0.24903000  1.0 -0.6108463363
O  O541  1  0.07436000  0.93483000  0.30913000  1.0 -0.5793780054
O  O542  1  0.13658000  0.68258000  0.27832000  1.0 -0.6002569897
O  O543  1  0.14441000  0.87024000  0.33260000  1.0 -0.5615901934
O  O544  1  0.16534000  0.88752000  0.34727000  1.0 -0.5908740932
O  O545  1  0.44555000  0.39560000  0.48882000  1.0 -0.5793780054
O  O546  1  0.46717000  0.41729000  0.51049000  1.0 -0.5793780054
O  O547  1  0.25729000  0.30692000  0.69111000  1.0 -0.5908740932
O  O548  1  0.20326000  0.24643000  0.80302000  1.0 -0.6108463363
O  O549  1  0.20927000  0.30182000  0.71724000  1.0 -0.6002569897
O  O550  1  0.38265000  0.33297000  0.52007000  1.0 -0.5793780054
O  O551  1  0.29786000  0.34731000  0.57236000  1.0 -0.572580145
O  O552  1  0.39631000  0.30293000  0.49277000  1.0 -0.5793780054
O  O553  1  0.31914000  0.46022000  0.36245000  1.0 -0.5908740932
O  O554  1  0.32559000  0.28245000  0.51346000  1.0 -0.6002569897
O  O555  1  0.26799000  0.35950000  0.54547000  1.0 -0.5908740932
O  O556  1  0.08273000  0.28084000  0.65527000  1.0 -0.6002569897
O  O557  1  0.14700000  0.24903000  0.94807000  1.0 -0.6108463363
O  O558  1  0.07436000  0.30913000  0.68168000  1.0 -0.5793780054
O  O559  1  0.13658000  0.27832000  0.90252000  1.0 -0.6002569897
O  O560  1  0.14441000  0.33260000  0.65275000  1.0 -0.5615901934
O  O561  1  0.16534000  0.34727000  0.59987000  1.0 -0.5908740932
O  O562  1  0.48882000  0.67003000  0.44555000  1.0 -0.5793780054
O  O563  1  0.51049000  0.60505000  0.46717000  1.0 -0.5793780054
O  O564  1  0.69111000  0.74468000  0.25729000  1.0 -0.5908740932
O  O565  1  0.80302000  0.74729000  0.20326000  1.0 -0.6108463363
O  O566  1  0.71724000  0.77167000  0.20927000  1.0 -0.6002569897
O  O567  1  0.52007000  0.76431000  0.38265000  1.0 -0.5793780054
O  O568  1  0.57236000  0.78247000  0.29786000  1.0 -0.572580145
O  O569  1  0.49277000  0.80799000  0.39631000  1.0 -0.5793780054
O  O570  1  0.36245000  0.85819000  0.31914000  1.0 -0.5908740932
O  O571  1  0.51346000  0.87850000  0.32559000  1.0 -0.6002569897
O  O572  1  0.54547000  0.82704000  0.26799000  1.0 -0.5908740932
O  O573  1  0.65527000  0.98116000  0.08273000  1.0 -0.6002569897
O  O574  1  0.94807000  0.65590000  0.14700000  1.0 -0.6108463363
O  O575  1  0.68168000  0.93483000  0.07436000  1.0 -0.5793780054
O  O576  1  0.90252000  0.68258000  0.13658000  1.0 -0.6002569897
O  O577  1  0.65275000  0.87024000  0.14441000  1.0 -0.5615901934
O  O578  1  0.59987000  0.88752000  0.16534000  1.0 -0.5908740932
O  O579  1  0.67003000  0.48882000  0.39560000  1.0 -0.5793780054
O  O580  1  0.60505000  0.51049000  0.41729000  1.0 -0.5793780054
O  O581  1  0.74468000  0.69111000  0.30692000  1.0 -0.5908740932
O  O582  1  0.74729000  0.80302000  0.24643000  1.0 -0.6108463363
O  O583  1  0.77167000  0.71724000  0.30182000  1.0 -0.6002569897
O  O584  1  0.76431000  0.52007000  0.33297000  1.0 -0.5793780054
O  O585  1  0.78247000  0.57236000  0.34731000  1.0 -0.572580145
O  O586  1  0.80799000  0.49277000  0.30293000  1.0 -0.5793780054
O  O587  1  0.85819000  0.36245000  0.46022000  1.0 -0.5908740932
O  O588  1  0.87850000  0.51346000  0.28245000  1.0 -0.6002569897
O  O589  1  0.82704000  0.54547000  0.35950000  1.0 -0.5908740932
O  O590  1  0.98116000  0.65527000  0.28084000  1.0 -0.6002569897
O  O591  1  0.65590000  0.94807000  0.24903000  1.0 -0.6108463363
O  O592  1  0.93483000  0.68168000  0.30913000  1.0 -0.5793780054
O  O593  1  0.68258000  0.90252000  0.27832000  1.0 -0.6002569897
O  O594  1  0.87024000  0.65275000  0.33260000  1.0 -0.5615901934
O  O595  1  0.88752000  0.59987000  0.34727000  1.0 -0.5908740932
O  O596  1  0.39560000  0.44555000  0.67003000  1.0 -0.5793780054
O  O597  1  0.41729000  0.46717000  0.60505000  1.0 -0.5793780054
O  O598  1  0.30692000  0.25729000  0.74468000  1.0 -0.5908740932
O  O599  1  0.24643000  0.20326000  0.74729000  1.0 -0.6108463363
O  O600  1  0.30182000  0.20927000  0.77167000  1.0 -0.6002569897
O  O601  1  0.33297000  0.38265000  0.76431000  1.0 -0.5793780054
O  O602  1  0.34731000  0.29786000  0.78247000  1.0 -0.572580145
O  O603  1  0.30293000  0.39631000  0.80799000  1.0 -0.5793780054
O  O604  1  0.46022000  0.31914000  0.85819000  1.0 -0.5908740932
O  O605  1  0.28245000  0.32559000  0.87850000  1.0 -0.6002569897
O  O606  1  0.35950000  0.26799000  0.82704000  1.0 -0.5908740932
O  O607  1  0.28084000  0.08273000  0.98116000  1.0 -0.6002569897
O  O608  1  0.24903000  0.14700000  0.65590000  1.0 -0.6108463363
O  O609  1  0.30913000  0.07436000  0.93483000  1.0 -0.5793780054
O  O610  1  0.27832000  0.13658000  0.68258000  1.0 -0.6002569897
O  O611  1  0.33260000  0.14441000  0.87024000  1.0 -0.5615901934
O  O612  1  0.34727000  0.16534000  0.88752000  1.0 -0.5908740932
O  O613  1  0.76118000  0.80445000  0.57997000  1.0 -0.5793780054
O  O614  1  0.73951000  0.78283000  0.64495000  1.0 -0.5793780054
O  O615  1  0.55889000  0.99271000  0.50532000  1.0 -0.5908740932
O  O616  1  0.44698000  0.04674000  0.50271000  1.0 -0.6108463363
O  O617  1  0.53276000  0.04073000  0.47833000  1.0 -0.6002569897
O  O618  1  0.72993000  0.86735000  0.48569000  1.0 -0.5793780054
O  O619  1  0.67764000  0.95214000  0.46753000  1.0 -0.572580145
O  O620  1  0.75723000  0.85369000  0.44201000  1.0 -0.5793780054
O  O621  1  0.88755000  0.93086000  0.39181000  1.0 -0.5908740932
O  O622  1  0.73654000  0.92441000  0.37150000  1.0 -0.6002569897
O  O623  1  0.70453000  0.98201000  0.42296000  1.0 -0.5908740932
O  O624  1  0.59473000  0.16727000  0.26884000  1.0 -0.6002569897
O  O625  1  0.30193000  0.10300000  0.59410000  1.0 -0.6108463363
O  O626  1  0.56832000  0.17564000  0.31517000  1.0 -0.5793780054
O  O627  1  0.34748000  0.11342000  0.56742000  1.0 -0.6002569897
O  O628  1  0.59725000  0.10559000  0.37976000  1.0 -0.5615901934
O  O629  1  0.65013000  0.08466000  0.36248000  1.0 -0.5908740932
O  O630  1  0.80445000  0.76118000  0.85440000  1.0 -0.5793780054
O  O631  1  0.78283000  0.73951000  0.83271000  1.0 -0.5793780054
O  O632  1  0.99271000  0.55889000  0.94308000  1.0 -0.5908740932
O  O633  1  0.04674000  0.44698000  0.00357000  1.0 -0.6108463363
O  O634  1  0.04073000  0.53276000  0.94818000  1.0 -0.6002569897
O  O635  1  0.86735000  0.72993000  0.91703000  1.0 -0.5793780054
O  O636  1  0.95214000  0.67764000  0.90269000  1.0 -0.572580145
O  O637  1  0.85369000  0.75723000  0.94707000  1.0 -0.5793780054
O  O638  1  0.93086000  0.88755000  0.78978000  1.0 -0.5908740932
O  O639  1  0.92441000  0.73654000  0.96755000  1.0 -0.6002569897
O  O640  1  0.98201000  0.70453000  0.89050000  1.0 -0.5908740932
O  O641  1  0.16727000  0.59473000  0.96916000  1.0 -0.6002569897
O  O642  1  0.10300000  0.30193000  0.00097000  1.0 -0.6108463363
O  O643  1  0.17564000  0.56832000  0.94087000  1.0 -0.5793780054
O  O644  1  0.11342000  0.34748000  0.97168000  1.0 -0.6002569897
O  O645  1  0.10559000  0.59725000  0.91740000  1.0 -0.5615901934
O  O646  1  0.08466000  0.65013000  0.90273000  1.0 -0.5908740932
O  O647  1  0.85440000  0.57997000  0.80445000  1.0 -0.5793780054
O  O648  1  0.83271000  0.64495000  0.78283000  1.0 -0.5793780054
O  O649  1  0.94308000  0.50532000  0.99271000  1.0 -0.5908740932
O  O650  1  0.00357000  0.50271000  0.04674000  1.0 -0.6108463363
O  O651  1  0.94818000  0.47833000  0.04073000  1.0 -0.6002569897
O  O652  1  0.91703000  0.48569000  0.86735000  1.0 -0.5793780054
O  O653  1  0.90269000  0.46753000  0.95214000  1.0 -0.572580145
O  O654  1  0.94707000  0.44201000  0.85369000  1.0 -0.5793780054
O  O655  1  0.78978000  0.39181000  0.93086000  1.0 -0.5908740932
O  O656  1  0.96755000  0.37150000  0.92441000  1.0 -0.6002569897
O  O657  1  0.89050000  0.42296000  0.98201000  1.0 -0.5908740932
O  O658  1  0.96916000  0.26884000  0.16727000  1.0 -0.6002569897
O  O659  1  0.00097000  0.59410000  0.10300000  1.0 -0.6108463363
O  O660  1  0.94087000  0.31517000  0.17564000  1.0 -0.5793780054
O  O661  1  0.97168000  0.56742000  0.11342000  1.0 -0.6002569897
O  O662  1  0.91740000  0.37976000  0.10559000  1.0 -0.5615901934
O  O663  1  0.90273000  0.36248000  0.08466000  1.0 -0.5908740932
O  O664  1  0.57997000  0.85440000  0.76118000  1.0 -0.5793780054
O  O665  1  0.64495000  0.83271000  0.73951000  1.0 -0.5793780054
O  O666  1  0.50532000  0.94308000  0.55889000  1.0 -0.5908740932
O  O667  1  0.50271000  0.00357000  0.44698000  1.0 -0.6108463363
O  O668  1  0.47833000  0.94818000  0.53276000  1.0 -0.6002569897
O  O669  1  0.48569000  0.91703000  0.72993000  1.0 -0.5793780054
O  O670  1  0.46753000  0.90269000  0.67764000  1.0 -0.572580145
O  O671  1  0.44201000  0.94707000  0.75723000  1.0 -0.5793780054
O  O672  1  0.39181000  0.78978000  0.88755000  1.0 -0.5908740932
O  O673  1  0.37150000  0.96755000  0.73654000  1.0 -0.6002569897
O  O674  1  0.42296000  0.89050000  0.70453000  1.0 -0.5908740932
O  O675  1  0.26884000  0.96916000  0.59473000  1.0 -0.6002569897
O  O676  1  0.59410000  0.00097000  0.30193000  1.0 -0.6108463363
O  O677  1  0.31517000  0.94087000  0.56832000  1.0 -0.5793780054
O  O678  1  0.56742000  0.97168000  0.34748000  1.0 -0.6002569897
O  O679  1  0.37976000  0.91740000  0.59725000  1.0 -0.5615901934
O  O680  1  0.36248000  0.90273000  0.65013000  1.0 -0.5908740932
O  O681  1  0.85440000  0.76118000  0.57997000  1.0 -0.5793780054
O  O682  1  0.83271000  0.73951000  0.64495000  1.0 -0.5793780054
O  O683  1  0.94308000  0.55889000  0.50532000  1.0 -0.5908740932
O  O684  1  0.00357000  0.44698000  0.50271000  1.0 -0.6108463363
O  O685  1  0.94818000  0.53276000  0.47833000  1.0 -0.6002569897
O  O686  1  0.91703000  0.72993000  0.48569000  1.0 -0.5793780054
O  O687  1  0.90269000  0.67764000  0.46753000  1.0 -0.572580145
O  O688  1  0.94707000  0.75723000  0.44201000  1.0 -0.5793780054
O  O689  1  0.78978000  0.88755000  0.39181000  1.0 -0.5908740932
O  O690  1  0.96755000  0.73654000  0.37150000  1.0 -0.6002569897
O  O691  1  0.89050000  0.70453000  0.42296000  1.0 -0.5908740932
O  O692  1  0.96916000  0.59473000  0.26884000  1.0 -0.6002569897
O  O693  1  0.00097000  0.30193000  0.59410000  1.0 -0.6108463363
O  O694  1  0.94087000  0.56832000  0.31517000  1.0 -0.5793780054
O  O695  1  0.97168000  0.34748000  0.56742000  1.0 -0.6002569897
O  O696  1  0.91740000  0.59725000  0.37976000  1.0 -0.5615901934
O  O697  1  0.90273000  0.65013000  0.36248000  1.0 -0.5908740932
O  O698  1  0.57997000  0.80445000  0.85440000  1.0 -0.5793780054
O  O699  1  0.64495000  0.78283000  0.83271000  1.0 -0.5793780054
O  O700  1  0.50532000  0.99271000  0.94308000  1.0 -0.5908740932
O  O701  1  0.50271000  0.04674000  0.00357000  1.0 -0.6108463363
O  O702  1  0.47833000  0.04073000  0.94818000  1.0 -0.6002569897
O  O703  1  0.48569000  0.86735000  0.91703000  1.0 -0.5793780054
O  O704  1  0.46753000  0.95214000  0.90269000  1.0 -0.572580145
O  O705  1  0.44201000  0.85369000  0.94707000  1.0 -0.5793780054
O  O706  1  0.39181000  0.93086000  0.78978000  1.0 -0.5908740932
O  O707  1  0.37150000  0.92441000  0.96755000  1.0 -0.6002569897
O  O708  1  0.42296000  0.98201000  0.89050000  1.0 -0.5908740932
O  O709  1  0.26884000  0.16727000  0.96916000  1.0 -0.6002569897
O  O710  1  0.59410000  0.10300000  0.00097000  1.0 -0.6108463363
O  O711  1  0.31517000  0.17564000  0.94087000  1.0 -0.5793780054
O  O712  1  0.56742000  0.11342000  0.97168000  1.0 -0.6002569897
O  O713  1  0.37976000  0.10559000  0.91740000  1.0 -0.5615901934
O  O714  1  0.36248000  0.08466000  0.90273000  1.0 -0.5908740932
O  O715  1  0.76118000  0.85440000  0.80445000  1.0 -0.5793780054
O  O716  1  0.73951000  0.83271000  0.78283000  1.0 -0.5793780054
O  O717  1  0.55889000  0.94308000  0.99271000  1.0 -0.5908740932
O  O718  1  0.44698000  0.00357000  0.04674000  1.0 -0.6108463363
O  O719  1  0.53276000  0.94818000  0.04073000  1.0 -0.6002569897
O  O720  1  0.72993000  0.91703000  0.86735000  1.0 -0.5793780054
O  O721  1  0.67764000  0.90269000  0.95214000  1.0 -0.572580145
O  O722  1  0.75723000  0.94707000  0.85369000  1.0 -0.5793780054
O  O723  1  0.88755000  0.78978000  0.93086000  1.0 -0.5908740932
O  O724  1  0.73654000  0.96755000  0.92441000  1.0 -0.6002569897
O  O725  1  0.70453000  0.89050000  0.98201000  1.0 -0.5908740932
O  O726  1  0.59473000  0.96916000  0.16727000  1.0 -0.6002569897
O  O727  1  0.30193000  0.00097000  0.10300000  1.0 -0.6108463363
O  O728  1  0.56832000  0.94087000  0.17564000  1.0 -0.5793780054
O  O729  1  0.34748000  0.97168000  0.11342000  1.0 -0.6002569897
O  O730  1  0.59725000  0.91740000  0.10559000  1.0 -0.5615901934
O  O731  1  0.65013000  0.90273000  0.08466000  1.0 -0.5908740932
O  O732  1  0.80445000  0.57997000  0.76118000  1.0 -0.5793780054
O  O733  1  0.78283000  0.64495000  0.73951000  1.0 -0.5793780054
O  O734  1  0.99271000  0.50532000  0.55889000  1.0 -0.5908740932
O  O735  1  0.04674000  0.50271000  0.44698000  1.0 -0.6108463363
O  O736  1  0.04073000  0.47833000  0.53276000  1.0 -0.6002569897
O  O737  1  0.86735000  0.48569000  0.72993000  1.0 -0.5793780054
O  O738  1  0.95214000  0.46753000  0.67764000  1.0 -0.572580145
O  O739  1  0.85369000  0.44201000  0.75723000  1.0 -0.5793780054
O  O740  1  0.93086000  0.39181000  0.88755000  1.0 -0.5908740932
O  O741  1  0.92441000  0.37150000  0.73654000  1.0 -0.6002569897
O  O742  1  0.98201000  0.42296000  0.70453000  1.0 -0.5908740932
O  O743  1  0.16727000  0.26884000  0.59473000  1.0 -0.6002569897
O  O744  1  0.10300000  0.59410000  0.30193000  1.0 -0.6108463363
O  O745  1  0.17564000  0.31517000  0.56832000  1.0 -0.5793780054
O  O746  1  0.11342000  0.56742000  0.34748000  1.0 -0.6002569897
O  O747  1  0.10559000  0.37976000  0.59725000  1.0 -0.5615901934
O  O748  1  0.08466000  0.36248000  0.65013000  1.0 -0.5908740932
O  O749  1  0.80445000  0.85440000  0.57997000  1.0 -0.5793780054
O  O750  1  0.78283000  0.83271000  0.64495000  1.0 -0.5793780054
O  O751  1  0.99271000  0.94308000  0.50532000  1.0 -0.5908740932
O  O752  1  0.04674000  0.00357000  0.50271000  1.0 -0.6108463363
O  O753  1  0.04073000  0.94818000  0.47833000  1.0 -0.6002569897
O  O754  1  0.86735000  0.91703000  0.48569000  1.0 -0.5793780054
O  O755  1  0.95214000  0.90269000  0.46753000  1.0 -0.572580145
O  O756  1  0.85369000  0.94707000  0.44201000  1.0 -0.5793780054
O  O757  1  0.93086000  0.78978000  0.39181000  1.0 -0.5908740932
O  O758  1  0.92441000  0.96755000  0.37150000  1.0 -0.6002569897
O  O759  1  0.98201000  0.89050000  0.42296000  1.0 -0.5908740932
O  O760  1  0.16727000  0.96916000  0.26884000  1.0 -0.6002569897
O  O761  1  0.10300000  0.00097000  0.59410000  1.0 -0.6108463363
O  O762  1  0.17564000  0.94087000  0.31517000  1.0 -0.5793780054
O  O763  1  0.11342000  0.97168000  0.56742000  1.0 -0.6002569897
O  O764  1  0.10559000  0.91740000  0.37976000  1.0 -0.5615901934
O  O765  1  0.08466000  0.90273000  0.36248000  1.0 -0.5908740932
O  O766  1  0.76118000  0.57997000  0.85440000  1.0 -0.5793780054
O  O767  1  0.73951000  0.64495000  0.83271000  1.0 -0.5793780054
O  O768  1  0.55889000  0.50532000  0.94308000  1.0 -0.5908740932
O  O769  1  0.44698000  0.50271000  0.00357000  1.0 -0.6108463363
O  O770  1  0.53276000  0.47833000  0.94818000  1.0 -0.6002569897
O  O771  1  0.72993000  0.48569000  0.91703000  1.0 -0.5793780054
O  O772  1  0.67764000  0.46753000  0.90269000  1.0 -0.572580145
O  O773  1  0.75723000  0.44201000  0.94707000  1.0 -0.5793780054
O  O774  1  0.88755000  0.39181000  0.78978000  1.0 -0.5908740932
O  O775  1  0.73654000  0.37150000  0.96755000  1.0 -0.6002569897
O  O776  1  0.70453000  0.42296000  0.89050000  1.0 -0.5908740932
O  O777  1  0.59473000  0.26884000  0.96916000  1.0 -0.6002569897
O  O778  1  0.30193000  0.59410000  0.00097000  1.0 -0.6108463363
O  O779  1  0.56832000  0.31517000  0.94087000  1.0 -0.5793780054
O  O780  1  0.34748000  0.56742000  0.97168000  1.0 -0.6002569897
O  O781  1  0.59725000  0.37976000  0.91740000  1.0 -0.5615901934
O  O782  1  0.65013000  0.36248000  0.90273000  1.0 -0.5908740932
O  O783  1  0.57997000  0.76118000  0.80445000  1.0 -0.5793780054
O  O784  1  0.64495000  0.73951000  0.78283000  1.0 -0.5793780054
O  O785  1  0.50532000  0.55889000  0.99271000  1.0 -0.5908740932
O  O786  1  0.50271000  0.44698000  0.04674000  1.0 -0.6108463363
O  O787  1  0.47833000  0.53276000  0.04073000  1.0 -0.6002569897
O  O788  1  0.48569000  0.72993000  0.86735000  1.0 -0.5793780054
O  O789  1  0.46753000  0.67764000  0.95214000  1.0 -0.572580145
O  O790  1  0.44201000  0.75723000  0.85369000  1.0 -0.5793780054
O  O791  1  0.39181000  0.88755000  0.93086000  1.0 -0.5908740932
O  O792  1  0.37150000  0.73654000  0.92441000  1.0 -0.6002569897
O  O793  1  0.42296000  0.70453000  0.98201000  1.0 -0.5908740932
O  O794  1  0.26884000  0.59473000  0.16727000  1.0 -0.6002569897
O  O795  1  0.59410000  0.30193000  0.10300000  1.0 -0.6108463363
O  O796  1  0.31517000  0.56832000  0.17564000  1.0 -0.5793780054
O  O797  1  0.56742000  0.34748000  0.11342000  1.0 -0.6002569897
O  O798  1  0.37976000  0.59725000  0.10559000  1.0 -0.5615901934
O  O799  1  0.36248000  0.65013000  0.08466000  1.0 -0.5908740932
O  O800  1  0.85440000  0.80445000  0.76118000  1.0 -0.5793780054
O  O801  1  0.83271000  0.78283000  0.73951000  1.0 -0.5793780054
O  O802  1  0.94308000  0.99271000  0.55889000  1.0 -0.5908740932
O  O803  1  0.00357000  0.04674000  0.44698000  1.0 -0.6108463363
O  O804  1  0.94818000  0.04073000  0.53276000  1.0 -0.6002569897
O  O805  1  0.91703000  0.86735000  0.72993000  1.0 -0.5793780054
O  O806  1  0.90269000  0.95214000  0.67764000  1.0 -0.572580145
O  O807  1  0.94707000  0.85369000  0.75723000  1.0 -0.5793780054
O  O808  1  0.78978000  0.93086000  0.88755000  1.0 -0.5908740932
O  O809  1  0.96755000  0.92441000  0.73654000  1.0 -0.6002569897
O  O810  1  0.89050000  0.98201000  0.70453000  1.0 -0.5908740932
O  O811  1  0.96916000  0.16727000  0.59473000  1.0 -0.6002569897
O  O812  1  0.00097000  0.10300000  0.30193000  1.0 -0.6108463363
O  O813  1  0.94087000  0.17564000  0.56832000  1.0 -0.5793780054
O  O814  1  0.97168000  0.11342000  0.34748000  1.0 -0.6002569897
O  O815  1  0.91740000  0.10559000  0.59725000  1.0 -0.5615901934
O  O816  1  0.90273000  0.08466000  0.65013000  1.0 -0.5908740932
O  O817  1  0.43010000  0.91860000  0.91860000  1.0 -1.1302382765
O  O818  1  0.91860000  0.43010000  0.73270000  1.0 -1.1302382765
O  O819  1  0.91860000  0.73270000  0.43010000  1.0 -1.1302382765
O  O820  1  0.73270000  0.91860000  0.91860000  1.0 -1.1302382765
O  O821  1  0.91860000  0.43010000  0.91860000  1.0 -1.1302382765
O  O822  1  0.73270000  0.91860000  0.43010000  1.0 -1.1302382765
O  O823  1  0.43010000  0.91860000  0.73270000  1.0 -1.1302382765
O  O824  1  0.91860000  0.73270000  0.91860000  1.0 -1.1302382765
O  O825  1  0.91860000  0.91860000  0.43010000  1.0 -1.1302382765
O  O826  1  0.43010000  0.73270000  0.91860000  1.0 -1.1302382765
O  O827  1  0.73270000  0.43010000  0.91860000  1.0 -1.1302382765
O  O828  1  0.91860000  0.91860000  0.73270000  1.0 -1.1302382765
O  O829  1  0.81990000  0.33140000  0.51730000  1.0 -1.1302382765
O  O830  1  0.33140000  0.81990000  0.33140000  1.0 -1.1302382765
O  O831  1  0.33140000  0.51730000  0.33140000  1.0 -1.1302382765
O  O832  1  0.51730000  0.33140000  0.81990000  1.0 -1.1302382765
O  O833  1  0.33140000  0.81990000  0.51730000  1.0 -1.1302382765
O  O834  1  0.51730000  0.33140000  0.33140000  1.0 -1.1302382765
O  O835  1  0.81990000  0.33140000  0.33140000  1.0 -1.1302382765
O  O836  1  0.33140000  0.51730000  0.81990000  1.0 -1.1302382765
O  O837  1  0.33140000  0.33140000  0.51730000  1.0 -1.1302382765
O  O838  1  0.81990000  0.51730000  0.33140000  1.0 -1.1302382765
O  O839  1  0.51730000  0.81990000  0.33140000  1.0 -1.1302382765
O  O840  1  0.33140000  0.33140000  0.81990000  1.0 -1.1302382765
O  O841  1  0.50408000  0.99592000  0.99592000  1.0 -1.1035464567
O  O842  1  0.99592000  0.50408000  0.50408000  1.0 -1.1035464567
O  O843  1  0.99592000  0.50408000  0.99592000  1.0 -1.1035464567
O  O844  1  0.50408000  0.99592000  0.50408000  1.0 -1.1035464567
O  O845  1  0.99592000  0.99592000  0.50408000  1.0 -1.1035464567
O  O846  1  0.50408000  0.50408000  0.99592000  1.0 -1.1035464567
O  O847  1  0.74592000  0.25408000  0.74592000  1.0 -1.1035464567
O  O848  1  0.25408000  0.74592000  0.25408000  1.0 -1.1035464567
O  O849  1  0.25408000  0.74592000  0.74592000  1.0 -1.1035464567
O  O850  1  0.74592000  0.25408000  0.25408000  1.0 -1.1035464567
O  O851  1  0.25408000  0.25408000  0.74592000  1.0 -1.1035464567
O  O852  1  0.74592000  0.74592000  0.25408000  1.0 -1.1035464567
O  O853  1  0.31421000  0.93579000  0.12500000  1.0 -1.1248910914
O  O854  1  0.93579000  0.31421000  0.62500000  1.0 -1.1248910914
O  O855  1  0.12500000  0.62500000  0.31421000  1.0 -1.1248910914
O  O856  1  0.62500000  0.12500000  0.93579000  1.0 -1.1248910914
O  O857  1  0.12500000  0.31421000  0.93579000  1.0 -1.1248910914
O  O858  1  0.62500000  0.93579000  0.31421000  1.0 -1.1248910914
O  O859  1  0.31421000  0.12500000  0.62500000  1.0 -1.1248910914
O  O860  1  0.93579000  0.62500000  0.12500000  1.0 -1.1248910914
O  O861  1  0.93579000  0.12500000  0.31421000  1.0 -1.1248910914
O  O862  1  0.31421000  0.62500000  0.93579000  1.0 -1.1248910914
O  O863  1  0.62500000  0.31421000  0.12500000  1.0 -1.1302382765
O  O864  1  0.12500000  0.93579000  0.62500000  1.0 -1.1248910914
O  O865  1  0.93579000  0.31421000  0.12500000  1.0 -1.1248910914
O  O866  1  0.31421000  0.93579000  0.62500000  1.0 -1.1248910914
O  O867  1  0.12500000  0.62500000  0.93579000  1.0 -1.1248910914
O  O868  1  0.62500000  0.12500000  0.31421000  1.0 -1.1302382765
O  O869  1  0.12500000  0.93579000  0.31421000  1.0 -1.1248910914
O  O870  1  0.62500000  0.31421000  0.93579000  1.0 -1.1248910914
O  O871  1  0.93579000  0.12500000  0.62500000  1.0 -1.1248910914
O  O872  1  0.31421000  0.62500000  0.12500000  1.0 -1.1248910914
O  O873  1  0.31421000  0.12500000  0.93579000  1.0 -1.1302382765
O  O874  1  0.93579000  0.62500000  0.31421000  1.0 -1.1248910914
O  O875  1  0.62500000  0.93579000  0.12500000  1.0 -1.1248910914
O  O876  1  0.12500000  0.31421000  0.62500000  1.0 -1.1248910914
O  O877  1  0.79585000  0.79585000  0.79585000  1.0 -1.143178489
O  O878  1  0.79585000  0.79585000  0.61245000  1.0 -1.143178489
O  O879  1  0.79585000  0.61245000  0.79585000  1.0 -1.143178489
O  O880  1  0.61245000  0.79585000  0.79585000  1.0 -1.143178489
O  O881  1  0.45415000  0.45415000  0.63755000  1.0 -1.143178489
O  O882  1  0.45415000  0.45415000  0.45415000  1.0 -1.1459528071
O  O883  1  0.45415000  0.63755000  0.45415000  1.0 -1.143178489
O  O884  1  0.63755000  0.45415000  0.45415000  1.0 -1.1459528071
