# DDEC6 charges by PACMAN v1.1 (https://github.com/mtap-research/PACMAN-charge/)
data_UDICER_ASR_pacman
_symmetry_space_group_name_H-M   'P 1'
_cell_length_a   7.20308000
_cell_length_b   16.88090000
_cell_length_c   9.89052000
_cell_angle_alpha   90.00000000
_cell_angle_beta   109.28600000
_cell_angle_gamma   90.00000000
_symmetry_Int_Tables_number   1
_chemical_formula_structural   Bi(C3O2)3
_chemical_formula_sum   'Bi4 C36 O24'
_cell_volume   1135.14285344
_cell_formula_units_Z   4
loop_
 _symmetry_equiv_pos_site_id
 _symmetry_equiv_pos_as_xyz
  1  'x, y, z'
loop_
 _atom_site_type_symbol
 _atom_site_label
 _atom_site_symmetry_multiplicity
 _atom_site_fract_x
 _atom_site_fract_y
 _atom_site_fract_z
 _atom_site_occupancy
 _atom_site_charge
Bi  Bi1  1  0.47356000  0.95928000  0.77842000  1.0 1.4647433122
Bi  Bi2  1  0.02644000  0.45928000  0.22158000  1.0 1.4662757476
Bi  Bi3  1  0.52644000  0.04072000  0.22158000  1.0 1.4662757476
Bi  Bi4  1  0.97356000  0.54072000  0.77842000  1.0 1.4662757476
C  C1  1  0.81967000  0.76513000  0.16013000  1.0 0.0205562698
C  C2  1  0.68033000  0.26513000  0.83987000  1.0 0.0205562698
C  C3  1  0.18033000  0.23487000  0.83987000  1.0 0.0205562698
C  C4  1  0.31967000  0.73487000  0.16013000  1.0 0.0205562698
C  C5  1  0.95103000  0.71677000  0.26470000  1.0 -0.0704231619
C  C6  1  0.54897000  0.21677000  0.73530000  1.0 -0.0704231619
C  C7  1  0.04897000  0.28323000  0.73530000  1.0 -0.0704231619
C  C8  1  0.45103000  0.78323000  0.26470000  1.0 -0.0704231619
C  C9  1  0.08209000  0.75388000  0.38875000  1.0 0.0894371734
C  C10  1  0.41791000  0.25388000  0.61125000  1.0 0.0894371734
C  C11  1  0.91791000  0.24612000  0.61125000  1.0 0.0894371734
C  C12  1  0.58209000  0.74612000  0.38875000  1.0 0.0894371734
C  C13  1  0.09181000  0.83778000  0.39928000  1.0 -0.0880592059
C  C14  1  0.40819000  0.33778000  0.60072000  1.0 -0.0880592059
C  C15  1  0.90819000  0.16222000  0.60072000  1.0 -0.0880592059
C  C16  1  0.59181000  0.66222000  0.39928000  1.0 -0.0880592059
C  C17  1  0.97879000  0.88287000  0.28474000  1.0 0.1089902592
C  C18  1  0.52121000  0.38287000  0.71526000  1.0 0.1089902592
C  C19  1  0.02121000  0.11713000  0.71526000  1.0 0.1089902592
C  C20  1  0.47879000  0.61713000  0.28474000  1.0 0.1089902592
C  C21  1  0.83229000  0.84854000  0.17009000  1.0 -0.0837627652
C  C22  1  0.66771000  0.34854000  0.82991000  1.0 -0.0880592059
C  C23  1  0.16771000  0.15146000  0.82991000  1.0 -0.0880592059
C  C24  1  0.33229000  0.65146000  0.17009000  1.0 -0.0837627652
C  C25  1  0.69235000  0.89754000  0.06238000  1.0 0.581761006
C  C26  1  0.80765000  0.39754000  0.93762000  1.0 0.581761006
C  C27  1  0.30765000  0.10246000  0.93762000  1.0 0.581761006
C  C28  1  0.19235000  0.60246000  0.06238000  1.0 0.581761006
C  C29  1  0.23077000  0.87717000  0.52597000  1.0 0.6066290696
C  C30  1  0.26923000  0.37717000  0.47403000  1.0 0.6066290696
C  C31  1  0.76923000  0.12283000  0.47403000  1.0 0.6066290696
C  C32  1  0.73077000  0.62283000  0.52597000  1.0 0.6066290696
C  C33  1  0.94078000  0.62811000  0.25467000  1.0 0.581761006
C  C34  1  0.55922000  0.12811000  0.74533000  1.0 0.581761006
C  C35  1  0.05922000  0.37189000  0.74533000  1.0 0.581761006
C  C36  1  0.44078000  0.87189000  0.25467000  1.0 0.581761006
O  O1  1  0.69070000  0.87480000  0.93350000  1.0 -0.4747685756
O  O2  1  0.80930000  0.37480000  0.06650000  1.0 -0.4747685756
O  O3  1  0.30930000  0.12520000  0.06650000  1.0 -0.4747685756
O  O4  1  0.19070000  0.62520000  0.93350000  1.0 -0.4747685756
O  O5  1  0.69410000  0.97800000  0.10310000  1.0 -0.647833858
O  O6  1  0.80590000  0.47800000  0.89690000  1.0 -0.647833858
O  O7  1  0.30590000  0.02200000  0.89690000  1.0 -0.647833858
O  O8  1  0.19410000  0.52200000  0.10310000  1.0 -0.647833858
O  O9  1  0.84450000  0.58170000  0.15220000  1.0 -0.5209727327
O  O10  1  0.65550000  0.08170000  0.84780000  1.0 -0.5209727327
O  O11  1  0.15550000  0.41830000  0.84780000  1.0 -0.5209727327
O  O12  1  0.34450000  0.91830000  0.15220000  1.0 -0.5209727327
O  O13  1  0.06670000  0.58400000  0.34800000  1.0 -0.493049268
O  O14  1  0.43330000  0.08400000  0.65200000  1.0 -0.493049268
O  O15  1  0.93330000  0.41600000  0.65200000  1.0 -0.493049268
O  O16  1  0.56670000  0.91600000  0.34800000  1.0 -0.493049268
O  O17  1  0.37970000  0.84200000  0.61300000  1.0 -0.5407133143
O  O18  1  0.12030000  0.34200000  0.38700000  1.0 -0.5407133143
O  O19  1  0.62030000  0.15800000  0.38700000  1.0 -0.5407133143
O  O20  1  0.87970000  0.65800000  0.61300000  1.0 -0.5407133143
O  O21  1  0.21110000  0.95360000  0.54240000  1.0 -0.5332963209
O  O22  1  0.28890000  0.45360000  0.45760000  1.0 -0.5332963209
O  O23  1  0.78890000  0.04640000  0.45760000  1.0 -0.5332963209
O  O24  1  0.71110000  0.54640000  0.54240000  1.0 -0.5332963209
