# DDEC6 charges by PACMAN v1.1 (https://github.com/mtap-research/PACMAN-charge/)
data_UDIXIS_FSR_pacman
_symmetry_space_group_name_H-M   'P 1'
_cell_length_a   10.92370000
_cell_length_b   16.90810000
_cell_length_c   67.61700000
_cell_angle_alpha   90.00000000
_cell_angle_beta   90.00000000
_cell_angle_gamma   90.00000000
_symmetry_Int_Tables_number   1
_chemical_formula_structural   Eu2H49C47(N4O11)2
_chemical_formula_sum   'Eu16 H392 C376 N64 O176'
_cell_volume   12488.79309238
_cell_formula_units_Z   8
loop_
 _symmetry_equiv_pos_site_id
 _symmetry_equiv_pos_as_xyz
  1  'x, y, z'
loop_
 _atom_site_type_symbol
 _atom_site_label
 _atom_site_symmetry_multiplicity
 _atom_site_fract_x
 _atom_site_fract_y
 _atom_site_fract_z
 _atom_site_occupancy
 _atom_site_charge
Eu  Eu1  1  0.39869000  0.60920000  0.72633000  1.0 2.0476568911
Eu  Eu2  1  0.10131000  0.89080000  0.22633000  1.0 2.0476568911
Eu  Eu3  1  0.60131000  0.60920000  0.77367000  1.0 2.0476568911
Eu  Eu4  1  0.89869000  0.89080000  0.27367000  1.0 2.0476568911
Eu  Eu5  1  0.60131000  0.39080000  0.27367000  1.0 2.0476568911
Eu  Eu6  1  0.89869000  0.10920000  0.77367000  1.0 2.0476568911
Eu  Eu7  1  0.39869000  0.39080000  0.22633000  1.0 2.0476568911
Eu  Eu8  1  0.10131000  0.10920000  0.72633000  1.0 2.0476568911
Eu  Eu9  1  0.40577000  0.49010000  0.52584000  1.0 2.0737644109
Eu  Eu10  1  0.09423000  0.00990000  0.02584000  1.0 2.0737644109
Eu  Eu11  1  0.59423000  0.49010000  0.97416000  1.0 2.0737644109
Eu  Eu12  1  0.90577000  0.00990000  0.47416000  1.0 2.0737644109
Eu  Eu13  1  0.59423000  0.50990000  0.47416000  1.0 2.0737644109
Eu  Eu14  1  0.90577000  0.99010000  0.97416000  1.0 2.0737644109
Eu  Eu15  1  0.40577000  0.50990000  0.02584000  1.0 2.0737644109
Eu  Eu16  1  0.09423000  0.99010000  0.52584000  1.0 2.0737644109
H  H1  1  0.76763000  0.25710000  0.49714000  1.0 0.1309878868
H  H2  1  0.73237000  0.24290000  0.99714000  1.0 0.1309878868
H  H3  1  0.23237000  0.25710000  0.00286000  1.0 0.1309878868
H  H4  1  0.26763000  0.24290000  0.50286000  1.0 0.1309878868
H  H5  1  0.23237000  0.74290000  0.50286000  1.0 0.1309878868
H  H6  1  0.26763000  0.75710000  0.00286000  1.0 0.1309878868
H  H7  1  0.76763000  0.74290000  0.99714000  1.0 0.1309878868
H  H8  1  0.73237000  0.75710000  0.49714000  1.0 0.1309878868
H  H9  1  0.86579000  0.17871000  0.55074000  1.0 0.1394364903
H  H10  1  0.63421000  0.32129000  0.05074000  1.0 0.1394364903
H  H11  1  0.13421000  0.17871000  0.94926000  1.0 0.1394364903
H  H12  1  0.36579000  0.32129000  0.44926000  1.0 0.1394364903
H  H13  1  0.13421000  0.82129000  0.44926000  1.0 0.1394364903
H  H14  1  0.36579000  0.67871000  0.94926000  1.0 0.1394364903
H  H15  1  0.86579000  0.82129000  0.05074000  1.0 0.1394364903
H  H16  1  0.63421000  0.67871000  0.55074000  1.0 0.1394364903
H  H17  1  0.67534000  0.38092000  0.54577000  1.0 0.1506748819
H  H18  1  0.82466000  0.11908000  0.04577000  1.0 0.1506748819
H  H19  1  0.32466000  0.38092000  0.95423000  1.0 0.1506748819
H  H20  1  0.17534000  0.11908000  0.45423000  1.0 0.1506748819
H  H21  1  0.32466000  0.61908000  0.45423000  1.0 0.1506748819
H  H22  1  0.17534000  0.88092000  0.95423000  1.0 0.1506748819
H  H23  1  0.67534000  0.61908000  0.04577000  1.0 0.1506748819
H  H24  1  0.82466000  0.88092000  0.54577000  1.0 0.1506748819
H  H25  1  0.55769000  0.17075000  0.61018000  1.0 0.1394364903
H  H26  1  0.94231000  0.32925000  0.11018000  1.0 0.1394364903
H  H27  1  0.44231000  0.17075000  0.88982000  1.0 0.1394364903
H  H28  1  0.05769000  0.32925000  0.38982000  1.0 0.1394364903
H  H29  1  0.44231000  0.82925000  0.38982000  1.0 0.1394364903
H  H30  1  0.05769000  0.67075000  0.88982000  1.0 0.1394364903
H  H31  1  0.55769000  0.82925000  0.11018000  1.0 0.1394364903
H  H32  1  0.94231000  0.67075000  0.61018000  1.0 0.1394364903
H  H33  1  0.99094000  0.43920000  0.63924000  1.0 0.1309878868
H  H34  1  0.50906000  0.06080000  0.13924000  1.0 0.1309878868
H  H35  1  0.00906000  0.43920000  0.86076000  1.0 0.1309878868
H  H36  1  0.49094000  0.06080000  0.36076000  1.0 0.1309878868
H  H37  1  0.00906000  0.56080000  0.36076000  1.0 0.1309878868
H  H38  1  0.49094000  0.93920000  0.86076000  1.0 0.1309878868
H  H39  1  0.99094000  0.56080000  0.13924000  1.0 0.1309878868
H  H40  1  0.50906000  0.93920000  0.63924000  1.0 0.1309878868
H  H41  1  0.55858000  0.18352000  0.64471000  1.0 0.1394364903
H  H42  1  0.94142000  0.31648000  0.14471000  1.0 0.1394364903
H  H43  1  0.44142000  0.18352000  0.85529000  1.0 0.1394364903
H  H44  1  0.05858000  0.31648000  0.35529000  1.0 0.1394364903
H  H45  1  0.44142000  0.81648000  0.35529000  1.0 0.1394364903
H  H46  1  0.05858000  0.68352000  0.85529000  1.0 0.1394364903
H  H47  1  0.55858000  0.81648000  0.14471000  1.0 0.1394364903
H  H48  1  0.94142000  0.68352000  0.64471000  1.0 0.1394364903
H  H49  1  0.85463000  0.23688000  0.70519000  1.0 0.1506748819
H  H50  1  0.64537000  0.26312000  0.20519000  1.0 0.1506748819
H  H51  1  0.14537000  0.23688000  0.79481000  1.0 0.1506748819
H  H52  1  0.35463000  0.26312000  0.29481000  1.0 0.1506748819
H  H53  1  0.14537000  0.76312000  0.29481000  1.0 0.1506748819
H  H54  1  0.35463000  0.73688000  0.79481000  1.0 0.1506748819
H  H55  1  0.85463000  0.76312000  0.20519000  1.0 0.1506748819
H  H56  1  0.64537000  0.73688000  0.70519000  1.0 0.1506748819
H  H57  1  0.75091000  0.36688000  0.75186000  1.0 0.1394364903
H  H58  1  0.74909000  0.13312000  0.25186000  1.0 0.1394364903
H  H59  1  0.24909000  0.36688000  0.74814000  1.0 0.1394364903
H  H60  1  0.25091000  0.13312000  0.24814000  1.0 0.1394364903
H  H61  1  0.24909000  0.63312000  0.24814000  1.0 0.1394364903
H  H62  1  0.25091000  0.86688000  0.74814000  1.0 0.1394364903
H  H63  1  0.75091000  0.63312000  0.25186000  1.0 0.1394364903
H  H64  1  0.74909000  0.86688000  0.75186000  1.0 0.1394364903
H  H65  1  0.66271000  0.43589000  0.69698000  1.0 0.1394364903
H  H66  1  0.83729000  0.06411000  0.19698000  1.0 0.1394364903
H  H67  1  0.33729000  0.43589000  0.80302000  1.0 0.1394364903
H  H68  1  0.16271000  0.06411000  0.30302000  1.0 0.1394364903
H  H69  1  0.33729000  0.56411000  0.30302000  1.0 0.1394364903
H  H70  1  0.16271000  0.93589000  0.80302000  1.0 0.1394364903
H  H71  1  0.66271000  0.56411000  0.19698000  1.0 0.1394364903
H  H72  1  0.83729000  0.93589000  0.69698000  1.0 0.1394364903
H  H73  1  0.08448000  0.39214000  0.51133000  1.0 0.1680410766
H  H74  1  0.41552000  0.10786000  0.01133000  1.0 0.1680410766
H  H75  1  0.91552000  0.39214000  0.98867000  1.0 0.1680410766
H  H76  1  0.58448000  0.10786000  0.48867000  1.0 0.1680410766
H  H77  1  0.91552000  0.60786000  0.48867000  1.0 0.1680410766
H  H78  1  0.58448000  0.89214000  0.98867000  1.0 0.1680410766
H  H79  1  0.08448000  0.60786000  0.01133000  1.0 0.1680410766
H  H80  1  0.41552000  0.89214000  0.51133000  1.0 0.1680410766
H  H81  1  0.96561000  0.44408000  0.51142000  1.0 0.1506748819
H  H82  1  0.53439000  0.05592000  0.01142000  1.0 0.1506748819
H  H83  1  0.03439000  0.44408000  0.98858000  1.0 0.1506748819
H  H84  1  0.46561000  0.05592000  0.48858000  1.0 0.1506748819
H  H85  1  0.03439000  0.55592000  0.48858000  1.0 0.1506748819
H  H86  1  0.46561000  0.94408000  0.98858000  1.0 0.1506748819
H  H87  1  0.96561000  0.55592000  0.01142000  1.0 0.1506748819
H  H88  1  0.53439000  0.94408000  0.51142000  1.0 0.1506748819
H  H89  1  0.98353000  0.37798000  0.52742000  1.0 0.1506748819
H  H90  1  0.51647000  0.12202000  0.02742000  1.0 0.1506748819
H  H91  1  0.01647000  0.37798000  0.97258000  1.0 0.1506748819
H  H92  1  0.48353000  0.12202000  0.47258000  1.0 0.1506748819
H  H93  1  0.01647000  0.62202000  0.47258000  1.0 0.1506748819
H  H94  1  0.48353000  0.87798000  0.97258000  1.0 0.1506748819
H  H95  1  0.98353000  0.62202000  0.02742000  1.0 0.1506748819
H  H96  1  0.51647000  0.87798000  0.52742000  1.0 0.1506748819
H  H97  1  0.84782000  0.53631000  0.55229000  1.0 0.1506748819
H  H98  1  0.65218000  0.96369000  0.05229000  1.0 0.1506748819
H  H99  1  0.15218000  0.53631000  0.94771000  1.0 0.1506748819
H  H100  1  0.34782000  0.96369000  0.44771000  1.0 0.1506748819
H  H101  1  0.15218000  0.46369000  0.44771000  1.0 0.1506748819
H  H102  1  0.34782000  0.03631000  0.94771000  1.0 0.1506748819
H  H103  1  0.84782000  0.46369000  0.05229000  1.0 0.1506748819
H  H104  1  0.65218000  0.03631000  0.55229000  1.0 0.1506748819
H  H105  1  0.85089000  0.47311000  0.53533000  1.0 0.1309878868
H  H106  1  0.64911000  0.02689000  0.03533000  1.0 0.1309878868
H  H107  1  0.14911000  0.47311000  0.96467000  1.0 0.1309878868
H  H108  1  0.35089000  0.02689000  0.46467000  1.0 0.1309878868
H  H109  1  0.14911000  0.52689000  0.46467000  1.0 0.1309878868
H  H110  1  0.35089000  0.97311000  0.96467000  1.0 0.1309878868
H  H111  1  0.85089000  0.52689000  0.03533000  1.0 0.1309878868
H  H112  1  0.64911000  0.97311000  0.53533000  1.0 0.1309878868
H  H113  1  0.85920000  0.56336000  0.53019000  1.0 0.1394364903
H  H114  1  0.64080000  0.93664000  0.03019000  1.0 0.1394364903
H  H115  1  0.14080000  0.56336000  0.96981000  1.0 0.1394364903
H  H116  1  0.35920000  0.93664000  0.46981000  1.0 0.1394364903
H  H117  1  0.14080000  0.43664000  0.46981000  1.0 0.1394364903
H  H118  1  0.35920000  0.06336000  0.96981000  1.0 0.1394364903
H  H119  1  0.85920000  0.43664000  0.03019000  1.0 0.1394364903
H  H120  1  0.64080000  0.06336000  0.53019000  1.0 0.1394364903
H  H121  1  0.02420000  0.51657000  0.57206000  1.0 0.109321285
H  H122  1  0.47580000  0.98343000  0.07206000  1.0 0.109321285
H  H123  1  0.97580000  0.51657000  0.92794000  1.0 0.109321285
H  H124  1  0.52420000  0.98343000  0.42794000  1.0 0.109321285
H  H125  1  0.97580000  0.48343000  0.42794000  1.0 0.109321285
H  H126  1  0.52420000  0.01657000  0.92794000  1.0 0.109321285
H  H127  1  0.02420000  0.48343000  0.07206000  1.0 0.109321285
H  H128  1  0.47580000  0.01657000  0.57206000  1.0 0.109321285
H  H129  1  0.05157000  0.60121000  0.56369000  1.0 0.109321285
H  H130  1  0.44843000  0.89879000  0.06369000  1.0 0.109321285
H  H131  1  0.94843000  0.60121000  0.93631000  1.0 0.109321285
H  H132  1  0.55157000  0.89879000  0.43631000  1.0 0.109321285
H  H133  1  0.94843000  0.39879000  0.43631000  1.0 0.109321285
H  H134  1  0.55157000  0.10121000  0.93631000  1.0 0.109321285
H  H135  1  0.05157000  0.39879000  0.06369000  1.0 0.109321285
H  H136  1  0.44843000  0.10121000  0.56369000  1.0 0.109321285
H  H137  1  0.15168000  0.53496000  0.56246000  1.0 0.1156548267
H  H138  1  0.34832000  0.96504000  0.06246000  1.0 0.1156548267
H  H139  1  0.84832000  0.53496000  0.93754000  1.0 0.1156548267
H  H140  1  0.65168000  0.96504000  0.43754000  1.0 0.1156548267
H  H141  1  0.84832000  0.46504000  0.43754000  1.0 0.1156548267
H  H142  1  0.65168000  0.03496000  0.93754000  1.0 0.1156548267
H  H143  1  0.15168000  0.46504000  0.06246000  1.0 0.1156548267
H  H144  1  0.34832000  0.03496000  0.56246000  1.0 0.1156548267
H  H145  1  0.99576000  0.42285000  0.60464000  1.0 0.1394364903
H  H146  1  0.50424000  0.07715000  0.10464000  1.0 0.1394364903
H  H147  1  0.00424000  0.42285000  0.89536000  1.0 0.1394364903
H  H148  1  0.49576000  0.07715000  0.39536000  1.0 0.1394364903
H  H149  1  0.00424000  0.57715000  0.39536000  1.0 0.1394364903
H  H150  1  0.49576000  0.92285000  0.89536000  1.0 0.1394364903
H  H151  1  0.99576000  0.57715000  0.10464000  1.0 0.1394364903
H  H152  1  0.50424000  0.92285000  0.60464000  1.0 0.1394364903
H  H153  1  0.20589000  0.31979000  0.53416000  1.0 0.1309878868
H  H154  1  0.29411000  0.18021000  0.03416000  1.0 0.1309878868
H  H155  1  0.79411000  0.31979000  0.96584000  1.0 0.1309878868
H  H156  1  0.70589000  0.18021000  0.46584000  1.0 0.1309878868
H  H157  1  0.79411000  0.68021000  0.46584000  1.0 0.1309878868
H  H158  1  0.70589000  0.81979000  0.96584000  1.0 0.1309878868
H  H159  1  0.20589000  0.68021000  0.03416000  1.0 0.1309878868
H  H160  1  0.29411000  0.81979000  0.53416000  1.0 0.1309878868
H  H161  1  0.11603000  0.26885000  0.54698000  1.0 0.1394364903
H  H162  1  0.38397000  0.23115000  0.04698000  1.0 0.1394364903
H  H163  1  0.88397000  0.26885000  0.95302000  1.0 0.1394364903
H  H164  1  0.61603000  0.23115000  0.45302000  1.0 0.1394364903
H  H165  1  0.88397000  0.73115000  0.45302000  1.0 0.1394364903
H  H166  1  0.61603000  0.76885000  0.95302000  1.0 0.1394364903
H  H167  1  0.11603000  0.73115000  0.04698000  1.0 0.1394364903
H  H168  1  0.38397000  0.76885000  0.54698000  1.0 0.1394364903
H  H169  1  0.23075000  0.22927000  0.53718000  1.0 0.1394364903
H  H170  1  0.26925000  0.27073000  0.03718000  1.0 0.1394364903
H  H171  1  0.76925000  0.22927000  0.96282000  1.0 0.1394364903
H  H172  1  0.73075000  0.27073000  0.46282000  1.0 0.1394364903
H  H173  1  0.76925000  0.77073000  0.46282000  1.0 0.1394364903
H  H174  1  0.73075000  0.72927000  0.96282000  1.0 0.1394364903
H  H175  1  0.23075000  0.77073000  0.03718000  1.0 0.1394364903
H  H176  1  0.26925000  0.72927000  0.53718000  1.0 0.1394364903
H  H177  1  0.18869000  0.19865000  0.56978000  1.0 0.1394364903
H  H178  1  0.31131000  0.30135000  0.06978000  1.0 0.1394364903
H  H179  1  0.81131000  0.19865000  0.93022000  1.0 0.1394364903
H  H180  1  0.68869000  0.30135000  0.43022000  1.0 0.1394364903
H  H181  1  0.81131000  0.80135000  0.43022000  1.0 0.1394364903
H  H182  1  0.68869000  0.69865000  0.93022000  1.0 0.1394364903
H  H183  1  0.18869000  0.80135000  0.06978000  1.0 0.1394364903
H  H184  1  0.31131000  0.69865000  0.56978000  1.0 0.1394364903
H  H185  1  0.17052000  0.26895000  0.58461000  1.0 0.1394364903
H  H186  1  0.32948000  0.23105000  0.08461000  1.0 0.1394364903
H  H187  1  0.82948000  0.26895000  0.91539000  1.0 0.1394364903
H  H188  1  0.67052000  0.23105000  0.41539000  1.0 0.1394364903
H  H189  1  0.82948000  0.73105000  0.41539000  1.0 0.1394364903
H  H190  1  0.67052000  0.76895000  0.91539000  1.0 0.1394364903
H  H191  1  0.17052000  0.73105000  0.08461000  1.0 0.1394364903
H  H192  1  0.32948000  0.76895000  0.58461000  1.0 0.1394364903
H  H193  1  0.29394000  0.22165000  0.58445000  1.0 0.1309878868
H  H194  1  0.20606000  0.27835000  0.08445000  1.0 0.1309878868
H  H195  1  0.70606000  0.22165000  0.91555000  1.0 0.1309878868
H  H196  1  0.79394000  0.27835000  0.41555000  1.0 0.1309878868
H  H197  1  0.70606000  0.77835000  0.41555000  1.0 0.1309878868
H  H198  1  0.79394000  0.72165000  0.91555000  1.0 0.1309878868
H  H199  1  0.29394000  0.77835000  0.08445000  1.0 0.1309878868
H  H200  1  0.20606000  0.72165000  0.58445000  1.0 0.1309878868
H  H201  1  0.48552000  0.38719000  0.57773000  1.0 0.1614968775
H  H202  1  0.01448000  0.11281000  0.07773000  1.0 0.1614968775
H  H203  1  0.51448000  0.38719000  0.92227000  1.0 0.1614968775
H  H204  1  0.98552000  0.11281000  0.42227000  1.0 0.1614968775
H  H205  1  0.51448000  0.61281000  0.42227000  1.0 0.1614968775
H  H206  1  0.98552000  0.88719000  0.92227000  1.0 0.1614968775
H  H207  1  0.48552000  0.61281000  0.07773000  1.0 0.1614968775
H  H208  1  0.01448000  0.88719000  0.57773000  1.0 0.1614968775
H  H209  1  0.43272000  0.30868000  0.58664000  1.0 0.1394364903
H  H210  1  0.06728000  0.19132000  0.08664000  1.0 0.1394364903
H  H211  1  0.56728000  0.30868000  0.91336000  1.0 0.1394364903
H  H212  1  0.93272000  0.19132000  0.41336000  1.0 0.1394364903
H  H213  1  0.56728000  0.69132000  0.41336000  1.0 0.1394364903
H  H214  1  0.93272000  0.80868000  0.91336000  1.0 0.1394364903
H  H215  1  0.43272000  0.69132000  0.08664000  1.0 0.1394364903
H  H216  1  0.06728000  0.80868000  0.58664000  1.0 0.1394364903
H  H217  1  0.35237000  0.38549000  0.58637000  1.0 0.1614968775
H  H218  1  0.14763000  0.11451000  0.08637000  1.0 0.1614968775
H  H219  1  0.64763000  0.38549000  0.91363000  1.0 0.1614968775
H  H220  1  0.85237000  0.11451000  0.41363000  1.0 0.1614968775
H  H221  1  0.64763000  0.61451000  0.41363000  1.0 0.1614968775
H  H222  1  0.85237000  0.88549000  0.91363000  1.0 0.1614968775
H  H223  1  0.35237000  0.61451000  0.08637000  1.0 0.1614968775
H  H224  1  0.14763000  0.88549000  0.58637000  1.0 0.1614968775
H  H225  1  0.24769000  0.55786000  0.66096000  1.0 0.1506748819
H  H226  1  0.25231000  0.94214000  0.16096000  1.0 0.1506748819
H  H227  1  0.75231000  0.55786000  0.83904000  1.0 0.1506748819
H  H228  1  0.74769000  0.94214000  0.33904000  1.0 0.1506748819
H  H229  1  0.75231000  0.44214000  0.33904000  1.0 0.1506748819
H  H230  1  0.74769000  0.05786000  0.83904000  1.0 0.1506748819
H  H231  1  0.24769000  0.44214000  0.16096000  1.0 0.1506748819
H  H232  1  0.25231000  0.05786000  0.66096000  1.0 0.1506748819
H  H233  1  0.17687000  0.56843000  0.68095000  1.0 0.1506748819
H  H234  1  0.32313000  0.93157000  0.18095000  1.0 0.1506748819
H  H235  1  0.82313000  0.56843000  0.81905000  1.0 0.1506748819
H  H236  1  0.67687000  0.93157000  0.31905000  1.0 0.1506748819
H  H237  1  0.82313000  0.43157000  0.31905000  1.0 0.1506748819
H  H238  1  0.67687000  0.06843000  0.81905000  1.0 0.1506748819
H  H239  1  0.17687000  0.43157000  0.18095000  1.0 0.1506748819
H  H240  1  0.32313000  0.06843000  0.68095000  1.0 0.1506748819
H  H241  1  0.11552000  0.52300000  0.66334000  1.0 0.1309878868
H  H242  1  0.38448000  0.97700000  0.16334000  1.0 0.1309878868
H  H243  1  0.88448000  0.52300000  0.83666000  1.0 0.1309878868
H  H244  1  0.61552000  0.97700000  0.33666000  1.0 0.1309878868
H  H245  1  0.88448000  0.47700000  0.33666000  1.0 0.1309878868
H  H246  1  0.61552000  0.02300000  0.83666000  1.0 0.1309878868
H  H247  1  0.11552000  0.47700000  0.16334000  1.0 0.1309878868
H  H248  1  0.38448000  0.02300000  0.66334000  1.0 0.1309878868
H  H249  1  0.16210000  0.35091000  0.67166000  1.0 0.1394364903
H  H250  1  0.33790000  0.14909000  0.17166000  1.0 0.1394364903
H  H251  1  0.83790000  0.35091000  0.82834000  1.0 0.1394364903
H  H252  1  0.66210000  0.14909000  0.32834000  1.0 0.1394364903
H  H253  1  0.83790000  0.64909000  0.32834000  1.0 0.1394364903
H  H254  1  0.66210000  0.85091000  0.82834000  1.0 0.1394364903
H  H255  1  0.16210000  0.64909000  0.17166000  1.0 0.1394364903
H  H256  1  0.33790000  0.85091000  0.67166000  1.0 0.1394364903
H  H257  1  0.30074000  0.34901000  0.66569000  1.0 0.1309878868
H  H258  1  0.19926000  0.15099000  0.16569000  1.0 0.1309878868
H  H259  1  0.69926000  0.34901000  0.83431000  1.0 0.1309878868
H  H260  1  0.80074000  0.15099000  0.33431000  1.0 0.1309878868
H  H261  1  0.69926000  0.65099000  0.33431000  1.0 0.1309878868
H  H262  1  0.80074000  0.84901000  0.83431000  1.0 0.1309878868
H  H263  1  0.30074000  0.65099000  0.16569000  1.0 0.1309878868
H  H264  1  0.19926000  0.84901000  0.66569000  1.0 0.1309878868
H  H265  1  0.20719000  0.39786000  0.65304000  1.0 0.1309878868
H  H266  1  0.29281000  0.10214000  0.15304000  1.0 0.1309878868
H  H267  1  0.79281000  0.39786000  0.84696000  1.0 0.1309878868
H  H268  1  0.70719000  0.10214000  0.34696000  1.0 0.1309878868
H  H269  1  0.79281000  0.60214000  0.34696000  1.0 0.1309878868
H  H270  1  0.70719000  0.89786000  0.84696000  1.0 0.1309878868
H  H271  1  0.20719000  0.60214000  0.15304000  1.0 0.1309878868
H  H272  1  0.29281000  0.89786000  0.65304000  1.0 0.1309878868
H  H273  1  0.40279000  0.35707000  0.69300000  1.0 0.1506748819
H  H274  1  0.09721000  0.14293000  0.19300000  1.0 0.1506748819
H  H275  1  0.59721000  0.35707000  0.80700000  1.0 0.1506748819
H  H276  1  0.90279000  0.14293000  0.30700000  1.0 0.1506748819
H  H277  1  0.59721000  0.64293000  0.30700000  1.0 0.1506748819
H  H278  1  0.90279000  0.85707000  0.80700000  1.0 0.1506748819
H  H279  1  0.40279000  0.64293000  0.19300000  1.0 0.1506748819
H  H280  1  0.09721000  0.85707000  0.69300000  1.0 0.1506748819
H  H281  1  0.28157000  0.34802000  0.70520000  1.0 0.1680410766
H  H282  1  0.21843000  0.15198000  0.20520000  1.0 0.1680410766
H  H283  1  0.71843000  0.34802000  0.79480000  1.0 0.1680410766
H  H284  1  0.78157000  0.15198000  0.29480000  1.0 0.1680410766
H  H285  1  0.71843000  0.65198000  0.29480000  1.0 0.1680410766
H  H286  1  0.78157000  0.84802000  0.79480000  1.0 0.1680410766
H  H287  1  0.28157000  0.65198000  0.20520000  1.0 0.1680410766
H  H288  1  0.21843000  0.84802000  0.70520000  1.0 0.1680410766
H  H289  1  0.39382000  0.39271000  0.71436000  1.0 0.1680410766
H  H290  1  0.10618000  0.10729000  0.21436000  1.0 0.1680410766
H  H291  1  0.60618000  0.39271000  0.78564000  1.0 0.1680410766
H  H292  1  0.89382000  0.10729000  0.28564000  1.0 0.1680410766
H  H293  1  0.60618000  0.60729000  0.28564000  1.0 0.1680410766
H  H294  1  0.89382000  0.89271000  0.78564000  1.0 0.1680410766
H  H295  1  0.39382000  0.60729000  0.21436000  1.0 0.1680410766
H  H296  1  0.10618000  0.89271000  0.71436000  1.0 0.1680410766
H  H297  1  0.04955000  0.46419000  0.71091000  1.0 0.1394364903
H  H298  1  0.45045000  0.03581000  0.21091000  1.0 0.1394364903
H  H299  1  0.95045000  0.46419000  0.78909000  1.0 0.1394364903
H  H300  1  0.54955000  0.03581000  0.28909000  1.0 0.1394364903
H  H301  1  0.95045000  0.53581000  0.28909000  1.0 0.1394364903
H  H302  1  0.54955000  0.96419000  0.78909000  1.0 0.1394364903
H  H303  1  0.04955000  0.53581000  0.21091000  1.0 0.1394364903
H  H304  1  0.45045000  0.96419000  0.71091000  1.0 0.1394364903
H  H305  1  0.98440000  0.46283000  0.73157000  1.0 0.1309878868
H  H306  1  0.51560000  0.03717000  0.23157000  1.0 0.1309878868
H  H307  1  0.01560000  0.46283000  0.76843000  1.0 0.1309878868
H  H308  1  0.48440000  0.03717000  0.26843000  1.0 0.1309878868
H  H309  1  0.01560000  0.53717000  0.26843000  1.0 0.1309878868
H  H310  1  0.48440000  0.96283000  0.76843000  1.0 0.1309878868
H  H311  1  0.98440000  0.53717000  0.23157000  1.0 0.1309878868
H  H312  1  0.51560000  0.96283000  0.73157000  1.0 0.1309878868
H  H313  1  0.12146000  0.48954000  0.72995000  1.0 0.1394364903
H  H314  1  0.37854000  0.01046000  0.22995000  1.0 0.1394364903
H  H315  1  0.87854000  0.48954000  0.77005000  1.0 0.1394364903
H  H316  1  0.62146000  0.01046000  0.27005000  1.0 0.1394364903
H  H317  1  0.87854000  0.51046000  0.27005000  1.0 0.1394364903
H  H318  1  0.62146000  0.98954000  0.77005000  1.0 0.1394364903
H  H319  1  0.12146000  0.51046000  0.22995000  1.0 0.1394364903
H  H320  1  0.37854000  0.98954000  0.72995000  1.0 0.1394364903
H  H321  1  0.09167000  0.74871000  0.72817000  1.0 0.1680410766
H  H322  1  0.40833000  0.75129000  0.22817000  1.0 0.1680410766
H  H323  1  0.90833000  0.74871000  0.77183000  1.0 0.1680410766
H  H324  1  0.59167000  0.75129000  0.27183000  1.0 0.1680410766
H  H325  1  0.90833000  0.25129000  0.27183000  1.0 0.1680410766
H  H326  1  0.59167000  0.24871000  0.77183000  1.0 0.1680410766
H  H327  1  0.09167000  0.25129000  0.22817000  1.0 0.1680410766
H  H328  1  0.40833000  0.24871000  0.72817000  1.0 0.1680410766
H  H329  1  0.95564000  0.71958000  0.72941000  1.0 0.1506748819
H  H330  1  0.54436000  0.78042000  0.22941000  1.0 0.1506748819
H  H331  1  0.04436000  0.71958000  0.77059000  1.0 0.1506748819
H  H332  1  0.45564000  0.78042000  0.27059000  1.0 0.1506748819
H  H333  1  0.04436000  0.28042000  0.27059000  1.0 0.1506748819
H  H334  1  0.45564000  0.21958000  0.77059000  1.0 0.1506748819
H  H335  1  0.95564000  0.28042000  0.22941000  1.0 0.1506748819
H  H336  1  0.54436000  0.21958000  0.72941000  1.0 0.1506748819
H  H337  1  0.02236000  0.72318000  0.70890000  1.0 0.1614968775
H  H338  1  0.47764000  0.77682000  0.20890000  1.0 0.1614968775
H  H339  1  0.97764000  0.72318000  0.79110000  1.0 0.1614968775
H  H340  1  0.52236000  0.77682000  0.29110000  1.0 0.1614968775
H  H341  1  0.97764000  0.27682000  0.29110000  1.0 0.1614968775
H  H342  1  0.52236000  0.22318000  0.79110000  1.0 0.1614968775
H  H343  1  0.02236000  0.27682000  0.20890000  1.0 0.1614968775
H  H344  1  0.47764000  0.22318000  0.70890000  1.0 0.1614968775
H  H345  1  0.82428000  0.59460000  0.72452000  1.0 0.1506748819
H  H346  1  0.67572000  0.90540000  0.22452000  1.0 0.1506748819
H  H347  1  0.17572000  0.59460000  0.77548000  1.0 0.1506748819
H  H348  1  0.32428000  0.90540000  0.27548000  1.0 0.1506748819
H  H349  1  0.17572000  0.40540000  0.27548000  1.0 0.1506748819
H  H350  1  0.32428000  0.09460000  0.77548000  1.0 0.1506748819
H  H351  1  0.82428000  0.40540000  0.22452000  1.0 0.1506748819
H  H352  1  0.67572000  0.09460000  0.72452000  1.0 0.1506748819
H  H353  1  0.85129000  0.54607000  0.70525000  1.0 0.1394364903
H  H354  1  0.64871000  0.95393000  0.20525000  1.0 0.1394364903
H  H355  1  0.14871000  0.54607000  0.79475000  1.0 0.1394364903
H  H356  1  0.35129000  0.95393000  0.29475000  1.0 0.1394364903
H  H357  1  0.14871000  0.45393000  0.29475000  1.0 0.1394364903
H  H358  1  0.35129000  0.04607000  0.79475000  1.0 0.1394364903
H  H359  1  0.85129000  0.45393000  0.20525000  1.0 0.1394364903
H  H360  1  0.64871000  0.04607000  0.70525000  1.0 0.1394364903
H  H361  1  0.87845000  0.63708000  0.70586000  1.0 0.1309878868
H  H362  1  0.62155000  0.86292000  0.20586000  1.0 0.1309878868
H  H363  1  0.12155000  0.63708000  0.79414000  1.0 0.1309878868
H  H364  1  0.37845000  0.86292000  0.29414000  1.0 0.1309878868
H  H365  1  0.12155000  0.36292000  0.29414000  1.0 0.1309878868
H  H366  1  0.37845000  0.13708000  0.79414000  1.0 0.1309878868
H  H367  1  0.87845000  0.36292000  0.20586000  1.0 0.1309878868
H  H368  1  0.62155000  0.13708000  0.70586000  1.0 0.1309878868
H  H369  1  0.15369000  0.60439000  0.54051000  1.0 0.1156548267
H  H370  1  0.34631000  0.89561000  0.04051000  1.0 0.1156548267
H  H371  1  0.84631000  0.60439000  0.95949000  1.0 0.1156548267
H  H372  1  0.65369000  0.89561000  0.45949000  1.0 0.1156548267
H  H373  1  0.84631000  0.39561000  0.45949000  1.0 0.1156548267
H  H374  1  0.65369000  0.10439000  0.95949000  1.0 0.109321285
H  H375  1  0.15369000  0.39561000  0.04051000  1.0 0.109321285
H  H376  1  0.34631000  0.10439000  0.54051000  1.0 0.1156548267
H  H377  1  0.09122000  0.59879000  0.56134000  1.0 0.0994082886
H  H378  1  0.40878000  0.90121000  0.06134000  1.0 0.0994082886
H  H379  1  0.90878000  0.59879000  0.93866000  1.0 0.0994082886
H  H380  1  0.59122000  0.90121000  0.43866000  1.0 0.0994082886
H  H381  1  0.90878000  0.40121000  0.43866000  1.0 0.0994082886
H  H382  1  0.59122000  0.09879000  0.93866000  1.0 0.0994082886
H  H383  1  0.09122000  0.40121000  0.06134000  1.0 0.0994082886
H  H384  1  0.40878000  0.09879000  0.56134000  1.0 0.0994082886
H  H385  1  0.02464000  0.64254000  0.54396000  1.0 0.109321285
H  H386  1  0.47536000  0.85746000  0.04396000  1.0 0.109321285
H  H387  1  0.97536000  0.64254000  0.95604000  1.0 0.109321285
H  H388  1  0.52464000  0.85746000  0.45604000  1.0 0.109321285
H  H389  1  0.97536000  0.35746000  0.45604000  1.0 0.109321285
H  H390  1  0.52464000  0.14254000  0.95604000  1.0 0.109321285
H  H391  1  0.02464000  0.35746000  0.04396000  1.0 0.109321285
H  H392  1  0.47536000  0.14254000  0.54396000  1.0 0.109321285
C  C1  1  0.87980000  0.13310000  0.51370000  1.0 0.6373847995
C  C2  1  0.62020000  0.36690000  0.01370000  1.0 0.6373847995
C  C3  1  0.12020000  0.13310000  0.98630000  1.0 0.6373847995
C  C4  1  0.37980000  0.36690000  0.48630000  1.0 0.6373847995
C  C5  1  0.12020000  0.86690000  0.48630000  1.0 0.6373847995
C  C6  1  0.37980000  0.63310000  0.98630000  1.0 0.6373847995
C  C7  1  0.87980000  0.86690000  0.01370000  1.0 0.6373847995
C  C8  1  0.62020000  0.63310000  0.51370000  1.0 0.6373847995
C  C9  1  0.82000000  0.20520000  0.52269000  1.0 -0.0022914007
C  C10  1  0.68000000  0.29480000  0.02269000  1.0 -0.0022914007
C  C11  1  0.18000000  0.20520000  0.97731000  1.0 -0.0022914007
C  C12  1  0.32000000  0.29480000  0.47731000  1.0 -0.0022914007
C  C13  1  0.18000000  0.79480000  0.47731000  1.0 -0.0022914007
C  C14  1  0.32000000  0.70520000  0.97731000  1.0 -0.0022914007
C  C15  1  0.82000000  0.79480000  0.02269000  1.0 -0.0022914007
C  C16  1  0.68000000  0.70520000  0.52269000  1.0 -0.0022914007
C  C17  1  0.76780000  0.26310000  0.51081000  1.0 -0.0895116428
C  C18  1  0.73220000  0.23690000  0.01081000  1.0 -0.0895116428
C  C19  1  0.23220000  0.26310000  0.98919000  1.0 -0.0953736928
C  C20  1  0.26780000  0.23690000  0.48919000  1.0 -0.0953736928
C  C21  1  0.23220000  0.73690000  0.48919000  1.0 -0.0895116428
C  C22  1  0.26780000  0.76310000  0.98919000  1.0 -0.0953736928
C  C23  1  0.76780000  0.73690000  0.01081000  1.0 -0.0895116428
C  C24  1  0.73220000  0.76310000  0.51081000  1.0 -0.0895116428
C  C25  1  0.71550000  0.33010000  0.51933000  1.0 -0.0022914007
C  C26  1  0.78450000  0.16990000  0.01933000  1.0 -0.0022914007
C  C27  1  0.28450000  0.33010000  0.98067000  1.0 -0.0022914007
C  C28  1  0.21550000  0.16990000  0.48067000  1.0 -0.0022914007
C  C29  1  0.28450000  0.66990000  0.48067000  1.0 -0.0022914007
C  C30  1  0.21550000  0.83010000  0.98067000  1.0 -0.0022914007
C  C31  1  0.71550000  0.66990000  0.01933000  1.0 -0.0022914007
C  C32  1  0.78450000  0.83010000  0.51933000  1.0 -0.0022914007
C  C33  1  0.66870000  0.39520000  0.50629000  1.0 0.6237920347
C  C34  1  0.83130000  0.10480000  0.00629000  1.0 0.6237920347
C  C35  1  0.33130000  0.39520000  0.99371000  1.0 0.6237920347
C  C36  1  0.16870000  0.10480000  0.49371000  1.0 0.6237920347
C  C37  1  0.33130000  0.60480000  0.49371000  1.0 0.6237920347
C  C38  1  0.16870000  0.89520000  0.99371000  1.0 0.6237920347
C  C39  1  0.66870000  0.60480000  0.00629000  1.0 0.6237920347
C  C40  1  0.83130000  0.89520000  0.50629000  1.0 0.6237920347
C  C41  1  0.82510000  0.21540000  0.54287000  1.0 -0.1611544665
C  C42  1  0.67490000  0.28460000  0.04287000  1.0 -0.1611544665
C  C43  1  0.17490000  0.21540000  0.95713000  1.0 -0.1611544665
C  C44  1  0.32510000  0.28460000  0.45713000  1.0 -0.1611544665
C  C45  1  0.17490000  0.78460000  0.45713000  1.0 -0.1611544665
C  C46  1  0.32510000  0.71540000  0.95713000  1.0 -0.1611544665
C  C47  1  0.82510000  0.78460000  0.04287000  1.0 -0.1611544665
C  C48  1  0.67490000  0.71540000  0.54287000  1.0 -0.1611544665
C  C49  1  0.76930000  0.28030000  0.55137000  1.0 0.1980513755
C  C50  1  0.73070000  0.21970000  0.05137000  1.0 0.1980513755
C  C51  1  0.23070000  0.28030000  0.94863000  1.0 0.1980513755
C  C52  1  0.26930000  0.21970000  0.44863000  1.0 0.1980513755
C  C53  1  0.23070000  0.71970000  0.44863000  1.0 0.1980513755
C  C54  1  0.26930000  0.78030000  0.94863000  1.0 0.1980513755
C  C55  1  0.76930000  0.71970000  0.05137000  1.0 0.1980513755
C  C56  1  0.73070000  0.78030000  0.55137000  1.0 0.1980513755
C  C57  1  0.71360000  0.33780000  0.53987000  1.0 -0.1611544665
C  C58  1  0.78640000  0.16220000  0.03987000  1.0 -0.1611544665
C  C59  1  0.28640000  0.33780000  0.96013000  1.0 -0.1611544665
C  C60  1  0.21360000  0.16220000  0.46013000  1.0 -0.1611544665
C  C61  1  0.28640000  0.66220000  0.46013000  1.0 -0.1611544665
C  C62  1  0.21360000  0.83780000  0.96013000  1.0 -0.1611544665
C  C63  1  0.71360000  0.66220000  0.03987000  1.0 -0.1611544665
C  C64  1  0.78640000  0.83780000  0.53987000  1.0 -0.1611544665
C  C65  1  0.86040000  0.33580000  0.58114000  1.0 0.4415026513
C  C66  1  0.63960000  0.16420000  0.08114000  1.0 0.4415026513
C  C67  1  0.13960000  0.33580000  0.91886000  1.0 0.4415026513
C  C68  1  0.36040000  0.16420000  0.41886000  1.0 0.4415026513
C  C69  1  0.13960000  0.66420000  0.41886000  1.0 0.4415026513
C  C70  1  0.36040000  0.83580000  0.91886000  1.0 0.4415026513
C  C71  1  0.86040000  0.66420000  0.08114000  1.0 0.4415026513
C  C72  1  0.63960000  0.83580000  0.58114000  1.0 0.4415026513
C  C73  1  0.68940000  0.24040000  0.58342000  1.0 0.4415026513
C  C74  1  0.81060000  0.25960000  0.08342000  1.0 0.4415026513
C  C75  1  0.31060000  0.24040000  0.91658000  1.0 0.4415026513
C  C76  1  0.18940000  0.25960000  0.41658000  1.0 0.4415026513
C  C77  1  0.31060000  0.75960000  0.41658000  1.0 0.4415026513
C  C78  1  0.18940000  0.74040000  0.91658000  1.0 0.4415026513
C  C79  1  0.68940000  0.75960000  0.08342000  1.0 0.4415026513
C  C80  1  0.81060000  0.74040000  0.58342000  1.0 0.4415026513
C  C81  1  0.86270000  0.34190000  0.60320000  1.0 -0.0379069944
C  C82  1  0.63730000  0.15810000  0.10320000  1.0 -0.0379069944
C  C83  1  0.13730000  0.34190000  0.89680000  1.0 -0.0379069944
C  C84  1  0.36270000  0.15810000  0.39680000  1.0 -0.0379069944
C  C85  1  0.13730000  0.65810000  0.39680000  1.0 -0.0379069944
C  C86  1  0.36270000  0.84190000  0.89680000  1.0 -0.0379069944
C  C87  1  0.86270000  0.65810000  0.10320000  1.0 -0.0379069944
C  C88  1  0.63730000  0.84190000  0.60320000  1.0 -0.0379069944
C  C89  1  0.77990000  0.29800000  0.61421000  1.0 0.0403055012
C  C90  1  0.72010000  0.20200000  0.11421000  1.0 0.0403055012
C  C91  1  0.22010000  0.29800000  0.88579000  1.0 0.0403055012
C  C92  1  0.27990000  0.20200000  0.38579000  1.0 0.0403055012
C  C93  1  0.22010000  0.70200000  0.38579000  1.0 0.0403055012
C  C94  1  0.27990000  0.79800000  0.88579000  1.0 0.0403055012
C  C95  1  0.77990000  0.70200000  0.11421000  1.0 0.0403055012
C  C96  1  0.72010000  0.79800000  0.61421000  1.0 0.0403055012
C  C97  1  0.69490000  0.24740000  0.60527000  1.0 -0.0501422757
C  C98  1  0.80510000  0.25260000  0.10527000  1.0 -0.0501422757
C  C99  1  0.30510000  0.24740000  0.89473000  1.0 -0.0501422757
C  C100  1  0.19490000  0.25260000  0.39473000  1.0 -0.0501422757
C  C101  1  0.30510000  0.75260000  0.39473000  1.0 -0.0501422757
C  C102  1  0.19490000  0.74740000  0.89473000  1.0 -0.0501422757
C  C103  1  0.69490000  0.75260000  0.10527000  1.0 -0.0501422757
C  C104  1  0.80510000  0.74740000  0.60527000  1.0 -0.0501422757
C  C105  1  0.61300000  0.20460000  0.61631000  1.0 -0.0895116428
C  C106  1  0.88700000  0.29540000  0.11631000  1.0 -0.0895116428
C  C107  1  0.38700000  0.20460000  0.88369000  1.0 -0.0895116428
C  C108  1  0.11300000  0.29540000  0.38369000  1.0 -0.0895116428
C  C109  1  0.38700000  0.79540000  0.38369000  1.0 -0.0839730619
C  C110  1  0.11300000  0.70460000  0.88369000  1.0 -0.0895116428
C  C111  1  0.61300000  0.79540000  0.11631000  1.0 -0.0895116428
C  C112  1  0.88700000  0.70460000  0.61631000  1.0 -0.0895116428
C  C113  1  0.93850000  0.40340000  0.63314000  1.0 -0.0895116428
C  C114  1  0.56150000  0.09660000  0.13314000  1.0 -0.0895116428
C  C115  1  0.06150000  0.40340000  0.86686000  1.0 -0.0895116428
C  C116  1  0.43850000  0.09660000  0.36686000  1.0 -0.0895116428
C  C117  1  0.06150000  0.59660000  0.36686000  1.0 -0.0895116428
C  C118  1  0.43850000  0.90340000  0.86686000  1.0 -0.0895116428
C  C119  1  0.93850000  0.59660000  0.13314000  1.0 -0.0895116428
C  C120  1  0.56150000  0.90340000  0.63314000  1.0 -0.0895116428
C  C121  1  0.85790000  0.35920000  0.64426000  1.0 -0.0501422757
C  C122  1  0.64210000  0.14080000  0.14426000  1.0 -0.0501422757
C  C123  1  0.14210000  0.35920000  0.85574000  1.0 -0.0501422757
C  C124  1  0.35790000  0.14080000  0.35574000  1.0 -0.0501422757
C  C125  1  0.14210000  0.64080000  0.35574000  1.0 -0.0501422757
C  C126  1  0.35790000  0.85920000  0.85574000  1.0 -0.0501422757
C  C127  1  0.85790000  0.64080000  0.14426000  1.0 -0.0501422757
C  C128  1  0.64210000  0.85920000  0.64426000  1.0 -0.0501422757
C  C129  1  0.77800000  0.30600000  0.63522000  1.0 0.0403055012
C  C130  1  0.72200000  0.19400000  0.13522000  1.0 0.0403055012
C  C131  1  0.22200000  0.30600000  0.86478000  1.0 0.0403055012
C  C132  1  0.27800000  0.19400000  0.36478000  1.0 0.0403055012
C  C133  1  0.22200000  0.69400000  0.36478000  1.0 0.0403055012
C  C134  1  0.27800000  0.80600000  0.86478000  1.0 0.0403055012
C  C135  1  0.77800000  0.69400000  0.13522000  1.0 0.0403055012
C  C136  1  0.72200000  0.80600000  0.63522000  1.0 0.0403055012
C  C137  1  0.69350000  0.26240000  0.64654000  1.0 -0.0501422757
C  C138  1  0.80650000  0.23760000  0.14654000  1.0 -0.0501422757
C  C139  1  0.30650000  0.26240000  0.85346000  1.0 -0.0501422757
C  C140  1  0.19350000  0.23760000  0.35346000  1.0 -0.0501422757
C  C141  1  0.30650000  0.73760000  0.35346000  1.0 -0.0501422757
C  C142  1  0.19350000  0.76240000  0.85346000  1.0 -0.0501422757
C  C143  1  0.69350000  0.73760000  0.14654000  1.0 -0.0501422757
C  C144  1  0.80650000  0.76240000  0.64654000  1.0 -0.0501422757
C  C145  1  0.61370000  0.21270000  0.63720000  1.0 -0.0895116428
C  C146  1  0.88630000  0.28730000  0.13720000  1.0 -0.0895116428
C  C147  1  0.38630000  0.21270000  0.86280000  1.0 -0.0895116428
C  C148  1  0.11370000  0.28730000  0.36280000  1.0 -0.0895116428
C  C149  1  0.38630000  0.78730000  0.36280000  1.0 -0.0895116428
C  C150  1  0.11370000  0.71270000  0.86280000  1.0 -0.0895116428
C  C151  1  0.61370000  0.78730000  0.13720000  1.0 -0.0895116428
C  C152  1  0.88630000  0.71270000  0.63720000  1.0 -0.0895116428
C  C153  1  0.85350000  0.37060000  0.66607000  1.0 0.4415026513
C  C154  1  0.64650000  0.12940000  0.16607000  1.0 0.4415026513
C  C155  1  0.14650000  0.37060000  0.83393000  1.0 0.4415026513
C  C156  1  0.35350000  0.12940000  0.33393000  1.0 0.4415026513
C  C157  1  0.14650000  0.62940000  0.33393000  1.0 0.4415026513
C  C158  1  0.35350000  0.87060000  0.83393000  1.0 0.4415026513
C  C159  1  0.85350000  0.62940000  0.16607000  1.0 0.4415026513
C  C160  1  0.64650000  0.87060000  0.66607000  1.0 0.4415026513
C  C161  1  0.68770000  0.27220000  0.66833000  1.0 0.4415026513
C  C162  1  0.81230000  0.22780000  0.16833000  1.0 0.4415026513
C  C163  1  0.31230000  0.27220000  0.83167000  1.0 0.4415026513
C  C164  1  0.18770000  0.22780000  0.33167000  1.0 0.4415026513
C  C165  1  0.31230000  0.72780000  0.33167000  1.0 0.4415026513
C  C166  1  0.18770000  0.77220000  0.83167000  1.0 0.4415026513
C  C167  1  0.68770000  0.72780000  0.16833000  1.0 0.4415026513
C  C168  1  0.81230000  0.77220000  0.66833000  1.0 0.4415026513
C  C169  1  0.76290000  0.33600000  0.69791000  1.0 0.1875646218
C  C170  1  0.73710000  0.16400000  0.19791000  1.0 0.1875646218
C  C171  1  0.23710000  0.33600000  0.80209000  1.0 0.1875646218
C  C172  1  0.26290000  0.16400000  0.30209000  1.0 0.1875646218
C  C173  1  0.23710000  0.66400000  0.30209000  1.0 0.1875646218
C  C174  1  0.26290000  0.83600000  0.80209000  1.0 0.1875646218
C  C175  1  0.76290000  0.66400000  0.19791000  1.0 0.1875646218
C  C176  1  0.73710000  0.83600000  0.69791000  1.0 0.1875646218
C  C177  1  0.81560000  0.28120000  0.71036000  1.0 -0.1611544665
C  C178  1  0.68440000  0.21880000  0.21036000  1.0 -0.1611544665
C  C179  1  0.18440000  0.28120000  0.78964000  1.0 -0.1611544665
C  C180  1  0.31560000  0.21880000  0.28964000  1.0 -0.1611544665
C  C181  1  0.18440000  0.71880000  0.28964000  1.0 -0.1611544665
C  C182  1  0.31560000  0.78120000  0.78964000  1.0 -0.1549272564
C  C183  1  0.81560000  0.71880000  0.21036000  1.0 -0.1611544665
C  C184  1  0.68440000  0.78120000  0.71036000  1.0 -0.1611544665
C  C185  1  0.81010000  0.29260000  0.73066000  1.0 0.0056951002
C  C186  1  0.68990000  0.20740000  0.23066000  1.0 0.0056951002
C  C187  1  0.18990000  0.29260000  0.76934000  1.0 0.0056951002
C  C188  1  0.31010000  0.20740000  0.26934000  1.0 0.0056951002
C  C189  1  0.18990000  0.70740000  0.26934000  1.0 0.0056951002
C  C190  1  0.31010000  0.79260000  0.76934000  1.0 0.0056951002
C  C191  1  0.81010000  0.70740000  0.23066000  1.0 0.0056951002
C  C192  1  0.68990000  0.79260000  0.73066000  1.0 0.0056951002
C  C193  1  0.75170000  0.35850000  0.73827000  1.0 -0.1087407869
C  C194  1  0.74830000  0.14150000  0.23827000  1.0 -0.1087407869
C  C195  1  0.24830000  0.35850000  0.76173000  1.0 -0.1087407869
C  C196  1  0.25170000  0.14150000  0.26173000  1.0 -0.1087407869
C  C197  1  0.24830000  0.64150000  0.26173000  1.0 -0.1087407869
C  C198  1  0.25170000  0.85850000  0.76173000  1.0 -0.1087407869
C  C199  1  0.75170000  0.64150000  0.23827000  1.0 -0.1087407869
C  C200  1  0.74830000  0.85850000  0.73827000  1.0 -0.1087407869
C  C201  1  0.69440000  0.41210000  0.72584000  1.0 -0.0074555118
C  C202  1  0.80560000  0.08790000  0.22584000  1.0 -0.0074555118
C  C203  1  0.30560000  0.41210000  0.77416000  1.0 -0.0074555118
C  C204  1  0.19440000  0.08790000  0.27416000  1.0 -0.0074555118
C  C205  1  0.30560000  0.58790000  0.27416000  1.0 -0.0074555118
C  C206  1  0.19440000  0.91210000  0.77416000  1.0 -0.0074555118
C  C207  1  0.69440000  0.58790000  0.22584000  1.0 -0.0074555118
C  C208  1  0.80560000  0.91210000  0.72584000  1.0 -0.0074555118
C  C209  1  0.70060000  0.40030000  0.70550000  1.0 -0.1611544665
C  C210  1  0.79940000  0.09970000  0.20550000  1.0 -0.1611544665
C  C211  1  0.29940000  0.40030000  0.79450000  1.0 -0.1611544665
C  C212  1  0.20060000  0.09970000  0.29450000  1.0 -0.1611544665
C  C213  1  0.29940000  0.59970000  0.29450000  1.0 -0.1611544665
C  C214  1  0.20060000  0.90030000  0.79450000  1.0 -0.1611544665
C  C215  1  0.70060000  0.59970000  0.20550000  1.0 -0.1611544665
C  C216  1  0.79940000  0.90030000  0.70550000  1.0 -0.1611544665
C  C217  1  0.62530000  0.48220000  0.73384000  1.0 0.6237920347
C  C218  1  0.87470000  0.01780000  0.23384000  1.0 0.6237920347
C  C219  1  0.37470000  0.48220000  0.76616000  1.0 0.6237920347
C  C220  1  0.12530000  0.01780000  0.26616000  1.0 0.6237920347
C  C221  1  0.37470000  0.51780000  0.26616000  1.0 0.6237920347
C  C222  1  0.12530000  0.98220000  0.76616000  1.0 0.6237920347
C  C223  1  0.62530000  0.51780000  0.23384000  1.0 0.6237920347
C  C224  1  0.87470000  0.98220000  0.73384000  1.0 0.6237920347
C  C225  1  0.86180000  0.23200000  0.74470000  1.0 0.6037737998
C  C226  1  0.63820000  0.26800000  0.24470000  1.0 0.6037737998
C  C227  1  0.13820000  0.23200000  0.75530000  1.0 0.6037737998
C  C228  1  0.36180000  0.26800000  0.25530000  1.0 0.6037737998
C  C229  1  0.13820000  0.76800000  0.25530000  1.0 0.6037737998
C  C230  1  0.36180000  0.73200000  0.75530000  1.0 0.6037737998
C  C231  1  0.86180000  0.76800000  0.24470000  1.0 0.6037737998
C  C232  1  0.63820000  0.73200000  0.74470000  1.0 0.6037737998
C  C233  1  0.02440000  0.41720000  0.51960000  1.0 -0.581911549
C  C234  1  0.47560000  0.08280000  0.01960000  1.0 -0.581911549
C  C235  1  0.97560000  0.41720000  0.98040000  1.0 -0.581911549
C  C236  1  0.52440000  0.08280000  0.48040000  1.0 -0.581911549
C  C237  1  0.97560000  0.58280000  0.48040000  1.0 -0.581911549
C  C238  1  0.52440000  0.91720000  0.98040000  1.0 -0.581911549
C  C239  1  0.02440000  0.58280000  0.01960000  1.0 -0.581911549
C  C240  1  0.47560000  0.91720000  0.51960000  1.0 -0.581911549
C  C241  1  0.08850000  0.47810000  0.53340000  1.0 0.4543271336
C  C242  1  0.41150000  0.02190000  0.03340000  1.0 0.4543271336
C  C243  1  0.91150000  0.47810000  0.96660000  1.0 0.4543271336
C  C244  1  0.58850000  0.02190000  0.46660000  1.0 0.4543271336
C  C245  1  0.91150000  0.52190000  0.46660000  1.0 0.4543271336
C  C246  1  0.58850000  0.97810000  0.96660000  1.0 0.4543271336
C  C247  1  0.08850000  0.52190000  0.03340000  1.0 0.4543271336
C  C248  1  0.41150000  0.97810000  0.53340000  1.0 0.4543271336
C  C249  1  0.88180000  0.52340000  0.53960000  1.0 -0.3429623143
C  C250  1  0.61820000  0.97660000  0.03960000  1.0 -0.3429623143
C  C251  1  0.11820000  0.52340000  0.96040000  1.0 -0.3429623143
C  C252  1  0.38180000  0.97660000  0.46040000  1.0 -0.3429623143
C  C253  1  0.11820000  0.47660000  0.46040000  1.0 -0.3429623143
C  C254  1  0.38180000  0.02340000  0.96040000  1.0 -0.3429623143
C  C255  1  0.88180000  0.47660000  0.03960000  1.0 -0.3429623143
C  C256  1  0.61820000  0.02340000  0.53960000  1.0 -0.3429623143
C  C257  1  0.06500000  0.54600000  0.56180000  1.0 -0.1865549226
C  C258  1  0.43500000  0.95400000  0.06180000  1.0 -0.1865549226
C  C259  1  0.93500000  0.54600000  0.93820000  1.0 -0.1865549226
C  C260  1  0.56500000  0.95400000  0.43820000  1.0 -0.1865549226
C  C261  1  0.93500000  0.45400000  0.43820000  1.0 -0.1865549226
C  C262  1  0.56500000  0.04600000  0.93820000  1.0 -0.1865549226
C  C263  1  0.06500000  0.45400000  0.06180000  1.0 -0.1865549226
C  C264  1  0.43500000  0.04600000  0.56180000  1.0 -0.1865549226
C  C265  1  0.94080000  0.39370000  0.61221000  1.0 -0.0839730619
C  C266  1  0.55920000  0.10630000  0.11221000  1.0 -0.0839730619
C  C267  1  0.05920000  0.39370000  0.88779000  1.0 -0.0839730619
C  C268  1  0.44080000  0.10630000  0.38779000  1.0 -0.0839730619
C  C269  1  0.05920000  0.60630000  0.38779000  1.0 -0.0839730619
C  C270  1  0.44080000  0.89370000  0.88779000  1.0 -0.0839730619
C  C271  1  0.94080000  0.60630000  0.11221000  1.0 -0.0839730619
C  C272  1  0.55920000  0.89370000  0.61221000  1.0 -0.0839730619
C  C273  1  0.20010000  0.27650000  0.54330000  1.0 -0.3679261085
C  C274  1  0.29990000  0.22350000  0.04330000  1.0 -0.3679261085
C  C275  1  0.79990000  0.27650000  0.95670000  1.0 -0.3679261085
C  C276  1  0.70010000  0.22350000  0.45670000  1.0 -0.3679261085
C  C277  1  0.79990000  0.72350000  0.45670000  1.0 -0.3679261085
C  C278  1  0.70010000  0.77650000  0.95670000  1.0 -0.3679261085
C  C279  1  0.20010000  0.72350000  0.04330000  1.0 -0.3679261085
C  C280  1  0.29990000  0.77650000  0.54330000  1.0 -0.3679261085
C  C281  1  0.22860000  0.24180000  0.57640000  1.0 -0.3226864979
C  C282  1  0.27140000  0.25820000  0.07640000  1.0 -0.3226864979
C  C283  1  0.77140000  0.24180000  0.92360000  1.0 -0.3226864979
C  C284  1  0.72860000  0.25820000  0.42360000  1.0 -0.3226864979
C  C285  1  0.77140000  0.75820000  0.42360000  1.0 -0.3226864979
C  C286  1  0.72860000  0.74180000  0.92360000  1.0 -0.3226864979
C  C287  1  0.22860000  0.75820000  0.07640000  1.0 -0.3226864979
C  C288  1  0.27140000  0.74180000  0.57640000  1.0 -0.3226864979
C  C289  1  0.35950000  0.33100000  0.55750000  1.0 0.4862897333
C  C290  1  0.14050000  0.16900000  0.05750000  1.0 0.4862897333
C  C291  1  0.64050000  0.33100000  0.94250000  1.0 0.4862897333
C  C292  1  0.85950000  0.16900000  0.44250000  1.0 0.4862897333
C  C293  1  0.64050000  0.66900000  0.44250000  1.0 0.4862897333
C  C294  1  0.85950000  0.83100000  0.94250000  1.0 0.4862897333
C  C295  1  0.35950000  0.66900000  0.05750000  1.0 0.4862897333
C  C296  1  0.14050000  0.83100000  0.55750000  1.0 0.4862897333
C  C297  1  0.41310000  0.35570000  0.57930000  1.0 -0.6117845502
C  C298  1  0.08690000  0.14430000  0.07930000  1.0 -0.6117845502
C  C299  1  0.58690000  0.35570000  0.92070000  1.0 -0.6117845502
C  C300  1  0.91310000  0.14430000  0.42070000  1.0 -0.6117845502
C  C301  1  0.58690000  0.64430000  0.42070000  1.0 -0.6117845502
C  C302  1  0.91310000  0.85570000  0.92070000  1.0 -0.6117845502
C  C303  1  0.41310000  0.64430000  0.07930000  1.0 -0.6117845502
C  C304  1  0.08690000  0.85570000  0.57930000  1.0 -0.6117845502
C  C305  1  0.19140000  0.53350000  0.67000000  1.0 -0.397027972
C  C306  1  0.30860000  0.96650000  0.17000000  1.0 -0.397027972
C  C307  1  0.80860000  0.53350000  0.83000000  1.0 -0.397027972
C  C308  1  0.69140000  0.96650000  0.33000000  1.0 -0.3914291314
C  C309  1  0.80860000  0.46650000  0.33000000  1.0 -0.3914291314
C  C310  1  0.69140000  0.03350000  0.83000000  1.0 -0.3914291314
C  C311  1  0.19140000  0.46650000  0.17000000  1.0 -0.3914291314
C  C312  1  0.30860000  0.03350000  0.67000000  1.0 -0.397027972
C  C313  1  0.22830000  0.38110000  0.66620000  1.0 -0.3226864979
C  C314  1  0.27170000  0.11890000  0.16620000  1.0 -0.3226864979
C  C315  1  0.77170000  0.38110000  0.83380000  1.0 -0.3226864979
C  C316  1  0.72830000  0.11890000  0.33380000  1.0 -0.3226864979
C  C317  1  0.77170000  0.61890000  0.33380000  1.0 -0.3226864979
C  C318  1  0.72830000  0.88110000  0.83380000  1.0 -0.3226864979
C  C319  1  0.22830000  0.61890000  0.16620000  1.0 -0.3226864979
C  C320  1  0.27170000  0.88110000  0.66620000  1.0 -0.3226864979
C  C321  1  0.30010000  0.46360000  0.69330000  1.0 0.4991065349
C  C322  1  0.19990000  0.03640000  0.19330000  1.0 0.4991065349
C  C323  1  0.69990000  0.46360000  0.80670000  1.0 0.4991065349
C  C324  1  0.80010000  0.03640000  0.30670000  1.0 0.4991065349
C  C325  1  0.69990000  0.53640000  0.30670000  1.0 0.4991065349
C  C326  1  0.80010000  0.96360000  0.80670000  1.0 0.4991065349
C  C327  1  0.30010000  0.53640000  0.19330000  1.0 0.4991065349
C  C328  1  0.19990000  0.96360000  0.69330000  1.0 0.4991065349
C  C329  1  0.34950000  0.38220000  0.70240000  1.0 -0.581911549
C  C330  1  0.15050000  0.11780000  0.20240000  1.0 -0.581911549
C  C331  1  0.65050000  0.38220000  0.79760000  1.0 -0.581911549
C  C332  1  0.84950000  0.11780000  0.29760000  1.0 -0.581911549
C  C333  1  0.65050000  0.61780000  0.29760000  1.0 -0.581911549
C  C334  1  0.84950000  0.88220000  0.79760000  1.0 -0.581911549
C  C335  1  0.34950000  0.61780000  0.20240000  1.0 -0.581911549
C  C336  1  0.15050000  0.88220000  0.70240000  1.0 -0.581911549
C  C337  1  0.04320000  0.49010000  0.72350000  1.0 -0.3318493877
C  C338  1  0.45680000  0.00990000  0.22350000  1.0 -0.3318493877
C  C339  1  0.95680000  0.49010000  0.77650000  1.0 -0.3318493877
C  C340  1  0.54320000  0.00990000  0.27650000  1.0 -0.3318493877
C  C341  1  0.95680000  0.50990000  0.27650000  1.0 -0.3318493877
C  C342  1  0.54320000  0.99010000  0.77650000  1.0 -0.3318493877
C  C343  1  0.04320000  0.50990000  0.22350000  1.0 -0.3318493877
C  C344  1  0.45680000  0.99010000  0.72350000  1.0 -0.3318493877
C  C345  1  0.07870000  0.62480000  0.72571000  1.0 0.5106904256
C  C346  1  0.42130000  0.87520000  0.22571000  1.0 0.5106904256
C  C347  1  0.92130000  0.62480000  0.77429000  1.0 0.5106904256
C  C348  1  0.57870000  0.87520000  0.27429000  1.0 0.5106904256
C  C349  1  0.92130000  0.37520000  0.27429000  1.0 0.5106904256
C  C350  1  0.57870000  0.12480000  0.77429000  1.0 0.5106904256
C  C351  1  0.07870000  0.37520000  0.22571000  1.0 0.5106904256
C  C352  1  0.42130000  0.12480000  0.72571000  1.0 0.5106904256
C  C353  1  0.03260000  0.71270000  0.72280000  1.0 -0.5594964352
C  C354  1  0.46740000  0.78730000  0.22280000  1.0 -0.5594964352
C  C355  1  0.96740000  0.71270000  0.77720000  1.0 -0.5594964352
C  C356  1  0.53260000  0.78730000  0.27720000  1.0 -0.5594964352
C  C357  1  0.96740000  0.28730000  0.27720000  1.0 -0.5594964352
C  C358  1  0.53260000  0.21270000  0.77720000  1.0 -0.5594964352
C  C359  1  0.03260000  0.28730000  0.22280000  1.0 -0.5594964352
C  C360  1  0.46740000  0.21270000  0.72280000  1.0 -0.5594964352
C  C361  1  0.87850000  0.58900000  0.71343000  1.0 -0.3429623143
C  C362  1  0.62150000  0.91100000  0.21343000  1.0 -0.3429623143
C  C363  1  0.12150000  0.58900000  0.78657000  1.0 -0.3429623143
C  C364  1  0.37850000  0.91100000  0.28657000  1.0 -0.3429623143
C  C365  1  0.12150000  0.41100000  0.28657000  1.0 -0.3429623143
C  C366  1  0.37850000  0.08900000  0.78657000  1.0 -0.3429623143
C  C367  1  0.87850000  0.41100000  0.21343000  1.0 -0.3429623143
C  C368  1  0.62150000  0.08900000  0.71343000  1.0 -0.3429623143
C  C369  1  0.07700000  0.59900000  0.54730000  1.0 -0.200295749
C  C370  1  0.42300000  0.90100000  0.04730000  1.0 -0.200295749
C  C371  1  0.92300000  0.59900000  0.95270000  1.0 -0.200295749
C  C372  1  0.57700000  0.90100000  0.45270000  1.0 -0.200295749
C  C373  1  0.92300000  0.40100000  0.45270000  1.0 -0.200295749
C  C374  1  0.57700000  0.09900000  0.95270000  1.0 -0.200295749
C  C375  1  0.07700000  0.40100000  0.04730000  1.0 -0.200295749
C  C376  1  0.42300000  0.09900000  0.54730000  1.0 -0.200295749
N  N1  1  0.77280000  0.28860000  0.57292000  1.0 -0.2172994392
N  N2  1  0.72720000  0.21140000  0.07292000  1.0 -0.2172994392
N  N3  1  0.22720000  0.28860000  0.92708000  1.0 -0.2172994392
N  N4  1  0.27280000  0.21140000  0.42708000  1.0 -0.2172994392
N  N5  1  0.22720000  0.71140000  0.42708000  1.0 -0.2172994392
N  N6  1  0.27280000  0.78860000  0.92708000  1.0 -0.2172994392
N  N7  1  0.77280000  0.71140000  0.07292000  1.0 -0.2172994392
N  N8  1  0.72720000  0.78860000  0.57292000  1.0 -0.2172994392
N  N9  1  0.77000000  0.32480000  0.67661000  1.0 -0.2172994392
N  N10  1  0.73000000  0.17520000  0.17661000  1.0 -0.2172994392
N  N11  1  0.23000000  0.32480000  0.82339000  1.0 -0.2172994392
N  N12  1  0.27000000  0.17520000  0.32339000  1.0 -0.2172994392
N  N13  1  0.23000000  0.67520000  0.32339000  1.0 -0.2149020907
N  N14  1  0.27000000  0.82480000  0.82339000  1.0 -0.2172994392
N  N15  1  0.77000000  0.67520000  0.17661000  1.0 -0.2172994392
N  N16  1  0.73000000  0.82480000  0.67661000  1.0 -0.2172994392
N  N17  1  0.49530000  0.55620000  0.56449000  1.0 0.7021667096
N  N18  1  0.00470000  0.94380000  0.06449000  1.0 0.7021667096
N  N19  1  0.50470000  0.55620000  0.93551000  1.0 0.7021667096
N  N20  1  0.99530000  0.94380000  0.43551000  1.0 0.7021667096
N  N21  1  0.50470000  0.44380000  0.43551000  1.0 0.7021667096
N  N22  1  0.99530000  0.05620000  0.93551000  1.0 0.7021667096
N  N23  1  0.49530000  0.44380000  0.06449000  1.0 0.7021667096
N  N24  1  0.00470000  0.05620000  0.56449000  1.0 0.7021667096
N  N25  1  0.42380000  0.68620000  0.68676000  1.0 0.7056484196
N  N26  1  0.07620000  0.81380000  0.18676000  1.0 0.7021667096
N  N27  1  0.57620000  0.68620000  0.81324000  1.0 0.7056484196
N  N28  1  0.92380000  0.81380000  0.31324000  1.0 0.7056484196
N  N29  1  0.57620000  0.31380000  0.31324000  1.0 0.7056484196
N  N30  1  0.92380000  0.18620000  0.81324000  1.0 0.7056484196
N  N31  1  0.42380000  0.31380000  0.18676000  1.0 0.7021667096
N  N32  1  0.07620000  0.18620000  0.68676000  1.0 0.7056484196
N  N33  1  0.27710000  0.29540000  0.56207000  1.0 0.0265007167
N  N34  1  0.22290000  0.20460000  0.06207000  1.0 0.0265007167
N  N35  1  0.72290000  0.29540000  0.93793000  1.0 0.0265007167
N  N36  1  0.77710000  0.20460000  0.43793000  1.0 0.0265007167
N  N37  1  0.72290000  0.70460000  0.43793000  1.0 0.0265007167
N  N38  1  0.77710000  0.79540000  0.93793000  1.0 0.0265007167
N  N39  1  0.27710000  0.70460000  0.06207000  1.0 0.0265007167
N  N40  1  0.22290000  0.79540000  0.56207000  1.0 0.0265007167
N  N41  1  0.01450000  0.51970000  0.54110000  1.0 0.0626344803
N  N42  1  0.48550000  0.98030000  0.04110000  1.0 0.0626344803
N  N43  1  0.98550000  0.51970000  0.95890000  1.0 0.0626344803
N  N44  1  0.51450000  0.98030000  0.45890000  1.0 0.0626344803
N  N45  1  0.98550000  0.48030000  0.45890000  1.0 0.0626344803
N  N46  1  0.51450000  0.01970000  0.95890000  1.0 0.0626344803
N  N47  1  0.01450000  0.48030000  0.04110000  1.0 0.0626344803
N  N48  1  0.48550000  0.01970000  0.54110000  1.0 0.0626344803
N  N49  1  0.25050000  0.44900000  0.67827000  1.0 -0.0022914007
N  N50  1  0.24950000  0.05100000  0.17827000  1.0 -0.0022914007
N  N51  1  0.74950000  0.44900000  0.82173000  1.0 -0.0022914007
N  N52  1  0.75050000  0.05100000  0.32173000  1.0 -0.0022914007
N  N53  1  0.74950000  0.55100000  0.32173000  1.0 -0.0022914007
N  N54  1  0.75050000  0.94900000  0.82173000  1.0 -0.0022914007
N  N55  1  0.25050000  0.55100000  0.17827000  1.0 -0.0022914007
N  N56  1  0.24950000  0.94900000  0.67827000  1.0 -0.0022914007
N  N57  1  0.00320000  0.57270000  0.72056000  1.0 -0.0074555118
N  N58  1  0.49680000  0.92730000  0.22056000  1.0 -0.0074555118
N  N59  1  0.99680000  0.57270000  0.77944000  1.0 -0.0074555118
N  N60  1  0.50320000  0.92730000  0.27944000  1.0 -0.0074555118
N  N61  1  0.99680000  0.42730000  0.27944000  1.0 -0.0074555118
N  N62  1  0.50320000  0.07270000  0.77944000  1.0 -0.0074555118
N  N63  1  0.00320000  0.42730000  0.22056000  1.0 -0.0074555118
N  N64  1  0.49680000  0.07270000  0.72056000  1.0 -0.0074555118
O  O1  1  0.96440000  0.10210000  0.52350000  1.0 -0.6671999422
O  O2  1  0.53560000  0.39790000  0.02350000  1.0 -0.6671999422
O  O3  1  0.03560000  0.10210000  0.97650000  1.0 -0.6671999422
O  O4  1  0.46440000  0.39790000  0.47650000  1.0 -0.6671999422
O  O5  1  0.03560000  0.89790000  0.47650000  1.0 -0.6671999422
O  O6  1  0.46440000  0.60210000  0.97650000  1.0 -0.6671999422
O  O7  1  0.96440000  0.89790000  0.02350000  1.0 -0.6671999422
O  O8  1  0.53560000  0.60210000  0.52350000  1.0 -0.6671999422
O  O9  1  0.84010000  0.10810000  0.49731000  1.0 -0.6645330515
O  O10  1  0.65990000  0.39190000  0.99731000  1.0 -0.6645330515
O  O11  1  0.15990000  0.10810000  0.00269000  1.0 -0.6645330515
O  O12  1  0.34010000  0.39190000  0.50269000  1.0 -0.6645330515
O  O13  1  0.15990000  0.89190000  0.50269000  1.0 -0.6645330515
O  O14  1  0.34010000  0.60810000  0.00269000  1.0 -0.6645330515
O  O15  1  0.84010000  0.89190000  0.99731000  1.0 -0.6645330515
O  O16  1  0.65990000  0.60810000  0.49731000  1.0 -0.6645330515
O  O17  1  0.71270000  0.40200000  0.48917000  1.0 -0.6117845502
O  O18  1  0.78730000  0.09800000  0.98917000  1.0 -0.6151328412
O  O19  1  0.28730000  0.40200000  0.01083000  1.0 -0.6117845502
O  O20  1  0.21270000  0.09800000  0.51083000  1.0 -0.6117845502
O  O21  1  0.28730000  0.59800000  0.51083000  1.0 -0.6117845502
O  O22  1  0.21270000  0.90200000  0.01083000  1.0 -0.6117845502
O  O23  1  0.71270000  0.59800000  0.98917000  1.0 -0.6117845502
O  O24  1  0.78730000  0.90200000  0.48917000  1.0 -0.6117845502
O  O25  1  0.59060000  0.44410000  0.51262000  1.0 -0.7335809198
O  O26  1  0.90940000  0.05590000  0.01262000  1.0 -0.7335809198
O  O27  1  0.40940000  0.44410000  0.98738000  1.0 -0.7335809198
O  O28  1  0.09060000  0.05590000  0.48738000  1.0 -0.7335809198
O  O29  1  0.40940000  0.55590000  0.48738000  1.0 -0.7335809198
O  O30  1  0.09060000  0.94410000  0.98738000  1.0 -0.7335809198
O  O31  1  0.59060000  0.55590000  0.01262000  1.0 -0.7335809198
O  O32  1  0.90940000  0.94410000  0.51262000  1.0 -0.7335809198
O  O33  1  0.56480000  0.50810000  0.55595000  1.0 -0.4770822459
O  O34  1  0.93520000  0.99190000  0.05595000  1.0 -0.4770822459
O  O35  1  0.43520000  0.50810000  0.94405000  1.0 -0.4770822459
O  O36  1  0.06480000  0.99190000  0.44405000  1.0 -0.4770822459
O  O37  1  0.43520000  0.49190000  0.44405000  1.0 -0.4770822459
O  O38  1  0.06480000  0.00810000  0.94405000  1.0 -0.4770822459
O  O39  1  0.56480000  0.49190000  0.05595000  1.0 -0.4770822459
O  O40  1  0.93520000  0.00810000  0.55595000  1.0 -0.4770822459
O  O41  1  0.52840000  0.59870000  0.57820000  1.0 -0.397027972
O  O42  1  0.97160000  0.90130000  0.07820000  1.0 -0.397027972
O  O43  1  0.47160000  0.59870000  0.92180000  1.0 -0.397027972
O  O44  1  0.02840000  0.90130000  0.42180000  1.0 -0.397027972
O  O45  1  0.47160000  0.40130000  0.42180000  1.0 -0.397027972
O  O46  1  0.02840000  0.09870000  0.92180000  1.0 -0.397027972
O  O47  1  0.52840000  0.40130000  0.07820000  1.0 -0.397027972
O  O48  1  0.97160000  0.09870000  0.57820000  1.0 -0.397027972
O  O49  1  0.38710000  0.56050000  0.55808000  1.0 -0.5285816517
O  O50  1  0.11290000  0.93950000  0.05808000  1.0 -0.5285816517
O  O51  1  0.61290000  0.56050000  0.94192000  1.0 -0.5285816517
O  O52  1  0.88710000  0.93950000  0.44192000  1.0 -0.5285816517
O  O53  1  0.61290000  0.43950000  0.44192000  1.0 -0.5285816517
O  O54  1  0.88710000  0.06050000  0.94192000  1.0 -0.5285816517
O  O55  1  0.38710000  0.43950000  0.05808000  1.0 -0.5285816517
O  O56  1  0.11290000  0.06050000  0.55808000  1.0 -0.5285816517
O  O57  1  0.40620000  0.37400000  0.54514000  1.0 -0.6117845502
O  O58  1  0.09380000  0.12600000  0.04514000  1.0 -0.6117845502
O  O59  1  0.59380000  0.37400000  0.95486000  1.0 -0.6117845502
O  O60  1  0.90620000  0.12600000  0.45486000  1.0 -0.6117845502
O  O61  1  0.59380000  0.62600000  0.45486000  1.0 -0.6117845502
O  O62  1  0.90620000  0.87400000  0.95486000  1.0 -0.6117845502
O  O63  1  0.40620000  0.62600000  0.04514000  1.0 -0.6117845502
O  O64  1  0.09380000  0.87400000  0.54514000  1.0 -0.6117845502
O  O65  1  0.19980000  0.47530000  0.53547000  1.0 -0.581911549
O  O66  1  0.30020000  0.02470000  0.03547000  1.0 -0.581911549
O  O67  1  0.80020000  0.47530000  0.96453000  1.0 -0.581911549
O  O68  1  0.69980000  0.02470000  0.46453000  1.0 -0.581911549
O  O69  1  0.80020000  0.52470000  0.46453000  1.0 -0.581911549
O  O70  1  0.69980000  0.97530000  0.96453000  1.0 -0.581911549
O  O71  1  0.19980000  0.52470000  0.03547000  1.0 -0.581911549
O  O72  1  0.30020000  0.97530000  0.53547000  1.0 -0.581911549
O  O73  1  0.93390000  0.36980000  0.57073000  1.0 -0.4097478826
O  O74  1  0.56610000  0.13020000  0.07073000  1.0 -0.4097478826
O  O75  1  0.06610000  0.36980000  0.92927000  1.0 -0.4097478826
O  O76  1  0.43390000  0.13020000  0.42927000  1.0 -0.4097478826
O  O77  1  0.06610000  0.63020000  0.42927000  1.0 -0.4097478826
O  O78  1  0.43390000  0.86980000  0.92927000  1.0 -0.4097478826
O  O79  1  0.93390000  0.63020000  0.07073000  1.0 -0.4097478826
O  O80  1  0.56610000  0.86980000  0.57073000  1.0 -0.4097478826
O  O81  1  0.61800000  0.19840000  0.57483000  1.0 -0.4212195565
O  O82  1  0.88200000  0.30160000  0.07483000  1.0 -0.4212195565
O  O83  1  0.38200000  0.19840000  0.92517000  1.0 -0.4212195565
O  O84  1  0.11800000  0.30160000  0.42517000  1.0 -0.4212195565
O  O85  1  0.38200000  0.80160000  0.42517000  1.0 -0.4212195565
O  O86  1  0.11800000  0.69840000  0.92517000  1.0 -0.4212195565
O  O87  1  0.61800000  0.80160000  0.07483000  1.0 -0.4212195565
O  O88  1  0.88200000  0.69840000  0.57483000  1.0 -0.4212195565
O  O89  1  0.91850000  0.41750000  0.67461000  1.0 -0.4212195565
O  O90  1  0.58150000  0.08250000  0.17461000  1.0 -0.4212195565
O  O91  1  0.08150000  0.41750000  0.82539000  1.0 -0.4212195565
O  O92  1  0.41850000  0.08250000  0.32539000  1.0 -0.4212195565
O  O93  1  0.08150000  0.58250000  0.32539000  1.0 -0.4212195565
O  O94  1  0.41850000  0.91750000  0.82539000  1.0 -0.4212195565
O  O95  1  0.91850000  0.58250000  0.17461000  1.0 -0.4212195565
O  O96  1  0.58150000  0.91750000  0.67461000  1.0 -0.4212195565
O  O97  1  0.61480000  0.23660000  0.67833000  1.0 -0.4212195565
O  O98  1  0.88520000  0.26340000  0.17833000  1.0 -0.4212195565
O  O99  1  0.38520000  0.23660000  0.82167000  1.0 -0.4212195565
O  O100  1  0.11480000  0.26340000  0.32167000  1.0 -0.4212195565
O  O101  1  0.38520000  0.76340000  0.32167000  1.0 -0.4212195565
O  O102  1  0.11480000  0.73660000  0.82167000  1.0 -0.4212195565
O  O103  1  0.61480000  0.76340000  0.17833000  1.0 -0.4212195565
O  O104  1  0.88520000  0.73660000  0.67833000  1.0 -0.4212195565
O  O105  1  0.89950000  0.16540000  0.73778000  1.0 -0.740862253
O  O106  1  0.60050000  0.33460000  0.23778000  1.0 -0.740862253
O  O107  1  0.10050000  0.16540000  0.76222000  1.0 -0.740862253
O  O108  1  0.39950000  0.33460000  0.26222000  1.0 -0.740862253
O  O109  1  0.10050000  0.83460000  0.26222000  1.0 -0.740862253
O  O110  1  0.39950000  0.66540000  0.76222000  1.0 -0.740862253
O  O111  1  0.89950000  0.83460000  0.23778000  1.0 -0.740862253
O  O112  1  0.60050000  0.66540000  0.73778000  1.0 -0.740862253
O  O113  1  0.86310000  0.24620000  0.76274000  1.0 -0.581911549
O  O114  1  0.63690000  0.25380000  0.26274000  1.0 -0.581911549
O  O115  1  0.13690000  0.24620000  0.73726000  1.0 -0.581911549
O  O116  1  0.36310000  0.25380000  0.23726000  1.0 -0.581911549
O  O117  1  0.13690000  0.75380000  0.23726000  1.0 -0.581911549
O  O118  1  0.36310000  0.74620000  0.73726000  1.0 -0.581911549
O  O119  1  0.86310000  0.75380000  0.26274000  1.0 -0.581911549
O  O120  1  0.63690000  0.74620000  0.76274000  1.0 -0.581911549
O  O121  1  0.64110000  0.50090000  0.75157000  1.0 -0.6481796008
O  O122  1  0.85890000  0.99910000  0.25157000  1.0 -0.6481796008
O  O123  1  0.35890000  0.50090000  0.74843000  1.0 -0.6481796008
O  O124  1  0.14110000  0.99910000  0.24843000  1.0 -0.6481796008
O  O125  1  0.35890000  0.49910000  0.24843000  1.0 -0.6481796008
O  O126  1  0.14110000  0.00090000  0.74843000  1.0 -0.6481796008
O  O127  1  0.64110000  0.49910000  0.25157000  1.0 -0.6481796008
O  O128  1  0.85890000  0.00090000  0.75157000  1.0 -0.6481796008
O  O129  1  0.55710000  0.51720000  0.72164000  1.0 -0.6402168003
O  O130  1  0.94290000  0.98280000  0.22164000  1.0 -0.6402168003
O  O131  1  0.44290000  0.51720000  0.77836000  1.0 -0.6402168003
O  O132  1  0.05710000  0.98280000  0.27836000  1.0 -0.6402168003
O  O133  1  0.44290000  0.48280000  0.27836000  1.0 -0.6402168003
O  O134  1  0.05710000  0.01720000  0.77836000  1.0 -0.6402168003
O  O135  1  0.55710000  0.48280000  0.22164000  1.0 -0.6402168003
O  O136  1  0.94290000  0.01720000  0.72164000  1.0 -0.6402168003
O  O137  1  0.50600000  0.64310000  0.69474000  1.0 -0.5106408325
O  O138  1  0.99400000  0.85690000  0.19474000  1.0 -0.5106408325
O  O139  1  0.49400000  0.64310000  0.80526000  1.0 -0.5106408325
O  O140  1  0.00600000  0.85690000  0.30526000  1.0 -0.5106408325
O  O141  1  0.49400000  0.35690000  0.30526000  1.0 -0.5106408325
O  O142  1  0.00600000  0.14310000  0.80526000  1.0 -0.5106408325
O  O143  1  0.50600000  0.35690000  0.19474000  1.0 -0.5106408325
O  O144  1  0.99400000  0.14310000  0.69474000  1.0 -0.5106408325
O  O145  1  0.32900000  0.69800000  0.69659000  1.0 -0.4770822459
O  O146  1  0.17100000  0.80200000  0.19659000  1.0 -0.4770822459
O  O147  1  0.67100000  0.69800000  0.80341000  1.0 -0.4770822459
O  O148  1  0.82900000  0.80200000  0.30341000  1.0 -0.4770822459
O  O149  1  0.67100000  0.30200000  0.30341000  1.0 -0.4770822459
O  O150  1  0.82900000  0.19800000  0.80341000  1.0 -0.4770822459
O  O151  1  0.32900000  0.30200000  0.19659000  1.0 -0.4770822459
O  O152  1  0.17100000  0.19800000  0.69659000  1.0 -0.4770822459
O  O153  1  0.44250000  0.71530000  0.67031000  1.0 -0.3914291314
O  O154  1  0.05750000  0.78470000  0.17031000  1.0 -0.3914291314
O  O155  1  0.55750000  0.71530000  0.82969000  1.0 -0.3914291314
O  O156  1  0.94250000  0.78470000  0.32969000  1.0 -0.3914291314
O  O157  1  0.55750000  0.28470000  0.32969000  1.0 -0.3914291314
O  O158  1  0.94250000  0.21530000  0.82969000  1.0 -0.3914291314
O  O159  1  0.44250000  0.28470000  0.17031000  1.0 -0.3914291314
O  O160  1  0.05750000  0.21530000  0.67031000  1.0 -0.3914291314
O  O161  1  0.31410000  0.52440000  0.70245000  1.0 -0.581911549
O  O162  1  0.18590000  0.97560000  0.20245000  1.0 -0.581911549
O  O163  1  0.68590000  0.52440000  0.79755000  1.0 -0.581911549
O  O164  1  0.81410000  0.97560000  0.29755000  1.0 -0.581911549
O  O165  1  0.68590000  0.47560000  0.29755000  1.0 -0.581911549
O  O166  1  0.81410000  0.02440000  0.79755000  1.0 -0.581911549
O  O167  1  0.31410000  0.47560000  0.20245000  1.0 -0.5855090347
O  O168  1  0.18590000  0.02440000  0.70245000  1.0 -0.581911549
O  O169  1  0.18450000  0.61340000  0.73222000  1.0 -0.6481796008
O  O170  1  0.31550000  0.88660000  0.23222000  1.0 -0.6481796008
O  O171  1  0.81550000  0.61340000  0.76778000  1.0 -0.6481796008
O  O172  1  0.68450000  0.88660000  0.26778000  1.0 -0.6481796008
O  O173  1  0.81550000  0.38660000  0.26778000  1.0 -0.6481796008
O  O174  1  0.68450000  0.11340000  0.76778000  1.0 -0.6481796008
O  O175  1  0.18450000  0.38660000  0.23222000  1.0 -0.6481796008
O  O176  1  0.31550000  0.11340000  0.73222000  1.0 -0.6481796008
