# DDEC6 charges by PACMAN v1.1 (https://github.com/mtap-research/PACMAN-charge/)
data_UDOHII_FSR_pacman
_symmetry_space_group_name_H-M   'P 1'
_cell_length_a   20.77070000
_cell_length_b   20.77070000
_cell_length_c   30.74630000
_cell_angle_alpha   90.00000000
_cell_angle_beta   90.00000000
_cell_angle_gamma   120.00000000
_symmetry_Int_Tables_number   1
_chemical_formula_structural   Ti4Zn4H141C192N19O39
_chemical_formula_sum   'Ti8 Zn8 H282 C384 N38 O78'
_cell_volume   11487.50618569
_cell_formula_units_Z   2
loop_
 _symmetry_equiv_pos_site_id
 _symmetry_equiv_pos_as_xyz
  1  'x, y, z'
loop_
 _atom_site_type_symbol
 _atom_site_label
 _atom_site_symmetry_multiplicity
 _atom_site_fract_x
 _atom_site_fract_y
 _atom_site_fract_z
 _atom_site_occupancy
 _atom_site_charge
Ti  Ti1  1  0.94751000  0.43338000  0.55374000  1.0 1.9123661997
Ti  Ti2  1  0.56662000  0.51413000  0.55374000  1.0 1.9123661997
Ti  Ti3  1  0.48587000  0.05249000  0.55374000  1.0 1.9123661997
Ti  Ti4  1  0.05249000  0.56662000  0.05374000  1.0 1.9123661997
Ti  Ti5  1  0.43338000  0.48587000  0.05374000  1.0 1.9123661997
Ti  Ti6  1  0.51413000  0.94751000  0.05374000  1.0 1.9123661997
Ti  Ti7  1  0.66666667  0.33333333  0.79421000  1.0 1.9019903622
Ti  Ti8  1  0.33333333  0.66666667  0.29421000  1.0 1.9019903622
Zn  Zn1  1  0.33333333  0.66666667  0.44731000  1.0 0.7492407642
Zn  Zn2  1  0.66666667  0.33333333  0.94731000  1.0 0.7492407642
Zn  Zn3  1  0.57180000  0.73370000  0.54227000  1.0 0.7492407642
Zn  Zn4  1  0.26630000  0.83810000  0.54227000  1.0 0.7492407642
Zn  Zn5  1  0.16190000  0.42820000  0.54227000  1.0 0.7492407642
Zn  Zn6  1  0.42820000  0.26630000  0.04227000  1.0 0.7492407642
Zn  Zn7  1  0.73370000  0.16190000  0.04227000  1.0 0.7492407642
Zn  Zn8  1  0.83810000  0.57180000  0.04227000  1.0 0.7492407642
H  H1  1  0.37905000  0.58436000  0.42614000  1.0 0.3052921079
H  H2  1  0.41564000  0.79469000  0.42614000  1.0 0.3052921079
H  H3  1  0.20531000  0.62095000  0.42614000  1.0 0.3052921079
H  H4  1  0.62095000  0.41564000  0.92614000  1.0 0.3052921079
H  H5  1  0.58436000  0.20531000  0.92614000  1.0 0.3052921079
H  H6  1  0.79469000  0.37905000  0.92614000  1.0 0.3052921079
H  H7  1  0.30390000  0.53825000  0.44246000  1.0 0.2690461906
H  H8  1  0.46175000  0.76565000  0.44246000  1.0 0.2690461906
H  H9  1  0.23435000  0.69610000  0.44246000  1.0 0.2690461906
H  H10  1  0.69610000  0.46175000  0.94246000  1.0 0.2690461906
H  H11  1  0.53825000  0.23435000  0.94246000  1.0 0.2690461906
H  H12  1  0.76565000  0.30390000  0.94246000  1.0 0.2690461906
H  H13  1  0.31583000  0.56785000  0.39851000  1.0 0.3011484526
H  H14  1  0.43215000  0.74798000  0.39851000  1.0 0.3011484526
H  H15  1  0.25202000  0.68417000  0.39851000  1.0 0.3011484526
H  H16  1  0.68417000  0.43215000  0.89851000  1.0 0.3011484526
H  H17  1  0.56785000  0.25202000  0.89851000  1.0 0.3011484526
H  H18  1  0.74798000  0.31583000  0.89851000  1.0 0.3011484526
H  H19  1  0.37484000  0.66898000  0.53932000  1.0 0.2690461906
H  H20  1  0.33102000  0.70586000  0.53932000  1.0 0.2690461906
H  H21  1  0.29414000  0.62516000  0.53932000  1.0 0.2690461906
H  H22  1  0.62516000  0.33102000  0.03932000  1.0 0.2690461906
H  H23  1  0.66898000  0.29414000  0.03932000  1.0 0.2690461906
H  H24  1  0.70586000  0.37484000  0.03932000  1.0 0.2690461906
H  H25  1  0.52152000  0.67554000  0.41565000  1.0 0.3215244544
H  H26  1  0.32446000  0.84598000  0.41565000  1.0 0.3215244544
H  H27  1  0.15402000  0.47848000  0.41565000  1.0 0.3215244544
H  H28  1  0.47848000  0.32446000  0.91565000  1.0 0.3215244544
H  H29  1  0.67554000  0.15402000  0.91565000  1.0 0.3215244544
H  H30  1  0.84598000  0.52152000  0.91565000  1.0 0.3215244544
H  H31  1  0.51003000  0.60687000  0.42336000  1.0 0.3215244544
H  H32  1  0.39313000  0.90316000  0.42336000  1.0 0.3215244544
H  H33  1  0.09684000  0.48997000  0.42336000  1.0 0.3215244544
H  H34  1  0.48997000  0.39313000  0.92336000  1.0 0.3215244544
H  H35  1  0.60687000  0.09684000  0.92336000  1.0 0.3215244544
H  H36  1  0.90316000  0.51003000  0.92336000  1.0 0.3215244544
H  H37  1  0.81146000  0.40871000  0.70000000  1.0 0.1379697504
H  H38  1  0.59129000  0.40275000  0.70000000  1.0 0.1379697504
H  H39  1  0.59725000  0.18854000  0.70000000  1.0 0.1379697504
H  H40  1  0.18854000  0.59129000  0.20000000  1.0 0.1379697504
H  H41  1  0.40871000  0.59725000  0.20000000  1.0 0.1379697504
H  H42  1  0.40275000  0.81146000  0.20000000  1.0 0.1379697504
H  H43  1  0.82702000  0.36939000  0.66127000  1.0 0.1295495845
H  H44  1  0.63061000  0.45763000  0.66127000  1.0 0.1295495845
H  H45  1  0.54237000  0.17298000  0.66127000  1.0 0.1295495845
H  H46  1  0.17298000  0.63061000  0.16127000  1.0 0.1295495845
H  H47  1  0.36939000  0.54237000  0.16127000  1.0 0.1295495845
H  H48  1  0.45763000  0.82702000  0.16127000  1.0 0.1295495845
H  H49  1  0.48961000  0.60450000  0.52612000  1.0 0.3011484526
H  H50  1  0.39550000  0.88511000  0.52612000  1.0 0.3011484526
H  H51  1  0.11489000  0.51039000  0.52612000  1.0 0.3011484526
H  H52  1  0.51039000  0.39550000  0.02612000  1.0 0.3011484526
H  H53  1  0.60450000  0.11489000  0.02612000  1.0 0.3011484526
H  H54  1  0.88511000  0.48961000  0.02612000  1.0 0.3011484526
H  H55  1  0.44531000  0.64082000  0.52612000  1.0 0.2690461906
H  H56  1  0.35918000  0.80449000  0.52612000  1.0 0.2690461906
H  H57  1  0.19551000  0.55469000  0.52612000  1.0 0.2690461906
H  H58  1  0.55469000  0.35918000  0.02612000  1.0 0.2690461906
H  H59  1  0.64082000  0.19551000  0.02612000  1.0 0.2690461906
H  H60  1  0.80449000  0.44531000  0.02612000  1.0 0.2690461906
H  H61  1  0.49039000  0.64716000  0.48849000  1.0 0.2937440556
H  H62  1  0.35284000  0.84323000  0.48849000  1.0 0.2937440556
H  H63  1  0.15677000  0.50961000  0.48849000  1.0 0.2937440556
H  H64  1  0.50961000  0.35284000  0.98849000  1.0 0.2937440556
H  H65  1  0.64716000  0.15677000  0.98849000  1.0 0.2937440556
H  H66  1  0.84323000  0.49039000  0.98849000  1.0 0.2937440556
H  H67  1  0.73841000  0.48757000  0.53406000  1.0 0.1295495845
H  H68  1  0.51243000  0.25084000  0.53406000  1.0 0.1295495845
H  H69  1  0.74916000  0.26159000  0.53406000  1.0 0.1295495845
H  H70  1  0.26159000  0.51243000  0.03406000  1.0 0.1295495845
H  H71  1  0.48757000  0.74916000  0.03406000  1.0 0.1295495845
H  H72  1  0.25084000  0.73841000  0.03406000  1.0 0.1295495845
H  H73  1  0.81597000  0.51853000  0.55643000  1.0 0.1295495845
H  H74  1  0.48147000  0.29744000  0.55643000  1.0 0.1295495845
H  H75  1  0.70256000  0.18403000  0.55643000  1.0 0.1295495845
H  H76  1  0.18403000  0.48147000  0.05643000  1.0 0.1295495845
H  H77  1  0.51853000  0.70256000  0.05643000  1.0 0.1295495845
H  H78  1  0.29744000  0.81597000  0.05643000  1.0 0.1295495845
H  H79  1  0.90720000  0.48282000  0.39000000  1.0 0.1186756034
H  H80  1  0.51718000  0.42438000  0.39000000  1.0 0.1186756034
H  H81  1  0.57562000  0.09280000  0.39000000  1.0 0.1186756034
H  H82  1  0.09280000  0.51718000  0.89000000  1.0 0.1186756034
H  H83  1  0.48282000  0.57562000  0.89000000  1.0 0.1186756034
H  H84  1  0.42438000  0.90720000  0.89000000  1.0 0.1186756034
H  H85  1  0.64423000  0.83053000  0.45693000  1.0 0.1295495845
H  H86  1  0.16947000  0.81370000  0.45693000  1.0 0.1295495845
H  H87  1  0.18630000  0.35577000  0.45693000  1.0 0.1295495845
H  H88  1  0.35577000  0.16947000  0.95693000  1.0 0.1295495845
H  H89  1  0.83053000  0.18630000  0.95693000  1.0 0.1295495845
H  H90  1  0.81370000  0.64423000  0.95693000  1.0 0.1295495845
H  H91  1  0.53781000  0.93791000  0.48203000  1.0 0.148806215
H  H92  1  0.06209000  0.59990000  0.48203000  1.0 0.148806215
H  H93  1  0.40010000  0.46219000  0.48203000  1.0 0.148806215
H  H94  1  0.46219000  0.06209000  0.98203000  1.0 0.148806215
H  H95  1  0.93791000  0.40010000  0.98203000  1.0 0.148806215
H  H96  1  0.59990000  0.53781000  0.98203000  1.0 0.148806215
H  H97  1  0.73913000  0.98768000  0.42809000  1.0 0.1295495845
H  H98  1  0.01232000  0.75145000  0.42809000  1.0 0.1295495845
H  H99  1  0.24855000  0.26087000  0.42809000  1.0 0.1295495845
H  H100  1  0.26087000  0.01232000  0.92809000  1.0 0.1295495845
H  H101  1  0.98768000  0.24855000  0.92809000  1.0 0.1295495845
H  H102  1  0.75145000  0.73913000  0.92809000  1.0 0.1295495845
H  H103  1  0.77901000  0.05207000  0.36292000  1.0 0.1131939901
H  H104  1  0.94793000  0.72694000  0.36292000  1.0 0.1131939901
H  H105  1  0.27306000  0.22099000  0.36292000  1.0 0.1131939901
H  H106  1  0.22099000  0.94793000  0.86292000  1.0 0.1131939901
H  H107  1  0.05207000  0.27306000  0.86292000  1.0 0.1131939901
H  H108  1  0.72694000  0.77901000  0.86292000  1.0 0.1131939901
H  H109  1  0.56662000  0.96726000  0.32509000  1.0 0.1131939901
H  H110  1  0.03274000  0.59936000  0.32509000  1.0 0.1131939901
H  H111  1  0.40064000  0.43338000  0.32509000  1.0 0.1131939901
H  H112  1  0.43338000  0.03274000  0.82509000  1.0 0.1131939901
H  H113  1  0.96726000  0.40064000  0.82509000  1.0 0.1131939901
H  H114  1  0.59936000  0.56662000  0.82509000  1.0 0.1131939901
H  H115  1  0.52673000  0.90287000  0.39026000  1.0 0.1379697504
H  H116  1  0.09713000  0.62386000  0.39026000  1.0 0.1379697504
H  H117  1  0.37614000  0.47327000  0.39026000  1.0 0.1379697504
H  H118  1  0.47327000  0.09713000  0.89026000  1.0 0.1379697504
H  H119  1  0.90287000  0.37614000  0.89026000  1.0 0.1379697504
H  H120  1  0.62386000  0.52673000  0.89026000  1.0 0.1379697504
H  H121  1  0.87461000  0.44895000  0.76995000  1.0 0.1295495845
H  H122  1  0.55105000  0.42566000  0.76995000  1.0 0.1295495845
H  H123  1  0.57434000  0.12539000  0.76995000  1.0 0.1295495845
H  H124  1  0.12539000  0.55105000  0.26995000  1.0 0.1295495845
H  H125  1  0.44895000  0.57434000  0.26995000  1.0 0.1295495845
H  H126  1  0.42566000  0.87461000  0.26995000  1.0 0.1295495845
H  H127  1  0.68538000  0.09503000  0.13518000  1.0 0.1295495845
H  H128  1  0.90497000  0.59035000  0.13518000  1.0 0.1295495845
H  H129  1  0.40965000  0.31462000  0.13518000  1.0 0.1295495845
H  H130  1  0.31462000  0.90497000  0.63518000  1.0 0.1295495845
H  H131  1  0.09503000  0.40965000  0.63518000  1.0 0.1295495845
H  H132  1  0.59035000  0.68538000  0.63518000  1.0 0.1295495845
H  H133  1  0.12320000  0.60309000  0.68093000  1.0 0.1131939901
H  H134  1  0.39691000  0.52011000  0.68093000  1.0 0.1131939901
H  H135  1  0.47989000  0.87680000  0.68093000  1.0 0.1131939901
H  H136  1  0.87680000  0.39691000  0.18093000  1.0 0.1131939901
H  H137  1  0.60309000  0.47989000  0.18093000  1.0 0.1131939901
H  H138  1  0.52011000  0.12320000  0.18093000  1.0 0.1131939901
H  H139  1  0.51068000  0.84871000  0.53994000  1.0 0.1379697504
H  H140  1  0.15129000  0.66197000  0.53994000  1.0 0.1379697504
H  H141  1  0.33803000  0.48932000  0.53994000  1.0 0.1379697504
H  H142  1  0.48932000  0.15129000  0.03994000  1.0 0.1379697504
H  H143  1  0.84871000  0.33803000  0.03994000  1.0 0.1379697504
H  H144  1  0.66197000  0.51068000  0.03994000  1.0 0.1379697504
H  H145  1  0.81367000  0.18406000  0.80241000  1.0 0.1186756034
H  H146  1  0.81594000  0.62961000  0.80241000  1.0 0.1186756034
H  H147  1  0.37039000  0.18633000  0.80241000  1.0 0.1186756034
H  H148  1  0.18633000  0.81594000  0.30241000  1.0 0.1186756034
H  H149  1  0.18406000  0.37039000  0.30241000  1.0 0.1186756034
H  H150  1  0.62961000  0.81367000  0.30241000  1.0 0.1186756034
H  H151  1  0.71326000  0.53753000  0.46719000  1.0 0.1186756034
H  H152  1  0.46247000  0.17573000  0.46719000  1.0 0.1186756034
H  H153  1  0.82427000  0.28674000  0.46719000  1.0 0.1186756034
H  H154  1  0.28674000  0.46247000  0.96719000  1.0 0.1186756034
H  H155  1  0.53753000  0.82427000  0.96719000  1.0 0.1186756034
H  H156  1  0.17573000  0.71326000  0.96719000  1.0 0.1186756034
H  H157  1  0.91421000  0.32495000  0.65369000  1.0 0.1295495845
H  H158  1  0.67505000  0.58926000  0.65369000  1.0 0.1186756034
H  H159  1  0.41074000  0.08579000  0.65369000  1.0 0.1295495845
H  H160  1  0.08579000  0.67505000  0.15369000  1.0 0.1295495845
H  H161  1  0.32495000  0.41074000  0.15369000  1.0 0.1186756034
H  H162  1  0.58926000  0.91421000  0.15369000  1.0 0.1186756034
H  H163  1  0.96885000  0.25546000  0.64403000  1.0 0.1186756034
H  H164  1  0.74454000  0.71339000  0.64403000  1.0 0.1186756034
H  H165  1  0.28661000  0.03115000  0.64403000  1.0 0.1186756034
H  H166  1  0.03115000  0.74454000  0.14403000  1.0 0.1186756034
H  H167  1  0.25546000  0.28661000  0.14403000  1.0 0.1186756034
H  H168  1  0.71339000  0.96885000  0.14403000  1.0 0.1186756034
H  H169  1  0.80418000  0.78490000  0.53375000  1.0 0.1186756034
H  H170  1  0.21510000  0.01928000  0.53375000  1.0 0.1186756034
H  H171  1  0.98072000  0.19582000  0.53375000  1.0 0.1186756034
H  H172  1  0.19582000  0.21510000  0.03375000  1.0 0.1186756034
H  H173  1  0.78490000  0.98072000  0.03375000  1.0 0.1186756034
H  H174  1  0.01928000  0.80418000  0.03375000  1.0 0.1186756034
H  H175  1  0.93863000  0.51914000  0.82911000  1.0 0.1295495845
H  H176  1  0.48086000  0.41949000  0.82911000  1.0 0.1295495845
H  H177  1  0.58051000  0.06137000  0.82911000  1.0 0.1295495845
H  H178  1  0.06137000  0.48086000  0.32911000  1.0 0.1295495845
H  H179  1  0.51914000  0.58051000  0.32911000  1.0 0.1295495845
H  H180  1  0.41949000  0.93863000  0.32911000  1.0 0.1295495845
H  H181  1  0.93525000  0.62113000  0.53495000  1.0 0.1186756034
H  H182  1  0.37887000  0.31412000  0.53495000  1.0 0.1186756034
H  H183  1  0.68588000  0.06475000  0.53495000  1.0 0.1186756034
H  H184  1  0.06475000  0.37887000  0.03495000  1.0 0.1186756034
H  H185  1  0.62113000  0.68588000  0.03495000  1.0 0.1186756034
H  H186  1  0.31412000  0.93525000  0.03495000  1.0 0.1186756034
H  H187  1  0.04499000  0.73077000  0.53440000  1.0 0.101906576
H  H188  1  0.26923000  0.31422000  0.53440000  1.0 0.101906576
H  H189  1  0.68578000  0.95501000  0.53440000  1.0 0.101906576
H  H190  1  0.95501000  0.26923000  0.03440000  1.0 0.101906576
H  H191  1  0.73077000  0.68578000  0.03440000  1.0 0.101906576
H  H192  1  0.31422000  0.04499000  0.03440000  1.0 0.101906576
H  H193  1  0.67589000  0.55025000  0.39894000  1.0 0.1131939901
H  H194  1  0.44975000  0.12564000  0.39894000  1.0 0.1131939901
H  H195  1  0.87436000  0.32411000  0.39894000  1.0 0.1131939901
H  H196  1  0.32411000  0.44975000  0.89894000  1.0 0.1131939901
H  H197  1  0.55025000  0.87436000  0.89894000  1.0 0.1131939901
H  H198  1  0.12564000  0.67589000  0.89894000  1.0 0.1131939901
H  H199  1  0.82765000  0.51065000  0.34392000  1.0 0.1186756034
H  H200  1  0.48935000  0.31700000  0.34392000  1.0 0.1186756034
H  H201  1  0.68300000  0.17235000  0.34392000  1.0 0.1186756034
H  H202  1  0.17235000  0.48935000  0.84392000  1.0 0.1186756034
H  H203  1  0.51065000  0.68300000  0.84392000  1.0 0.1186756034
H  H204  1  0.31700000  0.82765000  0.84392000  1.0 0.1186756034
H  H205  1  0.06300000  0.60645000  0.82474000  1.0 0.1186756034
H  H206  1  0.39355000  0.45655000  0.82474000  1.0 0.1186756034
H  H207  1  0.54345000  0.93700000  0.82474000  1.0 0.1186756034
H  H208  1  0.93700000  0.39355000  0.32474000  1.0 0.1186756034
H  H209  1  0.60645000  0.54345000  0.32474000  1.0 0.1186756034
H  H210  1  0.45655000  0.06300000  0.32474000  1.0 0.1186756034
H  H211  1  0.87904000  0.25296000  0.18130000  1.0 0.1379697504
H  H212  1  0.74704000  0.62608000  0.18130000  1.0 0.1379697504
H  H213  1  0.37392000  0.12096000  0.18130000  1.0 0.1379697504
H  H214  1  0.12096000  0.74704000  0.68130000  1.0 0.1379697504
H  H215  1  0.25296000  0.37392000  0.68130000  1.0 0.1379697504
H  H216  1  0.62608000  0.87904000  0.68130000  1.0 0.1379697504
H  H217  1  0.12363000  0.62580000  0.76020000  1.0 0.1186756034
H  H218  1  0.37420000  0.49783000  0.76020000  1.0 0.1186756034
H  H219  1  0.50217000  0.87637000  0.76020000  1.0 0.1186756034
H  H220  1  0.87637000  0.37420000  0.26020000  1.0 0.1186756034
H  H221  1  0.62580000  0.50217000  0.26020000  1.0 0.1186756034
H  H222  1  0.49783000  0.12363000  0.26020000  1.0 0.1186756034
H  H223  1  0.85241000  0.16230000  0.23881000  1.0 0.1295495845
H  H224  1  0.83770000  0.69011000  0.23881000  1.0 0.1295495845
H  H225  1  0.30989000  0.14759000  0.23881000  1.0 0.1295495845
H  H226  1  0.14759000  0.83770000  0.73881000  1.0 0.1295495845
H  H227  1  0.16230000  0.30989000  0.73881000  1.0 0.1295495845
H  H228  1  0.69011000  0.85241000  0.73881000  1.0 0.1295495845
H  H229  1  0.94226000  0.85116000  0.53119000  1.0 0.1186756034
H  H230  1  0.14884000  0.09110000  0.53119000  1.0 0.1186756034
H  H231  1  0.90890000  0.05774000  0.53119000  1.0 0.1186756034
H  H232  1  0.05774000  0.14884000  0.03119000  1.0 0.1186756034
H  H233  1  0.85116000  0.90890000  0.03119000  1.0 0.1186756034
H  H234  1  0.09110000  0.94226000  0.03119000  1.0 0.1186756034
H  H235  1  0.73054000  0.53330000  0.33700000  1.0 0.1131939901
H  H236  1  0.46670000  0.19724000  0.33700000  1.0 0.1131939901
H  H237  1  0.80276000  0.26946000  0.33700000  1.0 0.1131939901
H  H238  1  0.26946000  0.46670000  0.83700000  1.0 0.1131939901
H  H239  1  0.53330000  0.80276000  0.83700000  1.0 0.1131939901
H  H240  1  0.19724000  0.73054000  0.83700000  1.0 0.1131939901
H  H241  1  0.96361000  0.17313000  0.69681000  1.0 0.1186756034
H  H242  1  0.82687000  0.79048000  0.69681000  1.0 0.1186756034
H  H243  1  0.20952000  0.03639000  0.69681000  1.0 0.1186756034
H  H244  1  0.03639000  0.82687000  0.19681000  1.0 0.1186756034
H  H245  1  0.17313000  0.20952000  0.19681000  1.0 0.1186756034
H  H246  1  0.79048000  0.96361000  0.19681000  1.0 0.1186756034
H  H247  1  0.89696000  0.15776000  0.75922000  1.0 0.1186756034
H  H248  1  0.84224000  0.73920000  0.75922000  1.0 0.1186756034
H  H249  1  0.26080000  0.10304000  0.75922000  1.0 0.1186756034
H  H250  1  0.10304000  0.84224000  0.25922000  1.0 0.1186756034
H  H251  1  0.15776000  0.26080000  0.25922000  1.0 0.1186756034
H  H252  1  0.73920000  0.89696000  0.25922000  1.0 0.1186756034
H  H253  1  0.81015000  0.11317000  0.30780000  1.0 0.1186756034
H  H254  1  0.88683000  0.69698000  0.30780000  1.0 0.1186756034
H  H255  1  0.30302000  0.18985000  0.30780000  1.0 0.1186756034
H  H256  1  0.18985000  0.88683000  0.80780000  1.0 0.1186756034
H  H257  1  0.11317000  0.30302000  0.80780000  1.0 0.1186756034
H  H258  1  0.69698000  0.81015000  0.80780000  1.0 0.1186756034
H  H259  1  0.87062000  0.27729000  0.10484000  1.0 0.1295495845
H  H260  1  0.72271000  0.59333000  0.10484000  1.0 0.1295495845
H  H261  1  0.40667000  0.12938000  0.10484000  1.0 0.1295495845
H  H262  1  0.12938000  0.72271000  0.60484000  1.0 0.1295495845
H  H263  1  0.27729000  0.40667000  0.60484000  1.0 0.1295495845
H  H264  1  0.59333000  0.87062000  0.60484000  1.0 0.1295495845
H  H265  1  0.64058000  0.07205000  0.20336000  1.0 0.1186756034
H  H266  1  0.92795000  0.56853000  0.20336000  1.0 0.1186756034
H  H267  1  0.43147000  0.35942000  0.20336000  1.0 0.1186756034
H  H268  1  0.35942000  0.92795000  0.70336000  1.0 0.1186756034
H  H269  1  0.07205000  0.43147000  0.70336000  1.0 0.1186756034
H  H270  1  0.56853000  0.64058000  0.70336000  1.0 0.1186756034
H  H271  1  0.04972000  0.84597000  0.52795000  1.0 0.1186756034
H  H272  1  0.15403000  0.20375000  0.52795000  1.0 0.1186756034
H  H273  1  0.79625000  0.95028000  0.52795000  1.0 0.1186756034
H  H274  1  0.95028000  0.15403000  0.02795000  1.0 0.1186756034
H  H275  1  0.84597000  0.79625000  0.02795000  1.0 0.1186756034
H  H276  1  0.20375000  0.04972000  0.02795000  1.0 0.1186756034
H  H277  1  0.60569000  0.01294000  0.26693000  1.0 0.1131939901
H  H278  1  0.98706000  0.59275000  0.26693000  1.0 0.1131939901
H  H279  1  0.40725000  0.39431000  0.26693000  1.0 0.1131939901
H  H280  1  0.39431000  0.98706000  0.76693000  1.0 0.1131939901
H  H281  1  0.01294000  0.40725000  0.76693000  1.0 0.1131939901
H  H282  1  0.59275000  0.60569000  0.76693000  1.0 0.1131939901
C  C1  1  0.96590000  0.45570000  0.45604000  1.0 0.5916055821
C  C2  1  0.54430000  0.51020000  0.45604000  1.0 0.5916055821
C  C3  1  0.48980000  0.03410000  0.45604000  1.0 0.5916055821
C  C4  1  0.03410000  0.54430000  0.95604000  1.0 0.5916055821
C  C5  1  0.45570000  0.48980000  0.95604000  1.0 0.5916055821
C  C6  1  0.51020000  0.96590000  0.95604000  1.0 0.5916055821
C  C7  1  0.83180000  0.32650000  0.72056000  1.0 -0.0288186319
C  C8  1  0.67350000  0.50530000  0.72056000  1.0 -0.0288186319
C  C9  1  0.49470000  0.16820000  0.72056000  1.0 -0.0288186319
C  C10  1  0.16820000  0.67350000  0.22056000  1.0 -0.0288186319
C  C11  1  0.32650000  0.49470000  0.22056000  1.0 -0.0288186319
C  C12  1  0.50530000  0.83180000  0.22056000  1.0 -0.0288186319
C  C13  1  0.84290000  0.38930000  0.69031000  1.0 -0.2406835698
C  C14  1  0.61070000  0.45360000  0.69031000  1.0 -0.2406835698
C  C15  1  0.54640000  0.15710000  0.69031000  1.0 -0.2406835698
C  C16  1  0.15710000  0.61070000  0.19031000  1.0 -0.2406835698
C  C17  1  0.38930000  0.54640000  0.19031000  1.0 -0.2406835698
C  C18  1  0.45360000  0.84290000  0.19031000  1.0 -0.2406835698
C  C19  1  0.78540000  0.31000000  0.75624000  1.0 0.2431147379
C  C20  1  0.69000000  0.47540000  0.75624000  1.0 0.2431147379
C  C21  1  0.52460000  0.21460000  0.75624000  1.0 0.2431147379
C  C22  1  0.21460000  0.69000000  0.25624000  1.0 0.2431147379
C  C23  1  0.31000000  0.52460000  0.25624000  1.0 0.2431147379
C  C24  1  0.47540000  0.78540000  0.25624000  1.0 0.2431147379
C  C25  1  0.07780000  0.55000000  0.60383000  1.0 0.5916055821
C  C26  1  0.45000000  0.52780000  0.60383000  1.0 0.5916055821
C  C27  1  0.47220000  0.92220000  0.60383000  1.0 0.5916055821
C  C28  1  0.92220000  0.45000000  0.10383000  1.0 0.5916055821
C  C29  1  0.55000000  0.47220000  0.10383000  1.0 0.5916055821
C  C30  1  0.52780000  0.07780000  0.10383000  1.0 0.5916055821
C  C31  1  0.73300000  0.60500000  0.54034000  1.0 0.2483045689
C  C32  1  0.39500000  0.12800000  0.54034000  1.0 0.2483045689
C  C33  1  0.87200000  0.26700000  0.54034000  1.0 0.2483045689
C  C34  1  0.26700000  0.39500000  0.04034000  1.0 0.2483045689
C  C35  1  0.60500000  0.87200000  0.04034000  1.0 0.2483045689
C  C36  1  0.12800000  0.73300000  0.04034000  1.0 0.2483045689
C  C37  1  0.66840000  0.68050000  0.54580000  1.0 0.6154518209
C  C38  1  0.31950000  0.98790000  0.54580000  1.0 0.6154518209
C  C39  1  0.01210000  0.33160000  0.54580000  1.0 0.6154518209
C  C40  1  0.33160000  0.31950000  0.04580000  1.0 0.6154518209
C  C41  1  0.68050000  0.01210000  0.04580000  1.0 0.6154518209
C  C42  1  0.98790000  0.66840000  0.04580000  1.0 0.6154518209
C  C43  1  0.03650000  0.52850000  0.64540000  1.0 -0.1714253483
C  C44  1  0.47150000  0.50800000  0.64540000  1.0 -0.1714253483
C  C45  1  0.49200000  0.96350000  0.64540000  1.0 -0.1714253483
C  C46  1  0.96350000  0.47150000  0.14540000  1.0 -0.1714253483
C  C47  1  0.52850000  0.49200000  0.14540000  1.0 -0.1714253483
C  C48  1  0.50800000  0.03650000  0.14540000  1.0 -0.1714253483
C  C49  1  0.90540000  0.47570000  0.45482000  1.0 -0.1496879884
C  C50  1  0.52430000  0.42970000  0.45482000  1.0 -0.1496879884
C  C51  1  0.57030000  0.09460000  0.45482000  1.0 -0.1496879884
C  C52  1  0.09460000  0.52430000  0.95482000  1.0 -0.1496879884
C  C53  1  0.47570000  0.57030000  0.95482000  1.0 -0.1496879884
C  C54  1  0.42970000  0.90540000  0.95482000  1.0 -0.1496879884
C  C55  1  0.79720000  0.60060000  0.53549000  1.0 -0.0288186319
C  C56  1  0.39940000  0.19660000  0.53549000  1.0 -0.0288186319
C  C57  1  0.80340000  0.20280000  0.53549000  1.0 -0.0288186319
C  C58  1  0.20280000  0.39940000  0.03549000  1.0 -0.0288186319
C  C59  1  0.60060000  0.80340000  0.03549000  1.0 -0.0288186319
C  C60  1  0.19660000  0.79720000  0.03549000  1.0 -0.0288186319
C  C61  1  0.79510000  0.51670000  0.44840000  1.0 0.0498441306
C  C62  1  0.48330000  0.27840000  0.44840000  1.0 0.0498441306
C  C63  1  0.72160000  0.20490000  0.44840000  1.0 0.0498441306
C  C64  1  0.20490000  0.48330000  0.94840000  1.0 0.0498441306
C  C65  1  0.51670000  0.72160000  0.94840000  1.0 0.0498441306
C  C66  1  0.27840000  0.79510000  0.94840000  1.0 0.0498441306
C  C67  1  0.82180000  0.51110000  0.49008000  1.0 -0.0288186319
C  C68  1  0.48890000  0.31070000  0.49008000  1.0 -0.0288186319
C  C69  1  0.68930000  0.17820000  0.49008000  1.0 -0.0288186319
C  C70  1  0.17820000  0.48890000  0.99008000  1.0 -0.0288186319
C  C71  1  0.51110000  0.68930000  0.99008000  1.0 -0.0288186319
C  C72  1  0.31070000  0.82180000  0.99008000  1.0 -0.0288186319
C  C73  1  0.79060000  0.52510000  0.53184000  1.0 -0.2406835698
C  C74  1  0.47490000  0.26550000  0.53184000  1.0 -0.2406835698
C  C75  1  0.73450000  0.20940000  0.53184000  1.0 -0.2406835698
C  C76  1  0.20940000  0.47490000  0.03184000  1.0 -0.2406835698
C  C77  1  0.52510000  0.73450000  0.03184000  1.0 -0.2406835698
C  C78  1  0.26550000  0.79060000  0.03184000  1.0 -0.2406835698
C  C79  1  0.87340000  0.48730000  0.49295000  1.0 0.2431147379
C  C80  1  0.51270000  0.38610000  0.49295000  1.0 0.2431147379
C  C81  1  0.61390000  0.12660000  0.49295000  1.0 0.2431147379
C  C82  1  0.12660000  0.51270000  0.99295000  1.0 0.2431147379
C  C83  1  0.48730000  0.61390000  0.99295000  1.0 0.2431147379
C  C84  1  0.38610000  0.87340000  0.99295000  1.0 0.2431147379
C  C85  1  0.73610000  0.67480000  0.54020000  1.0 -0.1569363642
C  C86  1  0.32520000  0.06130000  0.54020000  1.0 -0.1569363642
C  C87  1  0.93870000  0.26390000  0.54020000  1.0 -0.1569363642
C  C88  1  0.26390000  0.32520000  0.04020000  1.0 -0.1569363642
C  C89  1  0.67480000  0.93870000  0.04020000  1.0 -0.1569363642
C  C90  1  0.06130000  0.73610000  0.04020000  1.0 -0.1569363642
C  C91  1  0.96050000  0.47050000  0.64843000  1.0 0.2483045689
C  C92  1  0.52950000  0.49000000  0.64843000  1.0 0.2483045689
C  C93  1  0.51000000  0.03950000  0.64843000  1.0 0.2483045689
C  C94  1  0.03950000  0.52950000  0.14843000  1.0 0.2483045689
C  C95  1  0.47050000  0.51000000  0.14843000  1.0 0.2483045689
C  C96  1  0.49000000  0.96050000  0.14843000  1.0 0.2483045689
C  C97  1  0.88430000  0.48770000  0.41477000  1.0 -0.1496879884
C  C98  1  0.51230000  0.39660000  0.41477000  1.0 -0.1496879884
C  C99  1  0.60340000  0.11570000  0.41477000  1.0 -0.1496879884
C  C100  1  0.11570000  0.51230000  0.91477000  1.0 -0.1496879884
C  C101  1  0.48770000  0.60340000  0.91477000  1.0 -0.1496879884
C  C102  1  0.39660000  0.88430000  0.91477000  1.0 -0.1496879884
C  C103  1  0.82870000  0.50730000  0.41020000  1.0 0.060381702
C  C104  1  0.49270000  0.32140000  0.41020000  1.0 0.060381702
C  C105  1  0.67860000  0.17130000  0.41020000  1.0 0.060381702
C  C106  1  0.17130000  0.49270000  0.91020000  1.0 0.060381702
C  C107  1  0.50730000  0.67860000  0.91020000  1.0 0.060381702
C  C108  1  0.32140000  0.82870000  0.91020000  1.0 0.060381702
C  C109  1  0.61440000  0.84600000  0.47062000  1.0 0.0949550948
C  C110  1  0.15400000  0.76840000  0.47062000  1.0 0.0949550948
C  C111  1  0.23160000  0.38560000  0.47062000  1.0 0.0949550948
C  C112  1  0.38560000  0.15400000  0.97062000  1.0 0.0949550948
C  C113  1  0.84600000  0.23160000  0.97062000  1.0 0.0949550948
C  C114  1  0.76840000  0.61440000  0.97062000  1.0 0.0949550948
C  C115  1  0.77810000  0.25690000  0.78850000  1.0 -0.1714253483
C  C116  1  0.74310000  0.52120000  0.78850000  1.0 -0.1714253483
C  C117  1  0.47880000  0.22190000  0.78850000  1.0 -0.1714253483
C  C118  1  0.22190000  0.74310000  0.28850000  1.0 -0.1714253483
C  C119  1  0.25690000  0.47880000  0.28850000  1.0 -0.1714253483
C  C120  1  0.52120000  0.77810000  0.28850000  1.0 -0.1714253483
C  C121  1  0.86820000  0.28510000  0.71300000  1.0 0.0498441306
C  C122  1  0.71490000  0.58310000  0.71300000  1.0 0.0498441306
C  C123  1  0.41690000  0.13180000  0.71300000  1.0 0.0498441306
C  C124  1  0.13180000  0.71490000  0.21300000  1.0 0.0498441306
C  C125  1  0.28510000  0.41690000  0.21300000  1.0 0.0498441306
C  C126  1  0.58310000  0.86820000  0.21300000  1.0 0.0498441306
C  C127  1  0.55600000  0.90520000  0.48410000  1.0 -0.0815970332
C  C128  1  0.09480000  0.65080000  0.48410000  1.0 -0.0815970332
C  C129  1  0.34920000  0.44400000  0.48410000  1.0 -0.0815970332
C  C130  1  0.44400000  0.09480000  0.98410000  1.0 -0.0815970332
C  C131  1  0.90520000  0.34920000  0.98410000  1.0 -0.0815970332
C  C132  1  0.65080000  0.55600000  0.98410000  1.0 -0.0815970332
C  C133  1  0.73480000  0.24280000  0.82900000  1.0 0.5954377733
C  C134  1  0.75720000  0.49200000  0.82900000  1.0 0.5954377733
C  C135  1  0.50800000  0.26520000  0.82900000  1.0 0.5954377733
C  C136  1  0.26520000  0.75720000  0.32900000  1.0 0.5954377733
C  C137  1  0.24280000  0.50800000  0.32900000  1.0 0.5954377733
C  C138  1  0.49200000  0.73480000  0.32900000  1.0 0.5954377733
C  C139  1  0.62900000  0.93890000  0.41564000  1.0 0.1626511
C  C140  1  0.06110000  0.69010000  0.41564000  1.0 0.1626511
C  C141  1  0.30990000  0.37100000  0.41564000  1.0 0.1626511
C  C142  1  0.37100000  0.06110000  0.91564000  1.0 0.1626511
C  C143  1  0.93890000  0.30990000  0.91564000  1.0 0.1626511
C  C144  1  0.69010000  0.62900000  0.91564000  1.0 0.1626511
C  C145  1  0.70450000  0.98360000  0.40740000  1.0 -0.1714253483
C  C146  1  0.01640000  0.72090000  0.40740000  1.0 -0.1714253483
C  C147  1  0.27910000  0.29550000  0.40740000  1.0 -0.1714253483
C  C148  1  0.29550000  0.01640000  0.90740000  1.0 -0.1714253483
C  C149  1  0.98360000  0.27910000  0.90740000  1.0 -0.1714253483
C  C150  1  0.72090000  0.70450000  0.90740000  1.0 -0.1714253483
C  C151  1  0.72840000  0.02220000  0.36840000  1.0 -0.120343786
C  C152  1  0.97780000  0.70620000  0.36840000  1.0 -0.120343786
C  C153  1  0.29380000  0.27160000  0.36840000  1.0 -0.120343786
C  C154  1  0.27160000  0.97780000  0.86840000  1.0 -0.120343786
C  C155  1  0.02220000  0.29380000  0.86840000  1.0 -0.120343786
C  C156  1  0.70620000  0.72840000  0.86840000  1.0 -0.120343786
C  C157  1  0.67680000  0.01600000  0.33755000  1.0 0.0655468486
C  C158  1  0.98400000  0.66080000  0.33755000  1.0 0.0655468486
C  C159  1  0.33920000  0.32320000  0.33755000  1.0 0.0655468486
C  C160  1  0.32320000  0.98400000  0.83755000  1.0 0.0655468486
C  C161  1  0.01600000  0.33920000  0.83755000  1.0 0.0655468486
C  C162  1  0.66080000  0.67680000  0.83755000  1.0 0.0655468486
C  C163  1  0.60120000  0.97140000  0.34574000  1.0 -0.120343786
C  C164  1  0.02860000  0.62980000  0.34574000  1.0 -0.120343786
C  C165  1  0.37020000  0.39880000  0.34574000  1.0 -0.120343786
C  C166  1  0.39880000  0.02860000  0.84574000  1.0 -0.120343786
C  C167  1  0.97140000  0.37020000  0.84574000  1.0 -0.120343786
C  C168  1  0.62980000  0.60120000  0.84574000  1.0 -0.120343786
C  C169  1  0.57730000  0.93280000  0.38478000  1.0 -0.1416333514
C  C170  1  0.06720000  0.64450000  0.38478000  1.0 -0.1416333514
C  C171  1  0.35550000  0.42270000  0.38478000  1.0 -0.1416333514
C  C172  1  0.42270000  0.06720000  0.88478000  1.0 -0.1416333514
C  C173  1  0.93280000  0.35550000  0.88478000  1.0 -0.1416333514
C  C174  1  0.64450000  0.57730000  0.88478000  1.0 -0.1416333514
C  C175  1  0.92460000  0.48460000  0.76710000  1.0 -0.1295097277
C  C176  1  0.51540000  0.44000000  0.76710000  1.0 -0.1295097277
C  C177  1  0.56000000  0.07540000  0.76710000  1.0 -0.1295097277
C  C178  1  0.07540000  0.51540000  0.26710000  1.0 -0.1295097277
C  C179  1  0.48460000  0.56000000  0.26710000  1.0 -0.1295097277
C  C180  1  0.44000000  0.92460000  0.26710000  1.0 -0.1295097277
C  C181  1  0.73050000  0.13920000  0.13740000  1.0 0.1186756034
C  C182  1  0.86080000  0.59130000  0.13740000  1.0 0.1186756034
C  C183  1  0.40870000  0.26950000  0.13740000  1.0 0.1186756034
C  C184  1  0.26950000  0.86080000  0.63740000  1.0 0.1186756034
C  C185  1  0.13920000  0.40870000  0.63740000  1.0 0.1186756034
C  C186  1  0.59130000  0.73050000  0.63740000  1.0 0.1186756034
C  C187  1  0.07340000  0.56660000  0.68280000  1.0 -0.1714253483
C  C188  1  0.43340000  0.50680000  0.68280000  1.0 -0.1714253483
C  C189  1  0.49320000  0.92660000  0.68280000  1.0 -0.1714253483
C  C190  1  0.92660000  0.43340000  0.18280000  1.0 -0.1714253483
C  C191  1  0.56660000  0.49320000  0.18280000  1.0 -0.1714253483
C  C192  1  0.50680000  0.07340000  0.18280000  1.0 -0.1714253483
C  C193  1  0.54120000  0.85620000  0.51608000  1.0 -0.0524787635
C  C194  1  0.14380000  0.68500000  0.51608000  1.0 -0.0524787635
C  C195  1  0.31500000  0.45880000  0.51608000  1.0 -0.0524787635
C  C196  1  0.45880000  0.14380000  0.01608000  1.0 -0.0524787635
C  C197  1  0.85620000  0.31500000  0.01608000  1.0 -0.0524787635
C  C198  1  0.68500000  0.54120000  0.01608000  1.0 -0.0524787635
C  C199  1  0.92330000  0.45300000  0.68830000  1.0 -0.0288186319
C  C200  1  0.54700000  0.47030000  0.68830000  1.0 -0.0288186319
C  C201  1  0.52970000  0.07670000  0.68830000  1.0 -0.0288186319
C  C202  1  0.07670000  0.54700000  0.18830000  1.0 -0.0288186319
C  C203  1  0.45300000  0.52970000  0.18830000  1.0 -0.0288186319
C  C204  1  0.47030000  0.92330000  0.18830000  1.0 -0.0288186319
C  C205  1  0.03710000  0.55140000  0.72370000  1.0 0.0498441306
C  C206  1  0.44860000  0.48570000  0.72370000  1.0 0.0498441306
C  C207  1  0.51430000  0.96290000  0.72370000  1.0 0.0498441306
C  C208  1  0.96290000  0.44860000  0.22370000  1.0 0.0498441306
C  C209  1  0.55140000  0.51430000  0.22370000  1.0 0.0498441306
C  C210  1  0.48570000  0.03710000  0.22370000  1.0 0.0498441306
C  C211  1  0.96060000  0.49550000  0.72570000  1.0 0.0410243019
C  C212  1  0.50450000  0.46510000  0.72570000  1.0 0.0410243019
C  C213  1  0.53490000  0.03940000  0.72570000  1.0 0.0410243019
C  C214  1  0.03940000  0.50450000  0.22570000  1.0 0.0410243019
C  C215  1  0.49550000  0.53490000  0.22570000  1.0 0.0410243019
C  C216  1  0.46510000  0.96060000  0.22570000  1.0 0.0410243019
C  C217  1  0.86690000  0.66710000  0.53450000  1.0 0.0498441306
C  C218  1  0.33290000  0.19980000  0.53450000  1.0 0.0498441306
C  C219  1  0.80020000  0.13310000  0.53450000  1.0 0.0498441306
C  C220  1  0.13310000  0.33290000  0.03450000  1.0 0.0498441306
C  C221  1  0.66710000  0.80020000  0.03450000  1.0 0.0498441306
C  C222  1  0.19980000  0.86690000  0.03450000  1.0 0.0498441306
C  C223  1  0.81740000  0.21850000  0.78180000  1.0 -0.1496879884
C  C224  1  0.78150000  0.59890000  0.78180000  1.0 -0.1496879884
C  C225  1  0.40110000  0.18260000  0.78180000  1.0 -0.1496879884
C  C226  1  0.18260000  0.78150000  0.28180000  1.0 -0.1496879884
C  C227  1  0.21850000  0.40110000  0.28180000  1.0 -0.1496879884
C  C228  1  0.59890000  0.81740000  0.28180000  1.0 -0.1496879884
C  C229  1  0.70230000  0.05540000  0.29550000  1.0 0.060381702
C  C230  1  0.94460000  0.64690000  0.29550000  1.0 0.0655468486
C  C231  1  0.35310000  0.29770000  0.29550000  1.0 0.060381702
C  C232  1  0.29770000  0.94460000  0.79550000  1.0 0.0655468486
C  C233  1  0.05540000  0.35310000  0.79550000  1.0 0.060381702
C  C234  1  0.64690000  0.70230000  0.79550000  1.0 0.0655468486
C  C235  1  0.86150000  0.23080000  0.74520000  1.0 0.060381702
C  C236  1  0.76920000  0.63070000  0.74520000  1.0 0.060381702
C  C237  1  0.36930000  0.13850000  0.74520000  1.0 0.060381702
C  C238  1  0.13850000  0.76920000  0.24520000  1.0 0.060381702
C  C239  1  0.23080000  0.36930000  0.24520000  1.0 0.060381702
C  C240  1  0.63070000  0.86150000  0.24520000  1.0 0.060381702
C  C241  1  0.73670000  0.53210000  0.44290000  1.0 -0.120343786
C  C242  1  0.46790000  0.20460000  0.44290000  1.0 -0.120343786
C  C243  1  0.79540000  0.26330000  0.44290000  1.0 -0.120343786
C  C244  1  0.26330000  0.46790000  0.94290000  1.0 -0.120343786
C  C245  1  0.53210000  0.79540000  0.94290000  1.0 -0.120343786
C  C246  1  0.20460000  0.73670000  0.94290000  1.0 -0.120343786
C  C247  1  0.74690000  0.12950000  0.21520000  1.0 0.148806215
C  C248  1  0.87050000  0.61740000  0.21520000  1.0 0.148806215
C  C249  1  0.38260000  0.25310000  0.21520000  1.0 0.148806215
C  C250  1  0.25310000  0.87050000  0.71520000  1.0 0.148806215
C  C251  1  0.12950000  0.38260000  0.71520000  1.0 0.148806215
C  C252  1  0.61740000  0.74690000  0.71520000  1.0 0.148806215
C  C253  1  0.90960000  0.29150000  0.67530000  1.0 -0.1295097277
C  C254  1  0.70850000  0.61810000  0.67530000  1.0 -0.1295097277
C  C255  1  0.38190000  0.09040000  0.67530000  1.0 -0.1295097277
C  C256  1  0.09040000  0.70850000  0.17530000  1.0 -0.1295097277
C  C257  1  0.29150000  0.38190000  0.17530000  1.0 -0.1295097277
C  C258  1  0.61810000  0.90960000  0.17530000  1.0 -0.1295097277
C  C259  1  0.94280000  0.25020000  0.66960000  1.0 -0.100947028
C  C260  1  0.74980000  0.69260000  0.66960000  1.0 -0.100947028
C  C261  1  0.30740000  0.05720000  0.66960000  1.0 -0.100947028
C  C262  1  0.05720000  0.74980000  0.16960000  1.0 -0.100947028
C  C263  1  0.25020000  0.30740000  0.16960000  1.0 -0.100947028
C  C264  1  0.69260000  0.94280000  0.16960000  1.0 -0.100947028
C  C265  1  0.80300000  0.73970000  0.53570000  1.0 -0.1496879884
C  C266  1  0.26030000  0.06330000  0.53570000  1.0 -0.1496879884
C  C267  1  0.93670000  0.19700000  0.53570000  1.0 -0.1496879884
C  C268  1  0.19700000  0.26030000  0.03570000  1.0 -0.1496879884
C  C269  1  0.73970000  0.93670000  0.03570000  1.0 -0.1496879884
C  C270  1  0.06330000  0.80300000  0.03570000  1.0 -0.1496879884
C  C271  1  0.96340000  0.52660000  0.80280000  1.0 -0.0815970332
C  C272  1  0.47340000  0.43680000  0.80280000  1.0 -0.0815970332
C  C273  1  0.56320000  0.03660000  0.80280000  1.0 -0.0815970332
C  C274  1  0.03660000  0.47340000  0.30280000  1.0 -0.0815970332
C  C275  1  0.52660000  0.56320000  0.30280000  1.0 -0.0815970332
C  C276  1  0.43680000  0.96340000  0.30280000  1.0 -0.0815970332
C  C277  1  0.93550000  0.66600000  0.53430000  1.0 -0.1295097277
C  C278  1  0.33400000  0.26950000  0.53430000  1.0 -0.1295097277
C  C279  1  0.73050000  0.06450000  0.53430000  1.0 -0.1295097277
C  C280  1  0.06450000  0.33400000  0.03430000  1.0 -0.1295097277
C  C281  1  0.66600000  0.73050000  0.03430000  1.0 -0.1295097277
C  C282  1  0.26950000  0.93550000  0.03430000  1.0 -0.1295097277
C  C283  1  0.00070000  0.73170000  0.53330000  1.0 -0.0906577637
C  C284  1  0.26830000  0.26900000  0.53330000  1.0 -0.0906577637
C  C285  1  0.73100000  0.99930000  0.53330000  1.0 -0.0906577637
C  C286  1  0.99930000  0.26830000  0.03330000  1.0 -0.0906577637
C  C287  1  0.73170000  0.73100000  0.03330000  1.0 -0.0906577637
C  C288  1  0.26900000  0.00070000  0.03330000  1.0 -0.0906577637
C  C289  1  0.71380000  0.53910000  0.40190000  1.0 -0.0906577637
C  C290  1  0.46090000  0.17470000  0.40190000  1.0 -0.0906577637
C  C291  1  0.82530000  0.28620000  0.40190000  1.0 -0.0906577637
C  C292  1  0.28620000  0.46090000  0.90190000  1.0 -0.0906577637
C  C293  1  0.53910000  0.82530000  0.90190000  1.0 -0.0906577637
C  C294  1  0.17470000  0.71380000  0.90190000  1.0 -0.0906577637
C  C295  1  0.86970000  0.73770000  0.53390000  1.0 0.060381702
C  C296  1  0.26230000  0.13200000  0.53390000  1.0 0.060381702
C  C297  1  0.86800000  0.13030000  0.53390000  1.0 0.060381702
C  C298  1  0.13030000  0.26230000  0.03390000  1.0 0.060381702
C  C299  1  0.73770000  0.86800000  0.03390000  1.0 0.060381702
C  C300  1  0.13200000  0.86970000  0.03390000  1.0 0.060381702
C  C301  1  0.80450000  0.51530000  0.36870000  1.0 -0.1416333514
C  C302  1  0.48470000  0.28920000  0.36870000  1.0 -0.1416333514
C  C303  1  0.71080000  0.19550000  0.36870000  1.0 -0.1416333514
C  C304  1  0.19550000  0.48470000  0.86870000  1.0 -0.1416333514
C  C305  1  0.51530000  0.71080000  0.86870000  1.0 -0.1416333514
C  C306  1  0.28920000  0.80450000  0.86870000  1.0 -0.1416333514
C  C307  1  0.03760000  0.57920000  0.80030000  1.0 -0.0906577637
C  C308  1  0.42080000  0.45840000  0.80030000  1.0 -0.0906577637
C  C309  1  0.54160000  0.96240000  0.80030000  1.0 -0.0906577637
C  C310  1  0.96240000  0.42080000  0.30030000  1.0 -0.0906577637
C  C311  1  0.57920000  0.54160000  0.30030000  1.0 -0.0906577637
C  C312  1  0.45840000  0.03760000  0.30030000  1.0 -0.0906577637
C  C313  1  0.83850000  0.22610000  0.16310000  1.0 -0.120343786
C  C314  1  0.77390000  0.61240000  0.16310000  1.0 -0.120343786
C  C315  1  0.38760000  0.16150000  0.16310000  1.0 -0.120343786
C  C316  1  0.16150000  0.77390000  0.66310000  1.0 -0.120343786
C  C317  1  0.22610000  0.38760000  0.66310000  1.0 -0.120343786
C  C318  1  0.61240000  0.83850000  0.66310000  1.0 -0.120343786
C  C319  1  0.07330000  0.59060000  0.76160000  1.0 -0.1569363642
C  C320  1  0.40940000  0.48270000  0.76160000  1.0 -0.1569363642
C  C321  1  0.51730000  0.92670000  0.76160000  1.0 -0.1569363642
C  C322  1  0.92670000  0.40940000  0.26160000  1.0 -0.1569363642
C  C323  1  0.59060000  0.51730000  0.26160000  1.0 -0.1569363642
C  C324  1  0.48270000  0.07330000  0.26160000  1.0 -0.1569363642
C  C325  1  0.80200000  0.13670000  0.24550000  1.0 -0.1714253483
C  C326  1  0.86330000  0.66530000  0.24550000  1.0 -0.1714253483
C  C327  1  0.33470000  0.19800000  0.24550000  1.0 -0.1714253483
C  C328  1  0.19800000  0.86330000  0.74550000  1.0 -0.1714253483
C  C329  1  0.13670000  0.33470000  0.74550000  1.0 -0.1714253483
C  C330  1  0.66530000  0.80200000  0.74550000  1.0 -0.1714253483
C  C331  1  0.94040000  0.80550000  0.53170000  1.0 -0.1416333514
C  C332  1  0.19450000  0.13490000  0.53170000  1.0 -0.1416333514
C  C333  1  0.86510000  0.05960000  0.53170000  1.0 -0.1416333514
C  C334  1  0.05960000  0.19450000  0.03170000  1.0 -0.1416333514
C  C335  1  0.80550000  0.86510000  0.03170000  1.0 -0.1416333514
C  C336  1  0.13490000  0.94040000  0.03170000  1.0 -0.1416333514
C  C337  1  0.74720000  0.52970000  0.36450000  1.0 -0.109681397
C  C338  1  0.47030000  0.21750000  0.36450000  1.0 -0.109681397
C  C339  1  0.78250000  0.25280000  0.36450000  1.0 -0.109681397
C  C340  1  0.25280000  0.47030000  0.86450000  1.0 -0.109681397
C  C341  1  0.52970000  0.78250000  0.86450000  1.0 -0.109681397
C  C342  1  0.21750000  0.74720000  0.86450000  1.0 -0.109681397
C  C343  1  0.93930000  0.20000000  0.70100000  1.0 -0.100947028
C  C344  1  0.80000000  0.73930000  0.70100000  1.0 -0.100947028
C  C345  1  0.26070000  0.06070000  0.70100000  1.0 -0.100947028
C  C346  1  0.06070000  0.80000000  0.20100000  1.0 -0.100947028
C  C347  1  0.20000000  0.26070000  0.20100000  1.0 -0.100947028
C  C348  1  0.73930000  0.93930000  0.20100000  1.0 -0.100947028
C  C349  1  0.89930000  0.19090000  0.73810000  1.0 -0.1416333514
C  C350  1  0.80910000  0.70840000  0.73810000  1.0 -0.1416333514
C  C351  1  0.29160000  0.10070000  0.73810000  1.0 -0.1416333514
C  C352  1  0.10070000  0.80910000  0.23810000  1.0 -0.1416333514
C  C353  1  0.19090000  0.29160000  0.23810000  1.0 -0.1416333514
C  C354  1  0.70840000  0.89930000  0.23810000  1.0 -0.1416333514
C  C355  1  0.77550000  0.10270000  0.28590000  1.0 -0.1496879884
C  C356  1  0.89730000  0.67280000  0.28590000  1.0 -0.1496879884
C  C357  1  0.32720000  0.22450000  0.28590000  1.0 -0.1496879884
C  C358  1  0.22450000  0.89730000  0.78590000  1.0 -0.1496879884
C  C359  1  0.10270000  0.32720000  0.78590000  1.0 -0.1496879884
C  C360  1  0.67280000  0.77550000  0.78590000  1.0 -0.1496879884
C  C361  1  0.83330000  0.23880000  0.12100000  1.0 -0.0194304541
C  C362  1  0.76120000  0.59450000  0.12100000  1.0 -0.0194304541
C  C363  1  0.40550000  0.16670000  0.12100000  1.0 -0.0194304541
C  C364  1  0.16670000  0.76120000  0.62100000  1.0 -0.0194304541
C  C365  1  0.23880000  0.40550000  0.62100000  1.0 -0.0194304541
C  C366  1  0.59450000  0.83330000  0.62100000  1.0 -0.0194304541
C  C367  1  0.67670000  0.08160000  0.22420000  1.0 -0.1416333514
C  C368  1  0.91840000  0.59510000  0.22420000  1.0 -0.1416333514
C  C369  1  0.40490000  0.32330000  0.22420000  1.0 -0.1416333514
C  C370  1  0.32330000  0.91840000  0.72420000  1.0 -0.1416333514
C  C371  1  0.08160000  0.40490000  0.72420000  1.0 -0.1416333514
C  C372  1  0.59510000  0.67670000  0.72420000  1.0 -0.1416333514
C  C373  1  0.00410000  0.80250000  0.53050000  1.0 -0.109681397
C  C374  1  0.19750000  0.20160000  0.53050000  1.0 -0.109681397
C  C375  1  0.79840000  0.99590000  0.53050000  1.0 -0.109681397
C  C376  1  0.99590000  0.19750000  0.03050000  1.0 -0.109681397
C  C377  1  0.80250000  0.79840000  0.03050000  1.0 -0.109681397
C  C378  1  0.20160000  0.00410000  0.03050000  1.0 -0.109681397
C  C379  1  0.65600000  0.04630000  0.26270000  1.0 -0.1295097277
C  C380  1  0.95370000  0.60970000  0.26270000  1.0 -0.1295097277
C  C381  1  0.39030000  0.34400000  0.26270000  1.0 -0.1295097277
C  C382  1  0.34400000  0.95370000  0.76270000  1.0 -0.1295097277
C  C383  1  0.04630000  0.39030000  0.76270000  1.0 -0.1295097277
C  C384  1  0.60970000  0.65600000  0.76270000  1.0 -0.1295097277
N  N1  1  0.33300000  0.57690000  0.42570000  1.0 -0.8172613301
N  N2  1  0.42310000  0.75610000  0.42570000  1.0 -0.8172613301
N  N3  1  0.24390000  0.66700000  0.42570000  1.0 -0.8172613301
N  N4  1  0.66700000  0.42310000  0.92570000  1.0 -0.8172613301
N  N5  1  0.57690000  0.24390000  0.92570000  1.0 -0.8172613301
N  N6  1  0.75610000  0.33300000  0.92570000  1.0 -0.8172613301
N  N7  1  0.33333333  0.66666667  0.52970000  1.0 -0.8172613301
N  N8  1  0.66666667  0.33333333  0.02970000  1.0 -0.8172613301
N  N9  1  0.57930000  0.81830000  0.50752000  1.0 -0.291155191
N  N10  1  0.18170000  0.76100000  0.50752000  1.0 -0.291155191
N  N11  1  0.23900000  0.42070000  0.50752000  1.0 -0.291155191
N  N12  1  0.42070000  0.18170000  0.00752000  1.0 -0.291155191
N  N13  1  0.81830000  0.23900000  0.00752000  1.0 -0.291155191
N  N14  1  0.76100000  0.57930000  0.00752000  1.0 -0.291155191
N  N15  1  0.60220000  0.89910000  0.45507000  1.0 0.0029156826
N  N16  1  0.10090000  0.70310000  0.45507000  1.0 0.0029156826
N  N17  1  0.29690000  0.39780000  0.45507000  1.0 0.0029156826
N  N18  1  0.39780000  0.10090000  0.95507000  1.0 0.0029156826
N  N19  1  0.89910000  0.29690000  0.95507000  1.0 0.0029156826
N  N20  1  0.70310000  0.60220000  0.95507000  1.0 0.0029156826
N  N21  1  0.76370000  0.18580000  0.10450000  1.0 -0.291155191
N  N22  1  0.81420000  0.57790000  0.10450000  1.0 -0.291155191
N  N23  1  0.42210000  0.23630000  0.10450000  1.0 -0.291155191
N  N24  1  0.23630000  0.81420000  0.60450000  1.0 -0.291155191
N  N25  1  0.18580000  0.42210000  0.60450000  1.0 -0.291155191
N  N26  1  0.57790000  0.76370000  0.60450000  1.0 -0.291155191
N  N27  1  0.48780000  0.64440000  0.51736000  1.0 -0.7968372025
N  N28  1  0.35560000  0.84340000  0.51736000  1.0 -0.7968372025
N  N29  1  0.15660000  0.51220000  0.51736000  1.0 -0.7968372025
N  N30  1  0.51220000  0.35560000  0.01736000  1.0 -0.7944862761
N  N31  1  0.64440000  0.15660000  0.01736000  1.0 -0.7944862761
N  N32  1  0.84340000  0.48780000  0.01736000  1.0 -0.7944862761
N  N33  1  0.77010000  0.16400000  0.17420000  1.0 0.012746711
N  N34  1  0.83600000  0.60610000  0.17420000  1.0 0.012746711
N  N35  1  0.39390000  0.22990000  0.17420000  1.0 0.012746711
N  N36  1  0.22990000  0.83600000  0.67420000  1.0 0.012746711
N  N37  1  0.16400000  0.39390000  0.67420000  1.0 0.012746711
N  N38  1  0.60610000  0.77010000  0.67420000  1.0 0.012746711
O  O1  1  0.48740000  0.63120000  0.42075000  1.0 -0.6710096715
O  O2  1  0.36880000  0.85620000  0.42075000  1.0 -0.6710096715
O  O3  1  0.14380000  0.51260000  0.42075000  1.0 -0.6710096715
O  O4  1  0.51260000  0.36880000  0.92075000  1.0 -0.6710096715
O  O5  1  0.63120000  0.14380000  0.92075000  1.0 -0.6710096715
O  O6  1  0.85620000  0.48740000  0.92075000  1.0 -0.6710096715
O  O7  1  0.04030000  0.52700000  0.56784000  1.0 -0.6401521283
O  O8  1  0.47300000  0.51330000  0.56784000  1.0 -0.6401521283
O  O9  1  0.48670000  0.95970000  0.56784000  1.0 -0.6401521283
O  O10  1  0.95970000  0.47300000  0.06784000  1.0 -0.6401521283
O  O11  1  0.52700000  0.48670000  0.06784000  1.0 -0.6401521283
O  O12  1  0.51330000  0.04030000  0.06784000  1.0 -0.6401521283
O  O13  1  0.74870000  0.34770000  0.76170000  1.0 -0.6215728605
O  O14  1  0.65230000  0.40100000  0.76170000  1.0 -0.6215728605
O  O15  1  0.59900000  0.25130000  0.76170000  1.0 -0.6215728605
O  O16  1  0.25130000  0.65230000  0.26170000  1.0 -0.6215728605
O  O17  1  0.34770000  0.59900000  0.26170000  1.0 -0.6215728605
O  O18  1  0.40100000  0.74870000  0.26170000  1.0 -0.6215728605
O  O19  1  0.61084000  0.62747000  0.56389000  1.0 -0.6215728605
O  O20  1  0.37253000  0.98337000  0.56389000  1.0 -0.6215728605
O  O21  1  0.01663000  0.38916000  0.56389000  1.0 -0.6215728605
O  O22  1  0.38916000  0.37253000  0.06389000  1.0 -0.6215728605
O  O23  1  0.62747000  0.01663000  0.06389000  1.0 -0.6215728605
O  O24  1  0.98337000  0.61084000  0.06389000  1.0 -0.6215728605
O  O25  1  0.92500000  0.43260000  0.61257000  1.0 -0.6215728605
O  O26  1  0.56740000  0.49240000  0.61257000  1.0 -0.6215728605
O  O27  1  0.50760000  0.07500000  0.61257000  1.0 -0.6215728605
O  O28  1  0.07500000  0.56740000  0.11257000  1.0 -0.6215728605
O  O29  1  0.43260000  0.50760000  0.11257000  1.0 -0.6215728605
O  O30  1  0.49240000  0.92500000  0.11257000  1.0 -0.6215728605
O  O31  1  0.98930000  0.44860000  0.49311000  1.0 -0.6143329261
O  O32  1  0.55140000  0.54070000  0.49311000  1.0 -0.6143329261
O  O33  1  0.45930000  0.01070000  0.49311000  1.0 -0.6143329261
O  O34  1  0.01070000  0.55140000  0.99311000  1.0 -0.6143329261
O  O35  1  0.44860000  0.45930000  0.99311000  1.0 -0.6143329261
O  O36  1  0.54070000  0.98930000  0.99311000  1.0 -0.6143329261
O  O37  1  0.66620000  0.54199000  0.54308000  1.0 -0.6299416738
O  O38  1  0.45801000  0.12421000  0.54308000  1.0 -0.6299416738
O  O39  1  0.87579000  0.33380000  0.54308000  1.0 -0.6299416738
O  O40  1  0.33380000  0.45801000  0.04308000  1.0 -0.6299416738
O  O41  1  0.54199000  0.87579000  0.04308000  1.0 -0.6299416738
O  O42  1  0.12421000  0.66620000  0.04308000  1.0 -0.6299416738
O  O43  1  0.89230000  0.47490000  0.53247000  1.0 -0.6143329261
O  O44  1  0.52510000  0.41740000  0.53247000  1.0 -0.6143329261
O  O45  1  0.58260000  0.10770000  0.53247000  1.0 -0.6143329261
O  O46  1  0.10770000  0.52510000  0.03247000  1.0 -0.6143329261
O  O47  1  0.47490000  0.58260000  0.03247000  1.0 -0.6143329261
O  O48  1  0.41740000  0.89230000  0.03247000  1.0 -0.6143329261
O  O49  1  0.69450000  0.27400000  0.83422000  1.0 -0.6299416738
O  O50  1  0.72600000  0.42050000  0.83422000  1.0 -0.6299416738
O  O51  1  0.57950000  0.30550000  0.83422000  1.0 -0.6299416738
O  O52  1  0.30550000  0.72600000  0.33422000  1.0 -0.6299416738
O  O53  1  0.27400000  0.57950000  0.33422000  1.0 -0.6299416738
O  O54  1  0.42050000  0.69450000  0.33422000  1.0 -0.6299416738
O  O55  1  0.99250000  0.45030000  0.42124000  1.0 -0.5184381274
O  O56  1  0.54970000  0.54220000  0.42124000  1.0 -0.5184381274
O  O57  1  0.45780000  0.00750000  0.42124000  1.0 -0.5184381274
O  O58  1  0.00750000  0.54970000  0.92124000  1.0 -0.5184381274
O  O59  1  0.45030000  0.45780000  0.92124000  1.0 -0.5184381274
O  O60  1  0.54220000  0.99250000  0.92124000  1.0 -0.5184381274
O  O61  1  0.66980000  0.73930000  0.53406000  1.0 -0.5184381274
O  O62  1  0.26070000  0.93050000  0.53406000  1.0 -0.5184381274
O  O63  1  0.06950000  0.33020000  0.53406000  1.0 -0.5184381274
O  O64  1  0.33020000  0.26070000  0.03406000  1.0 -0.5184381274
O  O65  1  0.73930000  0.06950000  0.03406000  1.0 -0.5184381274
O  O66  1  0.93050000  0.66980000  0.03406000  1.0 -0.5184381274
O  O67  1  0.14600000  0.59110000  0.60326000  1.0 -0.5125806151
O  O68  1  0.40890000  0.55490000  0.60326000  1.0 -0.5125806151
O  O69  1  0.44510000  0.85400000  0.60326000  1.0 -0.5125806151
O  O70  1  0.85400000  0.40890000  0.10326000  1.0 -0.5125806151
O  O71  1  0.59110000  0.44510000  0.10326000  1.0 -0.5125806151
O  O72  1  0.55490000  0.14600000  0.10326000  1.0 -0.5125806151
O  O73  1  0.73770000  0.20320000  0.85770000  1.0 -0.5125806151
O  O74  1  0.79680000  0.53450000  0.85770000  1.0 -0.5125806151
O  O75  1  0.46550000  0.26230000  0.85770000  1.0 -0.5125806151
O  O76  1  0.26230000  0.79680000  0.35770000  1.0 -0.5125806151
O  O77  1  0.20320000  0.46550000  0.35770000  1.0 -0.5125806151
O  O78  1  0.53450000  0.73770000  0.35770000  1.0 -0.5125806151
