# DDEC6 charges by PACMAN v1.1 (https://github.com/mtap-research/PACMAN-charge/)
data_UDOHEE_FSR_pacman
_symmetry_space_group_name_H-M   'P 1'
_cell_length_a   20.66140000
_cell_length_b   20.66140000
_cell_length_c   30.69990000
_cell_angle_alpha   90.00000000
_cell_angle_beta   90.00000000
_cell_angle_gamma   120.00000000
_symmetry_Int_Tables_number   1
_chemical_formula_structural   Ti4Zn4H141C192N19O39
_chemical_formula_sum   'Ti8 Zn8 H282 C384 N38 O78'
_cell_volume   11349.77060184
_cell_formula_units_Z   2
loop_
 _symmetry_equiv_pos_site_id
 _symmetry_equiv_pos_as_xyz
  1  'x, y, z'
loop_
 _atom_site_type_symbol
 _atom_site_label
 _atom_site_symmetry_multiplicity
 _atom_site_fract_x
 _atom_site_fract_y
 _atom_site_fract_z
 _atom_site_occupancy
 _atom_site_charge
Ti  Ti1  1  0.33333333  0.66666667  0.72504000  1.0 1.8867754414
Ti  Ti2  1  0.66666667  0.33333333  0.22504000  1.0 1.8867754414
Ti  Ti3  1  0.05078000  0.56582000  0.48428000  1.0 1.903557447
Ti  Ti4  1  0.43418000  0.48496000  0.48428000  1.0 1.903557447
Ti  Ti5  1  0.51504000  0.94922000  0.48428000  1.0 1.903557447
Ti  Ti6  1  0.94922000  0.43418000  0.98428000  1.0 1.903557447
Ti  Ti7  1  0.56582000  0.51504000  0.98428000  1.0 1.903557447
Ti  Ti8  1  0.48496000  0.05078000  0.98428000  1.0 1.903557447
Zn  Zn1  1  0.66666667  0.33333333  0.37831000  1.0 0.7438762773
Zn  Zn2  1  0.33333333  0.66666667  0.87831000  1.0 0.7461244538
Zn  Zn3  1  0.42663000  0.26531000  0.47296000  1.0 0.7438762773
Zn  Zn4  1  0.73469000  0.16132000  0.47296000  1.0 0.7438762773
Zn  Zn5  1  0.83868000  0.57337000  0.47296000  1.0 0.7438762773
Zn  Zn6  1  0.57337000  0.73469000  0.97296000  1.0 0.7438762773
Zn  Zn7  1  0.26531000  0.83868000  0.97296000  1.0 0.7438762773
Zn  Zn8  1  0.16132000  0.42663000  0.97296000  1.0 0.7438762773
H  H1  1  0.61578000  0.40699000  0.35119000  1.0 0.3026398122
H  H2  1  0.59301000  0.20879000  0.35119000  1.0 0.3026398122
H  H3  1  0.79121000  0.38422000  0.35119000  1.0 0.3026398122
H  H4  1  0.38422000  0.59301000  0.85119000  1.0 0.3026398122
H  H5  1  0.40699000  0.79121000  0.85119000  1.0 0.3026398122
H  H6  1  0.20879000  0.61578000  0.85119000  1.0 0.3026398122
H  H7  1  0.68347000  0.45728000  0.37493000  1.0 0.2586267814
H  H8  1  0.54272000  0.22619000  0.37493000  1.0 0.2586267814
H  H9  1  0.77381000  0.31653000  0.37493000  1.0 0.2586267814
H  H10  1  0.31653000  0.54272000  0.87493000  1.0 0.2586267814
H  H11  1  0.45728000  0.77381000  0.87493000  1.0 0.2586267814
H  H12  1  0.22619000  0.68347000  0.87493000  1.0 0.2586267814
H  H13  1  0.68838000  0.43441000  0.33082000  1.0 0.2935108989
H  H14  1  0.56559000  0.25397000  0.33082000  1.0 0.2935108989
H  H15  1  0.74603000  0.31162000  0.33082000  1.0 0.2935108989
H  H16  1  0.31162000  0.56559000  0.83082000  1.0 0.2935108989
H  H17  1  0.43441000  0.74603000  0.83082000  1.0 0.2935108989
H  H18  1  0.25397000  0.68838000  0.83082000  1.0 0.2935108989
H  H19  1  0.62606000  0.33333333  0.45442000  1.0 0.2586267814
H  H20  1  0.66666667  0.29273000  0.45442000  1.0 0.2586267814
H  H21  1  0.70727000  0.37394000  0.45442000  1.0 0.2586267814
H  H22  1  0.37394000  0.66666667  0.95442000  1.0 0.2586267814
H  H23  1  0.33333333  0.70727000  0.95442000  1.0 0.2586267814
H  H24  1  0.29273000  0.62606000  0.95442000  1.0 0.2586267814
H  H25  1  0.48390000  0.32426000  0.33788000  1.0 0.3239590649
H  H26  1  0.67574000  0.15964000  0.33788000  1.0 0.3239590649
H  H27  1  0.84036000  0.51610000  0.33788000  1.0 0.3239590649
H  H28  1  0.51610000  0.67574000  0.83788000  1.0 0.3239590649
H  H29  1  0.32426000  0.84036000  0.83788000  1.0 0.3239590649
H  H30  1  0.15964000  0.48390000  0.83788000  1.0 0.3239590649
H  H31  1  0.49589000  0.39426000  0.34127000  1.0 0.3264214967
H  H32  1  0.60574000  0.10163000  0.34127000  1.0 0.3264214967
H  H33  1  0.89837000  0.50411000  0.34127000  1.0 0.3264214967
H  H34  1  0.50411000  0.60574000  0.84127000  1.0 0.3264214967
H  H35  1  0.39426000  0.89837000  0.84127000  1.0 0.3264214967
H  H36  1  0.10163000  0.49589000  0.84127000  1.0 0.3264214967
H  H37  1  0.17198000  0.62925000  0.59103000  1.0 0.130760762
H  H38  1  0.37075000  0.54273000  0.59103000  1.0 0.130760762
H  H39  1  0.45727000  0.82802000  0.59103000  1.0 0.130760762
H  H40  1  0.82802000  0.37075000  0.09103000  1.0 0.130760762
H  H41  1  0.62925000  0.45727000  0.09103000  1.0 0.130760762
H  H42  1  0.54273000  0.17198000  0.09103000  1.0 0.130760762
H  H43  1  0.18880000  0.59014000  0.62957000  1.0 0.130760762
H  H44  1  0.40986000  0.59866000  0.62957000  1.0 0.130760762
H  H45  1  0.40134000  0.81120000  0.62957000  1.0 0.130760762
H  H46  1  0.81120000  0.40986000  0.12957000  1.0 0.130760762
H  H47  1  0.59014000  0.40134000  0.12957000  1.0 0.130760762
H  H48  1  0.59866000  0.18880000  0.12957000  1.0 0.130760762
H  H49  1  0.50938000  0.35144000  0.41896000  1.0 0.3026398122
H  H50  1  0.64856000  0.15794000  0.41896000  1.0 0.3026398122
H  H51  1  0.84206000  0.49062000  0.41896000  1.0 0.3026398122
H  H52  1  0.49062000  0.64856000  0.91896000  1.0 0.3026398122
H  H53  1  0.35144000  0.84206000  0.91896000  1.0 0.3026398122
H  H54  1  0.15794000  0.50938000  0.91896000  1.0 0.3026398122
H  H55  1  0.55429000  0.35675000  0.45670000  1.0 0.2672962322
H  H56  1  0.64325000  0.19754000  0.45670000  1.0 0.2672962322
H  H57  1  0.80246000  0.44571000  0.45670000  1.0 0.2672962322
H  H58  1  0.44571000  0.64325000  0.95670000  1.0 0.2672962322
H  H59  1  0.35675000  0.80246000  0.95670000  1.0 0.2672962322
H  H60  1  0.19754000  0.55429000  0.95670000  1.0 0.2672962322
H  H61  1  0.51106000  0.39474000  0.45670000  1.0 0.2935108989
H  H62  1  0.60526000  0.11632000  0.45670000  1.0 0.2935108989
H  H63  1  0.88368000  0.48894000  0.45670000  1.0 0.2935108989
H  H64  1  0.48894000  0.60526000  0.95670000  1.0 0.2935108989
H  H65  1  0.39474000  0.88368000  0.95670000  1.0 0.2935108989
H  H66  1  0.11632000  0.51106000  0.95670000  1.0 0.2935108989
H  H67  1  0.09536000  0.52228000  0.32028000  1.0 0.1208337186
H  H68  1  0.47772000  0.57308000  0.32028000  1.0 0.1208337186
H  H69  1  0.42692000  0.90464000  0.32028000  1.0 0.1208337186
H  H70  1  0.90464000  0.47772000  0.82028000  1.0 0.1208337186
H  H71  1  0.52228000  0.42692000  0.82028000  1.0 0.1208337186
H  H72  1  0.57308000  0.09536000  0.82028000  1.0 0.1208337186
H  H73  1  0.26389000  0.51487000  0.46423000  1.0 0.130760762
H  H74  1  0.48513000  0.74902000  0.46423000  1.0 0.130760762
H  H75  1  0.25098000  0.73611000  0.46423000  1.0 0.130760762
H  H76  1  0.73611000  0.48513000  0.96423000  1.0 0.130760762
H  H77  1  0.51487000  0.25098000  0.96423000  1.0 0.130760762
H  H78  1  0.74902000  0.26389000  0.96423000  1.0 0.130760762
H  H79  1  0.18608000  0.48474000  0.48668000  1.0 0.130760762
H  H80  1  0.51526000  0.70134000  0.48668000  1.0 0.130760762
H  H81  1  0.29866000  0.81392000  0.48668000  1.0 0.130760762
H  H82  1  0.81392000  0.51526000  0.98668000  1.0 0.130760762
H  H83  1  0.48474000  0.29866000  0.98668000  1.0 0.130760762
H  H84  1  0.70134000  0.18608000  0.98668000  1.0 0.130760762
H  H85  1  0.18060000  0.81037000  0.73370000  1.0 0.1208337186
H  H86  1  0.18963000  0.37023000  0.73370000  1.0 0.1208337186
H  H87  1  0.62977000  0.81940000  0.73370000  1.0 0.1208337186
H  H88  1  0.81940000  0.18963000  0.23370000  1.0 0.1208337186
H  H89  1  0.81037000  0.62977000  0.23370000  1.0 0.1208337186
H  H90  1  0.37023000  0.18060000  0.23370000  1.0 0.1208337186
H  H91  1  0.46650000  0.06362000  0.41318000  1.0 0.1490944524
H  H92  1  0.93638000  0.40288000  0.41318000  1.0 0.1490944524
H  H93  1  0.59712000  0.53350000  0.41318000  1.0 0.1490944524
H  H94  1  0.53350000  0.93638000  0.91318000  1.0 0.1490944524
H  H95  1  0.06362000  0.59712000  0.91318000  1.0 0.1490944524
H  H96  1  0.40288000  0.46650000  0.91318000  1.0 0.1490944524
H  H97  1  0.12829000  0.54532000  0.69875000  1.0 0.1208337186
H  H98  1  0.45468000  0.58297000  0.69875000  1.0 0.1208337186
H  H99  1  0.41703000  0.87171000  0.69875000  1.0 0.1208337186
H  H100  1  0.87171000  0.45468000  0.19875000  1.0 0.1208337186
H  H101  1  0.54532000  0.41703000  0.19875000  1.0 0.1208337186
H  H102  1  0.58297000  0.12829000  0.19875000  1.0 0.1208337186
H  H103  1  0.31651000  0.90160000  0.06690000  1.0 0.130760762
H  H104  1  0.09840000  0.41491000  0.06690000  1.0 0.130760762
H  H105  1  0.58509000  0.68349000  0.06690000  1.0 0.130760762
H  H106  1  0.68349000  0.09840000  0.56690000  1.0 0.130760762
H  H107  1  0.90160000  0.58509000  0.56690000  1.0 0.130760762
H  H108  1  0.41491000  0.31651000  0.56690000  1.0 0.130760762
H  H109  1  0.26313000  0.99259000  0.36534000  1.0 0.130760762
H  H110  1  0.00741000  0.27054000  0.36534000  1.0 0.130760762
H  H111  1  0.72946000  0.73687000  0.36534000  1.0 0.130760762
H  H112  1  0.73687000  0.00741000  0.86534000  1.0 0.130760762
H  H113  1  0.99259000  0.72946000  0.86534000  1.0 0.130760762
H  H114  1  0.27054000  0.26313000  0.86534000  1.0 0.130760762
H  H115  1  0.22291000  0.92720000  0.30028000  1.0 0.1132874954
H  H116  1  0.07280000  0.29571000  0.30028000  1.0 0.1132874954
H  H117  1  0.70429000  0.77709000  0.30028000  1.0 0.1132874954
H  H118  1  0.77709000  0.07280000  0.80028000  1.0 0.1132874954
H  H119  1  0.92720000  0.70429000  0.80028000  1.0 0.1132874954
H  H120  1  0.29571000  0.22291000  0.80028000  1.0 0.1132874954
H  H121  1  0.43158000  0.04373000  0.25261000  1.0 0.1208337186
H  H122  1  0.95627000  0.38785000  0.25261000  1.0 0.1208337186
H  H123  1  0.61215000  0.56842000  0.25261000  1.0 0.1208337186
H  H124  1  0.56842000  0.95627000  0.75261000  1.0 0.1208337186
H  H125  1  0.04373000  0.61215000  0.75261000  1.0 0.1208337186
H  H126  1  0.38785000  0.43158000  0.75261000  1.0 0.1208337186
H  H127  1  0.47180000  0.10912000  0.31766000  1.0 0.1372622922
H  H128  1  0.89088000  0.36268000  0.31766000  1.0 0.1372622922
H  H129  1  0.63732000  0.52820000  0.31766000  1.0 0.1372622922
H  H130  1  0.52820000  0.89088000  0.81766000  1.0 0.1372622922
H  H131  1  0.10912000  0.63732000  0.81766000  1.0 0.1372622922
H  H132  1  0.36268000  0.47180000  0.81766000  1.0 0.1372622922
H  H133  1  0.87529000  0.39347000  0.61162000  1.0 0.1132874954
H  H134  1  0.60653000  0.48182000  0.61162000  1.0 0.1132874954
H  H135  1  0.51818000  0.12471000  0.61162000  1.0 0.1132874954
H  H136  1  0.12471000  0.60653000  0.11162000  1.0 0.1132874954
H  H137  1  0.39347000  0.51818000  0.11162000  1.0 0.1132874954
H  H138  1  0.48182000  0.87529000  0.11162000  1.0 0.1132874954
H  H139  1  0.08468000  0.67288000  0.58336000  1.0 0.1208337186
H  H140  1  0.32712000  0.41180000  0.58336000  1.0 0.1208337186
H  H141  1  0.58820000  0.91532000  0.58336000  1.0 0.1208337186
H  H142  1  0.91532000  0.32712000  0.08336000  1.0 0.1208337186
H  H143  1  0.67288000  0.58820000  0.08336000  1.0 0.1208337186
H  H144  1  0.41180000  0.08468000  0.08336000  1.0 0.1208337186
H  H145  1  0.35315000  0.16599000  0.38775000  1.0 0.130760762
H  H146  1  0.83401000  0.18716000  0.38775000  1.0 0.130760762
H  H147  1  0.81284000  0.64685000  0.38775000  1.0 0.130760762
H  H148  1  0.64685000  0.83401000  0.88775000  1.0 0.130760762
H  H149  1  0.16599000  0.81284000  0.88775000  1.0 0.130760762
H  H150  1  0.18716000  0.35315000  0.88775000  1.0 0.130760762
H  H151  1  0.02837000  0.74286000  0.57385000  1.0 0.1132874954
H  H152  1  0.25714000  0.28551000  0.57385000  1.0 0.1132874954
H  H153  1  0.71449000  0.97163000  0.57385000  1.0 0.1132874954
H  H154  1  0.97163000  0.25714000  0.07385000  1.0 0.1132874954
H  H155  1  0.74286000  0.71449000  0.07385000  1.0 0.1132874954
H  H156  1  0.28551000  0.02837000  0.07385000  1.0 0.1132874954
H  H157  1  0.49181000  0.15443000  0.47090000  1.0 0.1372622922
H  H158  1  0.84557000  0.33738000  0.47090000  1.0 0.1372622922
H  H159  1  0.66262000  0.50819000  0.47090000  1.0 0.1372622922
H  H160  1  0.50819000  0.84557000  0.97090000  1.0 0.1372622922
H  H161  1  0.15443000  0.66262000  0.97090000  1.0 0.1372622922
H  H162  1  0.33738000  0.49181000  0.97090000  1.0 0.1372622922
H  H163  1  0.29079000  0.46699000  0.39711000  1.0 0.1208337186
H  H164  1  0.53301000  0.82380000  0.39711000  1.0 0.1208337186
H  H165  1  0.17620000  0.70921000  0.39711000  1.0 0.1208337186
H  H166  1  0.70921000  0.53301000  0.89711000  1.0 0.1208337186
H  H167  1  0.46699000  0.17620000  0.89711000  1.0 0.1208337186
H  H168  1  0.82380000  0.29079000  0.89711000  1.0 0.1208337186
H  H169  1  0.17679000  0.49691000  0.27370000  1.0 0.1132874954
H  H170  1  0.50309000  0.67988000  0.27370000  1.0 0.1132874954
H  H171  1  0.32012000  0.82321000  0.27370000  1.0 0.1132874954
H  H172  1  0.82321000  0.50309000  0.77370000  1.0 0.1132874954
H  H173  1  0.49691000  0.32012000  0.77370000  1.0 0.1132874954
H  H174  1  0.67988000  0.17679000  0.77370000  1.0 0.1132874954
H  H175  1  0.19302000  0.21506000  0.46441000  1.0 0.1208337186
H  H176  1  0.78494000  0.97796000  0.46441000  1.0 0.1208337186
H  H177  1  0.02204000  0.80698000  0.46441000  1.0 0.1208337186
H  H178  1  0.80698000  0.78494000  0.96441000  1.0 0.1208337186
H  H179  1  0.21506000  0.02204000  0.96441000  1.0 0.1208337186
H  H180  1  0.97796000  0.19302000  0.96441000  1.0 0.1208337186
H  H181  1  0.06382000  0.47540000  0.75887000  1.0 0.1208337186
H  H182  1  0.52460000  0.58842000  0.75887000  1.0 0.1208337186
H  H183  1  0.41158000  0.93618000  0.75887000  1.0 0.1208337186
H  H184  1  0.93618000  0.52460000  0.25887000  1.0 0.1208337186
H  H185  1  0.47540000  0.41158000  0.25887000  1.0 0.1208337186
H  H186  1  0.58842000  0.06382000  0.25887000  1.0 0.1208337186
H  H187  1  0.32664000  0.45334000  0.32853000  1.0 0.1132874954
H  H188  1  0.54666000  0.87330000  0.32853000  1.0 0.1132874954
H  H189  1  0.12670000  0.67336000  0.32853000  1.0 0.1132874954
H  H190  1  0.67336000  0.54666000  0.82853000  1.0 0.1132874954
H  H191  1  0.45334000  0.12670000  0.82853000  1.0 0.1132874954
H  H192  1  0.87330000  0.32664000  0.82853000  1.0 0.1132874954
H  H193  1  0.06627000  0.38228000  0.46764000  1.0 0.1208337186
H  H194  1  0.61772000  0.68399000  0.46764000  1.0 0.1208337186
H  H195  1  0.31601000  0.93373000  0.46764000  1.0 0.1208337186
H  H196  1  0.93373000  0.61772000  0.96764000  1.0 0.1208337186
H  H197  1  0.38228000  0.31601000  0.96764000  1.0 0.1208337186
H  H198  1  0.68399000  0.06627000  0.96764000  1.0 0.1208337186
H  H199  1  0.95471000  0.27365000  0.46777000  1.0 0.1017869263
H  H200  1  0.72635000  0.68106000  0.46777000  1.0 0.1017869263
H  H201  1  0.31894000  0.04529000  0.46777000  1.0 0.1017869263
H  H202  1  0.04529000  0.72635000  0.96777000  1.0 0.1017869263
H  H203  1  0.27365000  0.31894000  0.96777000  1.0 0.1017869263
H  H204  1  0.68106000  0.95471000  0.96777000  1.0 0.1017869263
H  H205  1  0.27351000  0.47352000  0.26690000  1.0 0.1132874954
H  H206  1  0.52648000  0.79999000  0.26690000  1.0 0.1132874954
H  H207  1  0.20001000  0.72649000  0.26690000  1.0 0.1132874954
H  H208  1  0.72649000  0.52648000  0.76690000  1.0 0.1132874954
H  H209  1  0.47352000  0.20001000  0.76690000  1.0 0.1132874954
H  H210  1  0.79999000  0.27351000  0.76690000  1.0 0.1132874954
H  H211  1  0.09661000  0.83698000  0.69028000  1.0 0.1208337186
H  H212  1  0.16302000  0.25963000  0.69028000  1.0 0.1208337186
H  H213  1  0.74037000  0.90339000  0.69028000  1.0 0.1208337186
H  H214  1  0.90339000  0.16302000  0.19028000  1.0 0.1208337186
H  H215  1  0.83698000  0.74037000  0.19028000  1.0 0.1208337186
H  H216  1  0.25963000  0.09661000  0.19028000  1.0 0.1208337186
H  H217  1  0.93620000  0.39072000  0.75566000  1.0 0.1208337186
H  H218  1  0.60928000  0.54548000  0.75566000  1.0 0.1208337186
H  H219  1  0.45452000  0.06380000  0.75566000  1.0 0.1208337186
H  H220  1  0.06380000  0.60928000  0.25566000  1.0 0.1208337186
H  H221  1  0.39072000  0.45452000  0.25566000  1.0 0.1208337186
H  H222  1  0.54548000  0.93620000  0.25566000  1.0 0.1208337186
H  H223  1  0.87410000  0.36900000  0.69059000  1.0 0.1132874954
H  H224  1  0.63100000  0.50510000  0.69059000  1.0 0.1132874954
H  H225  1  0.49490000  0.12590000  0.69059000  1.0 0.1132874954
H  H226  1  0.12590000  0.63100000  0.19059000  1.0 0.1132874954
H  H227  1  0.36900000  0.49490000  0.19059000  1.0 0.1132874954
H  H228  1  0.50510000  0.87410000  0.19059000  1.0 0.1132874954
H  H229  1  0.03353000  0.82426000  0.62723000  1.0 0.1132874954
H  H230  1  0.17574000  0.20927000  0.62723000  1.0 0.1132874954
H  H231  1  0.79073000  0.96647000  0.62723000  1.0 0.1132874954
H  H232  1  0.96647000  0.17574000  0.12723000  1.0 0.1132874954
H  H233  1  0.82426000  0.79073000  0.12723000  1.0 0.1132874954
H  H234  1  0.20927000  0.03353000  0.12723000  1.0 0.1132874954
H  H235  1  0.18736000  0.88765000  0.23860000  1.0 0.1132874954
H  H236  1  0.11235000  0.29971000  0.23860000  1.0 0.1132874954
H  H237  1  0.70029000  0.81264000  0.23860000  1.0 0.1132874954
H  H238  1  0.81264000  0.11235000  0.73860000  1.0 0.1132874954
H  H239  1  0.88765000  0.70029000  0.73860000  1.0 0.1132874954
H  H240  1  0.29971000  0.18736000  0.73860000  1.0 0.1132874954
H  H241  1  0.14763000  0.83035000  0.17092000  1.0 0.130760762
H  H242  1  0.16965000  0.31728000  0.17092000  1.0 0.130760762
H  H243  1  0.68272000  0.85237000  0.17092000  1.0 0.130760762
H  H244  1  0.85237000  0.16965000  0.67092000  1.0 0.130760762
H  H245  1  0.83035000  0.68272000  0.67092000  1.0 0.130760762
H  H246  1  0.31728000  0.14763000  0.67092000  1.0 0.130760762
H  H247  1  0.11934000  0.74557000  0.11245000  1.0 0.1372622922
H  H248  1  0.25443000  0.37377000  0.11245000  1.0 0.1372622922
H  H249  1  0.62623000  0.88066000  0.11245000  1.0 0.1372622922
H  H250  1  0.88066000  0.25443000  0.61245000  1.0 0.1372622922
H  H251  1  0.74557000  0.62623000  0.61245000  1.0 0.1372622922
H  H252  1  0.37377000  0.11934000  0.61245000  1.0 0.1372622922
H  H253  1  0.12730000  0.72436000  0.03551000  1.0 0.130760762
H  H254  1  0.27564000  0.40294000  0.03551000  1.0 0.130760762
H  H255  1  0.59706000  0.87270000  0.03551000  1.0 0.130760762
H  H256  1  0.87270000  0.27564000  0.53551000  1.0 0.130760762
H  H257  1  0.72436000  0.59706000  0.53551000  1.0 0.130760762
H  H258  1  0.40294000  0.12730000  0.53551000  1.0 0.130760762
H  H259  1  0.36067000  0.92376000  0.13318000  1.0 0.130760762
H  H260  1  0.07624000  0.43691000  0.13318000  1.0 0.130760762
H  H261  1  0.56309000  0.63933000  0.13318000  1.0 0.130760762
H  H262  1  0.63933000  0.07624000  0.63318000  1.0 0.130760762
H  H263  1  0.92376000  0.56309000  0.63318000  1.0 0.130760762
H  H264  1  0.43691000  0.36067000  0.63318000  1.0 0.130760762
H  H265  1  0.94882000  0.15825000  0.45950000  1.0 0.1208337186
H  H266  1  0.84175000  0.79057000  0.45950000  1.0 0.1208337186
H  H267  1  0.20943000  0.05118000  0.45950000  1.0 0.1208337186
H  H268  1  0.05118000  0.84175000  0.95950000  1.0 0.1208337186
H  H269  1  0.15825000  0.20943000  0.95950000  1.0 0.1208337186
H  H270  1  0.79057000  0.94882000  0.95950000  1.0 0.1208337186
H  H271  1  0.05264000  0.14941000  0.46330000  1.0 0.1208337186
H  H272  1  0.85059000  0.90323000  0.46330000  1.0 0.1208337186
H  H273  1  0.09677000  0.94736000  0.46330000  1.0 0.1208337186
H  H274  1  0.94736000  0.85059000  0.96330000  1.0 0.1208337186
H  H275  1  0.14941000  0.09677000  0.96330000  1.0 0.1208337186
H  H276  1  0.90323000  0.05264000  0.96330000  1.0 0.1208337186
H  H277  1  0.39798000  0.96691000  0.20146000  1.0 0.1132874954
H  H278  1  0.03309000  0.43107000  0.20146000  1.0 0.1132874954
H  H279  1  0.56893000  0.60202000  0.20146000  1.0 0.1132874954
H  H280  1  0.60202000  0.03309000  0.70146000  1.0 0.1132874954
H  H281  1  0.96691000  0.56893000  0.70146000  1.0 0.1132874954
H  H282  1  0.43107000  0.39798000  0.70146000  1.0 0.1132874954
C  C1  1  0.16690000  0.67160000  0.65065000  1.0 -0.0180804078
C  C2  1  0.32840000  0.49530000  0.65065000  1.0 -0.0180804078
C  C3  1  0.50470000  0.83310000  0.65065000  1.0 -0.0180804078
C  C4  1  0.83310000  0.32840000  0.15065000  1.0 -0.0180804078
C  C5  1  0.67160000  0.50470000  0.15065000  1.0 -0.0180804078
C  C6  1  0.49530000  0.16690000  0.15065000  1.0 -0.0180804078
C  C7  1  0.03310000  0.54450000  0.38652000  1.0 0.59158417
C  C8  1  0.45550000  0.48860000  0.38652000  1.0 0.59158417
C  C9  1  0.51140000  0.96690000  0.38652000  1.0 0.59158417
C  C10  1  0.96690000  0.45550000  0.88652000  1.0 0.59158417
C  C11  1  0.54450000  0.51140000  0.88652000  1.0 0.59158417
C  C12  1  0.48860000  0.03310000  0.88652000  1.0 0.59158417
C  C13  1  0.21350000  0.68790000  0.68730000  1.0 0.2498597341
C  C14  1  0.31210000  0.52560000  0.68730000  1.0 0.2498597341
C  C15  1  0.47440000  0.78650000  0.68730000  1.0 0.2498597341
C  C16  1  0.78650000  0.31210000  0.18730000  1.0 0.2498597341
C  C17  1  0.68790000  0.47440000  0.18730000  1.0 0.2498597341
C  C18  1  0.52560000  0.21350000  0.18730000  1.0 0.2498597341
C  C19  1  0.33030000  0.31830000  0.47620000  1.0 0.6117754851
C  C20  1  0.68170000  0.01200000  0.47620000  1.0 0.6117754851
C  C21  1  0.98800000  0.66970000  0.47620000  1.0 0.6117754851
C  C22  1  0.66970000  0.68170000  0.97620000  1.0 0.6117754851
C  C23  1  0.31830000  0.98800000  0.97620000  1.0 0.6117754851
C  C24  1  0.01200000  0.33030000  0.97620000  1.0 0.6117754851
C  C25  1  0.91970000  0.44910000  0.53439000  1.0 0.59158417
C  C26  1  0.55090000  0.47060000  0.53439000  1.0 0.59158417
C  C27  1  0.52940000  0.08030000  0.53439000  1.0 0.59158417
C  C28  1  0.08030000  0.55090000  0.03439000  1.0 0.59158417
C  C29  1  0.44910000  0.52940000  0.03439000  1.0 0.59158417
C  C30  1  0.47060000  0.91970000  0.03439000  1.0 0.59158417
C  C31  1  0.15650000  0.60900000  0.62011000  1.0 -0.2422888428
C  C32  1  0.39100000  0.54750000  0.62011000  1.0 -0.2422888428
C  C33  1  0.45250000  0.84350000  0.62011000  1.0 -0.2422888428
C  C34  1  0.84350000  0.39100000  0.12011000  1.0 -0.2422888428
C  C35  1  0.60900000  0.45250000  0.12011000  1.0 -0.2422888428
C  C36  1  0.54750000  0.15650000  0.12011000  1.0 -0.2422888428
C  C37  1  0.17390000  0.49850000  0.34044000  1.0 0.0620178496
C  C38  1  0.50150000  0.67540000  0.34044000  1.0 0.0620178496
C  C39  1  0.32460000  0.82610000  0.34044000  1.0 0.0620178496
C  C40  1  0.82610000  0.50150000  0.84044000  1.0 0.0620178496
C  C41  1  0.49850000  0.32460000  0.84044000  1.0 0.0620178496
C  C42  1  0.67540000  0.17390000  0.84044000  1.0 0.0620178496
C  C43  1  0.18050000  0.49220000  0.42053000  1.0 -0.0275529647
C  C44  1  0.50780000  0.68830000  0.42053000  1.0 -0.0275529647
C  C45  1  0.31170000  0.81950000  0.42053000  1.0 -0.0275529647
C  C46  1  0.81950000  0.50780000  0.92053000  1.0 -0.0275529647
C  C47  1  0.49220000  0.31170000  0.92053000  1.0 -0.0275529647
C  C48  1  0.68830000  0.18050000  0.92053000  1.0 -0.0275529647
C  C49  1  0.96230000  0.46890000  0.57611000  1.0 -0.1699654485
C  C50  1  0.53110000  0.49340000  0.57611000  1.0 -0.1699654485
C  C51  1  0.50660000  0.03770000  0.57611000  1.0 -0.1699654485
C  C52  1  0.03770000  0.53110000  0.07611000  1.0 -0.1699654485
C  C53  1  0.46890000  0.50660000  0.07611000  1.0 -0.1699654485
C  C54  1  0.49340000  0.96230000  0.07611000  1.0 -0.1699654485
C  C55  1  0.12720000  0.51470000  0.42333000  1.0 0.2424540469
C  C56  1  0.48530000  0.61250000  0.42333000  1.0 0.2424540469
C  C57  1  0.38750000  0.87280000  0.42333000  1.0 0.2424540469
C  C58  1  0.87280000  0.48530000  0.92333000  1.0 0.2424540469
C  C59  1  0.51470000  0.38750000  0.92333000  1.0 0.2424540469
C  C60  1  0.61250000  0.12720000  0.92333000  1.0 0.2424540469
C  C61  1  0.26740000  0.39610000  0.47081000  1.0 0.2498597341
C  C62  1  0.60390000  0.87130000  0.47081000  1.0 0.2498597341
C  C63  1  0.12870000  0.73260000  0.47081000  1.0 0.2498597341
C  C64  1  0.73260000  0.60390000  0.97081000  1.0 0.2498597341
C  C65  1  0.39610000  0.12870000  0.97081000  1.0 0.2498597341
C  C66  1  0.87130000  0.26740000  0.97081000  1.0 0.2498597341
C  C67  1  0.13140000  0.71340000  0.64300000  1.0 0.0409040203
C  C68  1  0.28660000  0.41800000  0.64300000  1.0 0.0409040203
C  C69  1  0.58200000  0.86860000  0.64300000  1.0 0.0409040203
C  C70  1  0.86860000  0.28660000  0.14300000  1.0 0.0409040203
C  C71  1  0.71340000  0.58200000  0.14300000  1.0 0.0409040203
C  C72  1  0.41800000  0.13140000  0.14300000  1.0 0.0409040203
C  C73  1  0.26260000  0.75490000  0.75987000  1.0 0.59158417
C  C74  1  0.24510000  0.50770000  0.75987000  1.0 0.59158417
C  C75  1  0.49230000  0.73740000  0.75987000  1.0 0.59158417
C  C76  1  0.73740000  0.24510000  0.25987000  1.0 0.59158417
C  C77  1  0.75490000  0.49230000  0.25987000  1.0 0.59158417
C  C78  1  0.50770000  0.26260000  0.25987000  1.0 0.59158417
C  C79  1  0.20700000  0.48650000  0.37871000  1.0 0.0502829663
C  C80  1  0.51350000  0.72050000  0.37871000  1.0 0.0502829663
C  C81  1  0.27950000  0.79300000  0.37871000  1.0 0.0502829663
C  C82  1  0.79300000  0.51350000  0.87871000  1.0 0.0502829663
C  C83  1  0.48650000  0.27950000  0.87871000  1.0 0.0502829663
C  C84  1  0.72050000  0.20700000  0.87871000  1.0 0.0502829663
C  C85  1  0.21950000  0.74070000  0.71875000  1.0 -0.1699654485
C  C86  1  0.25930000  0.47880000  0.71875000  1.0 -0.1699654485
C  C87  1  0.52120000  0.78050000  0.71875000  1.0 -0.1699654485
C  C88  1  0.78050000  0.25930000  0.21875000  1.0 -0.1699654485
C  C89  1  0.74070000  0.52120000  0.21875000  1.0 -0.1699654485
C  C90  1  0.47880000  0.21950000  0.21875000  1.0 -0.1699654485
C  C91  1  0.20340000  0.40140000  0.46556000  1.0 -0.0275529647
C  C92  1  0.59860000  0.80200000  0.46556000  1.0 -0.0275529647
C  C93  1  0.19800000  0.79660000  0.46556000  1.0 -0.0275529647
C  C94  1  0.79660000  0.59860000  0.96556000  1.0 -0.0275529647
C  C95  1  0.40140000  0.19800000  0.96556000  1.0 -0.0275529647
C  C96  1  0.80200000  0.20340000  0.96556000  1.0 -0.0275529647
C  C97  1  0.03820000  0.52650000  0.57899000  1.0 0.232895784
C  C98  1  0.47350000  0.51170000  0.57899000  1.0 0.232895784
C  C99  1  0.48830000  0.96180000  0.57899000  1.0 0.232895784
C  C100  1  0.96180000  0.47350000  0.07899000  1.0 0.232895784
C  C101  1  0.52650000  0.48830000  0.07899000  1.0 0.232895784
C  C102  1  0.51170000  0.03820000  0.07899000  1.0 0.232895784
C  C103  1  0.09440000  0.52620000  0.38515000  1.0 -0.1610859062
C  C104  1  0.47380000  0.56820000  0.38515000  1.0 -0.1610859062
C  C105  1  0.43180000  0.90560000  0.38515000  1.0 -0.1610859062
C  C106  1  0.90560000  0.47380000  0.88515000  1.0 -0.1610859062
C  C107  1  0.52620000  0.43180000  0.88515000  1.0 -0.1610859062
C  C108  1  0.56820000  0.09440000  0.88515000  1.0 -0.1610859062
C  C109  1  0.11770000  0.51660000  0.34514000  1.0 -0.1493933557
C  C110  1  0.48340000  0.60110000  0.34514000  1.0 -0.1493933557
C  C111  1  0.39890000  0.88230000  0.34514000  1.0 -0.1493933557
C  C112  1  0.88230000  0.48340000  0.84514000  1.0 -0.1493933557
C  C113  1  0.51660000  0.39890000  0.84514000  1.0 -0.1493933557
C  C114  1  0.60110000  0.11770000  0.84514000  1.0 -0.1493933557
C  C115  1  0.21130000  0.47770000  0.46203000  1.0 -0.2485687584
C  C116  1  0.52230000  0.73360000  0.46203000  1.0 -0.2485687584
C  C117  1  0.26640000  0.78870000  0.46203000  1.0 -0.2485687584
C  C118  1  0.78870000  0.52230000  0.96203000  1.0 -0.2485687584
C  C119  1  0.47770000  0.26640000  0.96203000  1.0 -0.2485687584
C  C120  1  0.73360000  0.21130000  0.96203000  1.0 -0.2485687584
C  C121  1  0.26300000  0.32480000  0.47082000  1.0 -0.1610859062
C  C122  1  0.67520000  0.93820000  0.47082000  1.0 -0.1610859062
C  C123  1  0.06180000  0.73700000  0.47082000  1.0 -0.1610859062
C  C124  1  0.73700000  0.67520000  0.97082000  1.0 -0.1610859062
C  C125  1  0.32480000  0.06180000  0.97082000  1.0 -0.1610859062
C  C126  1  0.93820000  0.26300000  0.97082000  1.0 -0.1610859062
C  C127  1  0.96310000  0.44540000  0.65385000  1.0 0.0502829663
C  C128  1  0.55460000  0.51770000  0.65385000  1.0 0.0502829663
C  C129  1  0.48230000  0.03690000  0.65385000  1.0 0.0502829663
C  C130  1  0.03690000  0.55460000  0.15385000  1.0 0.0502829663
C  C131  1  0.44540000  0.48230000  0.15385000  1.0 0.0502829663
C  C132  1  0.51770000  0.96310000  0.15385000  1.0 0.0502829663
C  C133  1  0.03930000  0.50000000  0.65605000  1.0 0.0409040203
C  C134  1  0.50000000  0.53930000  0.65605000  1.0 0.0409040203
C  C135  1  0.46070000  0.96070000  0.65605000  1.0 0.0409040203
C  C136  1  0.96070000  0.50000000  0.15605000  1.0 0.0409040203
C  C137  1  0.50000000  0.46070000  0.15605000  1.0 0.0409040203
C  C138  1  0.53930000  0.03930000  0.15605000  1.0 0.0409040203
C  C139  1  0.07650000  0.54440000  0.61826000  1.0 -0.0275529647
C  C140  1  0.45560000  0.53210000  0.61826000  1.0 -0.0275529647
C  C141  1  0.46790000  0.92350000  0.61826000  1.0 -0.0275529647
C  C142  1  0.92350000  0.45560000  0.11826000  1.0 -0.0275529647
C  C143  1  0.54440000  0.46790000  0.11826000  1.0 -0.0275529647
C  C144  1  0.53210000  0.07650000  0.11826000  1.0 -0.0275529647
C  C145  1  0.17890000  0.77750000  0.71240000  1.0 -0.1493933557
C  C146  1  0.22250000  0.40140000  0.71240000  1.0 -0.1493933557
C  C147  1  0.59860000  0.82110000  0.71240000  1.0 -0.1493933557
C  C148  1  0.82110000  0.22250000  0.21240000  1.0 -0.1493933557
C  C149  1  0.77750000  0.59860000  0.21240000  1.0 -0.1493933557
C  C150  1  0.40140000  0.17890000  0.21240000  1.0 -0.1493933557
C  C151  1  0.44700000  0.09550000  0.41509000  1.0 -0.0814018155
C  C152  1  0.90450000  0.35150000  0.41509000  1.0 -0.0900418461
C  C153  1  0.64850000  0.55300000  0.41509000  1.0 -0.0814018155
C  C154  1  0.55300000  0.90450000  0.91509000  1.0 -0.0814018155
C  C155  1  0.09550000  0.64850000  0.91509000  1.0 -0.0814018155
C  C156  1  0.35150000  0.44700000  0.91509000  1.0 -0.0814018155
C  C157  1  0.07760000  0.51060000  0.69659000  1.0 -0.1305606942
C  C158  1  0.48940000  0.56700000  0.69659000  1.0 -0.1305606942
C  C159  1  0.43300000  0.92240000  0.69659000  1.0 -0.1305606942
C  C160  1  0.92240000  0.48940000  0.19659000  1.0 -0.1305606942
C  C161  1  0.51060000  0.43300000  0.19659000  1.0 -0.1305606942
C  C162  1  0.56700000  0.07760000  0.19659000  1.0 -0.1305606942
C  C163  1  0.26980000  0.85860000  0.06860000  1.0 0.1208337186
C  C164  1  0.14140000  0.41120000  0.06860000  1.0 0.1208337186
C  C165  1  0.58880000  0.73020000  0.06860000  1.0 0.1208337186
C  C166  1  0.73020000  0.14140000  0.56860000  1.0 0.1208337186
C  C167  1  0.85860000  0.58880000  0.56860000  1.0 0.1208337186
C  C168  1  0.41120000  0.26980000  0.56860000  1.0 0.1208337186
C  C169  1  0.37150000  0.05730000  0.34795000  1.0 0.1621434018
C  C170  1  0.94270000  0.31420000  0.34795000  1.0 0.1621434018
C  C171  1  0.68580000  0.62850000  0.34795000  1.0 0.1621434018
C  C172  1  0.62850000  0.94270000  0.84795000  1.0 0.1621434018
C  C173  1  0.05730000  0.68580000  0.84795000  1.0 0.1621434018
C  C174  1  0.31420000  0.37150000  0.84795000  1.0 0.1621434018
C  C175  1  0.29690000  0.00280000  0.34274000  1.0 -0.1699654485
C  C176  1  0.99720000  0.29410000  0.34274000  1.0 -0.1699654485
C  C177  1  0.70590000  0.70310000  0.34274000  1.0 -0.1699654485
C  C178  1  0.70310000  0.99720000  0.84274000  1.0 -0.1699654485
C  C179  1  0.00280000  0.70590000  0.84274000  1.0 -0.1699654485
C  C180  1  0.29410000  0.29690000  0.84274000  1.0 -0.1699654485
C  C181  1  0.27280000  0.96370000  0.30380000  1.0 -0.1191007428
C  C182  1  0.03630000  0.30910000  0.30380000  1.0 -0.1191007428
C  C183  1  0.69090000  0.72720000  0.30380000  1.0 -0.1191007428
C  C184  1  0.72720000  0.03630000  0.80380000  1.0 -0.1191007428
C  C185  1  0.96370000  0.69090000  0.80380000  1.0 -0.1191007428
C  C186  1  0.30910000  0.27280000  0.80380000  1.0 -0.1191007428
C  C187  1  0.32330000  0.97900000  0.26999000  1.0 0.0620178496
C  C188  1  0.02100000  0.34430000  0.26999000  1.0 0.0620178496
C  C189  1  0.65570000  0.67670000  0.26999000  1.0 0.0620178496
C  C190  1  0.67670000  0.02100000  0.76999000  1.0 0.0620178496
C  C191  1  0.97900000  0.65570000  0.76999000  1.0 0.0620178496
C  C192  1  0.34430000  0.32330000  0.76999000  1.0 0.0620178496
C  C193  1  0.39780000  0.03350000  0.27520000  1.0 -0.1191007428
C  C194  1  0.96650000  0.36430000  0.27520000  1.0 -0.1191007428
C  C195  1  0.63570000  0.60220000  0.27520000  1.0 -0.1191007428
C  C196  1  0.60220000  0.96650000  0.77520000  1.0 -0.1191007428
C  C197  1  0.03350000  0.63570000  0.77520000  1.0 -0.1191007428
C  C198  1  0.36430000  0.39780000  0.77520000  1.0 -0.1191007428
C  C199  1  0.42190000  0.07270000  0.31418000  1.0 -0.1430159007
C  C200  1  0.92730000  0.34920000  0.31418000  1.0 -0.1430159007
C  C201  1  0.65080000  0.57810000  0.31418000  1.0 -0.1430159007
C  C202  1  0.57810000  0.92730000  0.81418000  1.0 -0.1430159007
C  C203  1  0.07270000  0.65080000  0.81418000  1.0 -0.1430159007
C  C204  1  0.34920000  0.42190000  0.81418000  1.0 -0.1430159007
C  C205  1  0.92540000  0.43010000  0.61327000  1.0 -0.1699654485
C  C206  1  0.56990000  0.49530000  0.61327000  1.0 -0.1699654485
C  C207  1  0.50470000  0.07460000  0.61327000  1.0 -0.1699654485
C  C208  1  0.07460000  0.56990000  0.11327000  1.0 -0.1755077467
C  C209  1  0.43010000  0.50470000  0.11327000  1.0 -0.1755077467
C  C210  1  0.49530000  0.92540000  0.11327000  1.0 -0.1755077467
C  C211  1  0.13610000  0.76630000  0.67530000  1.0 0.0620178496
C  C212  1  0.23370000  0.36980000  0.67530000  1.0 0.0620178496
C  C213  1  0.63020000  0.86390000  0.67530000  1.0 0.0620178496
C  C214  1  0.86390000  0.23370000  0.17530000  1.0 0.0620178496
C  C215  1  0.76630000  0.63020000  0.17530000  1.0 0.0620178496
C  C216  1  0.36980000  0.13610000  0.17530000  1.0 0.0620178496
C  C217  1  0.08910000  0.70640000  0.60500000  1.0 -0.1305606942
C  C218  1  0.29360000  0.38270000  0.60500000  1.0 -0.1305606942
C  C219  1  0.61730000  0.91090000  0.60500000  1.0 -0.1305606942
C  C220  1  0.91090000  0.29360000  0.10500000  1.0 -0.1305606942
C  C221  1  0.70640000  0.61730000  0.10500000  1.0 -0.1305606942
C  C222  1  0.38270000  0.08910000  0.10500000  1.0 -0.1305606942
C  C223  1  0.38460000  0.15210000  0.40133000  1.0 0.0801759585
C  C224  1  0.84790000  0.23250000  0.40133000  1.0 0.0801759585
C  C225  1  0.76750000  0.61540000  0.40133000  1.0 0.0801759585
C  C226  1  0.61540000  0.84790000  0.90133000  1.0 0.0801759585
C  C227  1  0.15210000  0.76750000  0.90133000  1.0 0.0801759585
C  C228  1  0.23250000  0.38460000  0.90133000  1.0 0.0801759585
C  C229  1  0.29750000  0.93950000  0.22651000  1.0 0.0681361779
C  C230  1  0.06050000  0.35800000  0.22651000  1.0 0.0681361779
C  C231  1  0.64200000  0.70250000  0.22651000  1.0 0.0681361779
C  C232  1  0.70250000  0.06050000  0.72651000  1.0 0.0681361779
C  C233  1  0.93950000  0.64200000  0.72651000  1.0 0.0681361779
C  C234  1  0.35800000  0.29750000  0.72651000  1.0 0.0681361779
C  C235  1  0.05450000  0.74780000  0.59950000  1.0 -0.1020821967
C  C236  1  0.25220000  0.30670000  0.59950000  1.0 -0.1020821967
C  C237  1  0.69330000  0.94550000  0.59950000  1.0 -0.1020821967
C  C238  1  0.94550000  0.25220000  0.09950000  1.0 -0.1020821967
C  C239  1  0.74780000  0.69330000  0.09950000  1.0 -0.1020821967
C  C240  1  0.30670000  0.05450000  0.09950000  1.0 -0.1020821967
C  C241  1  0.46070000  0.14550000  0.44704000  1.0 -0.0461429544
C  C242  1  0.85450000  0.31520000  0.44704000  1.0 -0.0461429544
C  C243  1  0.68480000  0.53930000  0.44704000  1.0 -0.0461429544
C  C244  1  0.53930000  0.85450000  0.94704000  1.0 -0.0461429544
C  C245  1  0.14550000  0.68480000  0.94704000  1.0 -0.0461429544
C  C246  1  0.31520000  0.46070000  0.94704000  1.0 -0.0461429544
C  C247  1  0.13320000  0.33500000  0.46470000  1.0 0.0502829663
C  C248  1  0.66500000  0.79820000  0.46470000  1.0 0.0502829663
C  C249  1  0.20180000  0.86680000  0.46470000  1.0 0.0502829663
C  C250  1  0.86680000  0.66500000  0.96470000  1.0 0.0502829663
C  C251  1  0.33500000  0.20180000  0.96470000  1.0 0.0502829663
C  C252  1  0.79820000  0.13320000  0.96470000  1.0 0.0502829663
C  C253  1  0.26660000  0.47200000  0.37290000  1.0 -0.1191007428
C  C254  1  0.52800000  0.79460000  0.37290000  1.0 -0.1191007428
C  C255  1  0.20540000  0.73340000  0.37290000  1.0 -0.1191007428
C  C256  1  0.73340000  0.52800000  0.87290000  1.0 -0.1191007428
C  C257  1  0.47200000  0.20540000  0.87290000  1.0 -0.1191007428
C  C258  1  0.79460000  0.26660000  0.87290000  1.0 -0.1191007428
C  C259  1  0.19930000  0.49130000  0.29853000  1.0 -0.1430159007
C  C260  1  0.50870000  0.70800000  0.29853000  1.0 -0.1430159007
C  C261  1  0.29200000  0.80070000  0.29853000  1.0 -0.1430159007
C  C262  1  0.80070000  0.50870000  0.79853000  1.0 -0.1430159007
C  C263  1  0.49130000  0.29200000  0.79853000  1.0 -0.1430159007
C  C264  1  0.70800000  0.19930000  0.79853000  1.0 -0.1430159007
C  C265  1  0.25230000  0.86700000  0.14670000  1.0 0.1490944524
C  C266  1  0.13300000  0.38530000  0.14670000  1.0 0.1490944524
C  C267  1  0.61470000  0.74770000  0.14670000  1.0 0.1490944524
C  C268  1  0.74770000  0.13300000  0.64670000  1.0 0.1490944524
C  C269  1  0.86700000  0.61470000  0.64670000  1.0 0.1490944524
C  C270  1  0.38530000  0.25230000  0.64670000  1.0 0.1490944524
C  C271  1  0.19510000  0.26100000  0.46630000  1.0 -0.1430159007
C  C272  1  0.73900000  0.93410000  0.46630000  1.0 -0.1430159007
C  C273  1  0.06590000  0.80490000  0.46630000  1.0 -0.1430159007
C  C274  1  0.80490000  0.73900000  0.96630000  1.0 -0.1430159007
C  C275  1  0.26100000  0.06590000  0.96630000  1.0 -0.1430159007
C  C276  1  0.93410000  0.19510000  0.96630000  1.0 -0.1430159007
C  C277  1  0.03850000  0.46870000  0.73274000  1.0 -0.0814018155
C  C278  1  0.53130000  0.56980000  0.73274000  1.0 -0.0814018155
C  C279  1  0.43020000  0.96150000  0.73274000  1.0 -0.0814018155
C  C280  1  0.96150000  0.53130000  0.23274000  1.0 -0.0814018155
C  C281  1  0.46870000  0.43020000  0.23274000  1.0 -0.0814018155
C  C282  1  0.56980000  0.03850000  0.23274000  1.0 -0.0814018155
C  C283  1  0.28910000  0.46540000  0.33170000  1.0 -0.0900418461
C  C284  1  0.53460000  0.82370000  0.33170000  1.0 -0.0900418461
C  C285  1  0.17630000  0.71090000  0.33170000  1.0 -0.0900418461
C  C286  1  0.71090000  0.53460000  0.83170000  1.0 -0.0900418461
C  C287  1  0.46540000  0.17630000  0.83170000  1.0 -0.0900418461
C  C288  1  0.82370000  0.28910000  0.83170000  1.0 -0.0900418461
C  C289  1  0.06510000  0.33680000  0.46630000  1.0 -0.1305606942
C  C290  1  0.66320000  0.72830000  0.46630000  1.0 -0.1305606942
C  C291  1  0.27170000  0.93490000  0.46630000  1.0 -0.1305606942
C  C292  1  0.93490000  0.66320000  0.96630000  1.0 -0.1305606942
C  C293  1  0.33680000  0.27170000  0.96630000  1.0 -0.1305606942
C  C294  1  0.72830000  0.06510000  0.96630000  1.0 -0.1305606942
C  C295  1  0.99880000  0.27200000  0.46580000  1.0 -0.0900418461
C  C296  1  0.72800000  0.72680000  0.46580000  1.0 -0.0900418461
C  C297  1  0.27320000  0.00120000  0.46580000  1.0 -0.0900418461
C  C298  1  0.00120000  0.72800000  0.96580000  1.0 -0.0900418461
C  C299  1  0.27200000  0.27320000  0.96580000  1.0 -0.0900418461
C  C300  1  0.72680000  0.99880000  0.96580000  1.0 -0.0900418461
C  C301  1  0.25630000  0.47640000  0.29440000  1.0 -0.1069567751
C  C302  1  0.52360000  0.77990000  0.29440000  1.0 -0.1069567751
C  C303  1  0.22010000  0.74370000  0.29440000  1.0 -0.1069567751
C  C304  1  0.74370000  0.52360000  0.79440000  1.0 -0.1069567751
C  C305  1  0.47640000  0.22010000  0.79440000  1.0 -0.1069567751
C  C306  1  0.77990000  0.25630000  0.79440000  1.0 -0.1069567751
C  C307  1  0.09620000  0.80530000  0.66860000  1.0 -0.1430159007
C  C308  1  0.19470000  0.29090000  0.66860000  1.0 -0.1430159007
C  C309  1  0.70910000  0.90380000  0.66860000  1.0 -0.1430159007
C  C310  1  0.90380000  0.19470000  0.16860000  1.0 -0.1430159007
C  C311  1  0.80530000  0.70910000  0.16860000  1.0 -0.1430159007
C  C312  1  0.29090000  0.09620000  0.16860000  1.0 -0.1430159007
C  C313  1  0.96170000  0.41660000  0.73080000  1.0 -0.1020821967
C  C314  1  0.58340000  0.54510000  0.73080000  1.0 -0.1020821967
C  C315  1  0.45490000  0.03830000  0.73080000  1.0 -0.1020821967
C  C316  1  0.03830000  0.58340000  0.23080000  1.0 -0.1020821967
C  C317  1  0.41660000  0.45490000  0.23080000  1.0 -0.1020821967
C  C318  1  0.54510000  0.96170000  0.23080000  1.0 -0.1020821967
C  C319  1  0.92470000  0.40430000  0.69210000  1.0 -0.1610859062
C  C320  1  0.59570000  0.52040000  0.69210000  1.0 -0.1610859062
C  C321  1  0.47960000  0.07530000  0.69210000  1.0 -0.1610859062
C  C322  1  0.07530000  0.59570000  0.19210000  1.0 -0.1610859062
C  C323  1  0.40430000  0.47960000  0.19210000  1.0 -0.1610859062
C  C324  1  0.52040000  0.92470000  0.19210000  1.0 -0.1610859062
C  C325  1  0.05780000  0.79700000  0.63140000  1.0 -0.1020821967
C  C326  1  0.20300000  0.26080000  0.63140000  1.0 -0.1020821967
C  C327  1  0.73920000  0.94220000  0.63140000  1.0 -0.1020821967
C  C328  1  0.94220000  0.20300000  0.13140000  1.0 -0.1020821967
C  C329  1  0.79700000  0.73920000  0.13140000  1.0 -0.1020821967
C  C330  1  0.26080000  0.05780000  0.13140000  1.0 -0.1020821967
C  C331  1  0.22250000  0.89440000  0.21750000  1.0 -0.1305606942
C  C332  1  0.10560000  0.32810000  0.21750000  1.0 -0.1305606942
C  C333  1  0.67190000  0.77750000  0.21750000  1.0 -0.1305606942
C  C334  1  0.77750000  0.10560000  0.71750000  1.0 -0.1305606942
C  C335  1  0.89440000  0.67190000  0.71750000  1.0 -0.1305606942
C  C336  1  0.32810000  0.22250000  0.71750000  1.0 -0.1305606942
C  C337  1  0.19830000  0.85880000  0.17730000  1.0 -0.1699654485
C  C338  1  0.14120000  0.33950000  0.17730000  1.0 -0.1699654485
C  C339  1  0.66050000  0.80170000  0.17730000  1.0 -0.1699654485
C  C340  1  0.80170000  0.14120000  0.67730000  1.0 -0.1699654485
C  C341  1  0.85880000  0.66050000  0.67730000  1.0 -0.1699654485
C  C342  1  0.33950000  0.19830000  0.67730000  1.0 -0.1699654485
C  C343  1  0.12910000  0.26360000  0.46470000  1.0 0.0620178496
C  C344  1  0.73640000  0.86550000  0.46470000  1.0 0.0620178496
C  C345  1  0.13450000  0.87090000  0.46470000  1.0 0.0620178496
C  C346  1  0.87090000  0.73640000  0.96470000  1.0 0.0620178496
C  C347  1  0.26360000  0.13450000  0.96470000  1.0 0.0620178496
C  C348  1  0.86550000  0.12910000  0.96470000  1.0 0.0620178496
C  C349  1  0.16000000  0.77260000  0.09410000  1.0 -0.1191007428
C  C350  1  0.22740000  0.38740000  0.09410000  1.0 -0.1191007428
C  C351  1  0.61260000  0.84000000  0.09410000  1.0 -0.1191007428
C  C352  1  0.84000000  0.22740000  0.59410000  1.0 -0.1191007428
C  C353  1  0.77260000  0.61260000  0.59410000  1.0 -0.1191007428
C  C354  1  0.38740000  0.16000000  0.59410000  1.0 -0.1191007428
C  C355  1  0.16540000  0.76200000  0.05190000  1.0 -0.0180804078
C  C356  1  0.23800000  0.40340000  0.05190000  1.0 -0.0180804078
C  C357  1  0.59660000  0.83460000  0.05190000  1.0 -0.0180804078
C  C358  1  0.83460000  0.23800000  0.55190000  1.0 -0.0180804078
C  C359  1  0.76200000  0.59660000  0.55190000  1.0 -0.0180804078
C  C360  1  0.40340000  0.16540000  0.55190000  1.0 -0.0180804078
C  C361  1  0.32540000  0.91290000  0.15500000  1.0 -0.1493933557
C  C362  1  0.08710000  0.41250000  0.15500000  1.0 -0.1493933557
C  C363  1  0.58750000  0.67460000  0.15500000  1.0 -0.1493933557
C  C364  1  0.67460000  0.08710000  0.65500000  1.0 -0.1493933557
C  C365  1  0.91290000  0.58750000  0.65500000  1.0 -0.1493933557
C  C366  1  0.41250000  0.32540000  0.65500000  1.0 -0.1493933557
C  C367  1  0.99510000  0.20140000  0.46240000  1.0 -0.1020821967
C  C368  1  0.79860000  0.79370000  0.46240000  1.0 -0.1020821967
C  C369  1  0.20630000  0.00490000  0.46240000  1.0 -0.1020821967
C  C370  1  0.00490000  0.79860000  0.96240000  1.0 -0.1020821967
C  C371  1  0.20140000  0.20630000  0.96240000  1.0 -0.1020821967
C  C372  1  0.79370000  0.99510000  0.96240000  1.0 -0.1020821967
C  C373  1  0.05620000  0.19610000  0.46340000  1.0 -0.1305606942
C  C374  1  0.80390000  0.86010000  0.46340000  1.0 -0.1305606942
C  C375  1  0.13990000  0.94380000  0.46340000  1.0 -0.1305606942
C  C376  1  0.94380000  0.80390000  0.96340000  1.0 -0.1305606942
C  C377  1  0.19610000  0.13990000  0.96340000  1.0 -0.1305606942
C  C378  1  0.86010000  0.05620000  0.96340000  1.0 -0.1305606942
C  C379  1  0.34730000  0.94280000  0.19480000  1.0 -0.1191007428
C  C380  1  0.05720000  0.40450000  0.19480000  1.0 -0.1191007428
C  C381  1  0.59550000  0.65270000  0.19480000  1.0 -0.1191007428
C  C382  1  0.65270000  0.05720000  0.69480000  1.0 -0.1191007428
C  C383  1  0.94280000  0.59550000  0.69480000  1.0 -0.1191007428
C  C384  1  0.40450000  0.34730000  0.69480000  1.0 -0.1191007428
N  N1  1  0.66320000  0.41990000  0.35580000  1.0 -0.8106109665
N  N2  1  0.58010000  0.24330000  0.35580000  1.0 -0.8106109665
N  N3  1  0.75670000  0.33680000  0.35580000  1.0 -0.8106109665
N  N4  1  0.33680000  0.58010000  0.85580000  1.0 -0.8154440051
N  N5  1  0.41990000  0.75670000  0.85580000  1.0 -0.8154440051
N  N6  1  0.24330000  0.66320000  0.85580000  1.0 -0.8154440051
N  N7  1  0.66666667  0.33333333  0.44480000  1.0 -0.8106109665
N  N8  1  0.33333333  0.66666667  0.94480000  1.0 -0.8106109665
N  N9  1  0.42090000  0.18120000  0.43836000  1.0 -0.2932958529
N  N10  1  0.81880000  0.23970000  0.43836000  1.0 -0.2932958529
N  N11  1  0.76030000  0.57910000  0.43836000  1.0 -0.2932958529
N  N12  1  0.57910000  0.81880000  0.93836000  1.0 -0.2932958529
N  N13  1  0.18120000  0.76030000  0.93836000  1.0 -0.2932958529
N  N14  1  0.23970000  0.42090000  0.93836000  1.0 -0.2932958529
N  N15  1  0.39960000  0.10000000  0.38617000  1.0 0.0102286017
N  N16  1  0.90000000  0.29960000  0.38617000  1.0 0.0102286017
N  N17  1  0.70040000  0.60040000  0.38617000  1.0 0.0102286017
N  N18  1  0.60040000  0.90000000  0.88617000  1.0 0.0102286017
N  N19  1  0.10000000  0.70040000  0.88617000  1.0 0.0102286017
N  N20  1  0.29960000  0.39960000  0.88617000  1.0 0.0102286017
N  N21  1  0.51200000  0.35420000  0.44791000  1.0 -0.7913612351
N  N22  1  0.64580000  0.15780000  0.44791000  1.0 -0.7913612351
N  N23  1  0.84220000  0.48800000  0.44791000  1.0 -0.7913612351
N  N24  1  0.48800000  0.64580000  0.94791000  1.0 -0.7913612351
N  N25  1  0.35420000  0.84220000  0.94791000  1.0 -0.7913612351
N  N26  1  0.15780000  0.51200000  0.94791000  1.0 -0.7913612351
N  N27  1  0.23460000  0.81400000  0.03510000  1.0 -0.2932958529
N  N28  1  0.18600000  0.42060000  0.03510000  1.0 -0.2932958529
N  N29  1  0.57940000  0.76540000  0.03510000  1.0 -0.2932958529
N  N30  1  0.76540000  0.18600000  0.53510000  1.0 -0.2932958529
N  N31  1  0.81400000  0.57940000  0.53510000  1.0 -0.2932958529
N  N32  1  0.42060000  0.23460000  0.53510000  1.0 -0.2932958529
N  N33  1  0.22960000  0.83380000  0.10470000  1.0 0.0102286017
N  N34  1  0.16620000  0.39580000  0.10470000  1.0 0.0102286017
N  N35  1  0.60420000  0.77040000  0.10470000  1.0 0.0102286017
N  N36  1  0.77040000  0.16620000  0.60470000  1.0 0.0102286017
N  N37  1  0.83380000  0.60420000  0.60470000  1.0 0.0102286017
N  N38  1  0.39580000  0.22960000  0.60470000  1.0 0.0102286017
O  O1  1  0.50980000  0.36500000  0.35159000  1.0 -0.6700532164
O  O2  1  0.63500000  0.14480000  0.35159000  1.0 -0.6700532164
O  O3  1  0.85520000  0.49020000  0.35159000  1.0 -0.6700532164
O  O4  1  0.49020000  0.63500000  0.85159000  1.0 -0.6700532164
O  O5  1  0.36500000  0.85520000  0.85159000  1.0 -0.6700532164
O  O6  1  0.14480000  0.50980000  0.85159000  1.0 -0.6700532164
O  O7  1  0.95661000  0.47227000  0.49852000  1.0 -0.6306458258
O  O8  1  0.52773000  0.48434000  0.49852000  1.0 -0.6306458258
O  O9  1  0.51566000  0.04339000  0.49852000  1.0 -0.6306458258
O  O10  1  0.04339000  0.52773000  0.99852000  1.0 -0.6306458258
O  O11  1  0.47227000  0.51566000  0.99852000  1.0 -0.6306458258
O  O12  1  0.48434000  0.95661000  0.99852000  1.0 -0.6306458258
O  O13  1  0.00843000  0.55047000  0.42355000  1.0 -0.6105510121
O  O14  1  0.44953000  0.45796000  0.42355000  1.0 -0.6105510121
O  O15  1  0.54204000  0.99157000  0.42355000  1.0 -0.6105510121
O  O16  1  0.99157000  0.44953000  0.92355000  1.0 -0.6105510121
O  O17  1  0.55047000  0.54204000  0.92355000  1.0 -0.6105510121
O  O18  1  0.45796000  0.00843000  0.92355000  1.0 -0.6105510121
O  O19  1  0.38876000  0.37101000  0.49427000  1.0 -0.6192419073
O  O20  1  0.62899000  0.01775000  0.49427000  1.0 -0.6192419073
O  O21  1  0.98225000  0.61124000  0.49427000  1.0 -0.6192419073
O  O22  1  0.61124000  0.62899000  0.99427000  1.0 -0.6192419073
O  O23  1  0.37101000  0.98225000  0.99427000  1.0 -0.6192419073
O  O24  1  0.01775000  0.38876000  0.99427000  1.0 -0.6192419073
O  O25  1  0.33489000  0.45859000  0.47309000  1.0 -0.6192419073
O  O26  1  0.54141000  0.87630000  0.47309000  1.0 -0.6192419073
O  O27  1  0.12370000  0.66511000  0.47309000  1.0 -0.6192419073
O  O28  1  0.66511000  0.54141000  0.97309000  1.0 -0.6192419073
O  O29  1  0.45859000  0.12370000  0.97309000  1.0 -0.6192419073
O  O30  1  0.87630000  0.33489000  0.97309000  1.0 -0.6192419073
O  O31  1  0.10557000  0.52376000  0.46288000  1.0 -0.6192419073
O  O32  1  0.47624000  0.58181000  0.46288000  1.0 -0.6192419073
O  O33  1  0.41819000  0.89443000  0.46288000  1.0 -0.6192419073
O  O34  1  0.89443000  0.47624000  0.96288000  1.0 -0.6192419073
O  O35  1  0.52376000  0.41819000  0.96288000  1.0 -0.6192419073
O  O36  1  0.58181000  0.10557000  0.96288000  1.0 -0.6192419073
O  O37  1  0.25049000  0.65101000  0.69238000  1.0 -0.6105510121
O  O38  1  0.34899000  0.59948000  0.69238000  1.0 -0.6105510121
O  O39  1  0.40052000  0.74951000  0.69238000  1.0 -0.6105510121
O  O40  1  0.74951000  0.34899000  0.19238000  1.0 -0.6105510121
O  O41  1  0.65101000  0.40052000  0.19238000  1.0 -0.6105510121
O  O42  1  0.59948000  0.25049000  0.19238000  1.0 -0.6105510121
O  O43  1  0.07292000  0.56645000  0.54316000  1.0 -0.6306458258
O  O44  1  0.43355000  0.50647000  0.54316000  1.0 -0.6306458258
O  O45  1  0.49353000  0.92708000  0.54316000  1.0 -0.6306458258
O  O46  1  0.92708000  0.43355000  0.04316000  1.0 -0.6192419073
O  O47  1  0.56645000  0.49353000  0.04316000  1.0 -0.6306458258
O  O48  1  0.50647000  0.07292000  0.04316000  1.0 -0.6306458258
O  O49  1  0.30301000  0.72452000  0.76508000  1.0 -0.6192419073
O  O50  1  0.27548000  0.57849000  0.76508000  1.0 -0.6192419073
O  O51  1  0.42151000  0.69699000  0.76508000  1.0 -0.6192419073
O  O52  1  0.69699000  0.27548000  0.26508000  1.0 -0.6192419073
O  O53  1  0.72452000  0.42151000  0.26508000  1.0 -0.6192419073
O  O54  1  0.57849000  0.30301000  0.26508000  1.0 -0.6192419073
O  O55  1  0.00657000  0.55070000  0.35212000  1.0 -0.5128273055
O  O56  1  0.44930000  0.45587000  0.35212000  1.0 -0.5128273055
O  O57  1  0.54413000  0.99343000  0.35212000  1.0 -0.5128273055
O  O58  1  0.99343000  0.44930000  0.85212000  1.0 -0.5128273055
O  O59  1  0.55070000  0.54413000  0.85212000  1.0 -0.5128273055
O  O60  1  0.45587000  0.00657000  0.85212000  1.0 -0.5128273055
O  O61  1  0.32840000  0.25900000  0.46435000  1.0 -0.5128273055
O  O62  1  0.74100000  0.06940000  0.46435000  1.0 -0.5128273055
O  O63  1  0.93060000  0.67160000  0.46435000  1.0 -0.5128273055
O  O64  1  0.67160000  0.74100000  0.96435000  1.0 -0.5189823236
O  O65  1  0.25900000  0.93060000  0.96435000  1.0 -0.5189823236
O  O66  1  0.06940000  0.32840000  0.96435000  1.0 -0.5189823236
O  O67  1  0.85130000  0.40800000  0.53460000  1.0 -0.5128273055
O  O68  1  0.59200000  0.44330000  0.53460000  1.0 -0.5128273055
O  O69  1  0.55670000  0.14870000  0.53460000  1.0 -0.5128273055
O  O70  1  0.14870000  0.59200000  0.03460000  1.0 -0.5128273055
O  O71  1  0.40800000  0.55670000  0.03460000  1.0 -0.5128273055
O  O72  1  0.44330000  0.85130000  0.03460000  1.0 -0.5128273055
O  O73  1  0.25730000  0.79330000  0.78882000  1.0 -0.5189823236
O  O74  1  0.20670000  0.46400000  0.78882000  1.0 -0.5189823236
O  O75  1  0.53600000  0.74270000  0.78882000  1.0 -0.5189823236
O  O76  1  0.74270000  0.20670000  0.28882000  1.0 -0.5189823236
O  O77  1  0.79330000  0.53600000  0.28882000  1.0 -0.5189823236
O  O78  1  0.46400000  0.25730000  0.28882000  1.0 -0.5189823236
