# DDEC6 charges by PACMAN v1.1 (https://github.com/mtap-research/PACMAN-charge/)
data_UDOHUU_FSR_pacman
_symmetry_space_group_name_H-M   'P 1'
_cell_length_a   20.63910000
_cell_length_b   20.63910000
_cell_length_c   30.64010000
_cell_angle_alpha   90.00000000
_cell_angle_beta   90.00000000
_cell_angle_gamma   120.00000000
_symmetry_Int_Tables_number   1
_chemical_formula_structural   Ti4Zn4H141C192N19O39
_chemical_formula_sum   'Ti8 Zn8 H282 C384 N38 O78'
_cell_volume   11303.22364542
_cell_formula_units_Z   2
loop_
 _symmetry_equiv_pos_site_id
 _symmetry_equiv_pos_as_xyz
  1  'x, y, z'
loop_
 _atom_site_type_symbol
 _atom_site_label
 _atom_site_symmetry_multiplicity
 _atom_site_fract_x
 _atom_site_fract_y
 _atom_site_fract_z
 _atom_site_occupancy
 _atom_site_charge
Ti  Ti1  1  0.05120000  0.56675000  0.46090000  1.0 1.9086290958
Ti  Ti2  1  0.43325000  0.48445000  0.46090000  1.0 1.9086290958
Ti  Ti3  1  0.51555000  0.94880000  0.46090000  1.0 1.9086290958
Ti  Ti4  1  0.94880000  0.43325000  0.96090000  1.0 1.9086290958
Ti  Ti5  1  0.56675000  0.51555000  0.96090000  1.0 1.9086290958
Ti  Ti6  1  0.48445000  0.05120000  0.96090000  1.0 1.9086290958
Ti  Ti7  1  0.33333333  0.66666667  0.70196000  1.0 1.9035752577
Ti  Ti8  1  0.66666667  0.33333333  0.20196000  1.0 1.9035752577
Zn  Zn1  1  0.66666667  0.33333333  0.35527000  1.0 0.7476254118
Zn  Zn2  1  0.33333333  0.66666667  0.85527000  1.0 0.7476254118
Zn  Zn3  1  0.42856000  0.26416000  0.44798000  1.0 0.7476254118
Zn  Zn4  1  0.73584000  0.16440000  0.44798000  1.0 0.7476254118
Zn  Zn5  1  0.83560000  0.57144000  0.44798000  1.0 0.7476254118
Zn  Zn6  1  0.57144000  0.73584000  0.94798000  1.0 0.7476254118
Zn  Zn7  1  0.26416000  0.83560000  0.94798000  1.0 0.7476254118
Zn  Zn8  1  0.16440000  0.42856000  0.94798000  1.0 0.7476254118
H  H1  1  0.61837000  0.41295000  0.33399000  1.0 0.3062724334
H  H2  1  0.58705000  0.20542000  0.33399000  1.0 0.3062724334
H  H3  1  0.79458000  0.38163000  0.33399000  1.0 0.3062724334
H  H4  1  0.38163000  0.58705000  0.83399000  1.0 0.3062724334
H  H5  1  0.41295000  0.79458000  0.83399000  1.0 0.3062724334
H  H6  1  0.20542000  0.61837000  0.83399000  1.0 0.3062724334
H  H7  1  0.69302000  0.46141000  0.35125000  1.0 0.2697634063
H  H8  1  0.53859000  0.23161000  0.35125000  1.0 0.2697634063
H  H9  1  0.76839000  0.30698000  0.35125000  1.0 0.2697634063
H  H10  1  0.30698000  0.53859000  0.85125000  1.0 0.2697634063
H  H11  1  0.46141000  0.76839000  0.85125000  1.0 0.2697634063
H  H12  1  0.23161000  0.69302000  0.85125000  1.0 0.2697634063
H  H13  1  0.68353000  0.43211000  0.30713000  1.0 0.2995868188
H  H14  1  0.56789000  0.25142000  0.30713000  1.0 0.2995868188
H  H15  1  0.74858000  0.31647000  0.30713000  1.0 0.2995868188
H  H16  1  0.31647000  0.56789000  0.80713000  1.0 0.2995868188
H  H17  1  0.43211000  0.74858000  0.80713000  1.0 0.2995868188
H  H18  1  0.25142000  0.68353000  0.80713000  1.0 0.2995868188
H  H19  1  0.62601000  0.33333333  0.44282000  1.0 0.2585121256
H  H20  1  0.66666667  0.29268000  0.44282000  1.0 0.2585121256
H  H21  1  0.70732000  0.37399000  0.44282000  1.0 0.2585121256
H  H22  1  0.37399000  0.66666667  0.94282000  1.0 0.2585121256
H  H23  1  0.33333333  0.70732000  0.94282000  1.0 0.2585121256
H  H24  1  0.29268000  0.62601000  0.94282000  1.0 0.2585121256
H  H25  1  0.47402000  0.37228000  0.33739000  1.0 0.3258457444
H  H26  1  0.62772000  0.10174000  0.33739000  1.0 0.3258457444
H  H27  1  0.89826000  0.52598000  0.33739000  1.0 0.3258457444
H  H28  1  0.52598000  0.62772000  0.83739000  1.0 0.3258457444
H  H29  1  0.37228000  0.89826000  0.83739000  1.0 0.3258457444
H  H30  1  0.10174000  0.47402000  0.83739000  1.0 0.3258457444
H  H31  1  0.49210000  0.33702000  0.30703000  1.0 0.3196247083
H  H32  1  0.66298000  0.15508000  0.30703000  1.0 0.3196247083
H  H33  1  0.84492000  0.50790000  0.30703000  1.0 0.3196247083
H  H34  1  0.50790000  0.66298000  0.80703000  1.0 0.3196247083
H  H35  1  0.33702000  0.84492000  0.80703000  1.0 0.3196247083
H  H36  1  0.15508000  0.49210000  0.80703000  1.0 0.3196247083
H  H37  1  0.51464000  0.35302000  0.39595000  1.0 0.292157686
H  H38  1  0.64698000  0.16162000  0.39595000  1.0 0.292157686
H  H39  1  0.83838000  0.48536000  0.39595000  1.0 0.292157686
H  H40  1  0.48536000  0.64698000  0.89595000  1.0 0.292157686
H  H41  1  0.35302000  0.83838000  0.89595000  1.0 0.292157686
H  H42  1  0.16162000  0.51464000  0.89595000  1.0 0.292157686
H  H43  1  0.55663000  0.36012000  0.43547000  1.0 0.2697634063
H  H44  1  0.63988000  0.19651000  0.43547000  1.0 0.2697634063
H  H45  1  0.80349000  0.44337000  0.43547000  1.0 0.2697634063
H  H46  1  0.44337000  0.63988000  0.93547000  1.0 0.2697634063
H  H47  1  0.36012000  0.80349000  0.93547000  1.0 0.2697634063
H  H48  1  0.19651000  0.55663000  0.93547000  1.0 0.2697634063
H  H49  1  0.51073000  0.39520000  0.43284000  1.0 0.292157686
H  H50  1  0.60480000  0.11553000  0.43284000  1.0 0.292157686
H  H51  1  0.88447000  0.48927000  0.43284000  1.0 0.292157686
H  H52  1  0.48927000  0.60480000  0.93284000  1.0 0.292157686
H  H53  1  0.39520000  0.88447000  0.93284000  1.0 0.292157686
H  H54  1  0.11553000  0.51073000  0.93284000  1.0 0.292157686
H  H55  1  0.09771000  0.52695000  0.29636000  1.0 0.1203611697
H  H56  1  0.47305000  0.57076000  0.29636000  1.0 0.1203611697
H  H57  1  0.42924000  0.90229000  0.29636000  1.0 0.1203611697
H  H58  1  0.90229000  0.47305000  0.79636000  1.0 0.1203611697
H  H59  1  0.52695000  0.42924000  0.79636000  1.0 0.1203611697
H  H60  1  0.57076000  0.09771000  0.79636000  1.0 0.1203611697
H  H61  1  0.17164000  0.63142000  0.56822000  1.0 0.1302794004
H  H62  1  0.36858000  0.54022000  0.56822000  1.0 0.1302794004
H  H63  1  0.45978000  0.82836000  0.56822000  1.0 0.1302794004
H  H64  1  0.82836000  0.36858000  0.06822000  1.0 0.1302794004
H  H65  1  0.63142000  0.45978000  0.06822000  1.0 0.1302794004
H  H66  1  0.54022000  0.17164000  0.06822000  1.0 0.1302794004
H  H67  1  0.19049000  0.59258000  0.60609000  1.0 0.1302794004
H  H68  1  0.40742000  0.59791000  0.60609000  1.0 0.1302794004
H  H69  1  0.40209000  0.80951000  0.60609000  1.0 0.1302794004
H  H70  1  0.80951000  0.40742000  0.10609000  1.0 0.1302794004
H  H71  1  0.59258000  0.40209000  0.10609000  1.0 0.1302794004
H  H72  1  0.59791000  0.19049000  0.10609000  1.0 0.1302794004
H  H73  1  0.26171000  0.51259000  0.44100000  1.0 0.1302794004
H  H74  1  0.48741000  0.74912000  0.44100000  1.0 0.1302794004
H  H75  1  0.25088000  0.73829000  0.44100000  1.0 0.1302794004
H  H76  1  0.73829000  0.48741000  0.94100000  1.0 0.1302794004
H  H77  1  0.51259000  0.25088000  0.94100000  1.0 0.1302794004
H  H78  1  0.74912000  0.26171000  0.94100000  1.0 0.1302794004
H  H79  1  0.18323000  0.48106000  0.46291000  1.0 0.1302794004
H  H80  1  0.51894000  0.70217000  0.46291000  1.0 0.1302794004
H  H81  1  0.29783000  0.81677000  0.46291000  1.0 0.1302794004
H  H82  1  0.81677000  0.51894000  0.96291000  1.0 0.1302794004
H  H83  1  0.48106000  0.29783000  0.96291000  1.0 0.1302794004
H  H84  1  0.70217000  0.18323000  0.96291000  1.0 0.1302794004
H  H85  1  0.17880000  0.80990000  0.71235000  1.0 0.1203611697
H  H86  1  0.19010000  0.36890000  0.71235000  1.0 0.1203611697
H  H87  1  0.63110000  0.82120000  0.71235000  1.0 0.1203611697
H  H88  1  0.82120000  0.19010000  0.21235000  1.0 0.1203611697
H  H89  1  0.80990000  0.63110000  0.21235000  1.0 0.1203611697
H  H90  1  0.36890000  0.17880000  0.21235000  1.0 0.1203611697
H  H91  1  0.13122000  0.54603000  0.67572000  1.0 0.1203611697
H  H92  1  0.45397000  0.58519000  0.67572000  1.0 0.1203611697
H  H93  1  0.41481000  0.86878000  0.67572000  1.0 0.1203611697
H  H94  1  0.86878000  0.45397000  0.17572000  1.0 0.1203611697
H  H95  1  0.54603000  0.41481000  0.17572000  1.0 0.1203611697
H  H96  1  0.58519000  0.13122000  0.17572000  1.0 0.1203611697
H  H97  1  0.08065000  0.67152000  0.56152000  1.0 0.1203611697
H  H98  1  0.32848000  0.40913000  0.56152000  1.0 0.1203611697
H  H99  1  0.59087000  0.91935000  0.56152000  1.0 0.1203611697
H  H100  1  0.91935000  0.32848000  0.06152000  1.0 0.1203611697
H  H101  1  0.67152000  0.59087000  0.06152000  1.0 0.1203611697
H  H102  1  0.40913000  0.08065000  0.06152000  1.0 0.1203611697
H  H103  1  0.87870000  0.39001000  0.58809000  1.0 0.1134584086
H  H104  1  0.60999000  0.48869000  0.58809000  1.0 0.1134584086
H  H105  1  0.51131000  0.12130000  0.58809000  1.0 0.1134584086
H  H106  1  0.12130000  0.60999000  0.08809000  1.0 0.1134584086
H  H107  1  0.39001000  0.51131000  0.08809000  1.0 0.1134584086
H  H108  1  0.48869000  0.87870000  0.08809000  1.0 0.1134584086
H  H109  1  0.35742000  0.16754000  0.36098000  1.0 0.1302794004
H  H110  1  0.83246000  0.18988000  0.36098000  1.0 0.1302794004
H  H111  1  0.81012000  0.64258000  0.36098000  1.0 0.1302794004
H  H112  1  0.64258000  0.83246000  0.86098000  1.0 0.1302794004
H  H113  1  0.16754000  0.81012000  0.86098000  1.0 0.1302794004
H  H114  1  0.18988000  0.35742000  0.86098000  1.0 0.1302794004
H  H115  1  0.06825000  0.47294000  0.73518000  1.0 0.1203611697
H  H116  1  0.52706000  0.59531000  0.73518000  1.0 0.1203611697
H  H117  1  0.40469000  0.93175000  0.73518000  1.0 0.1203611697
H  H118  1  0.93175000  0.52706000  0.23518000  1.0 0.1203611697
H  H119  1  0.47294000  0.40469000  0.23518000  1.0 0.1203611697
H  H120  1  0.59531000  0.06825000  0.23518000  1.0 0.1203611697
H  H121  1  0.17992000  0.50231000  0.24999000  1.0 0.1203611697
H  H122  1  0.49769000  0.67761000  0.24999000  1.0 0.1203611697
H  H123  1  0.32239000  0.82008000  0.24999000  1.0 0.1203611697
H  H124  1  0.82008000  0.49769000  0.74999000  1.0 0.1203611697
H  H125  1  0.50231000  0.32239000  0.74999000  1.0 0.1203611697
H  H126  1  0.67761000  0.17992000  0.74999000  1.0 0.1203611697
H  H127  1  0.46524000  0.05965000  0.38935000  1.0 0.1505794202
H  H128  1  0.94035000  0.40559000  0.38935000  1.0 0.1505794202
H  H129  1  0.59441000  0.53476000  0.38935000  1.0 0.1505794202
H  H130  1  0.53476000  0.94035000  0.88935000  1.0 0.1505794202
H  H131  1  0.05965000  0.59441000  0.88935000  1.0 0.1505794202
H  H132  1  0.40559000  0.46524000  0.88935000  1.0 0.1505794202
H  H133  1  0.02407000  0.73980000  0.55250000  1.0 0.1203611697
H  H134  1  0.26020000  0.28427000  0.55250000  1.0 0.1203611697
H  H135  1  0.71573000  0.97593000  0.55250000  1.0 0.1203611697
H  H136  1  0.97593000  0.26020000  0.05250000  1.0 0.1203611697
H  H137  1  0.73980000  0.71573000  0.05250000  1.0 0.1203611697
H  H138  1  0.28427000  0.02407000  0.05250000  1.0 0.1203611697
H  H139  1  0.31816000  0.88899000  0.04329000  1.0 0.1302794004
H  H140  1  0.11101000  0.42917000  0.04329000  1.0 0.1302794004
H  H141  1  0.57083000  0.68184000  0.04329000  1.0 0.1302794004
H  H142  1  0.68184000  0.11101000  0.54329000  1.0 0.1302794004
H  H143  1  0.88899000  0.57083000  0.54329000  1.0 0.1302794004
H  H144  1  0.42917000  0.31816000  0.54329000  1.0 0.1302794004
H  H145  1  0.94320000  0.38377000  0.73117000  1.0 0.1203611697
H  H146  1  0.61623000  0.55943000  0.73117000  1.0 0.1203611697
H  H147  1  0.44057000  0.05680000  0.73117000  1.0 0.1203611697
H  H148  1  0.05680000  0.61623000  0.23117000  1.0 0.1203611697
H  H149  1  0.38377000  0.44057000  0.23117000  1.0 0.1203611697
H  H150  1  0.55943000  0.94320000  0.23117000  1.0 0.1203611697
H  H151  1  0.32491000  0.45061000  0.30410000  1.0 0.1134584086
H  H152  1  0.54939000  0.87430000  0.30410000  1.0 0.1134584086
H  H153  1  0.12570000  0.67509000  0.30410000  1.0 0.1134584086
H  H154  1  0.67509000  0.54939000  0.80410000  1.0 0.1134584086
H  H155  1  0.45061000  0.12570000  0.80410000  1.0 0.1134584086
H  H156  1  0.87430000  0.32491000  0.80410000  1.0 0.1134584086
H  H157  1  0.19456000  0.21299000  0.44183000  1.0 0.1203611697
H  H158  1  0.78701000  0.98157000  0.44183000  1.0 0.1203611697
H  H159  1  0.01843000  0.80544000  0.44183000  1.0 0.1203611697
H  H160  1  0.80544000  0.78701000  0.94183000  1.0 0.1203611697
H  H161  1  0.21299000  0.01843000  0.94183000  1.0 0.1203611697
H  H162  1  0.98157000  0.19456000  0.94183000  1.0 0.1203611697
H  H163  1  0.28679000  0.46087000  0.37262000  1.0 0.1203611697
H  H164  1  0.53913000  0.82592000  0.37262000  1.0 0.1203611697
H  H165  1  0.17408000  0.71321000  0.37262000  1.0 0.1203611697
H  H166  1  0.71321000  0.53913000  0.87262000  1.0 0.1203611697
H  H167  1  0.46087000  0.17408000  0.87262000  1.0 0.1203611697
H  H168  1  0.82592000  0.28679000  0.87262000  1.0 0.1203611697
H  H169  1  0.27300000  0.47397000  0.24210000  1.0 0.1134584086
H  H170  1  0.52603000  0.79903000  0.24210000  1.0 0.1134584086
H  H171  1  0.20097000  0.72700000  0.24210000  1.0 0.1134584086
H  H172  1  0.72700000  0.52603000  0.74210000  1.0 0.1134584086
H  H173  1  0.47397000  0.20097000  0.74210000  1.0 0.1134584086
H  H174  1  0.79903000  0.27300000  0.74210000  1.0 0.1134584086
H  H175  1  0.02647000  0.81959000  0.60589000  1.0 0.1134584086
H  H176  1  0.18041000  0.20688000  0.60589000  1.0 0.1134584086
H  H177  1  0.79312000  0.97353000  0.60589000  1.0 0.1134584086
H  H178  1  0.97353000  0.18041000  0.10589000  1.0 0.1134584086
H  H179  1  0.81959000  0.79312000  0.10589000  1.0 0.1134584086
H  H180  1  0.20688000  0.02647000  0.10589000  1.0 0.1134584086
H  H181  1  0.95291000  0.26722000  0.44002000  1.0 0.1006936815
H  H182  1  0.73278000  0.68569000  0.44002000  1.0 0.1006936815
H  H183  1  0.31431000  0.04709000  0.44002000  1.0 0.1006936815
H  H184  1  0.04709000  0.73278000  0.94002000  1.0 0.1006936815
H  H185  1  0.26722000  0.31431000  0.94002000  1.0 0.1006936815
H  H186  1  0.68569000  0.95291000  0.94002000  1.0 0.1006936815
H  H187  1  0.49091000  0.15160000  0.44661000  1.0 0.1394649698
H  H188  1  0.84840000  0.33931000  0.44661000  1.0 0.1394649698
H  H189  1  0.66069000  0.50909000  0.44661000  1.0 0.1394649698
H  H190  1  0.50909000  0.84840000  0.94661000  1.0 0.1394649698
H  H191  1  0.15160000  0.66069000  0.94661000  1.0 0.1394649698
H  H192  1  0.33931000  0.49091000  0.94661000  1.0 0.1394649698
H  H193  1  0.06318000  0.37669000  0.44128000  1.0 0.1203611697
H  H194  1  0.62331000  0.68649000  0.44128000  1.0 0.1203611697
H  H195  1  0.31351000  0.93682000  0.44128000  1.0 0.1203611697
H  H196  1  0.93682000  0.62331000  0.94128000  1.0 0.1203611697
H  H197  1  0.37669000  0.31351000  0.94128000  1.0 0.1203611697
H  H198  1  0.68649000  0.06318000  0.94128000  1.0 0.1203611697
H  H199  1  0.09323000  0.83546000  0.66974000  1.0 0.1203611697
H  H200  1  0.16454000  0.25777000  0.66974000  1.0 0.1203611697
H  H201  1  0.74223000  0.90677000  0.66974000  1.0 0.1203611697
H  H202  1  0.90677000  0.16454000  0.16974000  1.0 0.1203611697
H  H203  1  0.83546000  0.74223000  0.16974000  1.0 0.1203611697
H  H204  1  0.25777000  0.09323000  0.16974000  1.0 0.1203611697
H  H205  1  0.88057000  0.36102000  0.66643000  1.0 0.1134584086
H  H206  1  0.63898000  0.51955000  0.66643000  1.0 0.1134584086
H  H207  1  0.48045000  0.11943000  0.66643000  1.0 0.1134584086
H  H208  1  0.11943000  0.63898000  0.16643000  1.0 0.1134584086
H  H209  1  0.36102000  0.48045000  0.16643000  1.0 0.1134584086
H  H210  1  0.51955000  0.88057000  0.16643000  1.0 0.1134584086
H  H211  1  0.18784000  0.88440000  0.21351000  1.0 0.1134584086
H  H212  1  0.11560000  0.30344000  0.21351000  1.0 0.1134584086
H  H213  1  0.69656000  0.81216000  0.21351000  1.0 0.1134584086
H  H214  1  0.81216000  0.11560000  0.71351000  1.0 0.1134584086
H  H215  1  0.88440000  0.69656000  0.71351000  1.0 0.1134584086
H  H216  1  0.30344000  0.18784000  0.71351000  1.0 0.1134584086
H  H217  1  0.14797000  0.82978000  0.14572000  1.0 0.1302794004
H  H218  1  0.17022000  0.31819000  0.14572000  1.0 0.1302794004
H  H219  1  0.68181000  0.85203000  0.14572000  1.0 0.1302794004
H  H220  1  0.85203000  0.17022000  0.64572000  1.0 0.1302794004
H  H221  1  0.82978000  0.68181000  0.64572000  1.0 0.1302794004
H  H222  1  0.31819000  0.14797000  0.64572000  1.0 0.1302794004
H  H223  1  0.47651000  0.09443000  0.29425000  1.0 0.1394649698
H  H224  1  0.90557000  0.38208000  0.29425000  1.0 0.1394649698
H  H225  1  0.61792000  0.52349000  0.29425000  1.0 0.1394649698
H  H226  1  0.52349000  0.90557000  0.79425000  1.0 0.1394649698
H  H227  1  0.09443000  0.61792000  0.79425000  1.0 0.1394649698
H  H228  1  0.38208000  0.47651000  0.79425000  1.0 0.1394649698
H  H229  1  0.43426000  0.02769000  0.22959000  1.0 0.1134584086
H  H230  1  0.97231000  0.40657000  0.22959000  1.0 0.1134584086
H  H231  1  0.59343000  0.56574000  0.22959000  1.0 0.1134584086
H  H232  1  0.56574000  0.97231000  0.72959000  1.0 0.1134584086
H  H233  1  0.02769000  0.59343000  0.72959000  1.0 0.1134584086
H  H234  1  0.40657000  0.43426000  0.72959000  1.0 0.1134584086
H  H235  1  0.22199000  0.93934000  0.27110000  1.0 0.1134584086
H  H236  1  0.06066000  0.28265000  0.27110000  1.0 0.1134584086
H  H237  1  0.71735000  0.77801000  0.27110000  1.0 0.1134584086
H  H238  1  0.77801000  0.06066000  0.77110000  1.0 0.1134584086
H  H239  1  0.93934000  0.71735000  0.77110000  1.0 0.1134584086
H  H240  1  0.28265000  0.22199000  0.77110000  1.0 0.1134584086
H  H241  1  0.26424000  0.00608000  0.33576000  1.0 0.1302794004
H  H242  1  0.99392000  0.25816000  0.33576000  1.0 0.1302794004
H  H243  1  0.74184000  0.73576000  0.33576000  1.0 0.1302794004
H  H244  1  0.73576000  0.99392000  0.83576000  1.0 0.1302794004
H  H245  1  0.00608000  0.74184000  0.83576000  1.0 0.1302794004
H  H246  1  0.25816000  0.26424000  0.83576000  1.0 0.1302794004
H  H247  1  0.12065000  0.72531000  0.00906000  1.0 0.1302794004
H  H248  1  0.27469000  0.39534000  0.00906000  1.0 0.1302794004
H  H249  1  0.60466000  0.87935000  0.00906000  1.0 0.1302794004
H  H250  1  0.87935000  0.27469000  0.50906000  1.0 0.1302794004
H  H251  1  0.72531000  0.60466000  0.50906000  1.0 0.1302794004
H  H252  1  0.39534000  0.12065000  0.50906000  1.0 0.1302794004
H  H253  1  0.11358000  0.74898000  0.08556000  1.0 0.1394649698
H  H254  1  0.25102000  0.36460000  0.08556000  1.0 0.1394649698
H  H255  1  0.63540000  0.88642000  0.08556000  1.0 0.1394649698
H  H256  1  0.88642000  0.25102000  0.58556000  1.0 0.1394649698
H  H257  1  0.74898000  0.63540000  0.58556000  1.0 0.1394649698
H  H258  1  0.36460000  0.11358000  0.58556000  1.0 0.1394649698
H  H259  1  0.35957000  0.90376000  0.11209000  1.0 0.1302794004
H  H260  1  0.09624000  0.45581000  0.11209000  1.0 0.1302794004
H  H261  1  0.54419000  0.64043000  0.11209000  1.0 0.1302794004
H  H262  1  0.64043000  0.09624000  0.61209000  1.0 0.1302794004
H  H263  1  0.90376000  0.54419000  0.61209000  1.0 0.1302794004
H  H264  1  0.45581000  0.35957000  0.61209000  1.0 0.1302794004
H  H265  1  0.05620000  0.14686000  0.43912000  1.0 0.1203611697
H  H266  1  0.85314000  0.90934000  0.43912000  1.0 0.1203611697
H  H267  1  0.09066000  0.94380000  0.43912000  1.0 0.1203611697
H  H268  1  0.94380000  0.85314000  0.93912000  1.0 0.1203611697
H  H269  1  0.14686000  0.09066000  0.93912000  1.0 0.1203611697
H  H270  1  0.90934000  0.05620000  0.93912000  1.0 0.1203611697
H  H271  1  0.39988000  0.97452000  0.17562000  1.0 0.1134584086
H  H272  1  0.02548000  0.42536000  0.17562000  1.0 0.1134584086
H  H273  1  0.57464000  0.60012000  0.17562000  1.0 0.1134584086
H  H274  1  0.60012000  0.02548000  0.67562000  1.0 0.1134584086
H  H275  1  0.97452000  0.57464000  0.67562000  1.0 0.1134584086
H  H276  1  0.42536000  0.39988000  0.67562000  1.0 0.1134584086
H  H277  1  0.94842000  0.15202000  0.43430000  1.0 0.1203611697
H  H278  1  0.84798000  0.79640000  0.43430000  1.0 0.1203611697
H  H279  1  0.20360000  0.05158000  0.43430000  1.0 0.1203611697
H  H280  1  0.05158000  0.84798000  0.93430000  1.0 0.1203611697
H  H281  1  0.15202000  0.20360000  0.93430000  1.0 0.1203611697
H  H282  1  0.79640000  0.94842000  0.93430000  1.0 0.1203611697
C  C1  1  0.17510000  0.49940000  0.31618000  1.0 0.0608588083
C  C2  1  0.50060000  0.67570000  0.31618000  1.0 0.0608588083
C  C3  1  0.32430000  0.82490000  0.31618000  1.0 0.0608588083
C  C4  1  0.82490000  0.50060000  0.81618000  1.0 0.0608588083
C  C5  1  0.49940000  0.32430000  0.81618000  1.0 0.0608588083
C  C6  1  0.67570000  0.17510000  0.81618000  1.0 0.0608588083
C  C7  1  0.21250000  0.68910000  0.66423000  1.0 0.2326141943
C  C8  1  0.31090000  0.52340000  0.66423000  1.0 0.2326141943
C  C9  1  0.47660000  0.78750000  0.66423000  1.0 0.2326141943
C  C10  1  0.78750000  0.31090000  0.16423000  1.0 0.2326141943
C  C11  1  0.68910000  0.47660000  0.16423000  1.0 0.2326141943
C  C12  1  0.52340000  0.21250000  0.16423000  1.0 0.2326141943
C  C13  1  0.26620000  0.39370000  0.44712000  1.0 0.2482204126
C  C14  1  0.60630000  0.87250000  0.44712000  1.0 0.2482204126
C  C15  1  0.12750000  0.73380000  0.44712000  1.0 0.2482204126
C  C16  1  0.73380000  0.60630000  0.94712000  1.0 0.2482204126
C  C17  1  0.39370000  0.12750000  0.94712000  1.0 0.2482204126
C  C18  1  0.87250000  0.26620000  0.94712000  1.0 0.2482204126
C  C19  1  0.03430000  0.54650000  0.36273000  1.0 0.5986564618
C  C20  1  0.45350000  0.48780000  0.36273000  1.0 0.5986564618
C  C21  1  0.51220000  0.96570000  0.36273000  1.0 0.5986564618
C  C22  1  0.96570000  0.45350000  0.86273000  1.0 0.5986564618
C  C23  1  0.54650000  0.51220000  0.86273000  1.0 0.5986564618
C  C24  1  0.48780000  0.03430000  0.86273000  1.0 0.5986564618
C  C25  1  0.92090000  0.44760000  0.51131000  1.0 0.5897274774
C  C26  1  0.55240000  0.47330000  0.51131000  1.0 0.5897274774
C  C27  1  0.52670000  0.07910000  0.51131000  1.0 0.5897274774
C  C28  1  0.07910000  0.55240000  0.01131000  1.0 0.5897274774
C  C29  1  0.44760000  0.52670000  0.01131000  1.0 0.5897274774
C  C30  1  0.47330000  0.92090000  0.01131000  1.0 0.5897274774
C  C31  1  0.16630000  0.67220000  0.62878000  1.0 -0.0296081061
C  C32  1  0.32780000  0.49410000  0.62878000  1.0 -0.0296081061
C  C33  1  0.50590000  0.83370000  0.62878000  1.0 -0.0296081061
C  C34  1  0.83370000  0.32780000  0.12878000  1.0 -0.0296081061
C  C35  1  0.67220000  0.50590000  0.12878000  1.0 -0.0296081061
C  C36  1  0.49410000  0.16630000  0.12878000  1.0 -0.0296081061
C  C37  1  0.33120000  0.31760000  0.45239000  1.0 0.615592317
C  C38  1  0.68240000  0.01360000  0.45239000  1.0 0.615592317
C  C39  1  0.98640000  0.66880000  0.45239000  1.0 0.615592317
C  C40  1  0.66880000  0.68240000  0.95239000  1.0 0.615592317
C  C41  1  0.31760000  0.98640000  0.95239000  1.0 0.615592317
C  C42  1  0.01360000  0.33120000  0.95239000  1.0 0.615592317
C  C43  1  0.20560000  0.48490000  0.35502000  1.0 0.0499159335
C  C44  1  0.51510000  0.72070000  0.35502000  1.0 0.0499159335
C  C45  1  0.27930000  0.79440000  0.35502000  1.0 0.0499159335
C  C46  1  0.79440000  0.51510000  0.85502000  1.0 0.0499159335
C  C47  1  0.48490000  0.27930000  0.85502000  1.0 0.0499159335
C  C48  1  0.72070000  0.20560000  0.85502000  1.0 0.0499159335
C  C49  1  0.11910000  0.51930000  0.32111000  1.0 -0.1490726689
C  C50  1  0.48070000  0.59980000  0.32111000  1.0 -0.1490726689
C  C51  1  0.40020000  0.88090000  0.32111000  1.0 -0.1490726689
C  C52  1  0.88090000  0.48070000  0.82111000  1.0 -0.1490726689
C  C53  1  0.51930000  0.40020000  0.82111000  1.0 -0.1490726689
C  C54  1  0.59980000  0.11910000  0.82111000  1.0 -0.1490726689
C  C55  1  0.21790000  0.74020000  0.69703000  1.0 -0.157695974
C  C56  1  0.25980000  0.47770000  0.69703000  1.0 -0.157695974
C  C57  1  0.52230000  0.78210000  0.69703000  1.0 -0.157695974
C  C58  1  0.78210000  0.25980000  0.19703000  1.0 -0.157695974
C  C59  1  0.74020000  0.52230000  0.19703000  1.0 -0.157695974
C  C60  1  0.47770000  0.21790000  0.19703000  1.0 -0.157695974
C  C61  1  0.15690000  0.61030000  0.59724000  1.0 -0.2405734274
C  C62  1  0.38970000  0.54660000  0.59724000  1.0 -0.2405734274
C  C63  1  0.45340000  0.84310000  0.59724000  1.0 -0.2405734274
C  C64  1  0.84310000  0.38970000  0.09724000  1.0 -0.2405734274
C  C65  1  0.61030000  0.45340000  0.09724000  1.0 -0.2405734274
C  C66  1  0.54660000  0.15690000  0.09724000  1.0 -0.2405734274
C  C67  1  0.26200000  0.75470000  0.73740000  1.0 0.5986564618
C  C68  1  0.24530000  0.50730000  0.73740000  1.0 0.5986564618
C  C69  1  0.49270000  0.73800000  0.73740000  1.0 0.5986564618
C  C70  1  0.73800000  0.24530000  0.23740000  1.0 0.5986564618
C  C71  1  0.75470000  0.49270000  0.23740000  1.0 0.5986564618
C  C72  1  0.50730000  0.26200000  0.23740000  1.0 0.5986564618
C  C73  1  0.20930000  0.47490000  0.43831000  1.0 -0.2405734274
C  C74  1  0.52510000  0.73440000  0.43831000  1.0 -0.2405734274
C  C75  1  0.26560000  0.79070000  0.43831000  1.0 -0.2405734274
C  C76  1  0.79070000  0.52510000  0.93831000  1.0 -0.2405734274
C  C77  1  0.47490000  0.26560000  0.93831000  1.0 -0.2405734274
C  C78  1  0.73440000  0.20930000  0.93831000  1.0 -0.2405734274
C  C79  1  0.17900000  0.49030000  0.39654000  1.0 -0.0296081061
C  C80  1  0.50970000  0.68870000  0.39654000  1.0 -0.0296081061
C  C81  1  0.31130000  0.82100000  0.39654000  1.0 -0.0296081061
C  C82  1  0.82100000  0.50970000  0.89654000  1.0 -0.0296081061
C  C83  1  0.49030000  0.31130000  0.89654000  1.0 -0.0296081061
C  C84  1  0.68870000  0.17900000  0.89654000  1.0 -0.0296081061
C  C85  1  0.96440000  0.46820000  0.55268000  1.0 -0.1726280793
C  C86  1  0.53180000  0.49620000  0.55268000  1.0 -0.1726280793
C  C87  1  0.50380000  0.03560000  0.55268000  1.0 -0.1726280793
C  C88  1  0.03560000  0.53180000  0.05268000  1.0 -0.1726280793
C  C89  1  0.46820000  0.50380000  0.05268000  1.0 -0.1726280793
C  C90  1  0.49620000  0.96440000  0.05268000  1.0 -0.1726280793
C  C91  1  0.26340000  0.32310000  0.44716000  1.0 -0.157695974
C  C92  1  0.67690000  0.94030000  0.44716000  1.0 -0.157695974
C  C93  1  0.05970000  0.73660000  0.44716000  1.0 -0.157695974
C  C94  1  0.73660000  0.67690000  0.94716000  1.0 -0.157695974
C  C95  1  0.32310000  0.05970000  0.94716000  1.0 -0.157695974
C  C96  1  0.94030000  0.26340000  0.94716000  1.0 -0.157695974
C  C97  1  0.12840000  0.71260000  0.62140000  1.0 0.0440593002
C  C98  1  0.28740000  0.41580000  0.62140000  1.0 0.0440593002
C  C99  1  0.58420000  0.87160000  0.62140000  1.0 0.0440593002
C  C100  1  0.87160000  0.28740000  0.12140000  1.0 0.0440593002
C  C101  1  0.71260000  0.58420000  0.12140000  1.0 0.0440593002
C  C102  1  0.41580000  0.12840000  0.12140000  1.0 0.0440593002
C  C103  1  0.03950000  0.52700000  0.55571000  1.0 0.2419260901
C  C104  1  0.47300000  0.51250000  0.55571000  1.0 0.2419260901
C  C105  1  0.48750000  0.96050000  0.55571000  1.0 0.2419260901
C  C106  1  0.96050000  0.47300000  0.05571000  1.0 0.2419260901
C  C107  1  0.52700000  0.48750000  0.05571000  1.0 0.2419260901
C  C108  1  0.51250000  0.03950000  0.05571000  1.0 0.2419260901
C  C109  1  0.09580000  0.52770000  0.36155000  1.0 -0.1490726689
C  C110  1  0.47230000  0.56810000  0.36155000  1.0 -0.1490726689
C  C111  1  0.43190000  0.90420000  0.36155000  1.0 -0.1490726689
C  C112  1  0.90420000  0.47230000  0.86155000  1.0 -0.1490726689
C  C113  1  0.52770000  0.43190000  0.86155000  1.0 -0.1490726689
C  C114  1  0.56810000  0.09580000  0.86155000  1.0 -0.1490726689
C  C115  1  0.17690000  0.77680000  0.69110000  1.0 -0.1490726689
C  C116  1  0.22320000  0.40010000  0.69110000  1.0 -0.1490726689
C  C117  1  0.59990000  0.82310000  0.69110000  1.0 -0.1490726689
C  C118  1  0.82310000  0.22320000  0.19110000  1.0 -0.1490726689
C  C119  1  0.77680000  0.59990000  0.19110000  1.0 -0.1490726689
C  C120  1  0.40010000  0.17690000  0.19110000  1.0 -0.1490726689
C  C121  1  0.20250000  0.39870000  0.44169000  1.0 -0.0296081061
C  C122  1  0.60130000  0.80380000  0.44169000  1.0 -0.0296081061
C  C123  1  0.19620000  0.79750000  0.44169000  1.0 -0.0296081061
C  C124  1  0.79750000  0.60130000  0.94169000  1.0 -0.0296081061
C  C125  1  0.39870000  0.19620000  0.94169000  1.0 -0.0296081061
C  C126  1  0.80380000  0.20250000  0.94169000  1.0 -0.0296081061
C  C127  1  0.08100000  0.50970000  0.67320000  1.0 -0.1266622382
C  C128  1  0.49030000  0.57130000  0.67320000  1.0 -0.1266622382
C  C129  1  0.42870000  0.91900000  0.67320000  1.0 -0.1266622382
C  C130  1  0.91900000  0.49030000  0.17320000  1.0 -0.1266622382
C  C131  1  0.50970000  0.42870000  0.17320000  1.0 -0.1266622382
C  C132  1  0.57130000  0.08100000  0.17320000  1.0 -0.1266622382
C  C133  1  0.29800000  0.93500000  0.20250000  1.0 0.0608588083
C  C134  1  0.06500000  0.36300000  0.20250000  1.0 0.0608588083
C  C135  1  0.63700000  0.70200000  0.20250000  1.0 0.0608588083
C  C136  1  0.70200000  0.06500000  0.70250000  1.0 0.0608588083
C  C137  1  0.93500000  0.63700000  0.70250000  1.0 0.0608588083
C  C138  1  0.36300000  0.29800000  0.70250000  1.0 0.0608588083
C  C139  1  0.12710000  0.51440000  0.39933000  1.0 0.2326141943
C  C140  1  0.48560000  0.61270000  0.39933000  1.0 0.2326141943
C  C141  1  0.38730000  0.87290000  0.39933000  1.0 0.2326141943
C  C142  1  0.87290000  0.48560000  0.89933000  1.0 0.2326141943
C  C143  1  0.51440000  0.38730000  0.89933000  1.0 0.2326141943
C  C144  1  0.61270000  0.12710000  0.89933000  1.0 0.2326141943
C  C145  1  0.96610000  0.44060000  0.62990000  1.0 0.0499159335
C  C146  1  0.55940000  0.52550000  0.62990000  1.0 0.0499159335
C  C147  1  0.47450000  0.03390000  0.62990000  1.0 0.0499159335
C  C148  1  0.03390000  0.55940000  0.12990000  1.0 0.0499159335
C  C149  1  0.44060000  0.47450000  0.12990000  1.0 0.0499159335
C  C150  1  0.52550000  0.96610000  0.12990000  1.0 0.0499159335
C  C151  1  0.08500000  0.70490000  0.58330000  1.0 -0.1266622382
C  C152  1  0.29510000  0.38010000  0.58330000  1.0 -0.1266622382
C  C153  1  0.61990000  0.91500000  0.58330000  1.0 -0.1266622382
C  C154  1  0.91500000  0.29510000  0.08330000  1.0 -0.1266622382
C  C155  1  0.70490000  0.61990000  0.08330000  1.0 -0.1266622382
C  C156  1  0.38010000  0.08500000  0.08330000  1.0 -0.1266622382
C  C157  1  0.92870000  0.42720000  0.58980000  1.0 -0.1726280793
C  C158  1  0.57280000  0.50150000  0.58980000  1.0 -0.1726280793
C  C159  1  0.49850000  0.07130000  0.58980000  1.0 -0.1726280793
C  C160  1  0.07130000  0.57280000  0.08980000  1.0 -0.1726280793
C  C161  1  0.42720000  0.49850000  0.08980000  1.0 -0.1726280793
C  C162  1  0.50150000  0.92870000  0.08980000  1.0 -0.1726280793
C  C163  1  0.13300000  0.76440000  0.65380000  1.0 0.0608588083
C  C164  1  0.23560000  0.36860000  0.65380000  1.0 0.0608588083
C  C165  1  0.63140000  0.86700000  0.65380000  1.0 0.0608588083
C  C166  1  0.86700000  0.23560000  0.15380000  1.0 0.0608588083
C  C167  1  0.76440000  0.63140000  0.15380000  1.0 0.0608588083
C  C168  1  0.36860000  0.13300000  0.15380000  1.0 0.0608588083
C  C169  1  0.07820000  0.54430000  0.59517000  1.0 -0.0296081061
C  C170  1  0.45570000  0.53390000  0.59517000  1.0 -0.0296081061
C  C171  1  0.46610000  0.92180000  0.59517000  1.0 -0.0296081061
C  C172  1  0.92180000  0.45570000  0.09517000  1.0 -0.0296081061
C  C173  1  0.54430000  0.46610000  0.09517000  1.0 -0.0296081061
C  C174  1  0.53390000  0.07820000  0.09517000  1.0 -0.0296081061
C  C175  1  0.04300000  0.49910000  0.63242000  1.0 0.0440593002
C  C176  1  0.50090000  0.54390000  0.63242000  1.0 0.0440593002
C  C177  1  0.45610000  0.95700000  0.63242000  1.0 0.0440593002
C  C178  1  0.95700000  0.50090000  0.13242000  1.0 0.0440593002
C  C179  1  0.49910000  0.45610000  0.13242000  1.0 0.0440593002
C  C180  1  0.54390000  0.04300000  0.13242000  1.0 0.0440593002
C  C181  1  0.38740000  0.15240000  0.37520000  1.0 0.1006936815
C  C182  1  0.84760000  0.23500000  0.37520000  1.0 0.1006936815
C  C183  1  0.76500000  0.61260000  0.37520000  1.0 0.1006936815
C  C184  1  0.61260000  0.84760000  0.87520000  1.0 0.1006936815
C  C185  1  0.15240000  0.76500000  0.87520000  1.0 0.1006936815
C  C186  1  0.23500000  0.38740000  0.87520000  1.0 0.1006936815
C  C187  1  0.04290000  0.46570000  0.70890000  1.0 -0.076785444
C  C188  1  0.53430000  0.57720000  0.70890000  1.0 -0.076785444
C  C189  1  0.42280000  0.95710000  0.70890000  1.0 -0.076785444
C  C190  1  0.95710000  0.53430000  0.20890000  1.0 -0.076785444
C  C191  1  0.46570000  0.42280000  0.20890000  1.0 -0.076785444
C  C192  1  0.57720000  0.04290000  0.20890000  1.0 -0.076785444
C  C193  1  0.13170000  0.33150000  0.44060000  1.0 0.0499159335
C  C194  1  0.66850000  0.80020000  0.44060000  1.0 0.0499159335
C  C195  1  0.19980000  0.86830000  0.44060000  1.0 0.0499159335
C  C196  1  0.86830000  0.66850000  0.94060000  1.0 0.0499159335
C  C197  1  0.33150000  0.19980000  0.94060000  1.0 0.0499159335
C  C198  1  0.80020000  0.13170000  0.94060000  1.0 0.0499159335
C  C199  1  0.20100000  0.49400000  0.27470000  1.0 -0.1389505411
C  C200  1  0.50600000  0.70700000  0.27470000  1.0 -0.1389505411
C  C201  1  0.29300000  0.79900000  0.27470000  1.0 -0.1389505411
C  C202  1  0.79900000  0.50600000  0.77470000  1.0 -0.1389505411
C  C203  1  0.49400000  0.29300000  0.77470000  1.0 -0.1389505411
C  C204  1  0.70700000  0.20100000  0.77470000  1.0 -0.1389505411
C  C205  1  0.25210000  0.86000000  0.12270000  1.0 0.1505794202
C  C206  1  0.14000000  0.39210000  0.12270000  1.0 0.1505794202
C  C207  1  0.60790000  0.74790000  0.12270000  1.0 0.1505794202
C  C208  1  0.74790000  0.14000000  0.62270000  1.0 0.1505794202
C  C209  1  0.86000000  0.60790000  0.62270000  1.0 0.1505794202
C  C210  1  0.39210000  0.25210000  0.62270000  1.0 0.1505794202
C  C211  1  0.44700000  0.09260000  0.39063000  1.0 -0.0891860877
C  C212  1  0.90740000  0.35440000  0.39063000  1.0 -0.0891860877
C  C213  1  0.64560000  0.55300000  0.39063000  1.0 -0.0891860877
C  C214  1  0.55300000  0.90740000  0.89063000  1.0 -0.0891860877
C  C215  1  0.09260000  0.64560000  0.89063000  1.0 -0.0891860877
C  C216  1  0.35440000  0.44700000  0.89063000  1.0 -0.0891860877
C  C217  1  0.05020000  0.74500000  0.57820000  1.0 -0.099007826
C  C218  1  0.25500000  0.30520000  0.57820000  1.0 -0.099007826
C  C219  1  0.69480000  0.94980000  0.57820000  1.0 -0.099007826
C  C220  1  0.94980000  0.25500000  0.07820000  1.0 -0.099007826
C  C221  1  0.74500000  0.69480000  0.07820000  1.0 -0.099007826
C  C222  1  0.30520000  0.05020000  0.07820000  1.0 -0.099007826
C  C223  1  0.26900000  0.84970000  0.04430000  1.0 0.1203611697
C  C224  1  0.15030000  0.41930000  0.04430000  1.0 0.1203611697
C  C225  1  0.58070000  0.73100000  0.04430000  1.0 0.1203611697
C  C226  1  0.73100000  0.15030000  0.54430000  1.0 0.1203611697
C  C227  1  0.84970000  0.58070000  0.54430000  1.0 0.1203611697
C  C228  1  0.41930000  0.26900000  0.54430000  1.0 0.1203611697
C  C229  1  0.96790000  0.41140000  0.70650000  1.0 -0.099007826
C  C230  1  0.58860000  0.55650000  0.70650000  1.0 -0.099007826
C  C231  1  0.44350000  0.03210000  0.70650000  1.0 -0.099007826
C  C232  1  0.03210000  0.58860000  0.20650000  1.0 -0.099007826
C  C233  1  0.41140000  0.44350000  0.20650000  1.0 -0.099007826
C  C234  1  0.55650000  0.96790000  0.20650000  1.0 -0.099007826
C  C235  1  0.28770000  0.46320000  0.30730000  1.0 -0.0891860877
C  C236  1  0.53680000  0.82450000  0.30730000  1.0 -0.0891860877
C  C237  1  0.17550000  0.71230000  0.30730000  1.0 -0.0891860877
C  C238  1  0.71230000  0.53680000  0.80730000  1.0 -0.0891860877
C  C239  1  0.46320000  0.17550000  0.80730000  1.0 -0.0891860877
C  C240  1  0.82450000  0.28770000  0.80730000  1.0 -0.0891860877
C  C241  1  0.19610000  0.25880000  0.44300000  1.0 -0.1389505411
C  C242  1  0.74120000  0.93730000  0.44300000  1.0 -0.1389505411
C  C243  1  0.06270000  0.80390000  0.44300000  1.0 -0.1389505411
C  C244  1  0.80390000  0.74120000  0.94300000  1.0 -0.1389505411
C  C245  1  0.25880000  0.06270000  0.94300000  1.0 -0.1389505411
C  C246  1  0.93730000  0.19610000  0.94300000  1.0 -0.1389505411
C  C247  1  0.26400000  0.46840000  0.34850000  1.0 -0.1191511736
C  C248  1  0.53160000  0.79560000  0.34850000  1.0 -0.1191511736
C  C249  1  0.20440000  0.73600000  0.34850000  1.0 -0.1191511736
C  C250  1  0.73600000  0.53160000  0.84850000  1.0 -0.1191511736
C  C251  1  0.46840000  0.20440000  0.84850000  1.0 -0.1191511736
C  C252  1  0.79560000  0.26400000  0.84850000  1.0 -0.1191511736
C  C253  1  0.25610000  0.47680000  0.26980000  1.0 -0.1077670623
C  C254  1  0.52320000  0.77930000  0.26980000  1.0 -0.1077670623
C  C255  1  0.22070000  0.74390000  0.26980000  1.0 -0.1077670623
C  C256  1  0.74390000  0.52320000  0.76980000  1.0 -0.1077670623
C  C257  1  0.47680000  0.22070000  0.76980000  1.0 -0.1077670623
C  C258  1  0.77930000  0.25610000  0.76980000  1.0 -0.1077670623
C  C259  1  0.05210000  0.79370000  0.61000000  1.0 -0.099007826
C  C260  1  0.20630000  0.25840000  0.61000000  1.0 -0.099007826
C  C261  1  0.74160000  0.94790000  0.61000000  1.0 -0.099007826
C  C262  1  0.94790000  0.20630000  0.11000000  1.0 -0.099007826
C  C263  1  0.79370000  0.74160000  0.11000000  1.0 -0.099007826
C  C264  1  0.25840000  0.05210000  0.11000000  1.0 -0.099007826
C  C265  1  0.99740000  0.26620000  0.43930000  1.0 -0.0891860877
C  C266  1  0.73380000  0.73120000  0.43930000  1.0 -0.0891860877
C  C267  1  0.26880000  0.00260000  0.43930000  1.0 -0.0891860877
C  C268  1  0.00260000  0.73380000  0.93930000  1.0 -0.0891860877
C  C269  1  0.26620000  0.26880000  0.93930000  1.0 -0.0891860877
C  C270  1  0.73120000  0.99740000  0.93930000  1.0 -0.0891860877
C  C271  1  0.46080000  0.14310000  0.42226000  1.0 -0.0510737325
C  C272  1  0.85690000  0.31770000  0.42226000  1.0 -0.0510737325
C  C273  1  0.68230000  0.53920000  0.42226000  1.0 -0.0510737325
C  C274  1  0.53920000  0.85690000  0.92226000  1.0 -0.0510737325
C  C275  1  0.14310000  0.68230000  0.92226000  1.0 -0.0510737325
C  C276  1  0.31770000  0.46080000  0.92226000  1.0 -0.0510737325
C  C277  1  0.06310000  0.33160000  0.44050000  1.0 -0.1266622382
C  C278  1  0.66840000  0.73150000  0.44050000  1.0 -0.1266622382
C  C279  1  0.26850000  0.93690000  0.44050000  1.0 -0.1266622382
C  C280  1  0.93690000  0.66840000  0.94050000  1.0 -0.1266622382
C  C281  1  0.33160000  0.26850000  0.94050000  1.0 -0.1266622382
C  C282  1  0.73150000  0.06310000  0.94050000  1.0 -0.1266622382
C  C283  1  0.09240000  0.80360000  0.64800000  1.0 -0.1490726689
C  C284  1  0.19640000  0.28880000  0.64800000  1.0 -0.1490726689
C  C285  1  0.71120000  0.90760000  0.64800000  1.0 -0.1490726689
C  C286  1  0.90760000  0.19640000  0.14800000  1.0 -0.1490726689
C  C287  1  0.80360000  0.71120000  0.14800000  1.0 -0.1490726689
C  C288  1  0.28880000  0.09240000  0.14800000  1.0 -0.1490726689
C  C289  1  0.93050000  0.39840000  0.66790000  1.0 -0.157695974
C  C290  1  0.60160000  0.53210000  0.66790000  1.0 -0.157695974
C  C291  1  0.46790000  0.06950000  0.66790000  1.0 -0.157695974
C  C292  1  0.06950000  0.60160000  0.16790000  1.0 -0.157695974
C  C293  1  0.39840000  0.46790000  0.16790000  1.0 -0.157695974
C  C294  1  0.53210000  0.93050000  0.16790000  1.0 -0.157695974
C  C295  1  0.22320000  0.89080000  0.19260000  1.0 -0.1266622382
C  C296  1  0.10920000  0.33240000  0.19260000  1.0 -0.1266622382
C  C297  1  0.66760000  0.77680000  0.19260000  1.0 -0.1266622382
C  C298  1  0.77680000  0.10920000  0.69260000  1.0 -0.1266622382
C  C299  1  0.89080000  0.66760000  0.69260000  1.0 -0.1266622382
C  C300  1  0.33240000  0.22320000  0.69260000  1.0 -0.1266622382
C  C301  1  0.19870000  0.85570000  0.15260000  1.0 -0.1726280793
C  C302  1  0.14430000  0.34300000  0.15260000  1.0 -0.1726280793
C  C303  1  0.65700000  0.80130000  0.15260000  1.0 -0.1726280793
C  C304  1  0.80130000  0.14430000  0.65260000  1.0 -0.1726280793
C  C305  1  0.85570000  0.65700000  0.65260000  1.0 -0.1726280793
C  C306  1  0.34300000  0.19870000  0.65260000  1.0 -0.1726280793
C  C307  1  0.42550000  0.06330000  0.28961000  1.0 -0.1389505411
C  C308  1  0.93670000  0.36220000  0.28961000  1.0 -0.1389505411
C  C309  1  0.63780000  0.57450000  0.28961000  1.0 -0.1389505411
C  C310  1  0.57450000  0.93670000  0.78961000  1.0 -0.1389505411
C  C311  1  0.06330000  0.63780000  0.78961000  1.0 -0.1389505411
C  C312  1  0.36220000  0.42550000  0.78961000  1.0 -0.1389505411
C  C313  1  0.40020000  0.02340000  0.25087000  1.0 -0.1191511736
C  C314  1  0.97660000  0.37680000  0.25087000  1.0 -0.1191511736
C  C315  1  0.62320000  0.59980000  0.25087000  1.0 -0.1191511736
C  C316  1  0.59980000  0.97660000  0.75087000  1.0 -0.1191511736
C  C317  1  0.02340000  0.62320000  0.75087000  1.0 -0.1191511736
C  C318  1  0.37680000  0.40020000  0.75087000  1.0 -0.1191511736
C  C319  1  0.32390000  0.97690000  0.24394000  1.0 0.0608588083
C  C320  1  0.02310000  0.34700000  0.24394000  1.0 0.0608588083
C  C321  1  0.65300000  0.67610000  0.24394000  1.0 0.0608588083
C  C322  1  0.67610000  0.02310000  0.74394000  1.0 0.0608588083
C  C323  1  0.97690000  0.65300000  0.74394000  1.0 0.0608588083
C  C324  1  0.34700000  0.32390000  0.74394000  1.0 0.0608588083
C  C325  1  0.27300000  0.97040000  0.27570000  1.0 -0.1191511736
C  C326  1  0.02960000  0.30260000  0.27570000  1.0 -0.1191511736
C  C327  1  0.69740000  0.72700000  0.27570000  1.0 -0.1191511736
C  C328  1  0.72700000  0.02960000  0.77570000  1.0 -0.1191511736
C  C329  1  0.97040000  0.69740000  0.77570000  1.0 -0.1191511736
C  C330  1  0.30260000  0.27300000  0.77570000  1.0 -0.1191511736
C  C331  1  0.29830000  0.01040000  0.31448000  1.0 -0.1726280793
C  C332  1  0.98960000  0.28790000  0.31448000  1.0 -0.1726280793
C  C333  1  0.71210000  0.70170000  0.31448000  1.0 -0.1726280793
C  C334  1  0.70170000  0.98960000  0.81448000  1.0 -0.1726280793
C  C335  1  0.01040000  0.71210000  0.81448000  1.0 -0.1726280793
C  C336  1  0.28790000  0.29830000  0.81448000  1.0 -0.1726280793
C  C337  1  0.37460000  0.05690000  0.32142000  1.0 0.1627990615
C  C338  1  0.94310000  0.31770000  0.32142000  1.0 0.1627990615
C  C339  1  0.68230000  0.62540000  0.32142000  1.0 0.1627990615
C  C340  1  0.62540000  0.94310000  0.82142000  1.0 0.1627990615
C  C341  1  0.05690000  0.68230000  0.82142000  1.0 0.1627990615
C  C342  1  0.31770000  0.37460000  0.82142000  1.0 0.1627990615
C  C343  1  0.12860000  0.26070000  0.44060000  1.0 0.0608588083
C  C344  1  0.73930000  0.86790000  0.44060000  1.0 0.0608588083
C  C345  1  0.13210000  0.87140000  0.44060000  1.0 0.0608588083
C  C346  1  0.87140000  0.73930000  0.94060000  1.0 0.0608588083
C  C347  1  0.26070000  0.13210000  0.94060000  1.0 0.0608588083
C  C348  1  0.86790000  0.12860000  0.94060000  1.0 0.0608588083
C  C349  1  0.16000000  0.76080000  0.02580000  1.0 -0.0224095664
C  C350  1  0.23920000  0.39920000  0.02580000  1.0 -0.0224095664
C  C351  1  0.60080000  0.84000000  0.02580000  1.0 -0.0224095664
C  C352  1  0.84000000  0.23920000  0.52580000  1.0 -0.0224095664
C  C353  1  0.76080000  0.60080000  0.52580000  1.0 -0.0224095664
C  C354  1  0.39920000  0.16000000  0.52580000  1.0 -0.0224095664
C  C355  1  0.15580000  0.77250000  0.06790000  1.0 -0.1191511736
C  C356  1  0.22750000  0.38330000  0.06790000  1.0 -0.1191511736
C  C357  1  0.61670000  0.84420000  0.06790000  1.0 -0.1191511736
C  C358  1  0.84420000  0.22750000  0.56790000  1.0 -0.1191511736
C  C359  1  0.77250000  0.61670000  0.56790000  1.0 -0.1191511736
C  C360  1  0.38330000  0.15580000  0.56790000  1.0 -0.1191511736
C  C361  1  0.32450000  0.90160000  0.13190000  1.0 -0.157695974
C  C362  1  0.09840000  0.42290000  0.13190000  1.0 -0.157695974
C  C363  1  0.57710000  0.67550000  0.13190000  1.0 -0.157695974
C  C364  1  0.67550000  0.09840000  0.63190000  1.0 -0.157695974
C  C365  1  0.90160000  0.57710000  0.63190000  1.0 -0.157695974
C  C366  1  0.42290000  0.32450000  0.63190000  1.0 -0.157695974
C  C367  1  0.05810000  0.19280000  0.43890000  1.0 -0.1389505411
C  C368  1  0.80720000  0.86530000  0.43890000  1.0 -0.1389505411
C  C369  1  0.13470000  0.94190000  0.43890000  1.0 -0.1389505411
C  C370  1  0.94190000  0.80720000  0.93890000  1.0 -0.1389505411
C  C371  1  0.19280000  0.13470000  0.93890000  1.0 -0.1389505411
C  C372  1  0.86530000  0.05810000  0.93890000  1.0 -0.1389505411
C  C373  1  0.34900000  0.94240000  0.17100000  1.0 -0.1191511736
C  C374  1  0.05760000  0.40660000  0.17100000  1.0 -0.1191511736
C  C375  1  0.59340000  0.65100000  0.17100000  1.0 -0.1191511736
C  C376  1  0.65100000  0.05760000  0.67100000  1.0 -0.1191511736
C  C377  1  0.94240000  0.59340000  0.67100000  1.0 -0.1191511736
C  C378  1  0.40660000  0.34900000  0.67100000  1.0 -0.1191511736
C  C379  1  0.99430000  0.19580000  0.43710000  1.0 -0.1077670623
C  C380  1  0.80420000  0.79850000  0.43710000  1.0 -0.1077670623
C  C381  1  0.20150000  0.00570000  0.43710000  1.0 -0.1077670623
C  C382  1  0.00570000  0.80420000  0.93710000  1.0 -0.1077670623
C  C383  1  0.19580000  0.20150000  0.93710000  1.0 -0.1077670623
C  C384  1  0.79850000  0.99430000  0.93710000  1.0 -0.1077670623
N  N1  1  0.66540000  0.42220000  0.33420000  1.0 -0.8122977851
N  N2  1  0.57780000  0.24320000  0.33420000  1.0 -0.8122977851
N  N3  1  0.75680000  0.33460000  0.33420000  1.0 -0.8122977851
N  N4  1  0.33460000  0.57780000  0.83420000  1.0 -0.8122977851
N  N5  1  0.42220000  0.75680000  0.83420000  1.0 -0.8122977851
N  N6  1  0.24320000  0.66540000  0.83420000  1.0 -0.8122977851
N  N7  1  0.66666667  0.33333333  0.43310000  1.0 -0.8165466028
N  N8  1  0.33333333  0.66666667  0.93310000  1.0 -0.8165466028
N  N9  1  0.23130000  0.80880000  0.01016000  1.0 -0.2816688854
N  N10  1  0.19120000  0.42250000  0.01016000  1.0 -0.2816688854
N  N11  1  0.57750000  0.76870000  0.01016000  1.0 -0.2816688854
N  N12  1  0.76870000  0.19120000  0.51016000  1.0 -0.2816688854
N  N13  1  0.80880000  0.57750000  0.51016000  1.0 -0.2816688854
N  N14  1  0.42250000  0.23130000  0.51016000  1.0 -0.2816688854
N  N15  1  0.42210000  0.18040000  0.41217000  1.0 -0.2917377391
N  N16  1  0.81960000  0.24170000  0.41217000  1.0 -0.2917377391
N  N17  1  0.75830000  0.57790000  0.41217000  1.0 -0.2917377391
N  N18  1  0.57790000  0.81960000  0.91217000  1.0 -0.2917377391
N  N19  1  0.18040000  0.75830000  0.91217000  1.0 -0.2917377391
N  N20  1  0.24170000  0.42210000  0.91217000  1.0 -0.2917377391
N  N21  1  0.40090000  0.09870000  0.36053000  1.0 0.0039460977
N  N22  1  0.90130000  0.30220000  0.36053000  1.0 0.0039460977
N  N23  1  0.69780000  0.59910000  0.36053000  1.0 0.0039460977
N  N24  1  0.59910000  0.90130000  0.86053000  1.0 0.0039460977
N  N25  1  0.09870000  0.69780000  0.86053000  1.0 0.0039460977
N  N26  1  0.30220000  0.40090000  0.86053000  1.0 0.0039460977
N  N27  1  0.51440000  0.35560000  0.42493000  1.0 -0.80352721
N  N28  1  0.64440000  0.15880000  0.42493000  1.0 -0.80352721
N  N29  1  0.84120000  0.48560000  0.42493000  1.0 -0.80352721
N  N30  1  0.48560000  0.64440000  0.92493000  1.0 -0.80352721
N  N31  1  0.35560000  0.84120000  0.92493000  1.0 -0.80352721
N  N32  1  0.15880000  0.51440000  0.92493000  1.0 -0.80352721
N  N33  1  0.22720000  0.82700000  0.08030000  1.0 0.0113896842
N  N34  1  0.17300000  0.40020000  0.08030000  1.0 0.0113896842
N  N35  1  0.59980000  0.77280000  0.08030000  1.0 0.0113896842
N  N36  1  0.77280000  0.17300000  0.58030000  1.0 0.0113896842
N  N37  1  0.82700000  0.59980000  0.58030000  1.0 0.0113896842
N  N38  1  0.40020000  0.22720000  0.58030000  1.0 0.0113896842
O  O1  1  0.50970000  0.36590000  0.32896000  1.0 -0.6744807798
O  O2  1  0.63410000  0.14380000  0.32896000  1.0 -0.6744807798
O  O3  1  0.85620000  0.49030000  0.32896000  1.0 -0.6744807798
O  O4  1  0.49030000  0.63410000  0.82896000  1.0 -0.6744807798
O  O5  1  0.36590000  0.85620000  0.82896000  1.0 -0.6744807798
O  O6  1  0.14380000  0.50970000  0.82896000  1.0 -0.6744807798
O  O7  1  0.95769000  0.47203000  0.47506000  1.0 -0.6295791902
O  O8  1  0.52797000  0.48566000  0.47506000  1.0 -0.6295791902
O  O9  1  0.51434000  0.04231000  0.47506000  1.0 -0.6295791902
O  O10  1  0.04231000  0.52797000  0.97506000  1.0 -0.6295791902
O  O11  1  0.47203000  0.51434000  0.97506000  1.0 -0.6295791902
O  O12  1  0.48566000  0.95769000  0.97506000  1.0 -0.6295791902
O  O13  1  0.38906000  0.37063000  0.47091000  1.0 -0.6221260049
O  O14  1  0.62937000  0.01843000  0.47091000  1.0 -0.6221260049
O  O15  1  0.98157000  0.61094000  0.47091000  1.0 -0.6221260049
O  O16  1  0.61094000  0.62937000  0.97091000  1.0 -0.6221260049
O  O17  1  0.37063000  0.98157000  0.97091000  1.0 -0.6221260049
O  O18  1  0.01843000  0.38906000  0.97091000  1.0 -0.6221260049
O  O19  1  0.33362000  0.45708000  0.44972000  1.0 -0.6221260049
O  O20  1  0.54292000  0.87654000  0.44972000  1.0 -0.6221260049
O  O21  1  0.12346000  0.66638000  0.44972000  1.0 -0.6221260049
O  O22  1  0.66638000  0.54292000  0.94972000  1.0 -0.6221260049
O  O23  1  0.45708000  0.12346000  0.94972000  1.0 -0.6221260049
O  O24  1  0.87654000  0.33362000  0.94972000  1.0 -0.6221260049
O  O25  1  0.07401000  0.56752000  0.51997000  1.0 -0.6221260049
O  O26  1  0.43248000  0.50649000  0.51997000  1.0 -0.6221260049
O  O27  1  0.49351000  0.92599000  0.51997000  1.0 -0.6221260049
O  O28  1  0.92599000  0.43248000  0.01997000  1.0 -0.6221260049
O  O29  1  0.56752000  0.49351000  0.01997000  1.0 -0.6221260049
O  O30  1  0.50649000  0.07401000  0.01997000  1.0 -0.6221260049
O  O31  1  0.10636000  0.52489000  0.43937000  1.0 -0.6221260049
O  O32  1  0.47511000  0.58147000  0.43937000  1.0 -0.6221260049
O  O33  1  0.41853000  0.89364000  0.43937000  1.0 -0.6221260049
O  O34  1  0.89364000  0.47511000  0.93937000  1.0 -0.6221260049
O  O35  1  0.52489000  0.41853000  0.93937000  1.0 -0.6221260049
O  O36  1  0.58147000  0.10636000  0.93937000  1.0 -0.6221260049
O  O37  1  0.25083000  0.65208000  0.66942000  1.0 -0.6295791902
O  O38  1  0.34792000  0.59875000  0.66942000  1.0 -0.6295791902
O  O39  1  0.40125000  0.74917000  0.66942000  1.0 -0.6295791902
O  O40  1  0.74917000  0.34792000  0.16942000  1.0 -0.6295791902
O  O41  1  0.65208000  0.40125000  0.16942000  1.0 -0.6295791902
O  O42  1  0.59875000  0.25083000  0.16942000  1.0 -0.6295791902
O  O43  1  0.00800000  0.55430000  0.32815000  1.0 -0.5157957115
O  O44  1  0.44570000  0.45370000  0.32815000  1.0 -0.5157957115
O  O45  1  0.54630000  0.99200000  0.32815000  1.0 -0.5157957115
O  O46  1  0.99200000  0.44570000  0.82815000  1.0 -0.5157957115
O  O47  1  0.55430000  0.54630000  0.82815000  1.0 -0.5157957115
O  O48  1  0.45370000  0.00800000  0.82815000  1.0 -0.5157957115
O  O49  1  0.00869000  0.55135000  0.40020000  1.0 -0.6221260049
O  O50  1  0.44865000  0.45734000  0.40020000  1.0 -0.6221260049
O  O51  1  0.54266000  0.99131000  0.40020000  1.0 -0.6221260049
O  O52  1  0.99131000  0.44865000  0.90020000  1.0 -0.6221260049
O  O53  1  0.55135000  0.54266000  0.90020000  1.0 -0.6221260049
O  O54  1  0.45734000  0.00869000  0.90020000  1.0 -0.6221260049
O  O55  1  0.30460000  0.72580000  0.74223000  1.0 -0.6295791902
O  O56  1  0.27420000  0.57880000  0.74223000  1.0 -0.6295791902
O  O57  1  0.42120000  0.69540000  0.74223000  1.0 -0.6295791902
O  O58  1  0.69540000  0.27420000  0.24223000  1.0 -0.6295791902
O  O59  1  0.72580000  0.42120000  0.24223000  1.0 -0.6295791902
O  O60  1  0.57880000  0.30460000  0.24223000  1.0 -0.6295791902
O  O61  1  0.33020000  0.25905000  0.44034000  1.0 -0.5085523861
O  O62  1  0.74095000  0.07115000  0.44034000  1.0 -0.5085523861
O  O63  1  0.92885000  0.66980000  0.44034000  1.0 -0.5085523861
O  O64  1  0.66980000  0.74095000  0.94034000  1.0 -0.5085523861
O  O65  1  0.25905000  0.92885000  0.94034000  1.0 -0.5085523861
O  O66  1  0.07115000  0.33020000  0.94034000  1.0 -0.5085523861
O  O67  1  0.85280000  0.40760000  0.51123000  1.0 -0.5085523861
O  O68  1  0.59240000  0.44520000  0.51123000  1.0 -0.5085523861
O  O69  1  0.55480000  0.14720000  0.51123000  1.0 -0.5085523861
O  O70  1  0.14720000  0.59240000  0.01123000  1.0 -0.5085523861
O  O71  1  0.40760000  0.55480000  0.01123000  1.0 -0.5085523861
O  O72  1  0.44520000  0.85280000  0.01123000  1.0 -0.5085523861
O  O73  1  0.25690000  0.79320000  0.76696000  1.0 -0.528332873
O  O74  1  0.20680000  0.46370000  0.76696000  1.0 -0.528332873
O  O75  1  0.53630000  0.74310000  0.76696000  1.0 -0.528332873
O  O76  1  0.74310000  0.20680000  0.26696000  1.0 -0.528332873
O  O77  1  0.79320000  0.53630000  0.26696000  1.0 -0.528332873
O  O78  1  0.46370000  0.25690000  0.26696000  1.0 -0.528332873
