# DDEC6 charges by PACMAN v1.1 (https://github.com/mtap-research/PACMAN-charge/)
data_UDOHAA_FSR_pacman
_symmetry_space_group_name_H-M   'P 1'
_cell_length_a   20.56780000
_cell_length_b   20.56780000
_cell_length_c   30.67880000
_cell_angle_alpha   90.00000000
_cell_angle_beta   90.00000000
_cell_angle_gamma   120.00000000
_symmetry_Int_Tables_number   1
_chemical_formula_structural   Ti4Zn4H141C192N19O39
_chemical_formula_sum   'Ti8 Zn8 H282 C384 N38 O78'
_cell_volume   11239.44020325
_cell_formula_units_Z   2
loop_
 _symmetry_equiv_pos_site_id
 _symmetry_equiv_pos_as_xyz
  1  'x, y, z'
loop_
 _atom_site_type_symbol
 _atom_site_label
 _atom_site_symmetry_multiplicity
 _atom_site_fract_x
 _atom_site_fract_y
 _atom_site_fract_z
 _atom_site_occupancy
 _atom_site_charge
Ti  Ti1  1  0.48380000  0.43381000  0.63679000  1.0 1.9069774374
Ti  Ti2  1  0.56619000  0.04999000  0.63679000  1.0 1.9069774374
Ti  Ti3  1  0.95001000  0.51620000  0.63679000  1.0 1.9069774374
Ti  Ti4  1  0.51620000  0.56619000  0.13679000  1.0 1.9069774374
Ti  Ti5  1  0.43381000  0.95001000  0.13679000  1.0 1.9069774374
Ti  Ti6  1  0.04999000  0.48380000  0.13679000  1.0 1.9069774374
Ti  Ti7  1  0.66666667  0.33333333  0.39559000  1.0 1.8991617784
Ti  Ti8  1  0.33333333  0.66666667  0.89559000  1.0 1.8991617784
Zn  Zn1  1  0.33333333  0.66666667  0.74207000  1.0 0.7403502091
Zn  Zn2  1  0.66666667  0.33333333  0.24207000  1.0 0.7403502091
Zn  Zn3  1  0.26552000  0.42820000  0.64815000  1.0 0.7483273372
Zn  Zn4  1  0.57180000  0.83732000  0.64815000  1.0 0.7483273372
Zn  Zn5  1  0.16268000  0.73448000  0.64815000  1.0 0.7483273372
Zn  Zn6  1  0.73448000  0.57180000  0.14815000  1.0 0.7483273372
Zn  Zn7  1  0.42820000  0.16268000  0.14815000  1.0 0.7483273372
Zn  Zn8  1  0.83732000  0.26552000  0.14815000  1.0 0.7483273372
H  H1  1  0.45591000  0.68276000  0.74525000  1.0 0.2602476154
H  H2  1  0.31724000  0.77315000  0.74525000  1.0 0.2602476154
H  H3  1  0.22685000  0.54409000  0.74525000  1.0 0.2602476154
H  H4  1  0.54409000  0.31724000  0.24525000  1.0 0.2602476154
H  H5  1  0.68276000  0.22685000  0.24525000  1.0 0.2602476154
H  H6  1  0.77315000  0.45591000  0.24525000  1.0 0.2602476154
H  H7  1  0.43248000  0.68583000  0.78953000  1.0 0.3022317215
H  H8  1  0.31417000  0.74665000  0.78953000  1.0 0.3022317215
H  H9  1  0.25335000  0.56752000  0.78953000  1.0 0.3022317215
H  H10  1  0.56752000  0.31417000  0.28953000  1.0 0.3022317215
H  H11  1  0.68583000  0.25335000  0.28953000  1.0 0.3022317215
H  H12  1  0.74665000  0.43248000  0.28953000  1.0 0.3022317215
H  H13  1  0.40558000  0.61375000  0.76818000  1.0 0.3022317215
H  H14  1  0.38625000  0.79183000  0.76818000  1.0 0.3022317215
H  H15  1  0.20817000  0.59442000  0.76818000  1.0 0.3022317215
H  H16  1  0.59442000  0.38625000  0.26818000  1.0 0.3022317215
H  H17  1  0.61375000  0.20817000  0.26818000  1.0 0.3022317215
H  H18  1  0.79183000  0.40558000  0.26818000  1.0 0.3022317215
H  H19  1  0.37880000  0.70008000  0.65857000  1.0 0.2602476154
H  H20  1  0.29992000  0.67872000  0.65857000  1.0 0.2602476154
H  H21  1  0.32128000  0.62120000  0.65857000  1.0 0.2602476154
H  H22  1  0.62120000  0.29992000  0.15857000  1.0 0.2602476154
H  H23  1  0.70008000  0.32128000  0.15857000  1.0 0.2602476154
H  H24  1  0.67872000  0.37880000  0.15857000  1.0 0.2602476154
H  H25  1  0.38985000  0.49130000  0.77880000  1.0 0.3255617594
H  H26  1  0.50870000  0.89855000  0.77880000  1.0 0.3255617594
H  H27  1  0.10145000  0.61015000  0.77880000  1.0 0.3255617594
H  H28  1  0.61015000  0.50870000  0.27880000  1.0 0.3255617594
H  H29  1  0.49130000  0.10145000  0.27880000  1.0 0.3255617594
H  H30  1  0.89855000  0.38985000  0.27880000  1.0 0.3255617594
H  H31  1  0.31973000  0.47998000  0.78168000  1.0 0.3255617594
H  H32  1  0.52002000  0.83975000  0.78168000  1.0 0.3255617594
H  H33  1  0.16025000  0.68027000  0.78168000  1.0 0.3255617594
H  H34  1  0.68027000  0.52002000  0.28168000  1.0 0.3255617594
H  H35  1  0.47998000  0.16025000  0.28168000  1.0 0.3255617594
H  H36  1  0.83975000  0.31973000  0.28168000  1.0 0.3255617594
H  H37  1  0.39601000  0.51757000  0.66165000  1.0 0.2904688939
H  H38  1  0.48243000  0.87844000  0.66165000  1.0 0.2904688939
H  H39  1  0.12156000  0.60399000  0.66165000  1.0 0.2904688939
H  H40  1  0.60399000  0.48243000  0.16165000  1.0 0.2904688939
H  H41  1  0.51757000  0.12156000  0.16165000  1.0 0.2904688939
H  H42  1  0.87844000  0.39601000  0.16165000  1.0 0.2904688939
H  H43  1  0.35532000  0.50859000  0.70200000  1.0 0.3087948387
H  H44  1  0.49141000  0.84673000  0.70200000  1.0 0.3087948387
H  H45  1  0.15327000  0.64468000  0.70200000  1.0 0.3087948387
H  H46  1  0.64468000  0.49141000  0.20200000  1.0 0.3087948387
H  H47  1  0.50859000  0.15327000  0.20200000  1.0 0.3087948387
H  H48  1  0.84673000  0.35532000  0.20200000  1.0 0.3087948387
H  H49  1  0.35392000  0.55641000  0.66756000  1.0 0.2602476154
H  H50  1  0.44359000  0.79751000  0.66756000  1.0 0.2602476154
H  H51  1  0.20249000  0.64608000  0.66756000  1.0 0.2602476154
H  H52  1  0.64608000  0.44359000  0.16756000  1.0 0.2602476154
H  H53  1  0.55641000  0.20249000  0.16756000  1.0 0.2602476154
H  H54  1  0.79751000  0.35392000  0.16756000  1.0 0.2602476154
H  H55  1  0.54400000  0.37045000  0.53010000  1.0 0.1305593934
H  H56  1  0.62955000  0.17355000  0.53010000  1.0 0.1305593934
H  H57  1  0.82645000  0.45600000  0.53010000  1.0 0.1305593934
H  H58  1  0.45600000  0.62955000  0.03010000  1.0 0.1305593934
H  H59  1  0.37045000  0.82645000  0.03010000  1.0 0.1305593934
H  H60  1  0.17355000  0.54400000  0.03010000  1.0 0.1305593934
H  H61  1  0.60008000  0.41019000  0.49152000  1.0 0.1305593934
H  H62  1  0.58981000  0.18989000  0.49152000  1.0 0.1305593934
H  H63  1  0.81011000  0.39992000  0.49152000  1.0 0.1305593934
H  H64  1  0.39992000  0.58981000  0.99152000  1.0 0.1305593934
H  H65  1  0.41019000  0.81011000  0.99152000  1.0 0.1305593934
H  H66  1  0.18989000  0.60008000  0.99152000  1.0 0.1305593934
H  H67  1  0.52643000  0.09619000  0.80115000  1.0 0.1192513797
H  H68  1  0.90381000  0.43024000  0.80115000  1.0 0.1192513797
H  H69  1  0.56976000  0.47357000  0.80115000  1.0 0.1192513797
H  H70  1  0.47357000  0.90381000  0.30115000  1.0 0.1192513797
H  H71  1  0.09619000  0.56976000  0.30115000  1.0 0.1192513797
H  H72  1  0.43024000  0.52643000  0.30115000  1.0 0.1192513797
H  H73  1  0.58384000  0.45458000  0.42337000  1.0 0.1305593934
H  H74  1  0.54542000  0.12926000  0.42337000  1.0 0.1305593934
H  H75  1  0.87074000  0.41616000  0.42337000  1.0 0.1305593934
H  H76  1  0.41616000  0.54542000  0.92337000  1.0 0.1305593934
H  H77  1  0.45458000  0.87074000  0.92337000  1.0 0.1305593934
H  H78  1  0.12926000  0.58384000  0.92337000  1.0 0.1305593934
H  H79  1  0.51494000  0.26283000  0.65707000  1.0 0.1305593934
H  H80  1  0.73717000  0.25211000  0.65707000  1.0 0.1305593934
H  H81  1  0.74789000  0.48506000  0.65707000  1.0 0.1305593934
H  H82  1  0.48506000  0.73717000  0.15707000  1.0 0.1305593934
H  H83  1  0.26283000  0.74789000  0.15707000  1.0 0.1305593934
H  H84  1  0.25211000  0.51494000  0.15707000  1.0 0.1305593934
H  H85  1  0.48381000  0.18438000  0.63479000  1.0 0.1305593934
H  H86  1  0.81562000  0.29943000  0.63479000  1.0 0.1305593934
H  H87  1  0.70057000  0.51619000  0.63479000  1.0 0.1305593934
H  H88  1  0.51619000  0.81562000  0.13479000  1.0 0.1305593934
H  H89  1  0.18438000  0.70057000  0.13479000  1.0 0.1305593934
H  H90  1  0.29943000  0.48381000  0.13479000  1.0 0.1305593934
H  H91  1  0.35631000  0.18750000  0.23404000  1.0 0.1305593934
H  H92  1  0.81250000  0.16881000  0.23404000  1.0 0.1305593934
H  H93  1  0.83119000  0.64369000  0.23404000  1.0 0.1305593934
H  H94  1  0.64369000  0.81250000  0.73404000  1.0 0.1305593934
H  H95  1  0.18750000  0.83119000  0.73404000  1.0 0.1305593934
H  H96  1  0.16881000  0.35631000  0.73404000  1.0 0.1305593934
H  H97  1  0.31528000  0.41421000  0.55458000  1.0 0.1192513797
H  H98  1  0.58579000  0.90107000  0.55458000  1.0 0.1305593934
H  H99  1  0.09893000  0.68472000  0.55458000  1.0 0.1305593934
H  H100  1  0.68472000  0.58579000  0.05458000  1.0 0.1305593934
H  H101  1  0.41421000  0.09893000  0.05458000  1.0 0.1305593934
H  H102  1  0.90107000  0.31528000  0.05458000  1.0 0.1305593934
H  H103  1  0.48100000  0.60640000  0.50892000  1.0 0.1133187276
H  H104  1  0.39360000  0.87460000  0.50892000  1.0 0.1133187276
H  H105  1  0.12540000  0.51900000  0.50892000  1.0 0.1133187276
H  H106  1  0.51900000  0.39360000  0.00892000  1.0 0.1133187276
H  H107  1  0.60640000  0.12540000  0.00892000  1.0 0.1133187276
H  H108  1  0.87460000  0.48100000  0.00892000  1.0 0.1133187276
H  H109  1  0.46568000  0.40395000  0.20832000  1.0 0.1467236653
H  H110  1  0.59605000  0.06173000  0.20832000  1.0 0.1467236653
H  H111  1  0.93827000  0.53432000  0.20832000  1.0 0.1467236653
H  H112  1  0.53432000  0.59605000  0.70832000  1.0 0.1467236653
H  H113  1  0.40395000  0.93827000  0.70832000  1.0 0.1467236653
H  H114  1  0.06173000  0.46568000  0.70832000  1.0 0.1467236653
H  H115  1  0.41271000  0.32460000  0.53919000  1.0 0.1192513797
H  H116  1  0.67540000  0.08811000  0.53919000  1.0 0.1192513797
H  H117  1  0.91189000  0.58729000  0.53919000  1.0 0.1192513797
H  H118  1  0.58729000  0.67540000  0.03919000  1.0 0.1192513797
H  H119  1  0.32460000  0.91189000  0.03919000  1.0 0.1192513797
H  H120  1  0.08811000  0.41271000  0.03919000  1.0 0.1192513797
H  H121  1  0.49289000  0.34043000  0.15111000  1.0 0.1389844541
H  H122  1  0.65957000  0.15246000  0.15111000  1.0 0.1389844541
H  H123  1  0.84754000  0.50711000  0.15111000  1.0 0.1389844541
H  H124  1  0.50711000  0.65957000  0.65111000  1.0 0.1389844541
H  H125  1  0.34043000  0.84754000  0.65111000  1.0 0.1389844541
H  H126  1  0.15246000  0.49289000  0.65111000  1.0 0.1389844541
H  H127  1  0.50313000  0.17903000  0.84785000  1.0 0.1192513797
H  H128  1  0.82097000  0.32410000  0.84785000  1.0 0.1192513797
H  H129  1  0.67590000  0.49687000  0.84785000  1.0 0.1192513797
H  H130  1  0.49687000  0.82097000  0.34785000  1.0 0.1192513797
H  H131  1  0.17903000  0.67590000  0.34785000  1.0 0.1192513797
H  H132  1  0.32410000  0.50313000  0.34785000  1.0 0.1192513797
H  H133  1  0.36816000  0.19281000  0.38589000  1.0 0.1192513797
H  H134  1  0.80719000  0.17535000  0.38589000  1.0 0.1192513797
H  H135  1  0.82465000  0.63184000  0.38589000  1.0 0.1192513797
H  H136  1  0.63184000  0.80719000  0.88589000  1.0 0.1192513797
H  H137  1  0.19281000  0.82465000  0.88589000  1.0 0.1192513797
H  H138  1  0.17535000  0.36816000  0.88589000  1.0 0.1192513797
H  H139  1  0.47187000  0.27137000  0.85537000  1.0 0.1133187276
H  H140  1  0.72863000  0.20050000  0.85537000  1.0 0.1133187276
H  H141  1  0.79950000  0.52813000  0.85537000  1.0 0.1133187276
H  H142  1  0.52813000  0.72863000  0.35537000  1.0 0.1133187276
H  H143  1  0.27137000  0.79950000  0.35537000  1.0 0.1133187276
H  H144  1  0.20050000  0.47187000  0.35537000  1.0 0.1133187276
H  H145  1  0.59322000  0.52622000  0.36292000  1.0 0.1192513797
H  H146  1  0.47378000  0.06700000  0.36292000  1.0 0.1192513797
H  H147  1  0.93300000  0.40678000  0.36292000  1.0 0.1192513797
H  H148  1  0.40678000  0.47378000  0.86292000  1.0 0.1192513797
H  H149  1  0.52622000  0.93300000  0.86292000  1.0 0.1192513797
H  H150  1  0.06700000  0.59322000  0.86292000  1.0 0.1192513797
H  H151  1  0.28550000  0.25521000  0.54856000  1.0 0.1192513797
H  H152  1  0.74479000  0.03029000  0.54856000  1.0 0.1133187276
H  H153  1  0.96971000  0.71450000  0.54856000  1.0 0.1192513797
H  H154  1  0.71450000  0.74479000  0.04856000  1.0 0.1133187276
H  H155  1  0.25521000  0.96971000  0.04856000  1.0 0.1133187276
H  H156  1  0.03029000  0.28550000  0.04856000  1.0 0.1133187276
H  H157  1  0.46290000  0.28753000  0.72492000  1.0 0.1192513797
H  H158  1  0.71247000  0.17537000  0.72492000  1.0 0.1192513797
H  H159  1  0.82463000  0.53710000  0.72492000  1.0 0.1192513797
H  H160  1  0.53710000  0.71247000  0.22492000  1.0 0.1192513797
H  H161  1  0.28753000  0.82463000  0.22492000  1.0 0.1192513797
H  H162  1  0.17537000  0.46290000  0.22492000  1.0 0.1192513797
H  H163  1  0.45103000  0.32510000  0.79342000  1.0 0.1133187276
H  H164  1  0.67490000  0.12593000  0.79342000  1.0 0.1133187276
H  H165  1  0.87407000  0.54897000  0.79342000  1.0 0.1133187276
H  H166  1  0.54897000  0.67490000  0.29342000  1.0 0.1133187276
H  H167  1  0.32510000  0.87407000  0.29342000  1.0 0.1133187276
H  H168  1  0.12593000  0.45103000  0.29342000  1.0 0.1133187276
H  H169  1  0.50656000  0.63157000  0.43021000  1.0 0.1133187276
H  H170  1  0.36843000  0.87499000  0.43021000  1.0 0.1192513797
H  H171  1  0.12501000  0.49344000  0.43021000  1.0 0.1133187276
H  H172  1  0.49344000  0.36843000  0.93021000  1.0 0.1133187276
H  H173  1  0.63157000  0.12501000  0.93021000  1.0 0.1133187276
H  H174  1  0.87499000  0.50656000  0.93021000  1.0 0.1133187276
H  H175  1  0.54898000  0.61163000  0.36591000  1.0 0.1192513797
H  H176  1  0.38837000  0.93735000  0.36591000  1.0 0.1192513797
H  H177  1  0.06265000  0.45102000  0.36591000  1.0 0.1192513797
H  H178  1  0.45102000  0.38837000  0.86591000  1.0 0.1192513797
H  H179  1  0.61163000  0.06265000  0.86591000  1.0 0.1192513797
H  H180  1  0.93735000  0.54898000  0.86591000  1.0 0.1192513797
H  H181  1  0.26935000  0.95143000  0.65602000  1.0 0.1029170081
H  H182  1  0.04857000  0.31792000  0.65602000  1.0 0.1029170081
H  H183  1  0.68208000  0.73065000  0.65602000  1.0 0.1029170081
H  H184  1  0.73065000  0.04857000  0.15602000  1.0 0.1029170081
H  H185  1  0.95143000  0.68208000  0.15602000  1.0 0.1029170081
H  H186  1  0.31792000  0.26935000  0.15602000  1.0 0.1029170081
H  H187  1  0.38008000  0.06341000  0.65526000  1.0 0.1192513797
H  H188  1  0.93659000  0.31667000  0.65526000  1.0 0.1192513797
H  H189  1  0.68333000  0.61992000  0.65526000  1.0 0.1192513797
H  H190  1  0.61992000  0.93659000  0.15526000  1.0 0.1192513797
H  H191  1  0.06341000  0.68333000  0.15526000  1.0 0.1192513797
H  H192  1  0.31667000  0.38008000  0.15526000  1.0 0.1192513797
H  H193  1  0.20773000  0.17786000  0.49499000  1.0 0.1192513797
H  H194  1  0.82214000  0.02987000  0.49499000  1.0 0.1192513797
H  H195  1  0.97013000  0.79227000  0.49499000  1.0 0.1192513797
H  H196  1  0.79227000  0.82214000  0.99499000  1.0 0.1192513797
H  H197  1  0.17786000  0.97013000  0.99499000  1.0 0.1192513797
H  H198  1  0.02987000  0.20773000  0.99499000  1.0 0.1192513797
H  H199  1  0.21284000  0.19207000  0.65758000  1.0 0.1192513797
H  H200  1  0.80793000  0.02077000  0.65758000  1.0 0.1192513797
H  H201  1  0.97923000  0.78716000  0.65758000  1.0 0.1192513797
H  H202  1  0.78716000  0.80793000  0.15758000  1.0 0.1192513797
H  H203  1  0.19207000  0.97923000  0.15758000  1.0 0.1192513797
H  H204  1  0.02077000  0.21284000  0.15758000  1.0 0.1192513797
H  H205  1  0.25753000  0.16511000  0.43053000  1.0 0.1192513797
H  H206  1  0.83489000  0.09242000  0.43053000  1.0 0.1192513797
H  H207  1  0.90758000  0.74247000  0.43053000  1.0 0.1192513797
H  H208  1  0.74247000  0.83489000  0.93053000  1.0 0.1192513797
H  H209  1  0.16511000  0.90758000  0.93053000  1.0 0.1192513797
H  H210  1  0.09242000  0.25753000  0.93053000  1.0 0.1192513797
H  H211  1  0.18816000  0.30947000  0.38138000  1.0 0.1133187276
H  H212  1  0.69053000  0.87869000  0.38138000  1.0 0.1133187276
H  H213  1  0.12131000  0.81184000  0.38138000  1.0 0.1133187276
H  H214  1  0.81184000  0.69053000  0.88138000  1.0 0.1133187276
H  H215  1  0.30947000  0.12131000  0.88138000  1.0 0.1133187276
H  H216  1  0.87869000  0.18816000  0.88138000  1.0 0.1133187276
H  H217  1  0.11721000  0.37257000  0.51009000  1.0 0.1389844541
H  H218  1  0.62743000  0.74464000  0.51009000  1.0 0.1389844541
H  H219  1  0.25536000  0.88279000  0.51009000  1.0 0.1389844541
H  H220  1  0.88279000  0.62743000  0.01009000  1.0 0.1389844541
H  H221  1  0.37257000  0.25536000  0.01009000  1.0 0.1389844541
H  H222  1  0.74464000  0.11721000  0.01009000  1.0 0.1389844541
H  H223  1  0.36072000  0.43758000  0.48814000  1.0 0.1192513797
H  H224  1  0.56242000  0.92314000  0.48814000  1.0 0.1192513797
H  H225  1  0.07686000  0.63928000  0.48814000  1.0 0.1192513797
H  H226  1  0.63928000  0.56242000  0.98814000  1.0 0.1192513797
H  H227  1  0.43758000  0.07686000  0.98814000  1.0 0.1192513797
H  H228  1  0.92314000  0.36072000  0.98814000  1.0 0.1192513797
H  H229  1  0.14768000  0.32166000  0.45028000  1.0 0.1305593934
H  H230  1  0.67834000  0.82602000  0.45028000  1.0 0.1305593934
H  H231  1  0.17398000  0.85232000  0.45028000  1.0 0.1305593934
H  H232  1  0.85232000  0.67834000  0.95028000  1.0 0.1305593934
H  H233  1  0.32166000  0.17398000  0.95028000  1.0 0.1305593934
H  H234  1  0.82602000  0.14768000  0.95028000  1.0 0.1305593934
H  H235  1  0.12655000  0.40515000  0.58667000  1.0 0.1305593934
H  H236  1  0.59485000  0.72140000  0.58667000  1.0 0.1305593934
H  H237  1  0.27860000  0.87345000  0.58667000  1.0 0.1305593934
H  H238  1  0.87345000  0.59485000  0.08667000  1.0 0.1305593934
H  H239  1  0.40515000  0.27860000  0.08667000  1.0 0.1305593934
H  H240  1  0.72140000  0.12655000  0.08667000  1.0 0.1305593934
H  H241  1  0.39776000  0.40885000  0.42205000  1.0 0.1133187276
H  H242  1  0.59115000  0.98891000  0.42205000  1.0 0.1133187276
H  H243  1  0.01109000  0.60224000  0.42205000  1.0 0.1133187276
H  H244  1  0.60224000  0.59115000  0.92205000  1.0 0.1133187276
H  H245  1  0.40885000  0.01109000  0.92205000  1.0 0.1133187276
H  H246  1  0.98891000  0.39776000  0.92205000  1.0 0.1133187276
H  H247  1  0.15522000  0.94594000  0.66319000  1.0 0.1192513797
H  H248  1  0.05406000  0.20928000  0.66319000  1.0 0.1192513797
H  H249  1  0.79072000  0.84478000  0.66319000  1.0 0.1192513797
H  H250  1  0.84478000  0.05406000  0.16319000  1.0 0.1192513797
H  H251  1  0.94594000  0.79072000  0.16319000  1.0 0.1192513797
H  H252  1  0.20928000  0.15522000  0.16319000  1.0 0.1192513797
H  H253  1  0.14766000  0.05325000  0.65951000  1.0 0.1192513797
H  H254  1  0.94675000  0.09441000  0.65951000  1.0 0.1192513797
H  H255  1  0.90559000  0.85234000  0.65951000  1.0 0.1192513797
H  H256  1  0.85234000  0.94675000  0.15951000  1.0 0.1192513797
H  H257  1  0.05325000  0.90559000  0.15951000  1.0 0.1192513797
H  H258  1  0.09441000  0.14766000  0.15951000  1.0 0.1192513797
H  H259  1  0.26264000  0.24878000  0.26251000  1.0 0.1305593934
H  H260  1  0.75122000  0.01386000  0.26251000  1.0 0.1305593934
H  H261  1  0.98614000  0.73736000  0.26251000  1.0 0.1305593934
H  H262  1  0.73736000  0.75122000  0.76251000  1.0 0.1305593934
H  H263  1  0.24878000  0.98614000  0.76251000  1.0 0.1305593934
H  H264  1  0.01386000  0.26264000  0.76251000  1.0 0.1305593934
H  H265  1  0.22034000  0.27326000  0.32716000  1.0 0.1133187276
H  H266  1  0.72674000  0.94708000  0.32716000  1.0 0.1192513797
H  H267  1  0.05292000  0.77966000  0.32716000  1.0 0.1192513797
H  H268  1  0.77966000  0.72674000  0.82716000  1.0 0.1192513797
H  H269  1  0.27326000  0.05292000  0.82716000  1.0 0.1192513797
H  H270  1  0.94708000  0.22034000  0.82716000  1.0 0.1133187276
H  H271  1  0.43369000  0.40868000  0.36510000  1.0 0.1133187276
H  H272  1  0.59132000  0.02501000  0.36510000  1.0 0.1133187276
H  H273  1  0.97499000  0.56631000  0.36510000  1.0 0.1133187276
H  H274  1  0.56631000  0.59132000  0.86510000  1.0 0.1133187276
H  H275  1  0.40868000  0.97499000  0.86510000  1.0 0.1133187276
H  H276  1  0.02501000  0.43369000  0.86510000  1.0 0.1133187276
H  H277  1  0.47600000  0.38420000  0.30045000  1.0 0.1389844541
H  H278  1  0.61580000  0.09180000  0.30045000  1.0 0.1389844541
H  H279  1  0.90820000  0.52400000  0.30045000  1.0 0.1389844541
H  H280  1  0.52400000  0.61580000  0.80045000  1.0 0.1389844541
H  H281  1  0.38420000  0.90820000  0.80045000  1.0 0.1389844541
H  H282  1  0.09180000  0.47600000  0.80045000  1.0 0.1389844541
C  C1  1  0.46950000  0.55100000  0.58650000  1.0 0.5923995003
C  C2  1  0.44900000  0.91850000  0.58650000  1.0 0.5923995003
C  C3  1  0.08150000  0.53050000  0.58650000  1.0 0.5923995003
C  C4  1  0.53050000  0.44900000  0.08650000  1.0 0.5923995003
C  C5  1  0.55100000  0.08150000  0.08650000  1.0 0.5923995003
C  C6  1  0.91850000  0.46950000  0.08650000  1.0 0.5923995003
C  C7  1  0.52450000  0.31220000  0.43368000  1.0 0.2341968293
C  C8  1  0.68780000  0.21230000  0.43368000  1.0 0.2341968293
C  C9  1  0.78770000  0.47550000  0.43368000  1.0 0.2341968293
C  C10  1  0.47550000  0.68780000  0.93368000  1.0 0.2341968293
C  C11  1  0.31220000  0.78770000  0.93368000  1.0 0.2341968293
C  C12  1  0.21230000  0.52450000  0.93368000  1.0 0.2341968293
C  C13  1  0.39450000  0.26650000  0.65100000  1.0 0.2524036839
C  C14  1  0.73350000  0.12800000  0.65100000  1.0 0.2524036839
C  C15  1  0.87200000  0.60550000  0.65100000  1.0 0.2524036839
C  C16  1  0.60550000  0.73350000  0.15100000  1.0 0.2524036839
C  C17  1  0.26650000  0.87200000  0.15100000  1.0 0.2524036839
C  C18  1  0.12800000  0.39450000  0.15100000  1.0 0.2524036839
C  C19  1  0.50010000  0.17400000  0.78140000  1.0 0.0602292649
C  C20  1  0.82600000  0.32610000  0.78140000  1.0 0.0602292649
C  C21  1  0.67390000  0.49990000  0.78140000  1.0 0.0602292649
C  C22  1  0.49990000  0.82600000  0.28140000  1.0 0.0602292649
C  C23  1  0.17400000  0.67390000  0.28140000  1.0 0.0602292649
C  C24  1  0.32610000  0.50010000  0.28140000  1.0 0.0602292649
C  C25  1  0.49590000  0.32800000  0.47020000  1.0 -0.0302898568
C  C26  1  0.67200000  0.16790000  0.47020000  1.0 -0.0302898568
C  C27  1  0.83210000  0.50410000  0.47020000  1.0 -0.0302898568
C  C28  1  0.50410000  0.67200000  0.97020000  1.0 -0.0302898568
C  C29  1  0.32800000  0.83210000  0.97020000  1.0 -0.0302898568
C  C30  1  0.16790000  0.49590000  0.97020000  1.0 -0.0302898568
C  C31  1  0.54700000  0.03290000  0.73460000  1.0 0.5972993895
C  C32  1  0.96710000  0.51410000  0.73460000  1.0 0.5972993895
C  C33  1  0.48590000  0.45300000  0.73460000  1.0 0.5972993895
C  C34  1  0.45300000  0.96710000  0.23460000  1.0 0.5972993895
C  C35  1  0.03290000  0.48590000  0.23460000  1.0 0.5972993895
C  C36  1  0.51410000  0.54700000  0.23460000  1.0 0.5972993895
C  C37  1  0.31670000  0.33000000  0.64530000  1.0 0.6119353299
C  C38  1  0.67000000  0.98670000  0.64530000  1.0 0.6119353299
C  C39  1  0.01330000  0.68330000  0.64530000  1.0 0.6119353299
C  C40  1  0.68330000  0.67000000  0.14530000  1.0 0.6119353299
C  C41  1  0.33000000  0.01330000  0.14530000  1.0 0.6119353299
C  C42  1  0.98670000  0.31670000  0.14530000  1.0 0.6119353299
C  C43  1  0.48600000  0.20570000  0.74270000  1.0 0.0501345992
C  C44  1  0.79430000  0.28030000  0.74270000  1.0 0.0501345992
C  C45  1  0.71970000  0.51400000  0.74270000  1.0 0.0501345992
C  C46  1  0.51400000  0.79430000  0.24270000  1.0 0.0501345992
C  C47  1  0.20570000  0.71970000  0.24270000  1.0 0.0501345992
C  C48  1  0.28030000  0.48600000  0.24270000  1.0 0.0501345992
C  C49  1  0.49180000  0.53050000  0.54470000  1.0 -0.171417371
C  C50  1  0.46950000  0.96130000  0.54470000  1.0 -0.171417371
C  C51  1  0.03870000  0.50820000  0.54470000  1.0 -0.171417371
C  C52  1  0.50820000  0.46950000  0.04470000  1.0 -0.171417371
C  C53  1  0.53050000  0.03870000  0.04470000  1.0 -0.171417371
C  C54  1  0.96130000  0.49180000  0.04470000  1.0 -0.171417371
C  C55  1  0.49180000  0.17920000  0.70106000  1.0 -0.0195208808
C  C56  1  0.82080000  0.31260000  0.70106000  1.0 -0.0195208808
C  C57  1  0.68740000  0.50820000  0.70106000  1.0 -0.0195208808
C  C58  1  0.50820000  0.82080000  0.20106000  1.0 -0.0195208808
C  C59  1  0.17920000  0.68740000  0.20106000  1.0 -0.0195208808
C  C60  1  0.31260000  0.49180000  0.20106000  1.0 -0.0195208808
C  C61  1  0.54870000  0.39100000  0.50105000  1.0 -0.2387578711
C  C62  1  0.60900000  0.15770000  0.50105000  1.0 -0.2387578711
C  C63  1  0.84230000  0.45130000  0.50105000  1.0 -0.2387578711
C  C64  1  0.45130000  0.60900000  0.00105000  1.0 -0.2387578711
C  C65  1  0.39100000  0.84230000  0.00105000  1.0 -0.2387578711
C  C66  1  0.15770000  0.54870000  0.00105000  1.0 -0.2387578711
C  C67  1  0.51450000  0.12590000  0.69836000  1.0 0.2392112588
C  C68  1  0.87410000  0.38860000  0.69836000  1.0 0.2392112588
C  C69  1  0.61140000  0.48550000  0.69836000  1.0 0.2392112588
C  C70  1  0.48550000  0.87410000  0.19836000  1.0 0.2392112588
C  C71  1  0.12590000  0.61140000  0.19836000  1.0 0.2392112588
C  C72  1  0.38860000  0.51450000  0.19836000  1.0 0.2392112588
C  C73  1  0.40030000  0.20270000  0.65630000  1.0 -0.0302898568
C  C74  1  0.79730000  0.19760000  0.65630000  1.0 -0.0302898568
C  C75  1  0.80240000  0.59970000  0.65630000  1.0 -0.0302898568
C  C76  1  0.59970000  0.79730000  0.15630000  1.0 -0.0302898568
C  C77  1  0.20270000  0.80240000  0.15630000  1.0 -0.0302898568
C  C78  1  0.19760000  0.40030000  0.15630000  1.0 -0.0302898568
C  C79  1  0.51080000  0.47280000  0.54219000  1.0 0.2392112588
C  C80  1  0.52720000  0.03800000  0.54219000  1.0 0.2392112588
C  C81  1  0.96200000  0.48920000  0.54219000  1.0 0.2392112588
C  C82  1  0.48920000  0.52720000  0.04219000  1.0 0.2392112588
C  C83  1  0.47280000  0.96200000  0.04219000  1.0 0.2392112588
C  C84  1  0.03800000  0.51080000  0.04219000  1.0 0.2392112588
C  C85  1  0.50690000  0.24700000  0.36030000  1.0 0.5972993895
C  C86  1  0.75300000  0.25990000  0.36030000  1.0 0.5972993895
C  C87  1  0.74010000  0.49310000  0.36030000  1.0 0.5972993895
C  C88  1  0.49310000  0.75300000  0.86030000  1.0 0.5972993895
C  C89  1  0.24700000  0.74010000  0.86030000  1.0 0.5972993895
C  C90  1  0.25990000  0.50690000  0.86030000  1.0 0.5972993895
C  C91  1  0.52730000  0.09370000  0.73620000  1.0 -0.1610214686
C  C92  1  0.90630000  0.43360000  0.73620000  1.0 -0.1610214686
C  C93  1  0.56640000  0.47270000  0.73620000  1.0 -0.1610214686
C  C94  1  0.47270000  0.90630000  0.23620000  1.0 -0.1610214686
C  C95  1  0.09370000  0.56640000  0.23620000  1.0 -0.1610214686
C  C96  1  0.43360000  0.52730000  0.23620000  1.0 -0.1610214686
C  C97  1  0.41660000  0.28600000  0.47870000  1.0 0.0501345992
C  C98  1  0.71400000  0.13060000  0.47870000  1.0 0.0501345992
C  C99  1  0.86940000  0.58340000  0.47870000  1.0 0.0501345992
C  C100  1  0.58340000  0.71400000  0.97870000  1.0 0.0501345992
C  C101  1  0.28600000  0.86940000  0.97870000  1.0 0.0501345992
C  C102  1  0.13060000  0.41660000  0.97870000  1.0 0.0501345992
C  C103  1  0.47830000  0.26030000  0.40130000  1.0 -0.171417371
C  C104  1  0.73970000  0.21800000  0.40130000  1.0 -0.171417371
C  C105  1  0.78200000  0.52170000  0.40130000  1.0 -0.171417371
C  C106  1  0.52170000  0.73970000  0.90130000  1.0 -0.171417371
C  C107  1  0.26030000  0.78200000  0.90130000  1.0 -0.171417371
C  C108  1  0.21800000  0.47830000  0.90130000  1.0 -0.171417371
C  C109  1  0.32320000  0.26270000  0.65130000  1.0 -0.1610214686
C  C110  1  0.73730000  0.06050000  0.65130000  1.0 -0.1610214686
C  C111  1  0.93950000  0.67680000  0.65130000  1.0 -0.1610214686
C  C112  1  0.67680000  0.73730000  0.15130000  1.0 -0.1610214686
C  C113  1  0.26270000  0.93950000  0.15130000  1.0 -0.1610214686
C  C114  1  0.06050000  0.32320000  0.15130000  1.0 -0.1610214686
C  C115  1  0.29730000  0.35820000  0.39480000  1.0 0.0602292649
C  C116  1  0.64180000  0.93910000  0.39480000  1.0 0.0602292649
C  C117  1  0.06090000  0.70270000  0.39480000  1.0 0.0602292649
C  C118  1  0.70270000  0.64180000  0.89480000  1.0 0.0602292649
C  C119  1  0.35820000  0.06090000  0.89480000  1.0 0.0602292649
C  C120  1  0.93910000  0.29730000  0.89480000  1.0 0.0602292649
C  C121  1  0.51910000  0.11780000  0.77640000  1.0 -0.1497772783
C  C122  1  0.88220000  0.40130000  0.77640000  1.0 -0.1497772783
C  C123  1  0.59870000  0.48090000  0.77640000  1.0 -0.1497772783
C  C124  1  0.48090000  0.88220000  0.27640000  1.0 -0.1497772783
C  C125  1  0.11780000  0.59870000  0.27640000  1.0 -0.1497772783
C  C126  1  0.40130000  0.51910000  0.27640000  1.0 -0.1497772783
C  C127  1  0.56840000  0.48990000  0.42530000  1.0 -0.1289018269
C  C128  1  0.51010000  0.07850000  0.42530000  1.0 -0.1289018269
C  C129  1  0.92150000  0.43160000  0.42530000  1.0 -0.1289018269
C  C130  1  0.43160000  0.51010000  0.92530000  1.0 -0.1289018269
C  C131  1  0.48990000  0.92150000  0.92530000  1.0 -0.1289018269
C  C132  1  0.07850000  0.56840000  0.92530000  1.0 -0.1289018269
C  C133  1  0.47730000  0.21010000  0.65944000  1.0 -0.2467994665
C  C134  1  0.78990000  0.26720000  0.65944000  1.0 -0.2467994665
C  C135  1  0.73280000  0.52270000  0.65944000  1.0 -0.2467994665
C  C136  1  0.52270000  0.78990000  0.15944000  1.0 -0.2467994665
C  C137  1  0.21010000  0.73280000  0.15944000  1.0 -0.2467994665
C  C138  1  0.26720000  0.47730000  0.15944000  1.0 -0.2467994665
C  C139  1  0.51860000  0.55590000  0.46750000  1.0 0.0501345992
C  C140  1  0.44410000  0.96270000  0.46750000  1.0 0.0501345992
C  C141  1  0.03730000  0.48140000  0.46750000  1.0 0.0501345992
C  C142  1  0.48140000  0.44410000  0.96750000  1.0 0.0501345992
C  C143  1  0.55590000  0.03730000  0.96750000  1.0 0.0501345992
C  C144  1  0.96270000  0.51860000  0.96750000  1.0 0.0501345992
C  C145  1  0.54020000  0.49990000  0.46510000  1.0 0.0436890833
C  C146  1  0.50010000  0.04030000  0.46510000  1.0 0.0436890833
C  C147  1  0.95970000  0.45980000  0.46510000  1.0 0.0436890833
C  C148  1  0.45980000  0.50010000  0.96510000  1.0 0.0436890833
C  C149  1  0.49990000  0.95970000  0.96510000  1.0 0.0436890833
C  C150  1  0.04030000  0.54020000  0.96510000  1.0 0.0436890833
C  C151  1  0.38670000  0.23330000  0.22040000  1.0 0.0925370976
C  C152  1  0.76670000  0.15340000  0.22040000  1.0 0.0925370976
C  C153  1  0.84660000  0.61330000  0.22040000  1.0 0.0925370976
C  C154  1  0.61330000  0.76670000  0.72040000  1.0 0.0925370976
C  C155  1  0.23330000  0.84660000  0.72040000  1.0 0.0925370976
C  C156  1  0.15340000  0.38670000  0.72040000  1.0 0.0925370976
C  C157  1  0.26930000  0.41260000  0.55290000  1.0 0.1192513797
C  C158  1  0.58740000  0.85670000  0.55290000  1.0 0.1305593934
C  C159  1  0.14330000  0.73070000  0.55290000  1.0 0.1192513797
C  C160  1  0.73070000  0.58740000  0.05290000  1.0 0.1192513797
C  C161  1  0.41260000  0.14330000  0.05290000  1.0 0.1192513797
C  C162  1  0.85670000  0.26930000  0.05290000  1.0 0.1305593934
C  C163  1  0.53240000  0.45550000  0.50298000  1.0 -0.0302898568
C  C164  1  0.54450000  0.07690000  0.50298000  1.0 -0.0302898568
C  C165  1  0.92310000  0.46760000  0.50298000  1.0 -0.0302898568
C  C166  1  0.46760000  0.54450000  0.00298000  1.0 -0.0302898568
C  C167  1  0.45550000  0.92310000  0.00298000  1.0 -0.0302898568
C  C168  1  0.07690000  0.53240000  0.00298000  1.0 -0.0302898568
C  C169  1  0.49490000  0.56990000  0.50740000  1.0 -0.171417371
C  C170  1  0.43010000  0.92500000  0.50740000  1.0 -0.171417371
C  C171  1  0.07500000  0.50510000  0.50740000  1.0 -0.171417371
C  C172  1  0.50510000  0.43010000  0.00740000  1.0 -0.171417371
C  C173  1  0.56990000  0.07500000  0.00740000  1.0 -0.171417371
C  C174  1  0.92500000  0.49490000  0.00740000  1.0 -0.171417371
C  C175  1  0.44710000  0.35250000  0.20650000  1.0 -0.0848907531
C  C176  1  0.64750000  0.09460000  0.20650000  1.0 -0.0848907531
C  C177  1  0.90540000  0.55290000  0.20650000  1.0 -0.0848907531
C  C178  1  0.55290000  0.64750000  0.70650000  1.0 -0.0848907531
C  C179  1  0.35250000  0.90540000  0.70650000  1.0 -0.0848907531
C  C180  1  0.09460000  0.44710000  0.70650000  1.0 -0.0848907531
C  C181  1  0.38290000  0.29230000  0.51720000  1.0 -0.1289018269
C  C182  1  0.70770000  0.09060000  0.51720000  1.0 -0.1289018269
C  C183  1  0.90940000  0.61710000  0.51720000  1.0 -0.1289018269
C  C184  1  0.61710000  0.70770000  0.01720000  1.0 -0.1289018269
C  C185  1  0.29230000  0.90940000  0.01720000  1.0 -0.1289018269
C  C186  1  0.09060000  0.38290000  0.01720000  1.0 -0.1289018269
C  C187  1  0.46160000  0.31750000  0.17490000  1.0 -0.0495414921
C  C188  1  0.68250000  0.14410000  0.17490000  1.0 -0.0495414921
C  C189  1  0.85590000  0.53840000  0.17490000  1.0 -0.0495414921
C  C190  1  0.53840000  0.68250000  0.67490000  1.0 -0.0495414921
C  C191  1  0.31750000  0.85590000  0.67490000  1.0 -0.0495414921
C  C192  1  0.14410000  0.46160000  0.67490000  1.0 -0.0495414921
C  C193  1  0.49440000  0.19980000  0.82320000  1.0 -0.1416272093
C  C194  1  0.80020000  0.29460000  0.82320000  1.0 -0.1416272093
C  C195  1  0.70540000  0.50560000  0.82320000  1.0 -0.1416272093
C  C196  1  0.50560000  0.80020000  0.32320000  1.0 -0.1416272093
C  C197  1  0.19980000  0.70540000  0.32320000  1.0 -0.1416272093
C  C198  1  0.29460000  0.49440000  0.32320000  1.0 -0.1416272093
C  C199  1  0.39990000  0.22430000  0.40750000  1.0 -0.1497772783
C  C200  1  0.77570000  0.17560000  0.40750000  1.0 -0.1497772783
C  C201  1  0.82440000  0.60010000  0.40750000  1.0 -0.1497772783
C  C202  1  0.60010000  0.77570000  0.90750000  1.0 -0.1497772783
C  C203  1  0.22430000  0.82440000  0.90750000  1.0 -0.1497772783
C  C204  1  0.17560000  0.39990000  0.90750000  1.0 -0.1497772783
C  C205  1  0.33260000  0.13130000  0.65740000  1.0 0.0501345992
C  C206  1  0.86870000  0.20130000  0.65740000  1.0 0.0501345992
C  C207  1  0.79870000  0.66740000  0.65740000  1.0 0.0501345992
C  C208  1  0.66740000  0.86870000  0.15740000  1.0 0.0501345992
C  C209  1  0.13130000  0.79870000  0.15740000  1.0 0.0501345992
C  C210  1  0.20130000  0.33260000  0.15740000  1.0 0.0501345992
C  C211  1  0.47600000  0.25520000  0.82770000  1.0 -0.1108999557
C  C212  1  0.74480000  0.22080000  0.82770000  1.0 -0.1108999557
C  C213  1  0.77920000  0.52400000  0.82770000  1.0 -0.1108999557
C  C214  1  0.52400000  0.74480000  0.32770000  1.0 -0.1108999557
C  C215  1  0.25520000  0.77920000  0.32770000  1.0 -0.1108999557
C  C216  1  0.22080000  0.47600000  0.32770000  1.0 -0.1108999557
C  C217  1  0.57320000  0.53240000  0.38870000  1.0 -0.0737299994
C  C218  1  0.46760000  0.04080000  0.38870000  1.0 -0.0737299994
C  C219  1  0.95920000  0.42680000  0.38870000  1.0 -0.0737299994
C  C220  1  0.42680000  0.46760000  0.88870000  1.0 -0.0737299994
C  C221  1  0.53240000  0.95920000  0.88870000  1.0 -0.0737299994
C  C222  1  0.04080000  0.57320000  0.88870000  1.0 -0.0737299994
C  C223  1  0.30630000  0.25110000  0.52250000  1.0 -0.1018550367
C  C224  1  0.74890000  0.05520000  0.52250000  1.0 -0.1018550367
C  C225  1  0.94480000  0.69370000  0.52250000  1.0 -0.1018550367
C  C226  1  0.69370000  0.74890000  0.02250000  1.0 -0.1018550367
C  C227  1  0.25110000  0.94480000  0.02250000  1.0 -0.1018550367
C  C228  1  0.05520000  0.30630000  0.02250000  1.0 -0.1018550367
C  C229  1  0.36900000  0.23480000  0.44530000  1.0 0.0602292649
C  C230  1  0.76520000  0.13420000  0.44530000  1.0 0.0602292649
C  C231  1  0.86580000  0.63100000  0.44530000  1.0 0.0602292649
C  C232  1  0.63100000  0.76520000  0.94530000  1.0 0.0602292649
C  C233  1  0.23480000  0.86580000  0.94530000  1.0 0.0602292649
C  C234  1  0.13420000  0.36900000  0.94530000  1.0 0.0602292649
C  C235  1  0.25350000  0.38870000  0.47420000  1.0 0.1611907421
C  C236  1  0.61130000  0.86480000  0.47420000  1.0 0.1611907421
C  C237  1  0.13520000  0.74650000  0.47420000  1.0 0.1611907421
C  C238  1  0.74650000  0.61130000  0.97420000  1.0 0.1611907421
C  C239  1  0.38870000  0.13520000  0.97420000  1.0 0.1611907421
C  C240  1  0.86480000  0.25350000  0.97420000  1.0 0.1611907421
C  C241  1  0.46970000  0.26430000  0.74910000  1.0 -0.1195699916
C  C242  1  0.73570000  0.20540000  0.74910000  1.0 -0.1195699916
C  C243  1  0.79460000  0.53030000  0.74910000  1.0 -0.1195699916
C  C244  1  0.53030000  0.73570000  0.24910000  1.0 -0.1195699916
C  C245  1  0.26430000  0.79460000  0.24910000  1.0 -0.1195699916
C  C246  1  0.20540000  0.46970000  0.24910000  1.0 -0.1195699916
C  C247  1  0.46350000  0.28770000  0.79030000  1.0 -0.0915273652
C  C248  1  0.71230000  0.17580000  0.79030000  1.0 -0.0915273652
C  C249  1  0.82420000  0.53650000  0.79030000  1.0 -0.0915273652
C  C250  1  0.53650000  0.71230000  0.29030000  1.0 -0.0915273652
C  C251  1  0.28770000  0.82420000  0.29030000  1.0 -0.0915273652
C  C252  1  0.17580000  0.46350000  0.29030000  1.0 -0.0915273652
C  C253  1  0.52230000  0.59630000  0.42900000  1.0 -0.1497772783
C  C254  1  0.40370000  0.92600000  0.42900000  1.0 -0.1497772783
C  C255  1  0.07400000  0.47770000  0.42900000  1.0 -0.1497772783
C  C256  1  0.47770000  0.40370000  0.92900000  1.0 -0.1497772783
C  C257  1  0.59630000  0.07400000  0.92900000  1.0 -0.1497772783
C  C258  1  0.92600000  0.52230000  0.92900000  1.0 -0.1497772783
C  C259  1  0.54800000  0.58510000  0.39070000  1.0 -0.1018550367
C  C260  1  0.41490000  0.96290000  0.39070000  1.0 -0.1018550367
C  C261  1  0.03710000  0.45200000  0.39070000  1.0 -0.1018550367
C  C262  1  0.45200000  0.41490000  0.89070000  1.0 -0.1018550367
C  C263  1  0.58510000  0.03710000  0.89070000  1.0 -0.1018550367
C  C264  1  0.96290000  0.54800000  0.89070000  1.0 -0.1018550367
C  C265  1  0.26810000  0.99600000  0.65740000  1.0 -0.0915273652
C  C266  1  0.00400000  0.27210000  0.65740000  1.0 -0.0915273652
C  C267  1  0.72790000  0.73190000  0.65740000  1.0 -0.0915273652
C  C268  1  0.73190000  0.00400000  0.15740000  1.0 -0.0915273652
C  C269  1  0.99600000  0.72790000  0.15740000  1.0 -0.0915273652
C  C270  1  0.27210000  0.26810000  0.15740000  1.0 -0.0915273652
C  C271  1  0.33450000  0.06270000  0.65650000  1.0 -0.1289018269
C  C272  1  0.93730000  0.27180000  0.65650000  1.0 -0.1289018269
C  C273  1  0.72820000  0.66550000  0.65650000  1.0 -0.1289018269
C  C274  1  0.66550000  0.93730000  0.15650000  1.0 -0.1289018269
C  C275  1  0.06270000  0.72820000  0.15650000  1.0 -0.1289018269
C  C276  1  0.27180000  0.33450000  0.15650000  1.0 -0.1289018269
C  C277  1  0.25940000  0.20410000  0.49070000  1.0 -0.1018550367
C  C278  1  0.79590000  0.05530000  0.49070000  1.0 -0.1018550367
C  C279  1  0.94470000  0.74060000  0.49070000  1.0 -0.1018550367
C  C280  1  0.74060000  0.79590000  0.99070000  1.0 -0.1018550367
C  C281  1  0.20410000  0.94470000  0.99070000  1.0 -0.1018550367
C  C282  1  0.05530000  0.25940000  0.99070000  1.0 -0.1018550367
C  C283  1  0.25910000  0.19430000  0.65580000  1.0 -0.1416272093
C  C284  1  0.80570000  0.06480000  0.65580000  1.0 -0.1416272093
C  C285  1  0.93520000  0.74090000  0.65580000  1.0 -0.1416272093
C  C286  1  0.74090000  0.80570000  0.15580000  1.0 -0.1416272093
C  C287  1  0.19430000  0.93520000  0.15580000  1.0 -0.1416272093
C  C288  1  0.06480000  0.25910000  0.15580000  1.0 -0.1416272093
C  C289  1  0.28940000  0.19610000  0.45230000  1.0 -0.1497772783
C  C290  1  0.80390000  0.09330000  0.45230000  1.0 -0.1497772783
C  C291  1  0.90670000  0.71060000  0.45230000  1.0 -0.1497772783
C  C292  1  0.71060000  0.80390000  0.95230000  1.0 -0.1497772783
C  C293  1  0.19610000  0.90670000  0.95230000  1.0 -0.1497772783
C  C294  1  0.09330000  0.28940000  0.95230000  1.0 -0.1497772783
C  C295  1  0.26190000  0.12770000  0.65790000  1.0 0.0602292649
C  C296  1  0.87230000  0.13420000  0.65790000  1.0 0.0602292649
C  C297  1  0.86580000  0.73810000  0.65790000  1.0 0.0602292649
C  C298  1  0.73810000  0.87230000  0.15790000  1.0 0.0602292649
C  C299  1  0.12770000  0.86580000  0.15790000  1.0 0.0602292649
C  C300  1  0.13420000  0.26190000  0.15790000  1.0 0.0602292649
C  C301  1  0.22330000  0.33370000  0.40330000  1.0 -0.1289018269
C  C302  1  0.66630000  0.88960000  0.40330000  1.0 -0.1289018269
C  C303  1  0.11040000  0.77670000  0.40330000  1.0 -0.1289018269
C  C304  1  0.77670000  0.66630000  0.90330000  1.0 -0.1289018269
C  C305  1  0.33370000  0.11040000  0.90330000  1.0 -0.1289018269
C  C306  1  0.88960000  0.22330000  0.90330000  1.0 -0.1289018269
C  C307  1  0.15890000  0.38830000  0.52800000  1.0 -0.1195699916
C  C308  1  0.61170000  0.77060000  0.52800000  1.0 -0.1195699916
C  C309  1  0.22940000  0.84110000  0.52800000  1.0 -0.1195699916
C  C310  1  0.84110000  0.61170000  0.02800000  1.0 -0.1195699916
C  C311  1  0.38830000  0.22940000  0.02800000  1.0 -0.1195699916
C  C312  1  0.77060000  0.15890000  0.02800000  1.0 -0.1195699916
C  C313  1  0.32500000  0.41100000  0.46680000  1.0 -0.1497772783
C  C314  1  0.58900000  0.91400000  0.46680000  1.0 -0.1497772783
C  C315  1  0.08600000  0.67500000  0.46680000  1.0 -0.1497772783
C  C316  1  0.67500000  0.58900000  0.96680000  1.0 -0.1497772783
C  C317  1  0.41100000  0.08600000  0.96680000  1.0 -0.1497772783
C  C318  1  0.91400000  0.32500000  0.96680000  1.0 -0.1497772783
C  C319  1  0.19860000  0.34380000  0.44380000  1.0 -0.171417371
C  C320  1  0.65620000  0.85480000  0.44380000  1.0 -0.171417371
C  C321  1  0.14520000  0.80140000  0.44380000  1.0 -0.171417371
C  C322  1  0.80140000  0.65620000  0.94380000  1.0 -0.171417371
C  C323  1  0.34380000  0.14520000  0.94380000  1.0 -0.171417371
C  C324  1  0.85480000  0.19860000  0.94380000  1.0 -0.171417371
C  C325  1  0.16460000  0.40530000  0.57020000  1.0 -0.0195208808
C  C326  1  0.59470000  0.75930000  0.57020000  1.0 -0.0195208808
C  C327  1  0.24070000  0.83540000  0.57020000  1.0 -0.0195208808
C  C328  1  0.83540000  0.59470000  0.07020000  1.0 -0.0195208808
C  C329  1  0.40530000  0.24070000  0.07020000  1.0 -0.0195208808
C  C330  1  0.75930000  0.16460000  0.07020000  1.0 -0.0195208808
C  C331  1  0.34760000  0.39440000  0.42650000  1.0 -0.1195699916
C  C332  1  0.60560000  0.95320000  0.42650000  1.0 -0.1195699916
C  C333  1  0.04680000  0.65240000  0.42650000  1.0 -0.1195699916
C  C334  1  0.65240000  0.60560000  0.92650000  1.0 -0.1195699916
C  C335  1  0.39440000  0.04680000  0.92650000  1.0 -0.1195699916
C  C336  1  0.95320000  0.34760000  0.92650000  1.0 -0.1195699916
C  C337  1  0.19880000  0.99230000  0.66040000  1.0 -0.1108999557
C  C338  1  0.00770000  0.20650000  0.66040000  1.0 -0.1108999557
C  C339  1  0.79350000  0.80120000  0.66040000  1.0 -0.1108999557
C  C340  1  0.80120000  0.00770000  0.16040000  1.0 -0.1108999557
C  C341  1  0.99230000  0.79350000  0.16040000  1.0 -0.1108999557
C  C342  1  0.20650000  0.19880000  0.16040000  1.0 -0.1108999557
C  C343  1  0.19420000  0.05610000  0.65930000  1.0 -0.1416272093
C  C344  1  0.94390000  0.13810000  0.65930000  1.0 -0.1416272093
C  C345  1  0.86190000  0.80580000  0.65930000  1.0 -0.1416272093
C  C346  1  0.80580000  0.94390000  0.15930000  1.0 -0.1416272093
C  C347  1  0.05610000  0.86190000  0.15930000  1.0 -0.1416272093
C  C348  1  0.13810000  0.19420000  0.15930000  1.0 -0.1416272093
C  C349  1  0.29690000  0.28080000  0.28310000  1.0 -0.171417371
C  C350  1  0.71920000  0.01610000  0.28310000  1.0 -0.171417371
C  C351  1  0.98390000  0.70310000  0.28310000  1.0 -0.171417371
C  C352  1  0.70310000  0.71920000  0.78310000  1.0 -0.171417371
C  C353  1  0.28080000  0.98390000  0.78310000  1.0 -0.171417371
C  C354  1  0.01610000  0.29690000  0.78310000  1.0 -0.171417371
C  C355  1  0.27160000  0.29550000  0.32180000  1.0 -0.1195699916
C  C356  1  0.70450000  0.97610000  0.32180000  1.0 -0.1195699916
C  C357  1  0.02390000  0.72840000  0.32180000  1.0 -0.1195699916
C  C358  1  0.72840000  0.70450000  0.82180000  1.0 -0.1195699916
C  C359  1  0.29550000  0.02390000  0.82180000  1.0 -0.1195699916
C  C360  1  0.97610000  0.27160000  0.82180000  1.0 -0.1195699916
C  C361  1  0.32280000  0.34340000  0.35254000  1.0 0.0674500539
C  C362  1  0.65660000  0.97940000  0.35254000  1.0 0.0674500539
C  C363  1  0.02060000  0.67720000  0.35254000  1.0 0.0674500539
C  C364  1  0.67720000  0.65660000  0.85254000  1.0 0.0674500539
C  C365  1  0.34340000  0.02060000  0.85254000  1.0 0.0674500539
C  C366  1  0.97940000  0.32280000  0.85254000  1.0 0.0674500539
C  C367  1  0.39940000  0.37660000  0.34454000  1.0 -0.1195699916
C  C368  1  0.62340000  0.02280000  0.34454000  1.0 -0.1195699916
C  C369  1  0.97720000  0.60060000  0.34454000  1.0 -0.1195699916
C  C370  1  0.60060000  0.62340000  0.84454000  1.0 -0.1195699916
C  C371  1  0.37660000  0.97720000  0.84454000  1.0 -0.1195699916
C  C372  1  0.02280000  0.39940000  0.84454000  1.0 -0.1195699916
C  C373  1  0.42480000  0.36200000  0.30580000  1.0 -0.1416272093
C  C374  1  0.63800000  0.06280000  0.30580000  1.0 -0.1416272093
C  C375  1  0.93720000  0.57520000  0.30580000  1.0 -0.1416272093
C  C376  1  0.57520000  0.63800000  0.80580000  1.0 -0.1416272093
C  C377  1  0.36200000  0.93720000  0.80580000  1.0 -0.1416272093
C  C378  1  0.06280000  0.42480000  0.80580000  1.0 -0.1416272093
C  C379  1  0.37350000  0.31410000  0.27507000  1.0 0.1611907421
C  C380  1  0.68590000  0.05940000  0.27507000  1.0 0.165079616
C  C381  1  0.94060000  0.62650000  0.27507000  1.0 0.1611907421
C  C382  1  0.62650000  0.68590000  0.77507000  1.0 0.1611907421
C  C383  1  0.31410000  0.94060000  0.77507000  1.0 0.1611907421
C  C384  1  0.05940000  0.37350000  0.77507000  1.0 0.1611907421
N  N1  1  0.41820000  0.66150000  0.76420000  1.0 -0.8106848896
N  N2  1  0.33850000  0.75670000  0.76420000  1.0 -0.8106848896
N  N3  1  0.24330000  0.58180000  0.76420000  1.0 -0.8106848896
N  N4  1  0.58180000  0.33850000  0.26420000  1.0 -0.8106848896
N  N5  1  0.66150000  0.24330000  0.26420000  1.0 -0.8106848896
N  N6  1  0.75670000  0.41820000  0.26420000  1.0 -0.8106848896
N  N7  1  0.33333333  0.66666667  0.66800000  1.0 -0.8106848896
N  N8  1  0.66666667  0.33333333  0.16800000  1.0 -0.8106848896
N  N9  1  0.42250000  0.24150000  0.18336000  1.0 -0.2868885398
N  N10  1  0.75850000  0.18100000  0.18336000  1.0 -0.2868885398
N  N11  1  0.81900000  0.57750000  0.18336000  1.0 -0.2868885398
N  N12  1  0.57750000  0.75850000  0.68336000  1.0 -0.2868885398
N  N13  1  0.24150000  0.81900000  0.68336000  1.0 -0.2868885398
N  N14  1  0.18100000  0.42250000  0.68336000  1.0 -0.2868885398
N  N15  1  0.23460000  0.42330000  0.58640000  1.0 -0.2868885398
N  N16  1  0.57670000  0.81130000  0.58640000  1.0 -0.2868885398
N  N17  1  0.18870000  0.76540000  0.58640000  1.0 -0.2868885398
N  N18  1  0.76540000  0.57670000  0.08640000  1.0 -0.2868885398
N  N19  1  0.42330000  0.18870000  0.08640000  1.0 -0.2868885398
N  N20  1  0.81130000  0.23460000  0.08640000  1.0 -0.2868885398
N  N21  1  0.35490000  0.51450000  0.67330000  1.0 -0.8028234219
N  N22  1  0.48550000  0.84040000  0.67330000  1.0 -0.8028234219
N  N23  1  0.15960000  0.64510000  0.67330000  1.0 -0.8028234219
N  N24  1  0.64510000  0.48550000  0.17330000  1.0 -0.8028234219
N  N25  1  0.51450000  0.15960000  0.17330000  1.0 -0.8028234219
N  N26  1  0.84040000  0.35490000  0.17330000  1.0 -0.8028234219
N  N27  1  0.40020000  0.30020000  0.23570000  1.0 0.0042142714
N  N28  1  0.69980000  0.10000000  0.23570000  1.0 0.0042142714
N  N29  1  0.90000000  0.59980000  0.23570000  1.0 0.0042142714
N  N30  1  0.59980000  0.69980000  0.73570000  1.0 0.0042142714
N  N31  1  0.30020000  0.90000000  0.73570000  1.0 0.0042142714
N  N32  1  0.10000000  0.40020000  0.73570000  1.0 0.0042142714
N  N33  1  0.22920000  0.39920000  0.51660000  1.0 0.0114464592
N  N34  1  0.60080000  0.83000000  0.51660000  1.0 0.0114464592
N  N35  1  0.17000000  0.77080000  0.51660000  1.0 0.0114464592
N  N36  1  0.77080000  0.60080000  0.01660000  1.0 0.0114464592
N  N37  1  0.39920000  0.17000000  0.01660000  1.0 0.0114464592
N  N38  1  0.83000000  0.22920000  0.01660000  1.0 0.0114464592
O  O1  1  0.36110000  0.50590000  0.76830000  1.0 -0.6666653331
O  O2  1  0.49410000  0.85520000  0.76830000  1.0 -0.6666653331
O  O3  1  0.14480000  0.63890000  0.76830000  1.0 -0.6666653331
O  O4  1  0.63890000  0.49410000  0.26830000  1.0 -0.6666653331
O  O5  1  0.50590000  0.14480000  0.26830000  1.0 -0.6666653331
O  O6  1  0.85520000  0.36110000  0.26830000  1.0 -0.6666653331
O  O7  1  0.48330000  0.52810000  0.62231000  1.0 -0.627660546
O  O8  1  0.47190000  0.95520000  0.62231000  1.0 -0.627660546
O  O9  1  0.04480000  0.51670000  0.62231000  1.0 -0.627660546
O  O10  1  0.51670000  0.47190000  0.12231000  1.0 -0.627660546
O  O11  1  0.52810000  0.04480000  0.12231000  1.0 -0.627660546
O  O12  1  0.95520000  0.48330000  0.12231000  1.0 -0.627660546
O  O13  1  0.36890000  0.38800000  0.62691000  1.0 -0.6135758833
O  O14  1  0.61200000  0.98090000  0.62691000  1.0 -0.6135758833
O  O15  1  0.01910000  0.63110000  0.62691000  1.0 -0.6135758833
O  O16  1  0.63110000  0.61200000  0.12691000  1.0 -0.6135758833
O  O17  1  0.38800000  0.01910000  0.12691000  1.0 -0.6135758833
O  O18  1  0.98090000  0.36890000  0.12691000  1.0 -0.6135758833
O  O19  1  0.45740000  0.33440000  0.64860000  1.0 -0.6230575599
O  O20  1  0.66560000  0.12300000  0.64860000  1.0 -0.6230575599
O  O21  1  0.87700000  0.54260000  0.64860000  1.0 -0.6230575599
O  O22  1  0.54260000  0.66560000  0.14860000  1.0 -0.6230575599
O  O23  1  0.33440000  0.87700000  0.14860000  1.0 -0.6230575599
O  O24  1  0.12300000  0.45740000  0.14860000  1.0 -0.6230575599
O  O25  1  0.50580000  0.43320000  0.57813000  1.0 -0.6230575599
O  O26  1  0.56680000  0.07260000  0.57813000  1.0 -0.6230575599
O  O27  1  0.92740000  0.49420000  0.57813000  1.0 -0.6230575599
O  O28  1  0.49420000  0.56680000  0.07813000  1.0 -0.6230575599
O  O29  1  0.43320000  0.92740000  0.07813000  1.0 -0.6230575599
O  O30  1  0.07260000  0.50580000  0.07813000  1.0 -0.6230575599
O  O31  1  0.52320000  0.10420000  0.65823000  1.0 -0.627660546
O  O32  1  0.89580000  0.41900000  0.65823000  1.0 -0.6230575599
O  O33  1  0.58100000  0.47680000  0.65823000  1.0 -0.6230575599
O  O34  1  0.47680000  0.89580000  0.15823000  1.0 -0.627660546
O  O35  1  0.10420000  0.58100000  0.15823000  1.0 -0.6230575599
O  O36  1  0.41900000  0.52320000  0.15823000  1.0 -0.6230575599
O  O37  1  0.55100000  0.00680000  0.69766000  1.0 -0.6038842872
O  O38  1  0.99320000  0.54420000  0.69766000  1.0 -0.6038842872
O  O39  1  0.45580000  0.44900000  0.69766000  1.0 -0.6038842872
O  O40  1  0.44900000  0.99320000  0.19766000  1.0 -0.6038842872
O  O41  1  0.00680000  0.45580000  0.19766000  1.0 -0.6038842872
O  O42  1  0.54420000  0.55100000  0.19766000  1.0 -0.6038842872
O  O43  1  0.55490000  0.00670000  0.76928000  1.0 -0.5189670499
O  O44  1  0.99330000  0.54820000  0.76928000  1.0 -0.5189670499
O  O45  1  0.45180000  0.44510000  0.76928000  1.0 -0.5189670499
O  O46  1  0.44510000  0.99330000  0.26928000  1.0 -0.5189670499
O  O47  1  0.00670000  0.45180000  0.26928000  1.0 -0.5189670499
O  O48  1  0.54820000  0.55490000  0.26928000  1.0 -0.5189670499
O  O49  1  0.59980000  0.34990000  0.42781000  1.0 -0.627660546
O  O50  1  0.65010000  0.24990000  0.42781000  1.0 -0.627660546
O  O51  1  0.75010000  0.40020000  0.42781000  1.0 -0.627660546
O  O52  1  0.40020000  0.65010000  0.92781000  1.0 -0.627660546
O  O53  1  0.34990000  0.75010000  0.92781000  1.0 -0.627660546
O  O54  1  0.24990000  0.59980000  0.92781000  1.0 -0.627660546
O  O55  1  0.57850000  0.27640000  0.35521000  1.0 -0.6230575599
O  O56  1  0.72360000  0.30210000  0.35521000  1.0 -0.6230575599
O  O57  1  0.69790000  0.42150000  0.35521000  1.0 -0.6230575599
O  O58  1  0.42150000  0.72360000  0.85521000  1.0 -0.6230575599
O  O59  1  0.27640000  0.69790000  0.85521000  1.0 -0.6230575599
O  O60  1  0.30210000  0.57850000  0.85521000  1.0 -0.6230575599
O  O61  1  0.44080000  0.59150000  0.58587000  1.0 -0.5113468742
O  O62  1  0.40850000  0.84930000  0.58587000  1.0 -0.5113468742
O  O63  1  0.15070000  0.55920000  0.58587000  1.0 -0.5113468742
O  O64  1  0.55920000  0.40850000  0.08587000  1.0 -0.5113468742
O  O65  1  0.59150000  0.15070000  0.08587000  1.0 -0.5113468742
O  O66  1  0.84930000  0.44080000  0.08587000  1.0 -0.5113468742
O  O67  1  0.25760000  0.32880000  0.65690000  1.0 -0.5113468742
O  O68  1  0.67120000  0.92880000  0.65690000  1.0 -0.5113468742
O  O69  1  0.07120000  0.74240000  0.65690000  1.0 -0.5113468742
O  O70  1  0.74240000  0.67120000  0.15690000  1.0 -0.5113468742
O  O71  1  0.32880000  0.07120000  0.15690000  1.0 -0.5113468742
O  O72  1  0.92880000  0.25760000  0.15690000  1.0 -0.5113468742
O  O73  1  0.46270000  0.20970000  0.33060000  1.0 -0.5337290442
O  O74  1  0.79030000  0.25300000  0.33060000  1.0 -0.5337290442
O  O75  1  0.74700000  0.53730000  0.33060000  1.0 -0.5337290442
O  O76  1  0.53730000  0.79030000  0.83060000  1.0 -0.5337290442
O  O77  1  0.20970000  0.74700000  0.83060000  1.0 -0.5337290442
O  O78  1  0.25300000  0.46270000  0.83060000  1.0 -0.5337290442
