# DDEC6 charges by PACMAN v1.1 (https://github.com/mtap-research/PACMAN-charge/)
data_UDOJUW_FSR_pacman
_symmetry_space_group_name_H-M   'P 1'
_cell_length_a   20.64440000
_cell_length_b   20.64440000
_cell_length_c   30.70800000
_cell_angle_alpha   90.00000000
_cell_angle_beta   90.00000000
_cell_angle_gamma   120.00000000
_symmetry_Int_Tables_number   1
_chemical_formula_structural   Ti4Zn4H141C192N19O39
_chemical_formula_sum   'Ti8 Zn8 H282 C384 N38 O78'
_cell_volume   11334.09097144
_cell_formula_units_Z   2
loop_
 _symmetry_equiv_pos_site_id
 _symmetry_equiv_pos_as_xyz
  1  'x, y, z'
loop_
 _atom_site_type_symbol
 _atom_site_label
 _atom_site_symmetry_multiplicity
 _atom_site_fract_x
 _atom_site_fract_y
 _atom_site_fract_z
 _atom_site_occupancy
 _atom_site_charge
Ti  Ti1  1  0.51498000  0.56668000  0.56573000  1.0 1.9080813701
Ti  Ti2  1  0.94830000  0.51498000  0.06573000  1.0 1.9080813701
Ti  Ti3  1  0.43332000  0.94830000  0.56573000  1.0 1.9080813701
Ti  Ti4  1  0.48502000  0.43332000  0.06573000  1.0 1.9080813701
Ti  Ti5  1  0.05170000  0.48502000  0.56573000  1.0 1.9080813701
Ti  Ti6  1  0.56668000  0.05170000  0.06573000  1.0 1.9080813701
Ti  Ti7  1  0.33333333  0.66666667  0.32508000  1.0 1.9080813701
Ti  Ti8  1  0.66666667  0.33333333  0.82508000  1.0 1.9080813701
Zn  Zn1  1  0.66666667  0.33333333  0.67215000  1.0 0.7399137641
Zn  Zn2  1  0.33333333  0.66666667  0.17215000  1.0 0.7399137641
Zn  Zn3  1  0.73439000  0.57352000  0.57557000  1.0 0.7474506224
Zn  Zn4  1  0.16087000  0.73439000  0.07557000  1.0 0.7474506224
Zn  Zn5  1  0.42648000  0.16087000  0.57557000  1.0 0.7474506224
Zn  Zn6  1  0.26561000  0.42648000  0.07557000  1.0 0.7474506224
Zn  Zn7  1  0.83913000  0.26561000  0.57557000  1.0 0.7474506224
Zn  Zn8  1  0.57352000  0.83913000  0.07557000  1.0 0.7474506224
H  H1  1  0.55551000  0.33392000  0.66378000  1.0 0.2597746625
H  H2  1  0.22159000  0.55551000  0.16378000  1.0 0.2597746625
H  H3  1  0.66608000  0.22159000  0.66378000  1.0 0.2597746625
H  H4  1  0.44449000  0.66608000  0.16378000  1.0 0.2597746625
H  H5  1  0.77841000  0.44449000  0.66378000  1.0 0.2597746625
H  H6  1  0.33392000  0.77841000  0.16378000  1.0 0.2597746625
H  H7  1  0.59196000  0.37449000  0.70334000  1.0 0.3034504578
H  H8  1  0.21747000  0.59196000  0.20334000  1.0 0.3034504578
H  H9  1  0.62551000  0.21747000  0.70334000  1.0 0.3034504578
H  H10  1  0.40804000  0.62551000  0.20334000  1.0 0.3034504578
H  H11  1  0.78253000  0.40804000  0.70334000  1.0 0.3034504578
H  H12  1  0.37449000  0.78253000  0.20334000  1.0 0.3034504578
H  H13  1  0.55107000  0.29323000  0.70334000  1.0 0.2901743725
H  H14  1  0.25784000  0.55107000  0.20334000  1.0 0.2901743725
H  H15  1  0.70677000  0.25784000  0.70334000  1.0 0.2901743725
H  H16  1  0.44893000  0.70677000  0.20334000  1.0 0.2901743725
H  H17  1  0.74216000  0.44893000  0.70334000  1.0 0.2901743725
H  H18  1  0.29323000  0.74216000  0.20334000  1.0 0.2901743725
H  H19  1  0.63207000  0.34351000  0.59861000  1.0 0.267333212
H  H20  1  0.28856000  0.63207000  0.09861000  1.0 0.267333212
H  H21  1  0.65649000  0.28856000  0.59861000  1.0 0.267333212
H  H22  1  0.36793000  0.65649000  0.09861000  1.0 0.267333212
H  H23  1  0.71144000  0.36793000  0.59861000  1.0 0.267333212
H  H24  1  0.34351000  0.71144000  0.09861000  1.0 0.267333212
H  H25  1  0.60868000  0.50998000  0.70476000  1.0 0.3175320998
H  H26  1  0.09870000  0.60868000  0.20476000  1.0 0.3175320998
H  H27  1  0.49002000  0.09870000  0.70476000  1.0 0.3175320998
H  H28  1  0.39132000  0.49002000  0.20476000  1.0 0.3175320998
H  H29  1  0.90130000  0.39132000  0.70476000  1.0 0.3175320998
H  H30  1  0.50998000  0.90130000  0.20476000  1.0 0.3175320998
H  H31  1  0.67864000  0.52183000  0.70856000  1.0 0.3175320998
H  H32  1  0.15681000  0.67864000  0.20856000  1.0 0.3175320998
H  H33  1  0.47817000  0.15681000  0.70856000  1.0 0.3175320998
H  H34  1  0.32136000  0.47817000  0.20856000  1.0 0.3175320998
H  H35  1  0.84319000  0.32136000  0.70856000  1.0 0.3175320998
H  H36  1  0.52183000  0.84319000  0.20856000  1.0 0.3175320998
H  H37  1  0.72559000  0.04629000  0.58133000  1.0 0.1112780477
H  H38  1  0.67930000  0.72559000  0.08133000  1.0 0.1112780477
H  H39  1  0.95371000  0.67930000  0.58133000  1.0 0.1112780477
H  H40  1  0.27441000  0.95371000  0.08133000  1.0 0.1112780477
H  H41  1  0.32070000  0.27441000  0.58133000  1.0 0.1112780477
H  H42  1  0.04629000  0.32070000  0.08133000  1.0 0.1112780477
H  H43  1  0.41708000  0.54825000  0.35169000  1.0 0.1194052126
H  H44  1  0.86883000  0.41708000  0.85169000  1.0 0.1194052126
H  H45  1  0.45175000  0.86883000  0.35169000  1.0 0.1194052126
H  H46  1  0.58292000  0.45175000  0.85169000  1.0 0.1194052126
H  H47  1  0.13117000  0.58292000  0.35169000  1.0 0.1194052126
H  H48  1  0.54825000  0.13117000  0.85169000  1.0 0.1194052126
H  H49  1  0.64632000  0.81407000  0.16032000  1.0 0.1303837223
H  H50  1  0.83225000  0.64632000  0.66032000  1.0 0.1303837223
H  H51  1  0.18593000  0.83225000  0.16032000  1.0 0.1303837223
H  H52  1  0.35368000  0.18593000  0.66032000  1.0 0.1303837223
H  H53  1  0.16775000  0.35368000  0.16032000  1.0 0.1303837223
H  H54  1  0.81407000  0.16775000  0.66032000  1.0 0.1303837223
H  H55  1  0.60613000  0.49209000  0.59766000  1.0 0.309498104
H  H56  1  0.11404000  0.60613000  0.09766000  1.0 0.309498104
H  H57  1  0.50791000  0.11404000  0.59766000  1.0 0.309498104
H  H58  1  0.39387000  0.50791000  0.09766000  1.0 0.309498104
H  H59  1  0.88596000  0.39387000  0.59766000  1.0 0.309498104
H  H60  1  0.49209000  0.88596000  0.09766000  1.0 0.309498104
H  H61  1  0.65345000  0.47893000  0.62713000  1.0 0.3034504578
H  H62  1  0.17452000  0.65345000  0.12713000  1.0 0.3034504578
H  H63  1  0.52107000  0.17452000  0.62713000  1.0 0.3034504578
H  H64  1  0.34655000  0.52107000  0.12713000  1.0 0.3034504578
H  H65  1  0.82548000  0.34655000  0.62713000  1.0 0.3034504578
H  H66  1  0.47893000  0.82548000  0.12713000  1.0 0.3034504578
H  H67  1  0.63611000  0.44483000  0.58417000  1.0 0.2901743725
H  H68  1  0.19128000  0.63611000  0.08417000  1.0 0.2901743725
H  H69  1  0.55517000  0.19128000  0.58417000  1.0 0.2901743725
H  H70  1  0.36389000  0.55517000  0.08417000  1.0 0.2901743725
H  H71  1  0.80872000  0.36389000  0.58417000  1.0 0.2901743725
H  H72  1  0.44483000  0.80872000  0.08417000  1.0 0.2901743725
H  H73  1  0.72022000  0.74095000  0.47142000  1.0 0.1112780477
H  H74  1  0.97927000  0.72022000  0.97142000  1.0 0.1112780477
H  H75  1  0.25905000  0.97927000  0.47142000  1.0 0.1112780477
H  H76  1  0.27978000  0.25905000  0.97142000  1.0 0.1112780477
H  H77  1  0.02073000  0.27978000  0.47142000  1.0 0.1112780477
H  H78  1  0.74095000  0.02073000  0.97142000  1.0 0.1112780477
H  H79  1  0.51800000  0.39456000  0.43757000  1.0 0.1112780477
H  H80  1  0.12344000  0.51800000  0.93757000  1.0 0.1112780477
H  H81  1  0.60544000  0.12344000  0.43757000  1.0 0.1112780477
H  H82  1  0.48200000  0.60544000  0.93757000  1.0 0.1112780477
H  H83  1  0.87656000  0.48200000  0.43757000  1.0 0.1112780477
H  H84  1  0.39456000  0.87656000  0.93757000  1.0 0.1112780477
H  H85  1  0.47756000  0.90676000  0.73045000  1.0 0.1194052126
H  H86  1  0.57080000  0.47756000  0.23045000  1.0 0.1194052126
H  H87  1  0.09324000  0.57080000  0.73045000  1.0 0.1194052126
H  H88  1  0.52244000  0.09324000  0.23045000  1.0 0.1194052126
H  H89  1  0.42920000  0.52244000  0.73045000  1.0 0.1194052126
H  H90  1  0.90676000  0.42920000  0.23045000  1.0 0.1194052126
H  H91  1  0.59433000  0.67667000  0.46412000  1.0 0.1194052126
H  H92  1  0.91766000  0.59433000  0.96412000  1.0 0.1194052126
H  H93  1  0.32333000  0.91766000  0.46412000  1.0 0.1194052126
H  H94  1  0.40567000  0.32333000  0.96412000  1.0 0.1194052126
H  H95  1  0.08234000  0.40567000  0.46412000  1.0 0.1194052126
H  H96  1  0.67667000  0.08234000  0.96412000  1.0 0.1194052126
H  H97  1  0.63069000  0.80994000  0.31264000  1.0 0.1194052126
H  H98  1  0.82075000  0.63069000  0.81264000  1.0 0.1194052126
H  H99  1  0.19006000  0.82075000  0.31264000  1.0 0.1194052126
H  H100  1  0.36931000  0.19006000  0.81264000  1.0 0.1194052126
H  H101  1  0.17925000  0.36931000  0.31264000  1.0 0.1194052126
H  H102  1  0.80994000  0.17925000  0.81264000  1.0 0.1194052126
H  H103  1  0.46123000  0.63352000  0.45826000  1.0 0.1303837223
H  H104  1  0.82771000  0.46123000  0.95826000  1.0 0.1303837223
H  H105  1  0.36648000  0.82771000  0.45826000  1.0 0.1303837223
H  H106  1  0.53877000  0.36648000  0.95826000  1.0 0.1303837223
H  H107  1  0.17229000  0.53877000  0.45826000  1.0 0.1303837223
H  H108  1  0.63352000  0.17229000  0.95826000  1.0 0.1303837223
H  H109  1  0.40398000  0.59475000  0.42028000  1.0 0.1303837223
H  H110  1  0.80923000  0.40398000  0.92028000  1.0 0.1303837223
H  H111  1  0.40525000  0.80923000  0.42028000  1.0 0.1303837223
H  H112  1  0.59602000  0.40525000  0.92028000  1.0 0.1303837223
H  H113  1  0.19077000  0.59602000  0.42028000  1.0 0.1303837223
H  H114  1  0.59475000  0.19077000  0.92028000  1.0 0.1303837223
H  H115  1  0.50558000  0.82781000  0.77672000  1.0 0.1194052126
H  H116  1  0.67777000  0.50558000  0.27672000  1.0 0.1194052126
H  H117  1  0.17219000  0.67777000  0.77672000  1.0 0.1194052126
H  H118  1  0.49442000  0.17219000  0.27672000  1.0 0.1194052126
H  H119  1  0.32223000  0.49442000  0.77672000  1.0 0.1194052126
H  H120  1  0.82781000  0.32223000  0.27672000  1.0 0.1194052126
H  H121  1  0.68495000  0.58832000  0.48201000  1.0 0.1303837223
H  H122  1  0.09663000  0.68495000  0.98201000  1.0 0.1303837223
H  H123  1  0.41168000  0.09663000  0.48201000  1.0 0.1303837223
H  H124  1  0.31505000  0.41168000  0.98201000  1.0 0.1303837223
H  H125  1  0.90337000  0.31505000  0.48201000  1.0 0.1303837223
H  H126  1  0.58832000  0.90337000  0.98201000  1.0 0.1303837223
H  H127  1  0.78491000  0.80792000  0.58306000  1.0 0.1194052126
H  H128  1  0.97699000  0.78491000  0.08306000  1.0 0.1194052126
H  H129  1  0.19208000  0.97699000  0.58306000  1.0 0.1194052126
H  H130  1  0.21509000  0.19208000  0.08306000  1.0 0.1194052126
H  H131  1  0.02301000  0.21509000  0.58306000  1.0 0.1194052126
H  H132  1  0.80792000  0.02301000  0.08306000  1.0 0.1194052126
H  H133  1  0.52899000  0.59672000  0.13787000  1.0 0.1422801903
H  H134  1  0.93227000  0.52899000  0.63787000  1.0 0.1422801903
H  H135  1  0.40328000  0.93227000  0.13787000  1.0 0.1422801903
H  H136  1  0.47101000  0.40328000  0.63787000  1.0 0.1422801903
H  H137  1  0.06773000  0.47101000  0.13787000  1.0 0.1422801903
H  H138  1  0.59672000  0.06773000  0.63787000  1.0 0.1422801903
H  H139  1  0.48641000  0.36645000  0.35903000  1.0 0.1112780477
H  H140  1  0.11996000  0.48641000  0.85903000  1.0 0.1112780477
H  H141  1  0.63355000  0.11996000  0.35903000  1.0 0.1112780477
H  H142  1  0.51359000  0.63355000  0.85903000  1.0 0.1112780477
H  H143  1  0.88004000  0.51359000  0.35903000  1.0 0.1112780477
H  H144  1  0.36645000  0.88004000  0.85903000  1.0 0.1112780477
H  H145  1  0.52902000  0.73181000  0.78495000  1.0 0.1112780477
H  H146  1  0.79721000  0.52902000  0.28495000  1.0 0.1112780477
H  H147  1  0.26819000  0.79721000  0.78495000  1.0 0.1112780477
H  H148  1  0.47098000  0.26819000  0.28495000  1.0 0.1112780477
H  H149  1  0.20279000  0.47098000  0.78495000  1.0 0.1112780477
H  H150  1  0.73181000  0.20279000  0.28495000  1.0 0.1112780477
H  H151  1  0.53505000  0.71249000  0.65468000  1.0 0.1194052126
H  H152  1  0.82256000  0.53505000  0.15468000  1.0 0.1194052126
H  H153  1  0.28751000  0.82256000  0.65468000  1.0 0.1194052126
H  H154  1  0.46495000  0.28751000  0.15468000  1.0 0.1194052126
H  H155  1  0.17744000  0.46495000  0.65468000  1.0 0.1194052126
H  H156  1  0.71249000  0.17744000  0.15468000  1.0 0.1194052126
H  H157  1  0.74324000  0.83609000  0.35423000  1.0 0.1194052126
H  H158  1  0.90715000  0.74324000  0.85423000  1.0 0.1194052126
H  H159  1  0.16391000  0.90715000  0.35423000  1.0 0.1194052126
H  H160  1  0.25676000  0.16391000  0.85423000  1.0 0.1194052126
H  H161  1  0.09285000  0.25676000  0.35423000  1.0 0.1194052126
H  H162  1  0.83609000  0.09285000  0.85423000  1.0 0.1194052126
H  H163  1  0.50436000  0.66155000  0.07929000  1.0 0.1303837223
H  H164  1  0.84281000  0.50436000  0.57929000  1.0 0.1303837223
H  H165  1  0.33845000  0.84281000  0.07929000  1.0 0.1303837223
H  H166  1  0.49564000  0.33845000  0.57929000  1.0 0.1303837223
H  H167  1  0.15719000  0.49564000  0.07929000  1.0 0.1303837223
H  H168  1  0.66155000  0.15719000  0.57929000  1.0 0.1303837223
H  H169  1  0.61652000  0.93517000  0.58537000  1.0 0.1194052126
H  H170  1  0.68135000  0.61652000  0.08537000  1.0 0.1194052126
H  H171  1  0.06483000  0.68135000  0.58537000  1.0 0.1194052126
H  H172  1  0.38348000  0.06483000  0.08537000  1.0 0.1194052126
H  H173  1  0.31865000  0.38348000  0.58537000  1.0 0.1194052126
H  H174  1  0.93517000  0.31865000  0.08537000  1.0 0.1194052126
H  H175  1  0.40878000  0.47733000  0.29143000  1.0 0.1194052126
H  H176  1  0.93145000  0.40878000  0.79143000  1.0 0.1194052126
H  H177  1  0.52267000  0.93145000  0.29143000  1.0 0.1194052126
H  H178  1  0.59122000  0.52267000  0.79143000  1.0 0.1194052126
H  H179  1  0.06855000  0.59122000  0.29143000  1.0 0.1194052126
H  H180  1  0.47733000  0.06855000  0.79143000  1.0 0.1194052126
H  H181  1  0.79356000  0.81781000  0.41650000  1.0 0.1112780477
H  H182  1  0.97575000  0.79356000  0.91650000  1.0 0.1112780477
H  H183  1  0.18219000  0.97575000  0.41650000  1.0 0.1112780477
H  H184  1  0.20644000  0.18219000  0.91650000  1.0 0.1112780477
H  H185  1  0.02425000  0.20644000  0.41650000  1.0 0.1112780477
H  H186  1  0.81781000  0.02425000  0.91650000  1.0 0.1112780477
H  H187  1  0.54935000  0.67742000  0.72342000  1.0 0.1112780477
H  H188  1  0.87193000  0.54935000  0.22342000  1.0 0.1112780477
H  H189  1  0.32258000  0.87193000  0.72342000  1.0 0.1112780477
H  H190  1  0.45065000  0.32258000  0.22342000  1.0 0.1112780477
H  H191  1  0.12807000  0.45065000  0.72342000  1.0 0.1112780477
H  H192  1  0.67742000  0.12807000  0.22342000  1.0 0.1112780477
H  H193  1  0.45018000  0.39088000  0.29514000  1.0 0.1194052126
H  H194  1  0.05930000  0.45018000  0.79514000  1.0 0.1194052126
H  H195  1  0.60912000  0.05930000  0.29514000  1.0 0.1194052126
H  H196  1  0.54982000  0.60912000  0.79514000  1.0 0.1194052126
H  H197  1  0.94070000  0.54982000  0.29514000  1.0 0.1194052126
H  H198  1  0.39088000  0.94070000  0.79514000  1.0 0.1194052126
H  H199  1  0.52521000  0.61161000  0.22608000  1.0 0.1422801903
H  H200  1  0.91360000  0.52521000  0.72608000  1.0 0.1422801903
H  H201  1  0.38839000  0.91360000  0.22608000  1.0 0.1422801903
H  H202  1  0.47479000  0.38839000  0.72608000  1.0 0.1422801903
H  H203  1  0.08640000  0.47479000  0.22608000  1.0 0.1422801903
H  H204  1  0.61161000  0.08640000  0.72608000  1.0 0.1422801903
H  H205  1  0.56687000  0.59305000  0.29069000  1.0 0.1194052126
H  H206  1  0.97382000  0.56687000  0.79069000  1.0 0.1194052126
H  H207  1  0.40695000  0.97382000  0.29069000  1.0 0.1194052126
H  H208  1  0.43313000  0.40695000  0.79069000  1.0 0.1194052126
H  H209  1  0.02618000  0.43313000  0.29069000  1.0 0.1194052126
H  H210  1  0.59305000  0.02618000  0.79069000  1.0 0.1194052126
H  H211  1  0.85081000  0.68565000  0.37948000  1.0 0.1194052126
H  H212  1  0.16516000  0.85081000  0.87948000  1.0 0.1194052126
H  H213  1  0.31435000  0.16516000  0.37948000  1.0 0.1194052126
H  H214  1  0.14919000  0.31435000  0.87948000  1.0 0.1194052126
H  H215  1  0.83484000  0.14919000  0.37948000  1.0 0.1194052126
H  H216  1  0.68565000  0.83484000  0.87948000  1.0 0.1194052126
H  H217  1  0.81134000  0.70554000  0.31245000  1.0 0.1112780477
H  H218  1  0.10580000  0.81134000  0.81245000  1.0 0.1112780477
H  H219  1  0.29446000  0.10580000  0.31245000  1.0 0.1112780477
H  H220  1  0.18866000  0.29446000  0.81245000  1.0 0.1112780477
H  H221  1  0.89420000  0.18866000  0.31245000  1.0 0.1112780477
H  H222  1  0.70554000  0.89420000  0.81245000  1.0 0.1112780477
H  H223  1  0.87543000  0.61542000  0.43492000  1.0 0.1303837223
H  H224  1  0.26001000  0.87543000  0.93492000  1.0 0.1303837223
H  H225  1  0.38458000  0.26001000  0.43492000  1.0 0.1303837223
H  H226  1  0.12457000  0.38458000  0.93492000  1.0 0.1303837223
H  H227  1  0.73999000  0.12457000  0.43492000  1.0 0.1303837223
H  H228  1  0.61542000  0.73999000  0.93492000  1.0 0.1303837223
H  H229  1  0.84829000  0.94771000  0.58502000  1.0 0.1194052126
H  H230  1  0.90058000  0.84829000  0.08502000  1.0 0.1194052126
H  H231  1  0.05229000  0.90058000  0.58502000  1.0 0.1194052126
H  H232  1  0.15171000  0.05229000  0.08502000  1.0 0.1194052126
H  H233  1  0.09942000  0.15171000  0.58502000  1.0 0.1194052126
H  H234  1  0.94771000  0.09942000  0.08502000  1.0 0.1194052126
H  H235  1  0.86732000  0.58457000  0.51281000  1.0 0.1303837223
H  H236  1  0.28275000  0.86732000  0.01281000  1.0 0.1303837223
H  H237  1  0.41543000  0.28275000  0.51281000  1.0 0.1303837223
H  H238  1  0.13268000  0.41543000  0.01281000  1.0 0.1303837223
H  H239  1  0.71725000  0.13268000  0.51281000  1.0 0.1303837223
H  H240  1  0.58457000  0.71725000  0.01281000  1.0 0.1303837223
H  H241  1  0.84050000  0.05308000  0.58783000  1.0 0.1194052126
H  H242  1  0.78742000  0.84050000  0.08783000  1.0 0.1194052126
H  H243  1  0.94692000  0.78742000  0.58783000  1.0 0.1194052126
H  H244  1  0.15950000  0.94692000  0.08783000  1.0 0.1194052126
H  H245  1  0.21258000  0.15950000  0.58783000  1.0 0.1194052126
H  H246  1  0.05308000  0.21258000  0.08783000  1.0 0.1194052126
H  H247  1  0.63779000  0.55360000  0.41320000  1.0 0.1194052126
H  H248  1  0.08419000  0.63779000  0.91320000  1.0 0.1194052126
H  H249  1  0.44640000  0.08419000  0.41320000  1.0 0.1194052126
H  H250  1  0.36221000  0.44640000  0.91320000  1.0 0.1194052126
H  H251  1  0.91581000  0.36221000  0.41320000  1.0 0.1194052126
H  H252  1  0.55360000  0.91581000  0.91320000  1.0 0.1194052126
H  H253  1  0.59963000  0.58145000  0.34730000  1.0 0.1112780477
H  H254  1  0.01818000  0.59963000  0.84730000  1.0 0.1112780477
H  H255  1  0.41855000  0.01818000  0.34730000  1.0 0.1112780477
H  H256  1  0.40037000  0.41855000  0.84730000  1.0 0.1112780477
H  H257  1  0.98182000  0.40037000  0.34730000  1.0 0.1112780477
H  H258  1  0.58145000  0.98182000  0.84730000  1.0 0.1112780477
H  H259  1  0.77026000  0.74811000  0.26232000  1.0 0.1194052126
H  H260  1  0.02215000  0.77026000  0.76232000  1.0 0.1194052126
H  H261  1  0.25189000  0.02215000  0.26232000  1.0 0.1194052126
H  H262  1  0.22974000  0.25189000  0.76232000  1.0 0.1194052126
H  H263  1  0.97785000  0.22974000  0.26232000  1.0 0.1194052126
H  H264  1  0.74811000  0.97785000  0.76232000  1.0 0.1194052126
H  H265  1  0.73369000  0.75233000  0.19015000  1.0 0.1303837223
H  H266  1  0.98136000  0.73369000  0.69015000  1.0 0.1303837223
H  H267  1  0.24767000  0.98136000  0.19015000  1.0 0.1303837223
H  H268  1  0.26631000  0.24767000  0.69015000  1.0 0.1303837223
H  H269  1  0.01864000  0.26631000  0.19015000  1.0 0.1303837223
H  H270  1  0.75233000  0.01864000  0.69015000  1.0 0.1303837223
H  H271  1  0.48421000  0.73618000  0.58766000  1.0 0.1303837223
H  H272  1  0.74803000  0.48421000  0.08766000  1.0 0.1303837223
H  H273  1  0.26382000  0.74803000  0.58766000  1.0 0.1303837223
H  H274  1  0.51579000  0.26382000  0.08766000  1.0 0.1303837223
H  H275  1  0.25197000  0.51579000  0.58766000  1.0 0.1303837223
H  H276  1  0.73618000  0.25197000  0.08766000  1.0 0.1303837223
H  H277  1  0.51358000  0.81326000  0.56444000  1.0 0.1303837223
H  H278  1  0.70032000  0.51358000  0.06444000  1.0 0.1303837223
H  H279  1  0.18674000  0.70032000  0.56444000  1.0 0.1303837223
H  H280  1  0.48642000  0.18674000  0.06444000  1.0 0.1303837223
H  H281  1  0.29968000  0.48642000  0.56444000  1.0 0.1303837223
H  H282  1  0.81326000  0.29968000  0.06444000  1.0 0.1303837223
C  C1  1  0.68140000  0.66990000  0.57260000  1.0 0.608882996
C  C2  1  0.01150000  0.68140000  0.07260000  1.0 0.608882996
C  C3  1  0.33010000  0.01150000  0.57260000  1.0 0.608882996
C  C4  1  0.31860000  0.33010000  0.07260000  1.0 0.608882996
C  C5  1  0.98850000  0.31860000  0.57260000  1.0 0.608882996
C  C6  1  0.66990000  0.98850000  0.07260000  1.0 0.608882996
C  C7  1  0.60340000  0.73300000  0.57933000  1.0 0.2597746625
C  C8  1  0.87040000  0.60340000  0.07933000  1.0 0.2597746625
C  C9  1  0.26700000  0.87040000  0.57933000  1.0 0.2597746625
C  C10  1  0.39660000  0.26700000  0.07933000  1.0 0.2597746625
C  C11  1  0.12960000  0.39660000  0.57933000  1.0 0.2597746625
C  C12  1  0.73300000  0.12960000  0.07933000  1.0 0.2597746625
C  C13  1  0.72730000  0.00230000  0.58360000  1.0 -0.0887996807
C  C14  1  0.72500000  0.72730000  0.08360000  1.0 -0.0887996807
C  C15  1  0.99770000  0.72500000  0.58360000  1.0 -0.0887996807
C  C16  1  0.27270000  0.99770000  0.08360000  1.0 -0.0887996807
C  C17  1  0.27500000  0.27270000  0.58360000  1.0 -0.0887996807
C  C18  1  0.00230000  0.27500000  0.08360000  1.0 -0.0887996807
C  C19  1  0.59760000  0.79650000  0.58496000  1.0 -0.0287806471
C  C20  1  0.80110000  0.59760000  0.08496000  1.0 -0.0287806471
C  C21  1  0.20350000  0.80110000  0.58496000  1.0 -0.0287806471
C  C22  1  0.40240000  0.20350000  0.08496000  1.0 -0.0287806471
C  C23  1  0.19890000  0.40240000  0.58496000  1.0 -0.0287806471
C  C24  1  0.79650000  0.19890000  0.08496000  1.0 -0.0287806471
C  C25  1  0.70110000  0.64480000  0.32250000  1.0 0.068015309
C  C26  1  0.05630000  0.70110000  0.82250000  1.0 0.068015309
C  C27  1  0.35520000  0.05630000  0.32250000  1.0 0.0614785608
C  C28  1  0.29890000  0.35520000  0.82250000  1.0 0.068015309
C  C29  1  0.94370000  0.29890000  0.32250000  1.0 0.068015309
C  C30  1  0.64480000  0.94370000  0.82250000  1.0 0.068015309
C  C31  1  0.67530000  0.73810000  0.57830000  1.0 -0.1495795553
C  C32  1  0.93720000  0.67530000  0.07830000  1.0 -0.1495795553
C  C33  1  0.26190000  0.93720000  0.57830000  1.0 -0.1495795553
C  C34  1  0.32470000  0.26190000  0.07830000  1.0 -0.1495795553
C  C35  1  0.06280000  0.32470000  0.57830000  1.0 -0.1495795553
C  C36  1  0.73810000  0.06280000  0.07830000  1.0 -0.1495795553
C  C37  1  0.52910000  0.44960000  0.51490000  1.0 0.5893733228
C  C38  1  0.07950000  0.52910000  0.01490000  1.0 0.5893733228
C  C39  1  0.55040000  0.07950000  0.51490000  1.0 0.5893733228
C  C40  1  0.47090000  0.55040000  0.01490000  1.0 0.5893733228
C  C41  1  0.92050000  0.47090000  0.51490000  1.0 0.5893733228
C  C42  1  0.44960000  0.92050000  0.01490000  1.0 0.5893733228
C  C43  1  0.45330000  0.96690000  0.66348000  1.0 0.5958659376
C  C44  1  0.48640000  0.45330000  0.16348000  1.0 0.5958659376
C  C45  1  0.03310000  0.48640000  0.66348000  1.0 0.5958659376
C  C46  1  0.54670000  0.03310000  0.16348000  1.0 0.5958659376
C  C47  1  0.51360000  0.54670000  0.66348000  1.0 0.5958659376
C  C48  1  0.96690000  0.51360000  0.16348000  1.0 0.5958659376
C  C49  1  0.52280000  0.74130000  0.32930000  1.0 -0.1602610573
C  C50  1  0.78150000  0.52280000  0.82930000  1.0 -0.1602610573
C  C51  1  0.25870000  0.78150000  0.32930000  1.0 -0.1602610573
C  C52  1  0.47720000  0.25870000  0.82930000  1.0 -0.1602610573
C  C53  1  0.21850000  0.47720000  0.32930000  1.0 -0.1602610573
C  C54  1  0.74130000  0.21850000  0.82930000  1.0 -0.1602610573
C  C55  1  0.43210000  0.51270000  0.35370000  1.0 -0.1311076656
C  C56  1  0.91940000  0.43210000  0.85370000  1.0 -0.1311076656
C  C57  1  0.48730000  0.91940000  0.35370000  1.0 -0.1311076656
C  C58  1  0.56790000  0.48730000  0.85370000  1.0 -0.1311076656
C  C59  1  0.08060000  0.56790000  0.35370000  1.0 -0.1311076656
C  C60  1  0.51270000  0.08060000  0.85370000  1.0 -0.1311076656
C  C61  1  0.61420000  0.76830000  0.14730000  1.0 0.0857926632
C  C62  1  0.84590000  0.61420000  0.64730000  1.0 0.0857926632
C  C63  1  0.23170000  0.84590000  0.14730000  1.0 0.0857926632
C  C64  1  0.38580000  0.23170000  0.64730000  1.0 0.0857926632
C  C65  1  0.15410000  0.38580000  0.14730000  1.0 0.0857926632
C  C66  1  0.76830000  0.15410000  0.64730000  1.0 0.0857926632
C  C67  1  0.50630000  0.47020000  0.47370000  1.0 -0.1784043089
C  C68  1  0.03610000  0.50630000  0.97370000  1.0 -0.1784043089
C  C69  1  0.52980000  0.03610000  0.47370000  1.0 -0.1784043089
C  C70  1  0.49370000  0.52980000  0.97370000  1.0 -0.1784043089
C  C71  1  0.96390000  0.49370000  0.47370000  1.0 -0.1784043089
C  C72  1  0.47020000  0.96390000  0.97370000  1.0 -0.1784043089
C  C73  1  0.66410000  0.86740000  0.58480000  1.0 0.0508654264
C  C74  1  0.79670000  0.66410000  0.08480000  1.0 0.0508654264
C  C75  1  0.13260000  0.79670000  0.58480000  1.0 0.0508654264
C  C76  1  0.33590000  0.13260000  0.08480000  1.0 0.0508654264
C  C77  1  0.20330000  0.33590000  0.58480000  1.0 0.0508654264
C  C78  1  0.86740000  0.20330000  0.08480000  1.0 0.0508654264
C  C79  1  0.48900000  0.52910000  0.47058000  1.0 0.2455325623
C  C80  1  0.95990000  0.48900000  0.97058000  1.0 0.2455325623
C  C81  1  0.47090000  0.95990000  0.47058000  1.0 0.2455325623
C  C82  1  0.51100000  0.47090000  0.97058000  1.0 0.2455325623
C  C83  1  0.04010000  0.51100000  0.47058000  1.0 0.2455325623
C  C84  1  0.52910000  0.04010000  0.97058000  1.0 0.2455325623
C  C85  1  0.49210000  0.75560000  0.28891000  1.0 0.608882996
C  C86  1  0.73650000  0.49210000  0.78891000  1.0 0.608882996
C  C87  1  0.24440000  0.73650000  0.28891000  1.0 0.608882996
C  C88  1  0.50790000  0.24440000  0.78891000  1.0 0.608882996
C  C89  1  0.26350000  0.50790000  0.28891000  1.0 0.608882996
C  C90  1  0.75560000  0.26350000  0.78891000  1.0 0.608882996
C  C91  1  0.69820000  0.74620000  0.44630000  1.0 -0.1074364536
C  C92  1  0.95200000  0.69820000  0.94630000  1.0 -0.1074364536
C  C93  1  0.25380000  0.95200000  0.44630000  1.0 -0.1074364536
C  C94  1  0.30180000  0.25380000  0.94630000  1.0 -0.1074364536
C  C95  1  0.04800000  0.30180000  0.44630000  1.0 -0.1074364536
C  C96  1  0.74620000  0.04800000  0.94630000  1.0 -0.1074364536
C  C97  1  0.50290000  0.82860000  0.71060000  1.0 0.0614785608
C  C98  1  0.67430000  0.50290000  0.21060000  1.0 0.0614785608
C  C99  1  0.17140000  0.67430000  0.71060000  1.0 0.0614785608
C  C100  1  0.49710000  0.17140000  0.21060000  1.0 0.0614785608
C  C101  1  0.32570000  0.49710000  0.71060000  1.0 0.0614785608
C  C102  1  0.82860000  0.32570000  0.21060000  1.0 0.0614785608
C  C103  1  0.47370000  0.90690000  0.66532000  1.0 -0.1602610573
C  C104  1  0.56680000  0.47370000  0.16532000  1.0 -0.1602610573
C  C105  1  0.09310000  0.56680000  0.66532000  1.0 -0.1602610573
C  C106  1  0.52630000  0.09310000  0.16532000  1.0 -0.1602610573
C  C107  1  0.43320000  0.52630000  0.66532000  1.0 -0.1602610573
C  C108  1  0.90690000  0.43320000  0.16532000  1.0 -0.1602610573
C  C109  1  0.50810000  0.67470000  0.39796000  1.0 -0.0287806471
C  C110  1  0.83340000  0.50810000  0.89796000  1.0 -0.0287806471
C  C111  1  0.32530000  0.83340000  0.39796000  1.0 -0.0287806471
C  C112  1  0.49190000  0.32530000  0.89796000  1.0 -0.0287806471
C  C113  1  0.16660000  0.49190000  0.39796000  1.0 -0.0287806471
C  C114  1  0.67470000  0.16660000  0.89796000  1.0 -0.0287806471
C  C115  1  0.50380000  0.43070000  0.43610000  1.0 -0.1784043089
C  C116  1  0.07310000  0.50380000  0.93610000  1.0 -0.1784043089
C  C117  1  0.56930000  0.07310000  0.43610000  1.0 -0.1784043089
C  C118  1  0.49620000  0.56930000  0.93610000  1.0 -0.1784043089
C  C119  1  0.92690000  0.49620000  0.43610000  1.0 -0.1784043089
C  C120  1  0.43070000  0.92690000  0.93610000  1.0 -0.1784043089
C  C121  1  0.46000000  0.50190000  0.39406000  1.0 0.0508654264
C  C122  1  0.95810000  0.46000000  0.89406000  1.0 0.0508654264
C  C123  1  0.49810000  0.95810000  0.39406000  1.0 0.0508654264
C  C124  1  0.54000000  0.49810000  0.89406000  1.0 0.0508654264
C  C125  1  0.04190000  0.54000000  0.39406000  1.0 0.0508654264
C  C126  1  0.50190000  0.04190000  0.89406000  1.0 0.0508654264
C  C127  1  0.48550000  0.87390000  0.62746000  1.0 0.2405579003
C  C128  1  0.61160000  0.48550000  0.12746000  1.0 0.2405579003
C  C129  1  0.12610000  0.61160000  0.62746000  1.0 0.2405579003
C  C130  1  0.51450000  0.12610000  0.12746000  1.0 0.2405579003
C  C131  1  0.38840000  0.51450000  0.62746000  1.0 0.2405579003
C  C132  1  0.87390000  0.38840000  0.12746000  1.0 0.2405579003
C  C133  1  0.48370000  0.88440000  0.70573000  1.0 -0.1495795553
C  C134  1  0.59930000  0.48370000  0.20573000  1.0 -0.1495795553
C  C135  1  0.11560000  0.59930000  0.70573000  1.0 -0.1495795553
C  C136  1  0.51630000  0.11560000  0.20573000  1.0 -0.1495795553
C  C137  1  0.40070000  0.51630000  0.70573000  1.0 -0.1495795553
C  C138  1  0.88440000  0.40070000  0.20573000  1.0 -0.1495795553
C  C139  1  0.51400000  0.79510000  0.67261000  1.0 0.0508654264
C  C140  1  0.71890000  0.51400000  0.17261000  1.0 0.0508654264
C  C141  1  0.20490000  0.71890000  0.67261000  1.0 0.0508654264
C  C142  1  0.48600000  0.20490000  0.17261000  1.0 0.0508654264
C  C143  1  0.28110000  0.48600000  0.67261000  1.0 0.0508654264
C  C144  1  0.79510000  0.28110000  0.17261000  1.0 0.0508654264
C  C145  1  0.62320000  0.70830000  0.44170000  1.0 -0.1311076656
C  C146  1  0.91490000  0.62320000  0.94170000  1.0 -0.1311076656
C  C147  1  0.29170000  0.91490000  0.44170000  1.0 -0.1311076656
C  C148  1  0.37680000  0.29170000  0.94170000  1.0 -0.1311076656
C  C149  1  0.08510000  0.37680000  0.44170000  1.0 -0.1311076656
C  C150  1  0.70830000  0.08510000  0.94170000  1.0 -0.1311076656
C  C151  1  0.47720000  0.69010000  0.36175000  1.0 0.2405579003
C  C152  1  0.78710000  0.47720000  0.86175000  1.0 0.2405579003
C  C153  1  0.30990000  0.78710000  0.36175000  1.0 0.2405579003
C  C154  1  0.52280000  0.30990000  0.86175000  1.0 0.2405579003
C  C155  1  0.21290000  0.52280000  0.36175000  1.0 0.2405579003
C  C156  1  0.69010000  0.21290000  0.86175000  1.0 0.2405579003
C  C157  1  0.58640000  0.71440000  0.40420000  1.0 0.0436380233
C  C158  1  0.87200000  0.58640000  0.90420000  1.0 0.0436380233
C  C159  1  0.28560000  0.87200000  0.40420000  1.0 0.0436380233
C  C160  1  0.41360000  0.28560000  0.90420000  1.0 0.0436380233
C  C161  1  0.12800000  0.41360000  0.40420000  1.0 0.0436380233
C  C162  1  0.71440000  0.12800000  0.90420000  1.0 0.0436380233
C  C163  1  0.60020000  0.77760000  0.33430000  1.0 -0.1495795553
C  C164  1  0.82260000  0.60020000  0.83430000  1.0 -0.1495795553
C  C165  1  0.22240000  0.82260000  0.33430000  1.0 -0.1495795553
C  C166  1  0.39980000  0.22240000  0.83430000  1.0 -0.1495795553
C  C167  1  0.17740000  0.39980000  0.33430000  1.0 -0.1495795553
C  C168  1  0.77760000  0.17740000  0.83430000  1.0 -0.1495795553
C  C169  1  0.47980000  0.44520000  0.39610000  1.0 0.0508654264
C  C170  1  0.03460000  0.47980000  0.89610000  1.0 0.0508654264
C  C171  1  0.55480000  0.03460000  0.39610000  1.0 0.0508654264
C  C172  1  0.52020000  0.55480000  0.89610000  1.0 0.0508654264
C  C173  1  0.96540000  0.52020000  0.39610000  1.0 0.0508654264
C  C174  1  0.44520000  0.96540000  0.89610000  1.0 0.0508654264
C  C175  1  0.45520000  0.61250000  0.42930000  1.0 -0.2393729215
C  C176  1  0.84270000  0.45520000  0.92930000  1.0 -0.2393729215
C  C177  1  0.38750000  0.84270000  0.42930000  1.0 -0.2393729215
C  C178  1  0.54480000  0.38750000  0.92930000  1.0 -0.2393729215
C  C179  1  0.15730000  0.54480000  0.42930000  1.0 -0.2393729215
C  C180  1  0.61250000  0.15730000  0.92930000  1.0 -0.2393729215
C  C181  1  0.62470000  0.68780000  0.20400000  1.0 0.1422801903
C  C182  1  0.93690000  0.62470000  0.70400000  1.0 0.1422801903
C  C183  1  0.31220000  0.93690000  0.20400000  1.0 0.1422801903
C  C184  1  0.37530000  0.31220000  0.70400000  1.0 0.1422801903
C  C185  1  0.06310000  0.37530000  0.20400000  1.0 0.1422801903
C  C186  1  0.68780000  0.06310000  0.70400000  1.0 0.1422801903
C  C187  1  0.46810000  0.54640000  0.43145000  1.0 -0.0354761419
C  C188  1  0.92170000  0.46810000  0.93145000  1.0 -0.0354761419
C  C189  1  0.45360000  0.92170000  0.43145000  1.0 -0.0354761419
C  C190  1  0.53190000  0.45360000  0.93145000  1.0 -0.0354761419
C  C191  1  0.07830000  0.53190000  0.43145000  1.0 -0.0354761419
C  C192  1  0.54640000  0.07830000  0.93145000  1.0 -0.0354761419
C  C193  1  0.63280000  0.76640000  0.37110000  1.0 0.0614785608
C  C194  1  0.86640000  0.63280000  0.87110000  1.0 0.0614785608
C  C195  1  0.23360000  0.86640000  0.37110000  1.0 0.0614785608
C  C196  1  0.36720000  0.23360000  0.87110000  1.0 0.0614785608
C  C197  1  0.13360000  0.36720000  0.37110000  1.0 0.0614785608
C  C198  1  0.76640000  0.13360000  0.87110000  1.0 0.0614785608
C  C199  1  0.74600000  0.61380000  0.40160000  1.0 0.152192014
C  C200  1  0.13220000  0.74600000  0.90160000  1.0 0.152192014
C  C201  1  0.38620000  0.13220000  0.40160000  1.0 0.152192014
C  C202  1  0.25400000  0.38620000  0.90160000  1.0 0.152192014
C  C203  1  0.86780000  0.25400000  0.40160000  1.0 0.152192014
C  C204  1  0.61380000  0.86780000  0.90160000  1.0 0.152192014
C  C205  1  0.51080000  0.80450000  0.75220000  1.0 -0.1402091744
C  C206  1  0.70630000  0.51080000  0.25220000  1.0 -0.1402091744
C  C207  1  0.19550000  0.70630000  0.75220000  1.0 -0.1402091744
C  C208  1  0.48920000  0.19550000  0.25220000  1.0 -0.1402091744
C  C209  1  0.29370000  0.48920000  0.75220000  1.0 -0.1402091744
C  C210  1  0.80450000  0.29370000  0.25220000  1.0 -0.1402091744
C  C211  1  0.73010000  0.58880000  0.48000000  1.0 0.1303837223
C  C212  1  0.14130000  0.73010000  0.98000000  1.0 0.1303837223
C  C213  1  0.41120000  0.14130000  0.48000000  1.0 0.1303837223
C  C214  1  0.26990000  0.41120000  0.98000000  1.0 0.1303837223
C  C215  1  0.85870000  0.26990000  0.48000000  1.0 0.1303837223
C  C216  1  0.58880000  0.85870000  0.98000000  1.0 0.1303837223
C  C217  1  0.73870000  0.80550000  0.58190000  1.0 -0.1402091744
C  C218  1  0.93320000  0.73870000  0.08190000  1.0 -0.1402091744
C  C219  1  0.19450000  0.93320000  0.58190000  1.0 -0.1402091744
C  C220  1  0.26130000  0.19450000  0.08190000  1.0 -0.1402091744
C  C221  1  0.06680000  0.26130000  0.58190000  1.0 -0.1402091744
C  C222  1  0.80550000  0.06680000  0.08190000  1.0 -0.1402091744
C  C223  1  0.54940000  0.64820000  0.13530000  1.0 -0.0887996807
C  C224  1  0.90120000  0.54940000  0.63530000  1.0 -0.0887996807
C  C225  1  0.35180000  0.90120000  0.13530000  1.0 -0.0887996807
C  C226  1  0.45060000  0.35180000  0.63530000  1.0 -0.0887996807
C  C227  1  0.09880000  0.45060000  0.13530000  1.0 -0.0887996807
C  C228  1  0.64820000  0.09880000  0.63530000  1.0 -0.0887996807
C  C229  1  0.47380000  0.40380000  0.35770000  1.0 -0.1495795553
C  C230  1  0.07000000  0.47380000  0.85770000  1.0 -0.1495795553
C  C231  1  0.59620000  0.07000000  0.35770000  1.0 -0.1495795553
C  C232  1  0.52620000  0.59620000  0.85770000  1.0 -0.1495795553
C  C233  1  0.93000000  0.52620000  0.35770000  1.0 -0.1495795553
C  C234  1  0.40380000  0.93000000  0.85770000  1.0 -0.1495795553
C  C235  1  0.73530000  0.87210000  0.58390000  1.0 0.0614785608
C  C236  1  0.86320000  0.73530000  0.08390000  1.0 0.0614785608
C  C237  1  0.12790000  0.86320000  0.58390000  1.0 0.0614785608
C  C238  1  0.26470000  0.12790000  0.08390000  1.0 0.0614785608
C  C239  1  0.13680000  0.26470000  0.58390000  1.0 0.0614785608
C  C240  1  0.87210000  0.13680000  0.08390000  1.0 0.0614785608
C  C241  1  0.52590000  0.74820000  0.75720000  1.0 -0.1074364536
C  C242  1  0.77770000  0.52590000  0.25720000  1.0 -0.1074364536
C  C243  1  0.25180000  0.77770000  0.75720000  1.0 -0.1074364536
C  C244  1  0.47410000  0.25180000  0.25720000  1.0 -0.1074364536
C  C245  1  0.22230000  0.47410000  0.75720000  1.0 -0.1074364536
C  C246  1  0.74820000  0.22230000  0.25720000  1.0 -0.1074364536
C  C247  1  0.52960000  0.73660000  0.67880000  1.0 -0.1204093823
C  C248  1  0.79300000  0.52960000  0.17880000  1.0 -0.1204093823
C  C249  1  0.26340000  0.79300000  0.67880000  1.0 -0.1204093823
C  C250  1  0.47040000  0.26340000  0.17880000  1.0 -0.1204093823
C  C251  1  0.20700000  0.47040000  0.67880000  1.0 -0.1204093823
C  C252  1  0.73660000  0.20700000  0.17880000  1.0 -0.1204093823
C  C253  1  0.71220000  0.80430000  0.37590000  1.0 -0.1495795553
C  C254  1  0.90790000  0.71220000  0.87590000  1.0 -0.1495795553
C  C255  1  0.19570000  0.90790000  0.37590000  1.0 -0.1495795553
C  C256  1  0.28780000  0.19570000  0.87590000  1.0 -0.1495795553
C  C257  1  0.09210000  0.28780000  0.37590000  1.0 -0.1495795553
C  C258  1  0.80430000  0.09210000  0.87590000  1.0 -0.1495795553
C  C259  1  0.53610000  0.68410000  0.10290000  1.0 -0.0553950251
C  C260  1  0.85200000  0.53610000  0.60290000  1.0 -0.0553950251
C  C261  1  0.31590000  0.85200000  0.10290000  1.0 -0.0553950251
C  C262  1  0.46390000  0.31590000  0.60290000  1.0 -0.0553950251
C  C263  1  0.14800000  0.46390000  0.10290000  1.0 -0.0553950251
C  C264  1  0.68410000  0.14800000  0.60290000  1.0 -0.0553950251
C  C265  1  0.66200000  0.93610000  0.58470000  1.0 -0.1311076656
C  C266  1  0.72590000  0.66200000  0.08470000  1.0 -0.1311076656
C  C267  1  0.06390000  0.72590000  0.58470000  1.0 -0.1311076656
C  C268  1  0.33800000  0.06390000  0.08470000  1.0 -0.1311076656
C  C269  1  0.27410000  0.33800000  0.58470000  1.0 -0.1311076656
C  C270  1  0.93610000  0.27410000  0.08470000  1.0 -0.1311076656
C  C271  1  0.67560000  0.66010000  0.28070000  1.0 0.068015309
C  C272  1  0.01550000  0.67560000  0.78070000  1.0 0.068015309
C  C273  1  0.33990000  0.01550000  0.28070000  1.0 0.068015309
C  C274  1  0.32440000  0.33990000  0.78070000  1.0 0.068015309
C  C275  1  0.98450000  0.32440000  0.28070000  1.0 0.068015309
C  C276  1  0.66010000  0.98450000  0.78070000  1.0 0.068015309
C  C277  1  0.42750000  0.47040000  0.31750000  1.0 -0.0810783443
C  C278  1  0.95710000  0.42750000  0.81750000  1.0 -0.0810783443
C  C279  1  0.52960000  0.95710000  0.31750000  1.0 -0.0810783443
C  C280  1  0.57250000  0.52960000  0.81750000  1.0 -0.0810783443
C  C281  1  0.04290000  0.57250000  0.31750000  1.0 -0.0810783443
C  C282  1  0.47040000  0.04290000  0.81750000  1.0 -0.0810783443
C  C283  1  0.74180000  0.79290000  0.41330000  1.0 -0.1074364536
C  C284  1  0.94890000  0.74180000  0.91330000  1.0 -0.1074364536
C  C285  1  0.20710000  0.94890000  0.41330000  1.0 -0.1074364536
C  C286  1  0.25820000  0.20710000  0.91330000  1.0 -0.1074364536
C  C287  1  0.05110000  0.25820000  0.41330000  1.0 -0.1074364536
C  C288  1  0.79290000  0.05110000  0.91330000  1.0 -0.1074364536
C  C289  1  0.53700000  0.71470000  0.72010000  1.0 -0.0887996807
C  C290  1  0.82230000  0.53700000  0.22010000  1.0 -0.0887996807
C  C291  1  0.28530000  0.82230000  0.72010000  1.0 -0.0887996807
C  C292  1  0.46300000  0.28530000  0.22010000  1.0 -0.0887996807
C  C293  1  0.17770000  0.46300000  0.72010000  1.0 -0.0887996807
C  C294  1  0.71470000  0.17770000  0.22010000  1.0 -0.0887996807
C  C295  1  0.45080000  0.41700000  0.32000000  1.0 -0.0974146252
C  C296  1  0.03380000  0.45080000  0.82000000  1.0 -0.0974146252
C  C297  1  0.58300000  0.03380000  0.32000000  1.0 -0.0974146252
C  C298  1  0.54920000  0.58300000  0.82000000  1.0 -0.0974146252
C  C299  1  0.96620000  0.54920000  0.32000000  1.0 -0.0974146252
C  C300  1  0.41700000  0.96620000  0.82000000  1.0 -0.0974146252
C  C301  1  0.57600000  0.63790000  0.23250000  1.0 -0.1311076656
C  C302  1  0.93810000  0.57600000  0.73250000  1.0 -0.1311076656
C  C303  1  0.36210000  0.93810000  0.23250000  1.0 -0.1311076656
C  C304  1  0.42400000  0.36210000  0.73250000  1.0 -0.1311076656
C  C305  1  0.06190000  0.42400000  0.23250000  1.0 -0.1311076656
C  C306  1  0.63790000  0.06190000  0.73250000  1.0 -0.1311076656
C  C307  1  0.60140000  0.62590000  0.27060000  1.0 -0.1311076656
C  C308  1  0.97550000  0.60140000  0.77060000  1.0 -0.1311076656
C  C309  1  0.37410000  0.97550000  0.27060000  1.0 -0.1311076656
C  C310  1  0.39860000  0.37410000  0.77060000  1.0 -0.1311076656
C  C311  1  0.02450000  0.39860000  0.27060000  1.0 -0.1311076656
C  C312  1  0.62590000  0.02450000  0.77060000  1.0 -0.1311076656
C  C313  1  0.80020000  0.66240000  0.37260000  1.0 -0.1784043089
C  C314  1  0.13780000  0.80020000  0.87260000  1.0 -0.1784043089
C  C315  1  0.33760000  0.13780000  0.37260000  1.0 -0.1784043089
C  C316  1  0.19980000  0.33760000  0.87260000  1.0 -0.1784043089
C  C317  1  0.86220000  0.19980000  0.37260000  1.0 -0.1784043089
C  C318  1  0.66240000  0.86220000  0.87260000  1.0 -0.1784043089
C  C319  1  0.77570000  0.67520000  0.33290000  1.0 -0.1311076656
C  C320  1  0.10050000  0.77570000  0.83290000  1.0 -0.1311076656
C  C321  1  0.32480000  0.10050000  0.33290000  1.0 -0.1311076656
C  C322  1  0.22430000  0.32480000  0.83290000  1.0 -0.1311076656
C  C323  1  0.89950000  0.22430000  0.33290000  1.0 -0.1311076656
C  C324  1  0.67520000  0.89950000  0.83290000  1.0 -0.1311076656
C  C325  1  0.83580000  0.60420000  0.45370000  1.0 -0.1204093823
C  C326  1  0.23160000  0.83580000  0.95370000  1.0 -0.1204093823
C  C327  1  0.39580000  0.23160000  0.45370000  1.0 -0.1204093823
C  C328  1  0.16420000  0.39580000  0.95370000  1.0 -0.1204093823
C  C329  1  0.76840000  0.16420000  0.45370000  1.0 -0.1204093823
C  C330  1  0.60420000  0.76840000  0.95370000  1.0 -0.1204093823
C  C331  1  0.80160000  0.94430000  0.58490000  1.0 -0.1402091744
C  C332  1  0.85730000  0.80160000  0.08490000  1.0 -0.1402091744
C  C333  1  0.05570000  0.85730000  0.58490000  1.0 -0.1402091744
C  C334  1  0.19840000  0.05570000  0.08490000  1.0 -0.1402091744
C  C335  1  0.14270000  0.19840000  0.58490000  1.0 -0.1402091744
C  C336  1  0.94430000  0.14270000  0.08490000  1.0 -0.1402091744
C  C337  1  0.83110000  0.58830000  0.49680000  1.0 -0.0135343628
C  C338  1  0.24280000  0.83110000  0.99680000  1.0 -0.0135343628
C  C339  1  0.41170000  0.24280000  0.49680000  1.0 -0.0135343628
C  C340  1  0.16890000  0.41170000  0.99680000  1.0 -0.0135343628
C  C341  1  0.75720000  0.16890000  0.49680000  1.0 -0.0135343628
C  C342  1  0.58830000  0.75720000  0.99680000  1.0 -0.0135343628
C  C343  1  0.79720000  0.00670000  0.58580000  1.0 -0.1074364536
C  C344  1  0.79050000  0.79720000  0.08580000  1.0 -0.1074364536
C  C345  1  0.99330000  0.79050000  0.58580000  1.0 -0.1074364536
C  C346  1  0.20280000  0.99330000  0.08580000  1.0 -0.1074364536
C  C347  1  0.20950000  0.20280000  0.58580000  1.0 -0.1074364536
C  C348  1  0.00670000  0.20950000  0.08580000  1.0 -0.1074364536
C  C349  1  0.67330000  0.58460000  0.39300000  1.0 -0.1602610573
C  C350  1  0.08870000  0.67330000  0.89300000  1.0 -0.1602610573
C  C351  1  0.41540000  0.08870000  0.39300000  1.0 -0.1602610573
C  C352  1  0.32670000  0.41540000  0.89300000  1.0 -0.1602610573
C  C353  1  0.91130000  0.32670000  0.39300000  1.0 -0.1602610573
C  C354  1  0.58460000  0.91130000  0.89300000  1.0 -0.1602610573
C  C355  1  0.65030000  0.60100000  0.35280000  1.0 -0.1204093823
C  C356  1  0.04930000  0.65030000  0.85280000  1.0 -0.1204093823
C  C357  1  0.39900000  0.04930000  0.35280000  1.0 -0.1204093823
C  C358  1  0.34970000  0.39900000  0.85280000  1.0 -0.1204093823
C  C359  1  0.95070000  0.34970000  0.35280000  1.0 -0.1204093823
C  C360  1  0.60100000  0.95070000  0.85280000  1.0 -0.1204093823
C  C361  1  0.72170000  0.71490000  0.25330000  1.0 -0.1402091744
C  C362  1  0.00680000  0.72170000  0.75330000  1.0 -0.1402091744
C  C363  1  0.28510000  0.00680000  0.25330000  1.0 -0.1402091744
C  C364  1  0.27830000  0.28510000  0.75330000  1.0 -0.1402091744
C  C365  1  0.99320000  0.27830000  0.25330000  1.0 -0.1402091744
C  C366  1  0.71490000  0.99320000  0.75330000  1.0 -0.1402091744
C  C367  1  0.69920000  0.72360000  0.21150000  1.0 -0.1602610573
C  C368  1  0.97560000  0.69920000  0.71150000  1.0 -0.1602610573
C  C369  1  0.27640000  0.97560000  0.21150000  1.0 -0.1602610573
C  C370  1  0.30080000  0.27640000  0.71150000  1.0 -0.1602610573
C  C371  1  0.02440000  0.30080000  0.21150000  1.0 -0.1602610573
C  C372  1  0.72360000  0.02440000  0.71150000  1.0 -0.1602610573
C  C373  1  0.50750000  0.82070000  0.63034000  1.0 -0.0287806471
C  C374  1  0.68680000  0.50750000  0.13034000  1.0 -0.0287806471
C  C375  1  0.17930000  0.68680000  0.63034000  1.0 -0.0287806471
C  C376  1  0.49250000  0.17930000  0.13034000  1.0 -0.0287806471
C  C377  1  0.31320000  0.49250000  0.63034000  1.0 -0.0287806471
C  C378  1  0.82070000  0.31320000  0.13034000  1.0 -0.0287806471
C  C379  1  0.52140000  0.78890000  0.58925000  1.0 -0.247917739
C  C380  1  0.73250000  0.52140000  0.08925000  1.0 -0.247917739
C  C381  1  0.21110000  0.73250000  0.58925000  1.0 -0.247917739
C  C382  1  0.47860000  0.21110000  0.08925000  1.0 -0.247917739
C  C383  1  0.26750000  0.47860000  0.58925000  1.0 -0.247917739
C  C384  1  0.78890000  0.26750000  0.08925000  1.0 -0.247917739
N  N1  1  0.58000000  0.33380000  0.68760000  1.0 -0.7791785275
N  N2  1  0.24620000  0.58000000  0.18760000  1.0 -0.7791785275
N  N3  1  0.66620000  0.24620000  0.68760000  1.0 -0.7791785275
N  N4  1  0.42000000  0.66620000  0.18760000  1.0 -0.7791785275
N  N5  1  0.75380000  0.42000000  0.68760000  1.0 -0.7791785275
N  N6  1  0.33380000  0.75380000  0.18760000  1.0 -0.7791785275
N  N7  1  0.66666667  0.33333333  0.60830000  1.0 -0.7864428435
N  N8  1  0.33333333  0.66666667  0.10830000  1.0 -0.7864428435
N  N9  1  0.76450000  0.57830000  0.51340000  1.0 -0.2859925305
N  N10  1  0.18620000  0.76450000  0.01340000  1.0 -0.2859925305
N  N11  1  0.42170000  0.18620000  0.51340000  1.0 -0.2859925305
N  N12  1  0.23550000  0.42170000  0.01340000  1.0 -0.2859925305
N  N13  1  0.81380000  0.23550000  0.51340000  1.0 -0.2859925305
N  N14  1  0.57830000  0.81380000  0.01340000  1.0 -0.2859925305
N  N15  1  0.76750000  0.59990000  0.44380000  1.0 0.0107545263
N  N16  1  0.16760000  0.76750000  0.94380000  1.0 0.0107545263
N  N17  1  0.40010000  0.16760000  0.44380000  1.0 0.0107545263
N  N18  1  0.23250000  0.40010000  0.94380000  1.0 0.0107545263
N  N19  1  0.83240000  0.23250000  0.44380000  1.0 0.0107545263
N  N20  1  0.59990000  0.83240000  0.94380000  1.0 0.0107545263
N  N21  1  0.64530000  0.48520000  0.59940000  1.0 -0.8044805203
N  N22  1  0.16010000  0.64530000  0.09940000  1.0 -0.8055454766
N  N23  1  0.51480000  0.16010000  0.59940000  1.0 -0.8044805203
N  N24  1  0.35470000  0.51480000  0.09940000  1.0 -0.8044805203
N  N25  1  0.83990000  0.35470000  0.59940000  1.0 -0.8044805203
N  N26  1  0.48520000  0.83990000  0.09940000  1.0 -0.8055454766
N  N27  1  0.59820000  0.70090000  0.16344000  1.0 0.0107545263
N  N28  1  0.89730000  0.59820000  0.66344000  1.0 0.0107545263
N  N29  1  0.29910000  0.89730000  0.16344000  1.0 0.0107545263
N  N30  1  0.40180000  0.29910000  0.66344000  1.0 0.0107545263
N  N31  1  0.10270000  0.40180000  0.16344000  1.0 0.0107545263
N  N32  1  0.70090000  0.10270000  0.66344000  1.0 0.0107545263
N  N33  1  0.57760000  0.75980000  0.11064000  1.0 -0.2805244898
N  N34  1  0.81780000  0.57760000  0.61064000  1.0 -0.2805244898
N  N35  1  0.24020000  0.81780000  0.11064000  1.0 -0.2805244898
N  N36  1  0.42240000  0.24020000  0.61064000  1.0 -0.2805244898
N  N37  1  0.18220000  0.42240000  0.11064000  1.0 -0.2805244898
N  N38  1  0.75980000  0.18220000  0.61064000  1.0 -0.2805244898
O  O1  1  0.63810000  0.49630000  0.69450000  1.0 -0.6767061626
O  O2  1  0.14180000  0.63810000  0.19450000  1.0 -0.6767061626
O  O3  1  0.50370000  0.14180000  0.69450000  1.0 -0.6767061626
O  O4  1  0.36190000  0.50370000  0.19450000  1.0 -0.6767061626
O  O5  1  0.85820000  0.36190000  0.69450000  1.0 -0.6767061626
O  O6  1  0.49630000  0.85820000  0.19450000  1.0 -0.6767061626
O  O7  1  0.51510000  0.47230000  0.55108000  1.0 -0.6363913094
O  O8  1  0.04280000  0.51510000  0.05108000  1.0 -0.6363913094
O  O9  1  0.52770000  0.04280000  0.55108000  1.0 -0.6363913094
O  O10  1  0.48490000  0.52770000  0.05108000  1.0 -0.6363913094
O  O11  1  0.95720000  0.48490000  0.55108000  1.0 -0.6363913094
O  O12  1  0.47230000  0.95720000  0.05108000  1.0 -0.6363913094
O  O13  1  0.49380000  0.56830000  0.50650000  1.0 -0.6261717305
O  O14  1  0.92550000  0.49380000  0.00650000  1.0 -0.6261717305
O  O15  1  0.43170000  0.92550000  0.50650000  1.0 -0.6261717305
O  O16  1  0.50620000  0.43170000  0.00650000  1.0 -0.6261717305
O  O17  1  0.07450000  0.50620000  0.50650000  1.0 -0.6261717305
O  O18  1  0.56830000  0.07450000  0.00650000  1.0 -0.6261717305
O  O19  1  0.54160000  0.66560000  0.57767000  1.0 -0.6104410281
O  O20  1  0.87600000  0.54160000  0.07767000  1.0 -0.6104410281
O  O21  1  0.33440000  0.87600000  0.57767000  1.0 -0.6104410281
O  O22  1  0.45840000  0.33440000  0.07767000  1.0 -0.6104410281
O  O23  1  0.12400000  0.45840000  0.57767000  1.0 -0.6104410281
O  O24  1  0.66560000  0.12400000  0.07767000  1.0 -0.6104410281
O  O25  1  0.74050000  0.67180000  0.58475000  1.0 -0.5126450632
O  O26  1  0.06870000  0.74050000  0.08475000  1.0 -0.5126450632
O  O27  1  0.32820000  0.06870000  0.58475000  1.0 -0.5126450632
O  O28  1  0.25950000  0.32820000  0.08475000  1.0 -0.5126450632
O  O29  1  0.93130000  0.25950000  0.58475000  1.0 -0.5126450632
O  O30  1  0.67180000  0.93130000  0.08475000  1.0 -0.5126450632
O  O31  1  0.62950000  0.61230000  0.55499000  1.0 -0.6104410281
O  O32  1  0.01720000  0.62950000  0.05499000  1.0 -0.6104410281
O  O33  1  0.38770000  0.01720000  0.55499000  1.0 -0.6104410281
O  O34  1  0.37050000  0.38770000  0.05499000  1.0 -0.6104410281
O  O35  1  0.98280000  0.37050000  0.55499000  1.0 -0.6104410281
O  O36  1  0.61230000  0.98280000  0.05499000  1.0 -0.6104410281
O  O37  1  0.44410000  0.99280000  0.69781000  1.0 -0.5126450632
O  O38  1  0.45130000  0.44410000  0.19781000  1.0 -0.5126450632
O  O39  1  0.00720000  0.45130000  0.69781000  1.0 -0.5126450632
O  O40  1  0.55590000  0.00720000  0.19781000  1.0 -0.5126450632
O  O41  1  0.54870000  0.55590000  0.69781000  1.0 -0.5126450632
O  O42  1  0.99280000  0.54870000  0.19781000  1.0 -0.5126450632
O  O43  1  0.40260000  0.65420000  0.35752000  1.0 -0.6104410281
O  O44  1  0.74840000  0.40260000  0.85752000  1.0 -0.6104410281
O  O45  1  0.34580000  0.74840000  0.35752000  1.0 -0.6104410281
O  O46  1  0.59740000  0.34580000  0.85752000  1.0 -0.6104410281
O  O47  1  0.25160000  0.59740000  0.35752000  1.0 -0.6104410281
O  O48  1  0.65420000  0.25160000  0.85752000  1.0 -0.6104410281
O  O49  1  0.55750000  0.40950000  0.51441000  1.0 -0.5150041853
O  O50  1  0.14800000  0.55750000  0.01441000  1.0 -0.5150041853
O  O51  1  0.59050000  0.14800000  0.51441000  1.0 -0.5150041853
O  O52  1  0.44250000  0.59050000  0.01441000  1.0 -0.5150041853
O  O53  1  0.85200000  0.44250000  0.51441000  1.0 -0.5150041853
O  O54  1  0.40950000  0.85200000  0.01441000  1.0 -0.5150041853
O  O55  1  0.53540000  0.79440000  0.25932000  1.0 -0.5334993874
O  O56  1  0.74100000  0.53540000  0.75932000  1.0 -0.5334993874
O  O57  1  0.20560000  0.74100000  0.25932000  1.0 -0.5334993874
O  O58  1  0.46460000  0.20560000  0.75932000  1.0 -0.5334993874
O  O59  1  0.25900000  0.46460000  0.25932000  1.0 -0.5334993874
O  O60  1  0.79440000  0.25900000  0.75932000  1.0 -0.5334993874
O  O61  1  0.47590000  0.89460000  0.58761000  1.0 -0.6187907622
O  O62  1  0.58130000  0.47590000  0.08761000  1.0 -0.6187907622
O  O63  1  0.10540000  0.58130000  0.58761000  1.0 -0.6104410281
O  O64  1  0.52410000  0.10540000  0.08761000  1.0 -0.6187907622
O  O65  1  0.41870000  0.52410000  0.58761000  1.0 -0.6187907622
O  O66  1  0.89460000  0.41870000  0.08761000  1.0 -0.6187907622
O  O67  1  0.44820000  0.99230000  0.62601000  1.0 -0.6261717305
O  O68  1  0.45590000  0.44820000  0.12601000  1.0 -0.6261717305
O  O69  1  0.00770000  0.45590000  0.62601000  1.0 -0.6261717305
O  O70  1  0.55180000  0.00770000  0.12601000  1.0 -0.6261717305
O  O71  1  0.54410000  0.55180000  0.62601000  1.0 -0.6261717305
O  O72  1  0.99230000  0.54410000  0.12601000  1.0 -0.6261717305
O  O73  1  0.42090000  0.72600000  0.28456000  1.0 -0.6187907622
O  O74  1  0.69490000  0.42090000  0.78456000  1.0 -0.6187907622
O  O75  1  0.27400000  0.69490000  0.28456000  1.0 -0.6187907622
O  O76  1  0.57910000  0.27400000  0.78456000  1.0 -0.6187907622
O  O77  1  0.30510000  0.57910000  0.28456000  1.0 -0.6187907622
O  O78  1  0.72600000  0.30510000  0.78456000  1.0 -0.6187907622
