# DDEC6 charges by PACMAN v1.1 (https://github.com/mtap-research/PACMAN-charge/)
data_UDOJIK_FSR_pacman
_symmetry_space_group_name_H-M   'P 1'
_cell_length_a   20.67130000
_cell_length_b   20.67130000
_cell_length_c   30.69930000
_cell_angle_alpha   90.00000000
_cell_angle_beta   90.00000000
_cell_angle_gamma   120.00000000
_symmetry_Int_Tables_number   1
_chemical_formula_structural   Ti4Zn4H141C192N19O39
_chemical_formula_sum   'Ti8 Zn8 H282 C384 N38 O78'
_cell_volume   11360.42775891
_cell_formula_units_Z   2
loop_
 _symmetry_equiv_pos_site_id
 _symmetry_equiv_pos_as_xyz
  1  'x, y, z'
loop_
 _atom_site_type_symbol
 _atom_site_label
 _atom_site_symmetry_multiplicity
 _atom_site_fract_x
 _atom_site_fract_y
 _atom_site_fract_z
 _atom_site_occupancy
 _atom_site_charge
Ti  Ti1  1  0.66666667  0.33333333  0.39629000  1.0 1.9185367935
Ti  Ti2  1  0.33333333  0.66666667  0.89629000  1.0 1.9185367935
Ti  Ti3  1  0.94864000  0.51400000  0.63719000  1.0 1.9086275213
Ti  Ti4  1  0.48600000  0.43464000  0.63719000  1.0 1.9086275213
Ti  Ti5  1  0.56536000  0.05136000  0.63719000  1.0 1.9086275213
Ti  Ti6  1  0.05136000  0.48600000  0.13719000  1.0 1.9086275213
Ti  Ti7  1  0.51400000  0.56536000  0.13719000  1.0 1.9086275213
Ti  Ti8  1  0.43464000  0.94864000  0.13719000  1.0 1.9086275213
Zn  Zn1  1  0.66666667  0.33333333  0.24120000  1.0 0.7231080942
Zn  Zn2  1  0.33333333  0.66666667  0.74120000  1.0 0.7231080942
Zn  Zn3  1  0.57438000  0.84024000  0.64709000  1.0 0.7427885645
Zn  Zn4  1  0.15976000  0.73414000  0.64709000  1.0 0.7427885645
Zn  Zn5  1  0.26586000  0.42562000  0.64709000  1.0 0.7427885645
Zn  Zn6  1  0.42562000  0.15976000  0.14709000  1.0 0.7427885645
Zn  Zn7  1  0.84024000  0.26586000  0.14709000  1.0 0.7427885645
Zn  Zn8  1  0.73414000  0.57438000  0.14709000  1.0 0.7427885645
H  H1  1  0.70696000  0.24465000  0.24532000  1.0 0.2643115165
H  H2  1  0.75535000  0.46231000  0.24532000  1.0 0.2661826561
H  H3  1  0.53769000  0.29304000  0.24532000  1.0 0.2661826561
H  H4  1  0.29304000  0.75535000  0.74532000  1.0 0.2661826561
H  H5  1  0.24465000  0.53769000  0.74532000  1.0 0.2661826561
H  H6  1  0.46231000  0.70696000  0.74532000  1.0 0.2661826561
H  H7  1  0.67771000  0.25077000  0.28720000  1.0 0.3004387879
H  H8  1  0.74923000  0.42694000  0.28720000  1.0 0.3004387879
H  H9  1  0.57306000  0.32229000  0.28720000  1.0 0.3004387879
H  H10  1  0.32229000  0.74923000  0.78720000  1.0 0.3004387879
H  H11  1  0.25077000  0.57306000  0.78720000  1.0 0.3004387879
H  H12  1  0.42694000  0.67771000  0.78720000  1.0 0.3004387879
H  H13  1  0.62675000  0.20814000  0.25222000  1.0 0.2890163176
H  H14  1  0.79186000  0.41861000  0.25222000  1.0 0.2890163176
H  H15  1  0.58139000  0.37325000  0.25222000  1.0 0.2890163176
H  H16  1  0.37325000  0.79186000  0.75222000  1.0 0.2890163176
H  H17  1  0.20814000  0.58139000  0.75222000  1.0 0.2890163176
H  H18  1  0.41861000  0.62675000  0.75222000  1.0 0.2890163176
H  H19  1  0.61992000  0.30698000  0.13871000  1.0 0.2643115165
H  H20  1  0.69302000  0.31294000  0.13871000  1.0 0.2643115165
H  H21  1  0.68706000  0.38008000  0.13871000  1.0 0.2643115165
H  H22  1  0.38008000  0.69302000  0.63871000  1.0 0.2643115165
H  H23  1  0.30698000  0.68706000  0.63871000  1.0 0.2643115165
H  H24  1  0.31294000  0.61992000  0.63871000  1.0 0.2643115165
H  H25  1  0.89955000  0.39520000  0.27591000  1.0 0.3192264475
H  H26  1  0.60480000  0.50435000  0.27591000  1.0 0.3192264475
H  H27  1  0.49565000  0.10045000  0.27591000  1.0 0.3192264475
H  H28  1  0.10045000  0.60480000  0.77591000  1.0 0.3192264475
H  H29  1  0.39520000  0.49565000  0.77591000  1.0 0.3192264475
H  H30  1  0.50435000  0.89955000  0.77591000  1.0 0.3192264475
H  H31  1  0.84159000  0.32493000  0.27742000  1.0 0.3192264475
H  H32  1  0.67507000  0.51666000  0.27742000  1.0 0.3192264475
H  H33  1  0.48334000  0.15841000  0.27742000  1.0 0.3192264475
H  H34  1  0.15841000  0.67507000  0.77742000  1.0 0.3192264475
H  H35  1  0.32493000  0.48334000  0.77742000  1.0 0.3192264475
H  H36  1  0.51666000  0.84159000  0.77742000  1.0 0.3192264475
H  H37  1  0.47112000  0.86368000  0.65229000  1.0 0.3004387879
H  H38  1  0.13632000  0.60744000  0.65229000  1.0 0.3004387879
H  H39  1  0.39256000  0.52888000  0.65229000  1.0 0.3004387879
H  H40  1  0.52888000  0.13632000  0.15229000  1.0 0.3004387879
H  H41  1  0.86368000  0.39256000  0.15229000  1.0 0.3004387879
H  H42  1  0.60744000  0.47112000  0.15229000  1.0 0.3004387879
H  H43  1  0.49751000  0.86448000  0.69627000  1.0 0.3107187066
H  H44  1  0.13552000  0.63303000  0.69627000  1.0 0.3107187066
H  H45  1  0.36697000  0.50249000  0.69627000  1.0 0.3107187066
H  H46  1  0.50249000  0.13552000  0.19627000  1.0 0.3107187066
H  H47  1  0.86448000  0.36697000  0.19627000  1.0 0.3107187066
H  H48  1  0.63303000  0.49751000  0.19627000  1.0 0.3107187066
H  H49  1  0.44920000  0.79378000  0.67470000  1.0 0.2661826561
H  H50  1  0.20622000  0.65542000  0.67470000  1.0 0.2661826561
H  H51  1  0.34458000  0.55080000  0.67470000  1.0 0.2661826561
H  H52  1  0.55080000  0.20622000  0.17470000  1.0 0.2661826561
H  H53  1  0.79378000  0.34458000  0.17470000  1.0 0.2661826561
H  H54  1  0.65542000  0.44920000  0.17470000  1.0 0.2661826561
H  H55  1  0.90450000  0.42877000  0.80184000  1.0 0.1205649744
H  H56  1  0.57123000  0.47573000  0.80184000  1.0 0.1205649744
H  H57  1  0.52427000  0.09550000  0.80184000  1.0 0.1205649744
H  H58  1  0.09550000  0.57123000  0.30184000  1.0 0.1205649744
H  H59  1  0.42877000  0.52427000  0.30184000  1.0 0.1205649744
H  H60  1  0.47573000  0.90450000  0.30184000  1.0 0.1205649744
H  H61  1  0.82823000  0.46000000  0.52937000  1.0 0.1304547016
H  H62  1  0.54000000  0.36823000  0.52937000  1.0 0.1304547016
H  H63  1  0.63177000  0.17177000  0.52937000  1.0 0.1304547016
H  H64  1  0.17177000  0.54000000  0.02937000  1.0 0.1304547016
H  H65  1  0.46000000  0.63177000  0.02937000  1.0 0.1304547016
H  H66  1  0.36823000  0.82823000  0.02937000  1.0 0.1304547016
H  H67  1  0.80937000  0.40247000  0.49153000  1.0 0.1304547016
H  H68  1  0.59753000  0.40690000  0.49153000  1.0 0.1304547016
H  H69  1  0.59310000  0.19063000  0.49153000  1.0 0.1304547016
H  H70  1  0.19063000  0.59753000  0.99153000  1.0 0.1304547016
H  H71  1  0.40247000  0.59310000  0.99153000  1.0 0.1304547016
H  H72  1  0.40690000  0.80937000  0.99153000  1.0 0.1304547016
H  H73  1  0.73343000  0.25048000  0.65920000  1.0 0.1304547016
H  H74  1  0.74952000  0.48295000  0.65920000  1.0 0.1304547016
H  H75  1  0.51705000  0.26657000  0.65920000  1.0 0.1304547016
H  H76  1  0.26657000  0.74952000  0.15920000  1.0 0.1304547016
H  H77  1  0.25048000  0.51705000  0.15920000  1.0 0.1304547016
H  H78  1  0.48295000  0.73343000  0.15920000  1.0 0.1304547016
H  H79  1  0.80956000  0.29912000  0.63532000  1.0 0.1304547016
H  H80  1  0.70088000  0.51044000  0.63532000  1.0 0.1304547016
H  H81  1  0.48956000  0.19044000  0.63532000  1.0 0.1304547016
H  H82  1  0.19044000  0.70088000  0.13532000  1.0 0.1304547016
H  H83  1  0.29912000  0.48956000  0.13532000  1.0 0.1304547016
H  H84  1  0.51044000  0.80956000  0.13532000  1.0 0.1304547016
H  H85  1  0.82460000  0.63106000  0.38364000  1.0 0.1205649744
H  H86  1  0.36894000  0.19354000  0.38364000  1.0 0.1205649744
H  H87  1  0.80646000  0.17540000  0.38364000  1.0 0.1205649744
H  H88  1  0.17540000  0.36894000  0.88364000  1.0 0.1205649744
H  H89  1  0.63106000  0.80646000  0.88364000  1.0 0.1205649744
H  H90  1  0.19354000  0.82460000  0.88364000  1.0 0.1205649744
H  H91  1  0.97935000  0.71795000  0.54334000  1.0 0.1126458206
H  H92  1  0.28205000  0.26140000  0.54334000  1.0 0.1126458206
H  H93  1  0.73860000  0.02065000  0.54334000  1.0 0.1126458206
H  H94  1  0.02065000  0.28205000  0.04334000  1.0 0.1126458206
H  H95  1  0.71795000  0.73860000  0.04334000  1.0 0.1126458206
H  H96  1  0.26140000  0.97935000  0.04334000  1.0 0.1126458206
H  H97  1  0.86924000  0.41269000  0.42359000  1.0 0.1205649744
H  H98  1  0.58731000  0.45655000  0.42359000  1.0 0.1205649744
H  H99  1  0.54345000  0.13076000  0.42359000  1.0 0.1205649744
H  H100  1  0.13076000  0.58731000  0.92359000  1.0 0.1304547016
H  H101  1  0.41269000  0.54345000  0.92359000  1.0 0.1205649744
H  H102  1  0.45655000  0.86924000  0.92359000  1.0 0.1205649744
H  H103  1  0.91846000  0.59065000  0.53579000  1.0 0.1205649744
H  H104  1  0.40935000  0.32781000  0.53579000  1.0 0.1205649744
H  H105  1  0.67219000  0.08154000  0.53579000  1.0 0.1205649744
H  H106  1  0.08154000  0.40935000  0.03579000  1.0 0.1205649744
H  H107  1  0.59065000  0.67219000  0.03579000  1.0 0.1205649744
H  H108  1  0.32781000  0.91846000  0.03579000  1.0 0.1205649744
H  H109  1  0.12145000  0.51265000  0.51051000  1.0 0.1126458206
H  H110  1  0.48735000  0.60880000  0.51051000  1.0 0.1126458206
H  H111  1  0.39120000  0.87855000  0.51051000  1.0 0.1126458206
H  H112  1  0.87855000  0.48735000  0.01051000  1.0 0.1126458206
H  H113  1  0.51265000  0.39120000  0.01051000  1.0 0.1126458206
H  H114  1  0.60880000  0.12145000  0.01051000  1.0 0.1126458206
H  H115  1  0.82051000  0.32332000  0.84783000  1.0 0.1205649744
H  H116  1  0.67668000  0.49719000  0.84783000  1.0 0.1205649744
H  H117  1  0.50281000  0.17949000  0.84783000  1.0 0.1205649744
H  H118  1  0.17949000  0.67668000  0.34783000  1.0 0.1205649744
H  H119  1  0.32332000  0.50281000  0.34783000  1.0 0.1205649744
H  H120  1  0.49719000  0.82051000  0.34783000  1.0 0.1205649744
H  H121  1  0.71111000  0.17624000  0.72498000  1.0 0.1205649744
H  H122  1  0.82376000  0.53487000  0.72498000  1.0 0.1205649744
H  H123  1  0.46513000  0.28889000  0.72498000  1.0 0.1205649744
H  H124  1  0.28889000  0.82376000  0.22498000  1.0 0.1205649744
H  H125  1  0.17624000  0.46513000  0.22498000  1.0 0.1205649744
H  H126  1  0.53487000  0.71111000  0.22498000  1.0 0.1205649744
H  H127  1  0.59583000  0.06916000  0.20725000  1.0 0.1486234032
H  H128  1  0.93084000  0.52667000  0.20725000  1.0 0.1486234032
H  H129  1  0.47333000  0.40417000  0.20725000  1.0 0.1486234032
H  H130  1  0.40417000  0.93084000  0.70725000  1.0 0.1486234032
H  H131  1  0.06916000  0.47333000  0.70725000  1.0 0.1486234032
H  H132  1  0.52667000  0.59583000  0.70725000  1.0 0.1486234032
H  H133  1  0.66494000  0.16017000  0.14941000  1.0 0.1382588857
H  H134  1  0.83983000  0.50477000  0.14941000  1.0 0.1382588857
H  H135  1  0.49523000  0.33506000  0.14941000  1.0 0.1382588857
H  H136  1  0.33506000  0.83983000  0.64941000  1.0 0.1382588857
H  H137  1  0.16017000  0.49523000  0.64941000  1.0 0.1382588857
H  H138  1  0.50477000  0.66494000  0.64941000  1.0 0.1382588857
H  H139  1  0.91199000  0.74262000  0.42603000  1.0 0.1205649744
H  H140  1  0.25738000  0.16937000  0.42603000  1.0 0.1205649744
H  H141  1  0.83063000  0.08801000  0.42603000  1.0 0.1205649744
H  H142  1  0.08801000  0.25738000  0.92603000  1.0 0.1205649744
H  H143  1  0.74262000  0.83063000  0.92603000  1.0 0.1205649744
H  H144  1  0.16937000  0.91199000  0.92603000  1.0 0.1205649744
H  H145  1  0.93083000  0.40499000  0.36312000  1.0 0.1205649744
H  H146  1  0.59501000  0.52584000  0.36312000  1.0 0.1205649744
H  H147  1  0.47416000  0.06917000  0.36312000  1.0 0.1205649744
H  H148  1  0.06917000  0.59501000  0.86312000  1.0 0.1205649744
H  H149  1  0.40499000  0.47416000  0.86312000  1.0 0.1205649744
H  H150  1  0.52584000  0.93083000  0.86312000  1.0 0.1205649744
H  H151  1  0.57415000  0.89687000  0.55174000  1.0 0.1304547016
H  H152  1  0.10313000  0.67728000  0.55174000  1.0 0.1304547016
H  H153  1  0.32272000  0.42585000  0.55174000  1.0 0.1304547016
H  H154  1  0.42585000  0.10313000  0.05174000  1.0 0.1304547016
H  H155  1  0.89687000  0.32272000  0.05174000  1.0 0.1304547016
H  H156  1  0.67728000  0.57415000  0.05174000  1.0 0.1304547016
H  H157  1  0.72604000  0.20010000  0.85553000  1.0 0.1126458206
H  H158  1  0.79990000  0.52594000  0.85553000  1.0 0.1126458206
H  H159  1  0.47406000  0.27396000  0.85553000  1.0 0.1126458206
H  H160  1  0.27396000  0.79990000  0.35553000  1.0 0.1126458206
H  H161  1  0.20010000  0.47406000  0.35553000  1.0 0.1126458206
H  H162  1  0.52594000  0.72604000  0.35553000  1.0 0.1126458206
H  H163  1  0.93211000  0.32101000  0.65136000  1.0 0.1205649744
H  H164  1  0.67899000  0.61110000  0.65136000  1.0 0.1205649744
H  H165  1  0.38890000  0.06789000  0.65136000  1.0 0.1205649744
H  H166  1  0.06789000  0.67899000  0.15136000  1.0 0.1205649744
H  H167  1  0.32101000  0.38890000  0.15136000  1.0 0.1205649744
H  H168  1  0.61110000  0.93211000  0.15136000  1.0 0.1205649744
H  H169  1  0.97842000  0.79323000  0.48869000  1.0 0.1205649744
H  H170  1  0.20677000  0.18519000  0.48869000  1.0 0.1205649744
H  H171  1  0.81481000  0.02158000  0.48869000  1.0 0.1205649744
H  H172  1  0.02158000  0.20677000  0.98869000  1.0 0.1205649744
H  H173  1  0.79323000  0.81481000  0.98869000  1.0 0.1205649744
H  H174  1  0.18519000  0.97842000  0.98869000  1.0 0.1205649744
H  H175  1  0.67503000  0.12636000  0.79432000  1.0 0.1126458206
H  H176  1  0.87364000  0.54867000  0.79432000  1.0 0.1126458206
H  H177  1  0.45133000  0.32497000  0.79432000  1.0 0.1126458206
H  H178  1  0.32497000  0.87364000  0.29432000  1.0 0.1126458206
H  H179  1  0.12636000  0.45133000  0.29432000  1.0 0.1126458206
H  H180  1  0.54867000  0.67503000  0.29432000  1.0 0.1126458206
H  H181  1  0.81186000  0.16421000  0.23167000  1.0 0.1304547016
H  H182  1  0.83579000  0.64765000  0.23167000  1.0 0.1304547016
H  H183  1  0.35235000  0.18814000  0.23167000  1.0 0.1304547016
H  H184  1  0.18814000  0.83579000  0.73167000  1.0 0.1304547016
H  H185  1  0.16421000  0.35235000  0.73167000  1.0 0.1304547016
H  H186  1  0.64765000  0.81186000  0.73167000  1.0 0.1304547016
H  H187  1  0.11906000  0.48128000  0.43114000  1.0 0.1205649744
H  H188  1  0.51872000  0.63778000  0.43114000  1.0 0.1205649744
H  H189  1  0.36222000  0.88094000  0.43114000  1.0 0.1205649744
H  H190  1  0.88094000  0.51872000  0.93114000  1.0 0.1205649744
H  H191  1  0.48128000  0.36222000  0.93114000  1.0 0.1205649744
H  H192  1  0.63778000  0.11906000  0.93114000  1.0 0.1205649744
H  H193  1  0.04671000  0.32517000  0.64799000  1.0 0.1003725715
H  H194  1  0.67483000  0.72154000  0.64799000  1.0 0.1003725715
H  H195  1  0.27846000  0.95329000  0.64799000  1.0 0.1003725715
H  H196  1  0.95329000  0.67483000  0.14799000  1.0 0.1003725715
H  H197  1  0.32517000  0.27846000  0.14799000  1.0 0.1003725715
H  H198  1  0.72154000  0.04671000  0.14799000  1.0 0.1003725715
H  H199  1  0.05626000  0.43706000  0.36774000  1.0 0.1205649744
H  H200  1  0.56294000  0.61920000  0.36774000  1.0 0.1205649744
H  H201  1  0.38080000  0.94374000  0.36774000  1.0 0.1205649744
H  H202  1  0.94374000  0.56294000  0.86774000  1.0 0.1205649744
H  H203  1  0.43706000  0.38080000  0.86774000  1.0 0.1205649744
H  H204  1  0.61920000  0.05626000  0.86774000  1.0 0.1205649744
H  H205  1  0.67597000  0.82867000  0.44773000  1.0 0.1304547016
H  H206  1  0.17133000  0.84730000  0.44773000  1.0 0.1304547016
H  H207  1  0.15270000  0.32403000  0.44773000  1.0 0.1304547016
H  H208  1  0.32403000  0.17133000  0.94773000  1.0 0.1304547016
H  H209  1  0.82867000  0.15270000  0.94773000  1.0 0.1304547016
H  H210  1  0.84730000  0.67597000  0.94773000  1.0 0.1304547016
H  H211  1  0.59798000  0.72693000  0.58569000  1.0 0.1304547016
H  H212  1  0.27307000  0.87105000  0.58569000  1.0 0.1304547016
H  H213  1  0.12895000  0.40202000  0.58569000  1.0 0.1304547016
H  H214  1  0.40202000  0.27307000  0.08569000  1.0 0.1304547016
H  H215  1  0.72693000  0.12895000  0.08569000  1.0 0.1304547016
H  H216  1  0.87105000  0.59798000  0.08569000  1.0 0.1304547016
H  H217  1  0.80765000  0.02435000  0.64648000  1.0 0.1205649744
H  H218  1  0.97565000  0.78330000  0.64648000  1.0 0.1205649744
H  H219  1  0.21670000  0.19235000  0.64648000  1.0 0.1205649744
H  H220  1  0.19235000  0.97565000  0.14648000  1.0 0.1205649744
H  H221  1  0.02435000  0.21670000  0.14648000  1.0 0.1205649744
H  H222  1  0.78330000  0.80765000  0.14648000  1.0 0.1205649744
H  H223  1  0.61918000  0.74375000  0.50686000  1.0 0.1382588857
H  H224  1  0.25625000  0.87543000  0.50686000  1.0 0.1382588857
H  H225  1  0.12457000  0.38082000  0.50686000  1.0 0.1382588857
H  H226  1  0.38082000  0.25625000  0.00686000  1.0 0.1382588857
H  H227  1  0.74375000  0.12457000  0.00686000  1.0 0.1382588857
H  H228  1  0.87543000  0.61918000  0.00686000  1.0 0.1382588857
H  H229  1  0.55013000  0.91693000  0.48482000  1.0 0.1205649744
H  H230  1  0.08307000  0.63320000  0.48482000  1.0 0.1205649744
H  H231  1  0.36680000  0.44987000  0.48482000  1.0 0.1205649744
H  H232  1  0.44987000  0.08307000  0.98482000  1.0 0.1205649744
H  H233  1  0.91693000  0.36680000  0.98482000  1.0 0.1205649744
H  H234  1  0.63320000  0.55013000  0.98482000  1.0 0.1205649744
H  H235  1  0.69322000  0.88751000  0.38116000  1.0 0.1126458206
H  H236  1  0.11249000  0.80571000  0.38116000  1.0 0.1126458206
H  H237  1  0.19429000  0.30678000  0.38116000  1.0 0.1126458206
H  H238  1  0.30678000  0.11249000  0.88116000  1.0 0.1126458206
H  H239  1  0.88751000  0.19429000  0.88116000  1.0 0.1126458206
H  H240  1  0.80571000  0.69322000  0.88116000  1.0 0.1126458206
H  H241  1  0.56767000  0.97327000  0.41625000  1.0 0.1126458206
H  H242  1  0.02673000  0.59440000  0.41625000  1.0 0.1126458206
H  H243  1  0.40560000  0.43233000  0.41625000  1.0 0.1126458206
H  H244  1  0.43233000  0.02673000  0.91625000  1.0 0.1126458206
H  H245  1  0.97327000  0.40560000  0.91625000  1.0 0.1126458206
H  H246  1  0.59440000  0.56767000  0.91625000  1.0 0.1126458206
H  H247  1  0.05246000  0.21406000  0.65181000  1.0 0.1205649744
H  H248  1  0.78594000  0.83840000  0.65181000  1.0 0.1205649744
H  H249  1  0.16160000  0.94754000  0.65181000  1.0 0.1205649744
H  H250  1  0.94754000  0.78594000  0.15181000  1.0 0.1205649744
H  H251  1  0.21406000  0.16160000  0.15181000  1.0 0.1205649744
H  H252  1  0.83840000  0.05246000  0.15181000  1.0 0.1205649744
H  H253  1  0.94993000  0.10438000  0.64412000  1.0 0.1205649744
H  H254  1  0.89562000  0.84555000  0.64412000  1.0 0.1205649744
H  H255  1  0.15445000  0.05007000  0.64412000  1.0 0.1205649744
H  H256  1  0.05007000  0.89562000  0.14412000  1.0 0.1205649744
H  H257  1  0.10438000  0.15445000  0.14412000  1.0 0.1205649744
H  H258  1  0.84555000  0.94993000  0.14412000  1.0 0.1205649744
H  H259  1  0.73696000  0.00256000  0.25797000  1.0 0.1304547016
H  H260  1  0.99744000  0.73440000  0.25797000  1.0 0.1304547016
H  H261  1  0.26560000  0.26304000  0.25797000  1.0 0.1304547016
H  H262  1  0.26304000  0.99744000  0.75797000  1.0 0.1304547016
H  H263  1  0.00256000  0.26560000  0.75797000  1.0 0.1304547016
H  H264  1  0.73440000  0.73696000  0.75797000  1.0 0.1304547016
H  H265  1  0.62456000  0.10241000  0.30037000  1.0 0.1382588857
H  H266  1  0.89759000  0.52215000  0.30037000  1.0 0.1382588857
H  H267  1  0.47785000  0.37544000  0.30037000  1.0 0.1382588857
H  H268  1  0.37544000  0.89759000  0.80037000  1.0 0.1382588857
H  H269  1  0.10241000  0.47785000  0.80037000  1.0 0.1382588857
H  H270  1  0.52215000  0.62456000  0.80037000  1.0 0.1382588857
H  H271  1  0.59713000  0.03522000  0.36486000  1.0 0.1126458206
H  H272  1  0.96478000  0.56191000  0.36486000  1.0 0.1126458206
H  H273  1  0.43809000  0.40287000  0.36486000  1.0 0.1126458206
H  H274  1  0.40287000  0.96478000  0.86486000  1.0 0.1126458206
H  H275  1  0.03522000  0.43809000  0.86486000  1.0 0.1126458206
H  H276  1  0.56191000  0.59713000  0.86486000  1.0 0.1126458206
H  H277  1  0.70952000  0.93538000  0.32246000  1.0 0.1126458206
H  H278  1  0.06462000  0.77414000  0.32246000  1.0 0.1126458206
H  H279  1  0.22586000  0.29048000  0.32246000  1.0 0.1126458206
H  H280  1  0.29048000  0.06462000  0.82246000  1.0 0.1126458206
H  H281  1  0.93538000  0.22586000  0.82246000  1.0 0.1126458206
H  H282  1  0.77414000  0.70952000  0.82246000  1.0 0.1126458206
C  C1  1  0.83510000  0.50650000  0.46900000  1.0 -0.0300077278
C  C2  1  0.49350000  0.32860000  0.46900000  1.0 -0.0300077278
C  C3  1  0.67140000  0.16490000  0.46900000  1.0 -0.0300077278
C  C4  1  0.16490000  0.49350000  0.96900000  1.0 -0.0300077278
C  C5  1  0.50650000  0.67140000  0.96900000  1.0 -0.0300077278
C  C6  1  0.32860000  0.83510000  0.96900000  1.0 -0.0300077278
C  C7  1  0.07890000  0.52600000  0.58620000  1.0 0.5911073201
C  C8  1  0.47400000  0.55290000  0.58620000  1.0 0.5911073201
C  C9  1  0.44710000  0.92110000  0.58620000  1.0 0.5911073201
C  C10  1  0.92110000  0.47400000  0.08620000  1.0 0.5911073201
C  C11  1  0.52600000  0.44710000  0.08620000  1.0 0.5911073201
C  C12  1  0.55290000  0.07890000  0.08620000  1.0 0.5911073201
C  C13  1  0.73260000  0.12930000  0.64950000  1.0 0.2485376709
C  C14  1  0.87070000  0.60330000  0.64950000  1.0 0.2485376709
C  C15  1  0.39670000  0.26740000  0.64950000  1.0 0.2485376709
C  C16  1  0.26740000  0.87070000  0.14950000  1.0 0.2485376709
C  C17  1  0.12930000  0.39670000  0.14950000  1.0 0.2485376709
C  C18  1  0.60330000  0.73260000  0.14950000  1.0 0.2485376709
C  C19  1  0.78890000  0.47720000  0.43320000  1.0 0.2347324603
C  C20  1  0.52280000  0.31170000  0.43320000  1.0 0.2347324603
C  C21  1  0.68830000  0.21110000  0.43320000  1.0 0.2347324603
C  C22  1  0.21110000  0.52280000  0.93320000  1.0 0.2347324603
C  C23  1  0.47720000  0.68830000  0.93320000  1.0 0.2347324603
C  C24  1  0.31170000  0.78890000  0.93320000  1.0 0.2347324603
C  C25  1  0.79470000  0.19910000  0.65490000  1.0 -0.0300077278
C  C26  1  0.80090000  0.59560000  0.65490000  1.0 -0.0300077278
C  C27  1  0.40440000  0.20530000  0.65490000  1.0 -0.0300077278
C  C28  1  0.20530000  0.80090000  0.15490000  1.0 -0.0300077278
C  C29  1  0.19910000  0.40440000  0.15490000  1.0 -0.0300077278
C  C30  1  0.59560000  0.79470000  0.15490000  1.0 -0.0300077278
C  C31  1  0.96780000  0.51170000  0.73470000  1.0 0.599123817
C  C32  1  0.48830000  0.45610000  0.73470000  1.0 0.599123817
C  C33  1  0.54390000  0.03220000  0.73470000  1.0 0.599123817
C  C34  1  0.03220000  0.48830000  0.23470000  1.0 0.599123817
C  C35  1  0.51170000  0.54390000  0.23470000  1.0 0.599123817
C  C36  1  0.45610000  0.96780000  0.23470000  1.0 0.599123817
C  C37  1  0.82350000  0.32550000  0.78210000  1.0 0.0593459394
C  C38  1  0.67450000  0.49800000  0.78210000  1.0 0.0593459394
C  C39  1  0.50200000  0.17650000  0.78210000  1.0 0.0593459394
C  C40  1  0.17650000  0.67450000  0.28210000  1.0 0.0593459394
C  C41  1  0.32550000  0.50200000  0.28210000  1.0 0.0593459394
C  C42  1  0.49800000  0.82350000  0.28210000  1.0 0.0593459394
C  C43  1  0.79250000  0.28030000  0.74370000  1.0 0.0499392246
C  C44  1  0.71970000  0.51220000  0.74370000  1.0 0.0499392246
C  C45  1  0.48780000  0.20750000  0.74370000  1.0 0.0499392246
C  C46  1  0.20750000  0.71970000  0.24370000  1.0 0.0499392246
C  C47  1  0.28030000  0.48780000  0.24370000  1.0 0.0499392246
C  C48  1  0.51220000  0.79250000  0.24370000  1.0 0.0499392246
C  C49  1  0.87550000  0.58580000  0.47510000  1.0 0.0445843824
C  C50  1  0.41420000  0.28970000  0.47510000  1.0 0.0445843824
C  C51  1  0.71030000  0.12450000  0.47510000  1.0 0.0445843824
C  C52  1  0.12450000  0.41420000  0.97510000  1.0 0.0445843824
C  C53  1  0.58580000  0.71030000  0.97510000  1.0 0.0445843824
C  C54  1  0.28970000  0.87550000  0.97510000  1.0 0.0445843824
C  C55  1  0.67080000  0.98920000  0.64270000  1.0 0.6178267114
C  C56  1  0.01080000  0.68160000  0.64270000  1.0 0.6178267114
C  C57  1  0.31840000  0.32920000  0.64270000  1.0 0.6178267114
C  C58  1  0.32920000  0.01080000  0.14270000  1.0 0.6178267114
C  C59  1  0.98920000  0.31840000  0.14270000  1.0 0.6178267114
C  C60  1  0.68160000  0.67080000  0.14270000  1.0 0.6178267114
C  C61  1  0.87270000  0.38760000  0.69870000  1.0 0.2445115982
C  C62  1  0.61240000  0.48510000  0.69870000  1.0 0.2445115982
C  C63  1  0.51490000  0.12730000  0.69870000  1.0 0.2445115982
C  C64  1  0.12730000  0.61240000  0.19870000  1.0 0.2445115982
C  C65  1  0.38760000  0.51490000  0.19870000  1.0 0.2445115982
C  C66  1  0.48510000  0.87270000  0.19870000  1.0 0.2445115982
C  C67  1  0.81900000  0.31250000  0.70150000  1.0 -0.0300077278
C  C68  1  0.68750000  0.50650000  0.70150000  1.0 -0.0300077278
C  C69  1  0.49350000  0.18100000  0.70150000  1.0 -0.0300077278
C  C70  1  0.18100000  0.68750000  0.20150000  1.0 -0.0300077278
C  C71  1  0.31250000  0.49350000  0.20150000  1.0 -0.0300077278
C  C72  1  0.50650000  0.81900000  0.20150000  1.0 -0.0300077278
C  C73  1  0.73830000  0.49330000  0.36000000  1.0 0.599123817
C  C74  1  0.50670000  0.24500000  0.36000000  1.0 0.599123817
C  C75  1  0.75500000  0.26170000  0.36000000  1.0 0.599123817
C  C76  1  0.26170000  0.50670000  0.86000000  1.0 0.599123817
C  C77  1  0.49330000  0.75500000  0.86000000  1.0 0.599123817
C  C78  1  0.24500000  0.73830000  0.86000000  1.0 0.599123817
C  C79  1  0.03570000  0.50290000  0.54540000  1.0 -0.170840575
C  C80  1  0.49710000  0.53280000  0.54540000  1.0 -0.170840575
C  C81  1  0.46720000  0.96430000  0.54540000  1.0 -0.170840575
C  C82  1  0.96430000  0.49710000  0.04540000  1.0 -0.170840575
C  C83  1  0.50290000  0.46720000  0.04540000  1.0 -0.170840575
C  C84  1  0.53280000  0.03570000  0.04540000  1.0 -0.170840575
C  C85  1  0.88190000  0.40040000  0.77710000  1.0 -0.1412240655
C  C86  1  0.59960000  0.48150000  0.77710000  1.0 -0.1412240655
C  C87  1  0.51850000  0.11810000  0.77710000  1.0 -0.1412240655
C  C88  1  0.11810000  0.59960000  0.27710000  1.0 -0.1412240655
C  C89  1  0.40040000  0.51850000  0.27710000  1.0 -0.1412240655
C  C90  1  0.48150000  0.88190000  0.27710000  1.0 -0.1412240655
C  C91  1  0.78350000  0.52330000  0.40030000  1.0 -0.1584391568
C  C92  1  0.47670000  0.26020000  0.40030000  1.0 -0.1584391568
C  C93  1  0.73980000  0.21650000  0.40030000  1.0 -0.1584391568
C  C94  1  0.21650000  0.47670000  0.90030000  1.0 -0.1584391568
C  C95  1  0.52330000  0.73980000  0.90030000  1.0 -0.1584391568
C  C96  1  0.26020000  0.78350000  0.90030000  1.0 -0.1584391568
C  C97  1  0.84320000  0.45350000  0.50050000  1.0 -0.2378233261
C  C98  1  0.54650000  0.38970000  0.50050000  1.0 -0.2378233261
C  C99  1  0.61030000  0.15680000  0.50050000  1.0 -0.2378233261
C  C100  1  0.15680000  0.54650000  0.00050000  1.0 -0.2378233261
C  C101  1  0.45350000  0.61030000  0.00050000  1.0 -0.2378233261
C  C102  1  0.38970000  0.84320000  0.00050000  1.0 -0.2378233261
C  C103  1  0.78630000  0.26660000  0.66020000  1.0 -0.2454841323
C  C104  1  0.73340000  0.51970000  0.66020000  1.0 -0.2454841323
C  C105  1  0.48030000  0.21370000  0.66020000  1.0 -0.2454841323
C  C106  1  0.21370000  0.73340000  0.16020000  1.0 -0.2454841323
C  C107  1  0.26660000  0.48030000  0.16020000  1.0 -0.2454841323
C  C108  1  0.51970000  0.78630000  0.16020000  1.0 -0.2454841323
C  C109  1  0.03320000  0.47280000  0.46820000  1.0 0.0499392246
C  C110  1  0.52720000  0.56040000  0.46820000  1.0 0.0499392246
C  C111  1  0.43960000  0.96680000  0.46820000  1.0 0.0499392246
C  C112  1  0.96680000  0.52720000  0.96820000  1.0 0.0499392246
C  C113  1  0.47280000  0.43960000  0.96820000  1.0 0.0499392246
C  C114  1  0.56040000  0.03320000  0.96820000  1.0 0.0499392246
C  C115  1  0.95940000  0.48590000  0.54220000  1.0 0.2445115982
C  C116  1  0.51410000  0.47350000  0.54220000  1.0 0.2445115982
C  C117  1  0.52650000  0.04060000  0.54220000  1.0 0.2445115982
C  C118  1  0.04060000  0.51410000  0.04220000  1.0 0.2445115982
C  C119  1  0.48590000  0.52650000  0.04220000  1.0 0.2445115982
C  C120  1  0.47350000  0.95940000  0.04220000  1.0 0.2445115982
C  C121  1  0.90600000  0.43190000  0.73700000  1.0 -0.1584391568
C  C122  1  0.56810000  0.47410000  0.73700000  1.0 -0.1584391568
C  C123  1  0.52590000  0.09400000  0.73700000  1.0 -0.1584391568
C  C124  1  0.09400000  0.56810000  0.23700000  1.0 -0.1584391568
C  C125  1  0.43190000  0.52590000  0.23700000  1.0 -0.1584391568
C  C126  1  0.47410000  0.90600000  0.23700000  1.0 -0.1584391568
C  C127  1  0.95730000  0.45530000  0.46570000  1.0 0.0499392246
C  C128  1  0.54470000  0.50200000  0.46570000  1.0 0.0499392246
C  C129  1  0.49800000  0.04270000  0.46570000  1.0 0.0499392246
C  C130  1  0.04270000  0.54470000  0.96570000  1.0 0.0499392246
C  C131  1  0.45530000  0.49800000  0.96570000  1.0 0.0499392246
C  C132  1  0.50200000  0.95730000  0.96570000  1.0 0.0499392246
C  C133  1  0.82570000  0.60000000  0.40520000  1.0 -0.1508911065
C  C134  1  0.40000000  0.22570000  0.40520000  1.0 -0.1508911065
C  C135  1  0.77430000  0.17430000  0.40520000  1.0 -0.1508911065
C  C136  1  0.17430000  0.40000000  0.90520000  1.0 -0.1508911065
C  C137  1  0.60000000  0.77430000  0.90520000  1.0 -0.1508911065
C  C138  1  0.22570000  0.82570000  0.90520000  1.0 -0.1508911065
C  C139  1  0.73760000  0.06360000  0.64730000  1.0 -0.1508911065
C  C140  1  0.93640000  0.67400000  0.64730000  1.0 -0.1508911065
C  C141  1  0.32600000  0.26240000  0.64730000  1.0 -0.1508911065
C  C142  1  0.26240000  0.93640000  0.14730000  1.0 -0.1508911065
C  C143  1  0.06360000  0.32600000  0.14730000  1.0 -0.1508911065
C  C144  1  0.67400000  0.73760000  0.14730000  1.0 -0.1508911065
C  C145  1  0.95310000  0.69630000  0.51780000  1.0 -0.105506882
C  C146  1  0.30370000  0.25680000  0.51780000  1.0 -0.105506882
C  C147  1  0.74320000  0.04690000  0.51780000  1.0 -0.105506882
C  C148  1  0.04690000  0.30370000  0.01780000  1.0 -0.105506882
C  C149  1  0.69630000  0.74320000  0.01780000  1.0 -0.105506882
C  C150  1  0.25680000  0.95310000  0.01780000  1.0 -0.105506882
C  C151  1  0.87020000  0.63190000  0.44260000  1.0 0.0593459394
C  C152  1  0.36810000  0.23830000  0.44260000  1.0 0.0593459394
C  C153  1  0.76170000  0.12980000  0.44260000  1.0 0.0593459394
C  C154  1  0.12980000  0.36810000  0.94260000  1.0 0.0593459394
C  C155  1  0.63190000  0.76170000  0.94260000  1.0 0.0593459394
C  C156  1  0.23830000  0.87020000  0.94260000  1.0 0.0593459394
C  C157  1  0.91970000  0.42750000  0.42560000  1.0 -0.1277358375
C  C158  1  0.57250000  0.49220000  0.42560000  1.0 -0.1277358375
C  C159  1  0.50780000  0.08030000  0.42560000  1.0 -0.1277358375
C  C160  1  0.08030000  0.57250000  0.92560000  1.0 -0.1277358375
C  C161  1  0.42750000  0.50780000  0.92560000  1.0 -0.1277358375
C  C162  1  0.49220000  0.91970000  0.92560000  1.0 -0.1277358375
C  C163  1  0.91640000  0.62000000  0.51350000  1.0 -0.1277358375
C  C164  1  0.38000000  0.29640000  0.51350000  1.0 -0.1277358375
C  C165  1  0.70360000  0.08360000  0.51350000  1.0 -0.1277358375
C  C166  1  0.08360000  0.38000000  0.01350000  1.0 -0.1277358375
C  C167  1  0.62000000  0.70360000  0.01350000  1.0 -0.1277358375
C  C168  1  0.29640000  0.91640000  0.01350000  1.0 -0.1277358375
C  C169  1  0.92180000  0.46540000  0.50300000  1.0 -0.0360917026
C  C170  1  0.53460000  0.45640000  0.50300000  1.0 -0.0360917026
C  C171  1  0.54360000  0.07820000  0.50300000  1.0 -0.0360917026
C  C172  1  0.07820000  0.53460000  0.00300000  1.0 -0.0360917026
C  C173  1  0.46540000  0.54360000  0.00300000  1.0 -0.0360917026
C  C174  1  0.45640000  0.92180000  0.00300000  1.0 -0.0360917026
C  C175  1  0.07120000  0.49850000  0.50880000  1.0 -0.170840575
C  C176  1  0.50150000  0.57270000  0.50880000  1.0 -0.170840575
C  C177  1  0.42730000  0.92880000  0.50880000  1.0 -0.170840575
C  C178  1  0.92880000  0.50150000  0.00880000  1.0 -0.170840575
C  C179  1  0.49850000  0.42730000  0.00880000  1.0 -0.170840575
C  C180  1  0.57270000  0.07120000  0.00880000  1.0 -0.170840575
C  C181  1  0.60630000  0.86420000  0.47190000  1.0 0.1608447545
C  C182  1  0.13580000  0.74210000  0.47190000  1.0 0.1608447545
C  C183  1  0.25790000  0.39370000  0.47190000  1.0 0.1608447545
C  C184  1  0.39370000  0.13580000  0.97190000  1.0 0.1608447545
C  C185  1  0.86420000  0.25790000  0.97190000  1.0 0.1608447545
C  C186  1  0.74210000  0.60630000  0.97190000  1.0 0.1608447545
C  C187  1  0.86660000  0.20440000  0.65310000  1.0 0.0499392246
C  C188  1  0.79560000  0.66220000  0.65310000  1.0 0.0499392246
C  C189  1  0.33780000  0.13340000  0.65310000  1.0 0.0499392246
C  C190  1  0.13340000  0.79560000  0.15310000  1.0 0.0499392246
C  C191  1  0.20440000  0.33780000  0.15310000  1.0 0.0499392246
C  C192  1  0.66220000  0.86660000  0.15310000  1.0 0.0499392246
C  C193  1  0.79900000  0.29430000  0.82320000  1.0 -0.1412240655
C  C194  1  0.70570000  0.50470000  0.82320000  1.0 -0.1412240655
C  C195  1  0.49530000  0.20100000  0.82320000  1.0 -0.1412240655
C  C196  1  0.20100000  0.70570000  0.32320000  1.0 -0.1412240655
C  C197  1  0.29430000  0.49530000  0.32320000  1.0 -0.1412240655
C  C198  1  0.50470000  0.79900000  0.32320000  1.0 -0.1412240655
C  C199  1  0.73440000  0.20580000  0.74920000  1.0 -0.1190723038
C  C200  1  0.79420000  0.52860000  0.74920000  1.0 -0.1190723038
C  C201  1  0.47140000  0.26560000  0.74920000  1.0 -0.1190723038
C  C202  1  0.26560000  0.79420000  0.24920000  1.0 -0.1190723038
C  C203  1  0.20580000  0.47140000  0.24920000  1.0 -0.1190723038
C  C204  1  0.52860000  0.73440000  0.24920000  1.0 -0.1190723038
C  C205  1  0.64740000  0.09920000  0.20520000  1.0 -0.090743239
C  C206  1  0.90080000  0.54820000  0.20520000  1.0 -0.090743239
C  C207  1  0.45180000  0.35260000  0.20520000  1.0 -0.090743239
C  C208  1  0.35260000  0.90080000  0.70520000  1.0 -0.090743239
C  C209  1  0.09920000  0.45180000  0.70520000  1.0 -0.090743239
C  C210  1  0.54820000  0.64740000  0.70520000  1.0 -0.090743239
C  C211  1  0.63670000  0.93920000  0.39210000  1.0 0.0593459394
C  C212  1  0.06080000  0.69750000  0.39210000  1.0 0.0593459394
C  C213  1  0.30250000  0.36330000  0.39210000  1.0 0.0593459394
C  C214  1  0.36330000  0.06080000  0.89210000  1.0 0.0593459394
C  C215  1  0.93920000  0.30250000  0.89210000  1.0 0.0593459394
C  C216  1  0.69750000  0.63670000  0.89210000  1.0 0.0593459394
C  C217  1  0.68600000  0.14940000  0.17310000  1.0 -0.0360917026
C  C218  1  0.85060000  0.53660000  0.17310000  1.0 -0.0360917026
C  C219  1  0.46340000  0.31400000  0.17310000  1.0 -0.0360917026
C  C220  1  0.31400000  0.85060000  0.67310000  1.0 -0.0360917026
C  C221  1  0.14940000  0.46340000  0.67310000  1.0 -0.0360917026
C  C222  1  0.53660000  0.68600000  0.67310000  1.0 -0.0360917026
C  C223  1  0.91200000  0.71160000  0.44790000  1.0 -0.1412240655
C  C224  1  0.28840000  0.20040000  0.44790000  1.0 -0.1412240655
C  C225  1  0.79960000  0.08800000  0.44790000  1.0 -0.1412240655
C  C226  1  0.08800000  0.28840000  0.94790000  1.0 -0.1412240655
C  C227  1  0.71160000  0.79960000  0.94790000  1.0 -0.1412240655
C  C228  1  0.20040000  0.91200000  0.94790000  1.0 -0.1412240655
C  C229  1  0.95630000  0.42190000  0.38940000  1.0 -0.0773277692
C  C230  1  0.57810000  0.53440000  0.38940000  1.0 -0.0773277692
C  C231  1  0.46560000  0.04370000  0.38940000  1.0 -0.0773277692
C  C232  1  0.04370000  0.57810000  0.88940000  1.0 -0.0773277692
C  C233  1  0.42190000  0.46560000  0.88940000  1.0 -0.0773277692
C  C234  1  0.53440000  0.95630000  0.88940000  1.0 -0.0773277692
C  C235  1  0.58070000  0.85560000  0.55030000  1.0 0.1205649744
C  C236  1  0.14440000  0.72510000  0.55030000  1.0 0.1205649744
C  C237  1  0.27490000  0.41930000  0.55030000  1.0 0.1205649744
C  C238  1  0.41930000  0.14440000  0.05030000  1.0 0.1205649744
C  C239  1  0.85560000  0.27490000  0.05030000  1.0 0.1205649744
C  C240  1  0.72510000  0.58070000  0.05030000  1.0 0.1205649744
C  C241  1  0.74270000  0.22010000  0.82790000  1.0 -0.1190723038
C  C242  1  0.77990000  0.52260000  0.82790000  1.0 -0.1190723038
C  C243  1  0.47740000  0.25730000  0.82790000  1.0 -0.1190723038
C  C244  1  0.25730000  0.77990000  0.32790000  1.0 -0.1190723038
C  C245  1  0.22010000  0.47740000  0.32790000  1.0 -0.1190723038
C  C246  1  0.52260000  0.74270000  0.32790000  1.0 -0.1190723038
C  C247  1  0.93440000  0.27720000  0.65130000  1.0 -0.1412240655
C  C248  1  0.72280000  0.65720000  0.65130000  1.0 -0.1412240655
C  C249  1  0.34280000  0.06560000  0.65130000  1.0 -0.1412240655
C  C250  1  0.06560000  0.72280000  0.15130000  1.0 -0.1412240655
C  C251  1  0.27720000  0.34280000  0.15130000  1.0 -0.1412240655
C  C252  1  0.65720000  0.93440000  0.15130000  1.0 -0.1412240655
C  C253  1  0.95180000  0.74160000  0.48520000  1.0 -0.1013572514
C  C254  1  0.25840000  0.21020000  0.48520000  1.0 -0.1013572514
C  C255  1  0.78980000  0.04820000  0.48520000  1.0 -0.1013572514
C  C256  1  0.04820000  0.25840000  0.98520000  1.0 -0.1013572514
C  C257  1  0.74160000  0.78980000  0.98520000  1.0 -0.1013572514
C  C258  1  0.21020000  0.95180000  0.98520000  1.0 -0.1013572514
C  C259  1  0.71160000  0.17620000  0.79110000  1.0 -0.090743239
C  C260  1  0.82380000  0.53540000  0.79110000  1.0 -0.090743239
C  C261  1  0.46460000  0.28840000  0.79110000  1.0 -0.090743239
C  C262  1  0.28840000  0.82380000  0.29110000  1.0 -0.090743239
C  C263  1  0.17620000  0.46460000  0.29110000  1.0 -0.090743239
C  C264  1  0.53540000  0.71160000  0.29110000  1.0 -0.090743239
C  C265  1  0.76670000  0.15180000  0.21830000  1.0 0.0897912421
C  C266  1  0.84820000  0.61490000  0.21830000  1.0 0.0897912421
C  C267  1  0.38510000  0.23330000  0.21830000  1.0 0.0897912421
C  C268  1  0.23330000  0.84820000  0.71830000  1.0 0.0897912421
C  C269  1  0.15180000  0.38510000  0.71830000  1.0 0.0897912421
C  C270  1  0.61490000  0.76670000  0.71830000  1.0 0.0897912421
C  C271  1  0.06870000  0.46700000  0.42990000  1.0 -0.1584391568
C  C272  1  0.53300000  0.60170000  0.42990000  1.0 -0.1584391568
C  C273  1  0.39830000  0.93130000  0.42990000  1.0 -0.1584391568
C  C274  1  0.93130000  0.53300000  0.92990000  1.0 -0.1584391568
C  C275  1  0.46700000  0.39830000  0.92990000  1.0 -0.1584391568
C  C276  1  0.60170000  0.06870000  0.92990000  1.0 -0.1584391568
C  C277  1  0.00270000  0.27930000  0.64950000  1.0 -0.090743239
C  C278  1  0.72070000  0.72340000  0.64950000  1.0 -0.090743239
C  C279  1  0.27660000  0.99730000  0.64950000  1.0 -0.090743239
C  C280  1  0.99730000  0.72070000  0.14950000  1.0 -0.090743239
C  C281  1  0.27930000  0.27660000  0.14950000  1.0 -0.090743239
C  C282  1  0.72340000  0.00270000  0.14950000  1.0 -0.090743239
C  C283  1  0.03190000  0.44160000  0.39200000  1.0 -0.090743239
C  C284  1  0.55840000  0.59030000  0.39200000  1.0 -0.090743239
C  C285  1  0.40970000  0.96810000  0.39200000  1.0 -0.090743239
C  C286  1  0.96810000  0.55840000  0.89200000  1.0 -0.090743239
C  C287  1  0.44160000  0.40970000  0.89200000  1.0 -0.090743239
C  C288  1  0.59030000  0.03190000  0.89200000  1.0 -0.090743239
C  C289  1  0.65340000  0.85690000  0.44160000  1.0 -0.182748977
C  C290  1  0.14310000  0.79650000  0.44160000  1.0 -0.182748977
C  C291  1  0.20350000  0.34660000  0.44160000  1.0 -0.182748977
C  C292  1  0.34660000  0.14310000  0.94160000  1.0 -0.182748977
C  C293  1  0.85690000  0.20350000  0.94160000  1.0 -0.182748977
C  C294  1  0.79650000  0.65340000  0.94160000  1.0 -0.182748977
C  C295  1  0.59430000  0.76240000  0.56880000  1.0 -0.0092931035
C  C296  1  0.23760000  0.83190000  0.56880000  1.0 -0.0092931035
C  C297  1  0.16810000  0.40570000  0.56880000  1.0 -0.0092931035
C  C298  1  0.40570000  0.23760000  0.06880000  1.0 -0.0092931035
C  C299  1  0.76240000  0.16810000  0.06880000  1.0 -0.0092931035
C  C300  1  0.83190000  0.59430000  0.06880000  1.0 -0.0092931035
C  C301  1  0.80500000  0.06790000  0.64780000  1.0 -0.1412240655
C  C302  1  0.93210000  0.73710000  0.64780000  1.0 -0.1412240655
C  C303  1  0.26290000  0.19500000  0.64780000  1.0 -0.1412240655
C  C304  1  0.19500000  0.93210000  0.14780000  1.0 -0.1412240655
C  C305  1  0.06790000  0.26290000  0.14780000  1.0 -0.1412240655
C  C306  1  0.73710000  0.80500000  0.14780000  1.0 -0.1412240655
C  C307  1  0.87190000  0.13830000  0.65030000  1.0 0.0593459394
C  C308  1  0.86170000  0.73360000  0.65030000  1.0 0.0593459394
C  C309  1  0.26640000  0.12810000  0.65030000  1.0 0.0593459394
C  C310  1  0.12810000  0.86170000  0.15030000  1.0 0.0593459394
C  C311  1  0.13830000  0.26640000  0.15030000  1.0 0.0593459394
C  C312  1  0.73360000  0.87190000  0.15030000  1.0 0.0593459394
C  C313  1  0.60650000  0.77120000  0.52550000  1.0 -0.1190723038
C  C314  1  0.22880000  0.83530000  0.52550000  1.0 -0.1190723038
C  C315  1  0.16470000  0.39350000  0.52550000  1.0 -0.1190723038
C  C316  1  0.39350000  0.22880000  0.02550000  1.0 -0.1190723038
C  C317  1  0.77120000  0.16470000  0.02550000  1.0 -0.1190723038
C  C318  1  0.83530000  0.60650000  0.02550000  1.0 -0.1190723038
C  C319  1  0.57790000  0.90940000  0.46360000  1.0 -0.1584391568
C  C320  1  0.09060000  0.66850000  0.46360000  1.0 -0.1584391568
C  C321  1  0.33150000  0.42210000  0.46360000  1.0 -0.1584391568
C  C322  1  0.42210000  0.09060000  0.96360000  1.0 -0.1584391568
C  C323  1  0.90940000  0.33150000  0.96360000  1.0 -0.1584391568
C  C324  1  0.66850000  0.57790000  0.96360000  1.0 -0.1584391568
C  C325  1  0.66460000  0.89410000  0.40210000  1.0 -0.1277358375
C  C326  1  0.10590000  0.77050000  0.40210000  1.0 -0.1277358375
C  C327  1  0.22950000  0.33540000  0.40210000  1.0 -0.1277358375
C  C328  1  0.33540000  0.10590000  0.90210000  1.0 -0.1277358375
C  C329  1  0.89410000  0.22950000  0.90210000  1.0 -0.1277358375
C  C330  1  0.77050000  0.66460000  0.90210000  1.0 -0.1277358375
C  C331  1  0.59050000  0.94540000  0.42270000  1.0 -0.1190723038
C  C332  1  0.05460000  0.64510000  0.42270000  1.0 -0.1190723038
C  C333  1  0.35490000  0.40950000  0.42270000  1.0 -0.1190723038
C  C334  1  0.40950000  0.05460000  0.92270000  1.0 -0.1190723038
C  C335  1  0.94540000  0.35490000  0.92270000  1.0 -0.1190723038
C  C336  1  0.64510000  0.59050000  0.92270000  1.0 -0.1190723038
C  C337  1  0.00630000  0.21150000  0.64990000  1.0 -0.1013572514
C  C338  1  0.78850000  0.79480000  0.64990000  1.0 -0.1013572514
C  C339  1  0.20520000  0.99370000  0.64990000  1.0 -0.1013572514
C  C340  1  0.99370000  0.78850000  0.14990000  1.0 -0.1013572514
C  C341  1  0.21150000  0.20520000  0.14990000  1.0 -0.1013572514
C  C342  1  0.79480000  0.00630000  0.14990000  1.0 -0.1013572514
C  C343  1  0.94570000  0.14680000  0.64760000  1.0 -0.1277358375
C  C344  1  0.85320000  0.79890000  0.64760000  1.0 -0.1277358375
C  C345  1  0.20110000  0.05430000  0.64760000  1.0 -0.1277358375
C  C346  1  0.05430000  0.85320000  0.14760000  1.0 -0.1277358375
C  C347  1  0.14680000  0.20110000  0.14760000  1.0 -0.1277358375
C  C348  1  0.79890000  0.94570000  0.14760000  1.0 -0.1277358375
C  C349  1  0.70890000  0.00910000  0.27940000  1.0 -0.170840575
C  C350  1  0.99090000  0.69980000  0.27940000  1.0 -0.170840575
C  C351  1  0.30020000  0.29110000  0.27940000  1.0 -0.170840575
C  C352  1  0.29110000  0.99090000  0.77940000  1.0 -0.170840575
C  C353  1  0.00910000  0.30020000  0.77940000  1.0 -0.170840575
C  C354  1  0.69980000  0.70890000  0.77940000  1.0 -0.170840575
C  C355  1  0.68350000  0.05910000  0.27278000  1.0 0.1608447545
C  C356  1  0.94090000  0.62440000  0.27278000  1.0 0.1608447545
C  C357  1  0.37560000  0.31650000  0.27278000  1.0 0.1608447545
C  C358  1  0.31650000  0.94090000  0.77278000  1.0 0.1608447545
C  C359  1  0.05910000  0.37560000  0.77278000  1.0 0.1608447545
C  C360  1  0.62440000  0.68350000  0.77278000  1.0 0.1608447545
C  C361  1  0.64160000  0.06890000  0.30480000  1.0 -0.1412240655
C  C362  1  0.93110000  0.57270000  0.30480000  1.0 -0.1412240655
C  C363  1  0.42730000  0.35840000  0.30480000  1.0 -0.1412240655
C  C364  1  0.35840000  0.93110000  0.80480000  1.0 -0.1412240655
C  C365  1  0.06890000  0.42730000  0.80480000  1.0 -0.1412240655
C  C366  1  0.57270000  0.64160000  0.80480000  1.0 -0.1412240655
C  C367  1  0.62520000  0.02870000  0.34344000  1.0 -0.1190723038
C  C368  1  0.97130000  0.59650000  0.34344000  1.0 -0.1190723038
C  C369  1  0.40350000  0.37480000  0.34344000  1.0 -0.1190723038
C  C370  1  0.37480000  0.97130000  0.84344000  1.0 -0.1190723038
C  C371  1  0.02870000  0.40350000  0.84344000  1.0 -0.1190723038
C  C372  1  0.59650000  0.62520000  0.84344000  1.0 -0.1190723038
C  C373  1  0.65060000  0.97860000  0.35010000  1.0 0.0662151625
C  C374  1  0.02140000  0.67200000  0.35010000  1.0 0.0662151625
C  C375  1  0.32800000  0.34940000  0.35010000  1.0 0.0662151625
C  C376  1  0.34940000  0.02140000  0.85010000  1.0 0.0662151625
C  C377  1  0.97860000  0.32800000  0.85010000  1.0 0.0662151625
C  C378  1  0.67200000  0.65060000  0.85010000  1.0 0.0662151625
C  C379  1  0.69250000  0.96890000  0.31800000  1.0 -0.1277358375
C  C380  1  0.03110000  0.72360000  0.31800000  1.0 -0.1277358375
C  C381  1  0.27640000  0.30750000  0.31800000  1.0 -0.1277358375
C  C382  1  0.30750000  0.03110000  0.81800000  1.0 -0.1277358375
C  C383  1  0.96890000  0.27640000  0.81800000  1.0 -0.1277358375
C  C384  1  0.72360000  0.69250000  0.81800000  1.0 -0.1277358375
N  N1  1  0.67050000  0.24820000  0.25850000  1.0 -0.800931812
N  N2  1  0.75180000  0.42230000  0.25850000  1.0 -0.800931812
N  N3  1  0.57770000  0.32950000  0.25850000  1.0 -0.800931812
N  N4  1  0.32950000  0.75180000  0.75850000  1.0 -0.800931812
N  N5  1  0.24820000  0.57770000  0.75850000  1.0 -0.800931812
N  N6  1  0.42230000  0.67050000  0.75850000  1.0 -0.800931812
N  N7  1  0.66666667  0.33333333  0.14840000  1.0 -0.8440021164
N  N8  1  0.33333333  0.66666667  0.64840000  1.0 -0.8440021164
N  N9  1  0.57600000  0.81270000  0.58430000  1.0 -0.280802646
N  N10  1  0.18730000  0.76330000  0.58430000  1.0 -0.280802646
N  N11  1  0.23670000  0.42400000  0.58430000  1.0 -0.280802646
N  N12  1  0.42400000  0.18730000  0.08430000  1.0 -0.280802646
N  N13  1  0.81270000  0.23670000  0.08430000  1.0 -0.280802646
N  N14  1  0.76330000  0.57600000  0.08430000  1.0 -0.280802646
N  N15  1  0.76010000  0.18100000  0.18140000  1.0 -0.2898734447
N  N16  1  0.81900000  0.57910000  0.18140000  1.0 -0.2898734447
N  N17  1  0.42090000  0.23990000  0.18140000  1.0 -0.2898734447
N  N18  1  0.23990000  0.81900000  0.68140000  1.0 -0.2898734447
N  N19  1  0.18100000  0.42090000  0.68140000  1.0 -0.2898734447
N  N20  1  0.57910000  0.76010000  0.68140000  1.0 -0.2898734447
N  N21  1  0.48590000  0.84060000  0.67080000  1.0 -0.8050682432
N  N22  1  0.15940000  0.64530000  0.67080000  1.0 -0.8050682432
N  N23  1  0.35470000  0.51410000  0.67080000  1.0 -0.800931812
N  N24  1  0.51410000  0.15940000  0.17080000  1.0 -0.800931812
N  N25  1  0.84060000  0.35470000  0.17080000  1.0 -0.800931812
N  N26  1  0.64530000  0.48590000  0.17080000  1.0 -0.800931812
N  N27  1  0.69920000  0.10170000  0.23390000  1.0 0.009628241
N  N28  1  0.89830000  0.59750000  0.23390000  1.0 0.009628241
N  N29  1  0.40250000  0.30080000  0.23390000  1.0 0.009628241
N  N30  1  0.30080000  0.89830000  0.73390000  1.0 0.009628241
N  N31  1  0.10170000  0.40250000  0.73390000  1.0 0.009628241
N  N32  1  0.59750000  0.69920000  0.73390000  1.0 0.009628241
N  N33  1  0.59580000  0.83050000  0.51490000  1.0 0.009628241
N  N34  1  0.16950000  0.76530000  0.51490000  1.0 0.009628241
N  N35  1  0.23470000  0.40420000  0.51490000  1.0 0.009628241
N  N36  1  0.40420000  0.16950000  0.01490000  1.0 0.009628241
N  N37  1  0.83050000  0.23470000  0.01490000  1.0 0.009628241
N  N38  1  0.76530000  0.59580000  0.01490000  1.0 0.009628241
O  O1  1  0.85430000  0.36840000  0.26800000  1.0 -0.6796201654
O  O2  1  0.63160000  0.48590000  0.26800000  1.0 -0.6796201654
O  O3  1  0.51410000  0.14570000  0.26800000  1.0 -0.6796201654
O  O4  1  0.14570000  0.63160000  0.76800000  1.0 -0.6796201654
O  O5  1  0.36840000  0.51410000  0.76800000  1.0 -0.6796201654
O  O6  1  0.48590000  0.85430000  0.76800000  1.0 -0.6796201654
O  O7  1  0.04270000  0.51380000  0.62326000  1.0 -0.6483372039
O  O8  1  0.48620000  0.52890000  0.62326000  1.0 -0.6483372039
O  O9  1  0.47110000  0.95730000  0.62326000  1.0 -0.6483372039
O  O10  1  0.95730000  0.48620000  0.12326000  1.0 -0.6483372039
O  O11  1  0.51380000  0.47110000  0.12326000  1.0 -0.6483372039
O  O12  1  0.52890000  0.04270000  0.12326000  1.0 -0.6483372039
O  O13  1  0.66480000  0.12370000  0.64909000  1.0 -0.6196626909
O  O14  1  0.87630000  0.54110000  0.64909000  1.0 -0.6196626909
O  O15  1  0.45890000  0.33520000  0.64909000  1.0 -0.6196626909
O  O16  1  0.33520000  0.87630000  0.14909000  1.0 -0.6196626909
O  O17  1  0.12370000  0.45890000  0.14909000  1.0 -0.6196626909
O  O18  1  0.54110000  0.66480000  0.14909000  1.0 -0.6196626909
O  O19  1  0.74900000  0.40190000  0.42878000  1.0 -0.6196626909
O  O20  1  0.59810000  0.34710000  0.42878000  1.0 -0.6196626909
O  O21  1  0.65290000  0.25100000  0.42878000  1.0 -0.6196626909
O  O22  1  0.25100000  0.59810000  0.92878000  1.0 -0.6196626909
O  O23  1  0.40190000  0.65290000  0.92878000  1.0 -0.6196626909
O  O24  1  0.34710000  0.74900000  0.92878000  1.0 -0.6196626909
O  O25  1  0.92570000  0.49240000  0.57812000  1.0 -0.6196626909
O  O26  1  0.50760000  0.43330000  0.57812000  1.0 -0.6196626909
O  O27  1  0.56670000  0.07430000  0.57812000  1.0 -0.6196626909
O  O28  1  0.07430000  0.50760000  0.07812000  1.0 -0.6196626909
O  O29  1  0.49240000  0.56670000  0.07812000  1.0 -0.6196626909
O  O30  1  0.43330000  0.92570000  0.07812000  1.0 -0.6196626909
O  O31  1  0.89380000  0.41770000  0.65905000  1.0 -0.6081365533
O  O32  1  0.58230000  0.47610000  0.65905000  1.0 -0.6081365533
O  O33  1  0.52390000  0.10620000  0.65905000  1.0 -0.6081365533
O  O34  1  0.10620000  0.58230000  0.15905000  1.0 -0.6081365533
O  O35  1  0.41770000  0.52390000  0.15905000  1.0 -0.6081365533
O  O36  1  0.47610000  0.89380000  0.15905000  1.0 -0.6081365533
O  O37  1  0.99250000  0.54240000  0.69778000  1.0 -0.6081365533
O  O38  1  0.45760000  0.45010000  0.69778000  1.0 -0.6081365533
O  O39  1  0.54990000  0.00750000  0.69778000  1.0 -0.6081365533
O  O40  1  0.00750000  0.45760000  0.19778000  1.0 -0.6081365533
O  O41  1  0.54240000  0.54990000  0.19778000  1.0 -0.6081365533
O  O42  1  0.45010000  0.99250000  0.19778000  1.0 -0.6081365533
O  O43  1  0.69500000  0.42050000  0.35586000  1.0 -0.6483372039
O  O44  1  0.57950000  0.27450000  0.35586000  1.0 -0.6483372039
O  O45  1  0.72550000  0.30500000  0.35586000  1.0 -0.6483372039
O  O46  1  0.30500000  0.57950000  0.85586000  1.0 -0.6483372039
O  O47  1  0.42050000  0.72550000  0.85586000  1.0 -0.6483372039
O  O48  1  0.27450000  0.69500000  0.85586000  1.0 -0.6483372039
O  O49  1  0.61110000  0.98270000  0.62656000  1.0 -0.6196626909
O  O50  1  0.01730000  0.62840000  0.62656000  1.0 -0.6196626909
O  O51  1  0.37160000  0.38890000  0.62656000  1.0 -0.6196626909
O  O52  1  0.38890000  0.01730000  0.12656000  1.0 -0.6196626909
O  O53  1  0.98270000  0.37160000  0.12656000  1.0 -0.6196626909
O  O54  1  0.62840000  0.61110000  0.12656000  1.0 -0.6196626909
O  O55  1  0.99500000  0.54500000  0.76954000  1.0 -0.5204462744
O  O56  1  0.45500000  0.45000000  0.76954000  1.0 -0.5204462744
O  O57  1  0.55000000  0.00500000  0.76954000  1.0 -0.5204462744
O  O58  1  0.00500000  0.45500000  0.26954000  1.0 -0.5204462744
O  O59  1  0.54500000  0.55000000  0.26954000  1.0 -0.5204462744
O  O60  1  0.45000000  0.99500000  0.26954000  1.0 -0.5204462744
O  O61  1  0.14810000  0.55500000  0.58635000  1.0 -0.5204462744
O  O62  1  0.44500000  0.59310000  0.58635000  1.0 -0.5204462744
O  O63  1  0.40690000  0.85190000  0.58635000  1.0 -0.5204462744
O  O64  1  0.85190000  0.44500000  0.08635000  1.0 -0.5204462744
O  O65  1  0.55500000  0.40690000  0.08635000  1.0 -0.5204462744
O  O66  1  0.59310000  0.14810000  0.08635000  1.0 -0.5204462744
O  O67  1  0.67390000  0.93170000  0.65430000  1.0 -0.5259531028
O  O68  1  0.06830000  0.74220000  0.65430000  1.0 -0.5259531028
O  O69  1  0.25780000  0.32610000  0.65430000  1.0 -0.5259531028
O  O70  1  0.32610000  0.06830000  0.15430000  1.0 -0.5259531028
O  O71  1  0.93170000  0.25780000  0.15430000  1.0 -0.5259531028
O  O72  1  0.74220000  0.67390000  0.15430000  1.0 -0.5259531028
O  O73  1  0.74270000  0.53520000  0.33058000  1.0 -0.5069910772
O  O74  1  0.46480000  0.20750000  0.33058000  1.0 -0.5069910772
O  O75  1  0.79250000  0.25730000  0.33058000  1.0 -0.5069910772
O  O76  1  0.25730000  0.46480000  0.83058000  1.0 -0.5069910772
O  O77  1  0.53520000  0.79250000  0.83058000  1.0 -0.5069910772
O  O78  1  0.20750000  0.74270000  0.83058000  1.0 -0.5069910772
