# DDEC6 charges by PACMAN v1.1 (https://github.com/mtap-research/PACMAN-charge/)
data_UDOJEG_ASR_pacman
_symmetry_space_group_name_H-M   'P 1'
_cell_length_a   20.73620000
_cell_length_b   20.73620000
_cell_length_c   30.57500000
_cell_angle_alpha   90.00000000
_cell_angle_beta   90.00000000
_cell_angle_gamma   120.00000000
_symmetry_Int_Tables_number   1
_chemical_formula_structural   Ti4Zn3H117C192(N5O12)3
_chemical_formula_sum   'Ti8 Zn6 H234 C384 N30 O72'
_cell_volume   11385.58744950
_cell_formula_units_Z   2
loop_
 _symmetry_equiv_pos_site_id
 _symmetry_equiv_pos_as_xyz
  1  'x, y, z'
loop_
 _atom_site_type_symbol
 _atom_site_label
 _atom_site_symmetry_multiplicity
 _atom_site_fract_x
 _atom_site_fract_y
 _atom_site_fract_z
 _atom_site_occupancy
 _atom_site_charge
Ti  Ti1  1  0.51362000  0.94876000  0.54724000  1.0 1.9081300173
Ti  Ti2  1  0.05124000  0.56486000  0.54724000  1.0 1.9081300173
Ti  Ti3  1  0.43514000  0.48638000  0.54724000  1.0 1.9081300173
Ti  Ti4  1  0.48638000  0.05124000  0.04724000  1.0 1.9081300173
Ti  Ti5  1  0.94876000  0.43514000  0.04724000  1.0 1.9081300173
Ti  Ti6  1  0.56486000  0.51362000  0.04724000  1.0 1.9081300173
Ti  Ti7  1  0.33333333  0.66666667  0.78787000  1.0 1.9081300173
Ti  Ti8  1  0.66666667  0.33333333  0.28787000  1.0 1.9081300173
Zn  Zn1  1  0.83897000  0.57417000  0.53549000  1.0 0.7360287282
Zn  Zn2  1  0.42583000  0.26480000  0.53549000  1.0 0.7360287282
Zn  Zn3  1  0.73520000  0.16103000  0.53549000  1.0 0.7360287282
Zn  Zn4  1  0.16103000  0.42583000  0.03549000  1.0 0.7360287282
Zn  Zn5  1  0.57417000  0.73520000  0.03549000  1.0 0.7360287282
Zn  Zn6  1  0.26480000  0.83897000  0.03549000  1.0 0.7360287282
H  H1  1  0.87665000  0.48204000  0.52551000  1.0 0.3001411531
H  H2  1  0.51796000  0.39461000  0.52551000  1.0 0.3001411531
H  H3  1  0.60539000  0.12335000  0.52551000  1.0 0.3001411531
H  H4  1  0.12335000  0.51796000  0.02551000  1.0 0.3001411531
H  H5  1  0.48204000  0.60539000  0.02551000  1.0 0.3001411531
H  H6  1  0.39461000  0.87665000  0.02551000  1.0 0.3001411531
H  H7  1  0.84230000  0.48609000  0.48497000  1.0 0.3135290815
H  H8  1  0.51391000  0.35621000  0.48497000  1.0 0.3135290815
H  H9  1  0.64379000  0.15770000  0.48497000  1.0 0.3135290815
H  H10  1  0.15770000  0.51391000  0.98497000  1.0 0.3135290815
H  H11  1  0.48609000  0.64379000  0.98497000  1.0 0.3135290815
H  H12  1  0.35621000  0.84230000  0.98497000  1.0 0.3135290815
H  H13  1  0.79604000  0.44379000  0.52175000  1.0 0.3001411531
H  H14  1  0.55621000  0.35225000  0.52175000  1.0 0.3001411531
H  H15  1  0.64775000  0.20396000  0.52175000  1.0 0.3001411531
H  H16  1  0.20396000  0.55621000  0.02175000  1.0 0.3001411531
H  H17  1  0.44379000  0.64775000  0.02175000  1.0 0.3001411531
H  H18  1  0.35225000  0.79604000  0.02175000  1.0 0.3001411531
H  H19  1  0.42827000  0.90211000  0.38207000  1.0 0.1200414721
H  H20  1  0.09789000  0.52616000  0.38207000  1.0 0.1200414721
H  H21  1  0.47384000  0.57173000  0.38207000  1.0 0.1200414721
H  H22  1  0.57173000  0.09789000  0.88207000  1.0 0.1200414721
H  H23  1  0.90211000  0.47384000  0.88207000  1.0 0.1200414721
H  H24  1  0.52616000  0.42827000  0.88207000  1.0 0.1200414721
H  H25  1  0.25136000  0.73332000  0.52578000  1.0 0.1292318766
H  H26  1  0.26668000  0.51804000  0.52578000  1.0 0.1292318766
H  H27  1  0.48196000  0.74864000  0.52578000  1.0 0.1292318766
H  H28  1  0.74864000  0.26668000  0.02578000  1.0 0.1292318766
H  H29  1  0.73332000  0.48196000  0.02578000  1.0 0.1292318766
H  H30  1  0.51804000  0.25136000  0.02578000  1.0 0.1292318766
H  H31  1  0.29884000  0.81024000  0.54895000  1.0 0.1292318766
H  H32  1  0.18976000  0.48860000  0.54895000  1.0 0.1292318766
H  H33  1  0.51140000  0.70116000  0.54895000  1.0 0.1292318766
H  H34  1  0.70116000  0.18976000  0.04895000  1.0 0.1292318766
H  H35  1  0.81024000  0.51140000  0.04895000  1.0 0.1292318766
H  H36  1  0.48860000  0.29884000  0.04895000  1.0 0.1292318766
H  H37  1  0.42000000  0.87317000  0.76329000  1.0 0.1292318766
H  H38  1  0.12683000  0.54683000  0.76329000  1.0 0.1292318766
H  H39  1  0.45317000  0.58000000  0.76329000  1.0 0.1292318766
H  H40  1  0.58000000  0.12683000  0.26329000  1.0 0.1292318766
H  H41  1  0.87317000  0.45317000  0.26329000  1.0 0.1292318766
H  H42  1  0.54683000  0.42000000  0.26329000  1.0 0.1292318766
H  H43  1  0.59514000  0.53094000  0.47698000  1.0 0.1499292874
H  H44  1  0.46906000  0.06420000  0.47698000  1.0 0.1499292874
H  H45  1  0.93580000  0.40486000  0.47698000  1.0 0.1499292874
H  H46  1  0.40486000  0.46906000  0.97698000  1.0 0.1499292874
H  H47  1  0.53094000  0.93580000  0.97698000  1.0 0.1499292874
H  H48  1  0.06420000  0.59514000  0.97698000  1.0 0.1499292874
H  H49  1  0.66352000  0.50537000  0.53353000  1.0 0.1366822867
H  H50  1  0.49463000  0.15815000  0.53353000  1.0 0.1366822867
H  H51  1  0.84185000  0.33648000  0.53353000  1.0 0.1366822867
H  H52  1  0.33648000  0.49463000  0.03353000  1.0 0.1366822867
H  H53  1  0.50537000  0.84185000  0.03353000  1.0 0.1366822867
H  H54  1  0.15815000  0.66352000  0.03353000  1.0 0.1366822867
H  H55  1  0.17735000  0.70755000  0.45860000  1.0 0.1200414721
H  H56  1  0.29245000  0.46980000  0.45860000  1.0 0.1200414721
H  H57  1  0.53020000  0.82265000  0.45860000  1.0 0.1200414721
H  H58  1  0.82265000  0.29245000  0.95860000  1.0 0.1200414721
H  H59  1  0.70755000  0.53020000  0.95860000  1.0 0.1200414721
H  H60  1  0.46980000  0.17735000  0.95860000  1.0 0.1200414721
H  H61  1  0.59758000  0.87454000  0.09736000  1.0 0.1292318766
H  H62  1  0.12546000  0.72304000  0.09736000  1.0 0.1292318766
H  H63  1  0.27696000  0.40242000  0.09736000  1.0 0.1292318766
H  H64  1  0.40242000  0.12546000  0.59736000  1.0 0.1292318766
H  H65  1  0.87454000  0.27696000  0.59736000  1.0 0.1292318766
H  H66  1  0.72304000  0.59758000  0.59736000  1.0 0.1292318766
H  H67  1  0.58242000  0.68455000  0.12996000  1.0 0.1292318766
H  H68  1  0.31545000  0.89787000  0.12996000  1.0 0.1292318766
H  H69  1  0.10213000  0.41758000  0.12996000  1.0 0.1292318766
H  H70  1  0.41758000  0.31545000  0.62996000  1.0 0.1292318766
H  H71  1  0.68455000  0.10213000  0.62996000  1.0 0.1292318766
H  H72  1  0.89787000  0.58242000  0.62996000  1.0 0.1292318766
H  H73  1  0.81091000  0.64740000  0.45010000  1.0 0.1292318766
H  H74  1  0.35260000  0.16351000  0.45010000  1.0 0.1292318766
H  H75  1  0.83649000  0.18909000  0.45010000  1.0 0.1292318766
H  H76  1  0.18909000  0.35260000  0.95010000  1.0 0.1292318766
H  H77  1  0.64740000  0.83649000  0.95010000  1.0 0.1292318766
H  H78  1  0.16351000  0.81091000  0.95010000  1.0 0.1292318766
H  H79  1  0.51605000  0.12362000  0.67545000  1.0 0.1130280215
H  H80  1  0.87638000  0.39243000  0.67545000  1.0 0.1130280215
H  H81  1  0.60757000  0.48395000  0.67545000  1.0 0.1130280215
H  H82  1  0.48395000  0.87638000  0.17545000  1.0 0.1130280215
H  H83  1  0.12362000  0.60757000  0.17545000  1.0 0.1130280215
H  H84  1  0.39243000  0.51605000  0.17545000  1.0 0.1130280215
H  H85  1  0.12915000  0.67156000  0.38975000  1.0 0.1130280215
H  H86  1  0.32844000  0.45759000  0.38975000  1.0 0.1130280215
H  H87  1  0.54241000  0.87085000  0.38975000  1.0 0.1130280215
H  H88  1  0.87085000  0.32844000  0.88975000  1.0 0.1130280215
H  H89  1  0.67156000  0.54241000  0.88975000  1.0 0.1130280215
H  H90  1  0.45759000  0.12915000  0.88975000  1.0 0.1130280215
H  H91  1  0.32123000  0.04327000  0.52985000  1.0 0.102023137
H  H92  1  0.95673000  0.27796000  0.52985000  1.0 0.102023137
H  H93  1  0.72204000  0.67877000  0.52985000  1.0 0.102023137
H  H94  1  0.67877000  0.95673000  0.02985000  1.0 0.102023137
H  H95  1  0.04327000  0.72204000  0.02985000  1.0 0.102023137
H  H96  1  0.27796000  0.32123000  0.02985000  1.0 0.102023137
H  H97  1  0.59189000  0.92147000  0.64988000  1.0 0.1292318766
H  H98  1  0.07853000  0.67042000  0.64988000  1.0 0.1292318766
H  H99  1  0.32958000  0.40811000  0.64988000  1.0 0.1292318766
H  H100  1  0.40811000  0.07853000  0.14988000  1.0 0.1292318766
H  H101  1  0.92147000  0.32958000  0.14988000  1.0 0.1292318766
H  H102  1  0.67042000  0.59189000  0.14988000  1.0 0.1292318766
H  H103  1  0.62875000  0.82079000  0.80085000  1.0 0.1200414721
H  H104  1  0.17921000  0.80796000  0.80085000  1.0 0.1200414721
H  H105  1  0.19204000  0.37125000  0.80085000  1.0 0.1200414721
H  H106  1  0.37125000  0.17921000  0.30085000  1.0 0.1200414721
H  H107  1  0.82079000  0.19204000  0.30085000  1.0 0.1200414721
H  H108  1  0.80796000  0.62875000  0.30085000  1.0 0.1200414721
H  H109  1  0.31712000  0.93082000  0.53012000  1.0 0.1200414721
H  H110  1  0.06918000  0.38630000  0.53012000  1.0 0.1200414721
H  H111  1  0.61370000  0.68288000  0.53012000  1.0 0.1200414721
H  H112  1  0.68288000  0.06918000  0.03012000  1.0 0.1200414721
H  H113  1  0.93082000  0.61370000  0.03012000  1.0 0.1200414721
H  H114  1  0.38630000  0.31712000  0.03012000  1.0 0.1200414721
H  H115  1  0.32511000  0.81598000  0.33569000  1.0 0.1200414721
H  H116  1  0.18402000  0.50913000  0.33569000  1.0 0.1200414721
H  H117  1  0.49087000  0.67489000  0.33569000  1.0 0.1200414721
H  H118  1  0.67489000  0.18402000  0.83569000  1.0 0.1130280215
H  H119  1  0.81598000  0.49087000  0.83569000  1.0 0.1200414721
H  H120  1  0.50913000  0.32511000  0.83569000  1.0 0.1200414721
H  H121  1  0.71670000  0.98165000  0.64307000  1.0 0.1130280215
H  H122  1  0.01835000  0.73505000  0.64307000  1.0 0.1130280215
H  H123  1  0.26495000  0.28330000  0.64307000  1.0 0.1130280215
H  H124  1  0.28330000  0.01835000  0.14307000  1.0 0.1130280215
H  H125  1  0.98165000  0.26495000  0.14307000  1.0 0.1130280215
H  H126  1  0.73505000  0.71670000  0.14307000  1.0 0.1130280215
H  H127  1  0.62113000  0.88020000  0.17520000  1.0 0.1292318766
H  H128  1  0.11980000  0.74093000  0.17520000  1.0 0.1292318766
H  H129  1  0.25907000  0.37887000  0.17520000  1.0 0.1292318766
H  H130  1  0.37887000  0.11980000  0.67520000  1.0 0.1292318766
H  H131  1  0.88020000  0.25907000  0.67520000  1.0 0.1292318766
H  H132  1  0.74093000  0.62113000  0.67520000  1.0 0.1292318766
H  H133  1  0.02490000  0.80681000  0.52509000  1.0 0.1200414721
H  H134  1  0.19319000  0.21809000  0.52509000  1.0 0.1200414721
H  H135  1  0.78191000  0.97510000  0.52509000  1.0 0.1200414721
H  H136  1  0.97510000  0.19319000  0.02509000  1.0 0.1200414721
H  H137  1  0.80681000  0.78191000  0.02509000  1.0 0.1200414721
H  H138  1  0.21809000  0.02490000  0.02509000  1.0 0.1200414721
H  H139  1  0.41403000  0.93671000  0.82384000  1.0 0.1292318766
H  H140  1  0.06329000  0.47732000  0.82384000  1.0 0.1292318766
H  H141  1  0.52268000  0.58597000  0.82384000  1.0 0.1292318766
H  H142  1  0.58597000  0.06329000  0.32384000  1.0 0.1292318766
H  H143  1  0.93671000  0.52268000  0.32384000  1.0 0.1292318766
H  H144  1  0.47732000  0.41403000  0.32384000  1.0 0.1292318766
H  H145  1  0.20274000  0.72449000  0.32779000  1.0 0.1130280215
H  H146  1  0.27551000  0.47825000  0.32779000  1.0 0.1130280215
H  H147  1  0.52175000  0.79726000  0.32779000  1.0 0.1130280215
H  H148  1  0.79726000  0.27551000  0.82779000  1.0 0.1130280215
H  H149  1  0.72449000  0.52175000  0.82779000  1.0 0.1130280215
H  H150  1  0.47825000  0.20274000  0.82779000  1.0 0.1130280215
H  H151  1  0.10015000  0.94418000  0.52423000  1.0 0.1200414721
H  H152  1  0.05582000  0.15597000  0.52423000  1.0 0.1200414721
H  H153  1  0.84403000  0.89985000  0.52423000  1.0 0.1200414721
H  H154  1  0.89985000  0.05582000  0.02423000  1.0 0.1200414721
H  H155  1  0.94418000  0.84403000  0.02423000  1.0 0.1200414721
H  H156  1  0.15597000  0.10015000  0.02423000  1.0 0.1200414721
H  H157  1  0.63769000  0.53077000  0.37889000  1.0 0.1499292874
H  H158  1  0.46923000  0.10692000  0.37889000  1.0 0.1499292874
H  H159  1  0.89308000  0.36231000  0.37889000  1.0 0.1499292874
H  H160  1  0.36231000  0.46923000  0.87889000  1.0 0.1499292874
H  H161  1  0.53077000  0.89308000  0.87889000  1.0 0.1499292874
H  H162  1  0.10692000  0.63769000  0.87889000  1.0 0.1499292874
H  H163  1  0.21408000  0.05030000  0.52485000  1.0 0.1200414721
H  H164  1  0.94970000  0.16378000  0.52485000  1.0 0.1200414721
H  H165  1  0.83622000  0.78592000  0.52485000  1.0 0.1200414721
H  H166  1  0.78592000  0.94970000  0.02485000  1.0 0.1200414721
H  H167  1  0.05030000  0.83622000  0.02485000  1.0 0.1200414721
H  H168  1  0.16378000  0.21408000  0.02485000  1.0 0.1200414721
H  H169  1  0.61582000  0.57303000  0.31420000  1.0 0.1130280215
H  H170  1  0.42697000  0.04279000  0.31420000  1.0 0.1130280215
H  H171  1  0.95721000  0.38418000  0.31420000  1.0 0.1130280215
H  H172  1  0.38418000  0.42697000  0.81420000  1.0 0.1130280215
H  H173  1  0.57303000  0.95721000  0.81420000  1.0 0.1130280215
H  H174  1  0.04279000  0.61582000  0.81420000  1.0 0.1130280215
H  H175  1  0.68448000  0.85210000  0.23281000  1.0 0.1292318766
H  H176  1  0.14790000  0.83238000  0.23281000  1.0 0.1292318766
H  H177  1  0.16762000  0.31552000  0.23281000  1.0 0.1292318766
H  H178  1  0.31552000  0.14790000  0.73281000  1.0 0.1292318766
H  H179  1  0.85210000  0.16762000  0.73281000  1.0 0.1292318766
H  H180  1  0.83238000  0.68448000  0.73281000  1.0 0.1292318766
H  H181  1  0.70509000  0.81345000  0.29970000  1.0 0.1200414721
H  H182  1  0.18655000  0.89164000  0.29970000  1.0 0.1200414721
H  H183  1  0.10836000  0.29491000  0.29970000  1.0 0.1200414721
H  H184  1  0.29491000  0.18655000  0.79970000  1.0 0.1200414721
H  H185  1  0.81345000  0.10836000  0.79970000  1.0 0.1200414721
H  H186  1  0.89164000  0.70509000  0.79970000  1.0 0.1200414721
H  H187  1  0.44969000  0.06167000  0.81899000  1.0 0.1200414721
H  H188  1  0.93833000  0.38802000  0.81899000  1.0 0.1200414721
H  H189  1  0.61198000  0.55031000  0.81899000  1.0 0.1200414721
H  H190  1  0.55031000  0.93833000  0.31899000  1.0 0.1200414721
H  H191  1  0.06167000  0.61198000  0.31899000  1.0 0.1200414721
H  H192  1  0.38802000  0.44969000  0.31899000  1.0 0.1200414721
H  H193  1  0.54072000  0.64121000  0.20253000  1.0 0.1292318766
H  H194  1  0.35879000  0.89951000  0.20253000  1.0 0.1292318766
H  H195  1  0.10049000  0.45928000  0.20253000  1.0 0.1292318766
H  H196  1  0.45928000  0.35879000  0.70253000  1.0 0.1292318766
H  H197  1  0.64121000  0.10049000  0.70253000  1.0 0.1292318766
H  H198  1  0.89951000  0.54072000  0.70253000  1.0 0.1292318766
H  H199  1  0.79281000  0.97814000  0.69862000  1.0 0.1200414721
H  H200  1  0.02186000  0.81467000  0.69862000  1.0 0.1200414721
H  H201  1  0.18533000  0.20719000  0.69862000  1.0 0.1200414721
H  H202  1  0.20719000  0.02186000  0.19862000  1.0 0.1200414721
H  H203  1  0.97814000  0.18533000  0.19862000  1.0 0.1200414721
H  H204  1  0.81467000  0.79281000  0.19862000  1.0 0.1200414721
H  H205  1  0.48677000  0.12276000  0.75384000  1.0 0.1130280215
H  H206  1  0.87724000  0.36401000  0.75384000  1.0 0.1130280215
H  H207  1  0.63599000  0.51323000  0.75384000  1.0 0.1130280215
H  H208  1  0.51323000  0.87724000  0.25384000  1.0 0.1200414721
H  H209  1  0.12276000  0.63599000  0.25384000  1.0 0.1200414721
H  H210  1  0.36401000  0.48677000  0.25384000  1.0 0.1130280215
H  H211  1  0.73923000  0.90728000  0.75936000  1.0 0.1200414721
H  H212  1  0.09272000  0.83195000  0.75936000  1.0 0.1200414721
H  H213  1  0.16805000  0.26077000  0.75936000  1.0 0.1200414721
H  H214  1  0.26077000  0.09272000  0.25936000  1.0 0.1200414721
H  H215  1  0.90728000  0.16805000  0.25936000  1.0 0.1200414721
H  H216  1  0.83195000  0.73923000  0.25936000  1.0 0.1200414721
H  H217  1  0.70354000  0.72875000  0.43508000  1.0 0.1200414721
H  H218  1  0.27125000  0.97479000  0.43508000  1.0 0.1200414721
H  H219  1  0.02521000  0.29646000  0.43508000  1.0 0.1200414721
H  H220  1  0.29646000  0.27125000  0.93508000  1.0 0.1200414721
H  H221  1  0.72875000  0.02521000  0.93508000  1.0 0.1200414721
H  H222  1  0.97479000  0.70354000  0.93508000  1.0 0.1200414721
H  H223  1  0.67927000  0.76996000  0.36938000  1.0 0.1130280215
H  H224  1  0.23004000  0.90931000  0.36938000  1.0 0.1130280215
H  H225  1  0.09069000  0.32073000  0.36938000  1.0 0.1130280215
H  H226  1  0.32073000  0.23004000  0.86938000  1.0 0.1130280215
H  H227  1  0.76996000  0.09069000  0.86938000  1.0 0.1130280215
H  H228  1  0.90931000  0.67927000  0.86938000  1.0 0.1130280215
H  H229  1  0.55725000  0.60288000  0.26987000  1.0 0.1130280215
H  H230  1  0.39712000  0.95437000  0.26987000  1.0 0.1130280215
H  H231  1  0.04563000  0.44275000  0.26987000  1.0 0.1130280215
H  H232  1  0.44275000  0.39712000  0.76987000  1.0 0.1130280215
H  H233  1  0.60288000  0.04563000  0.76987000  1.0 0.1130280215
H  H234  1  0.95437000  0.55725000  0.76987000  1.0 0.1130280215
C  C1  1  0.52770000  0.08020000  0.59757000  1.0 0.5865355853
C  C2  1  0.91980000  0.44750000  0.59757000  1.0 0.5865355853
C  C3  1  0.55250000  0.47230000  0.59757000  1.0 0.5865355853
C  C4  1  0.47230000  0.91980000  0.09757000  1.0 0.5865355853
C  C5  1  0.08020000  0.55250000  0.09757000  1.0 0.5865355853
C  C6  1  0.44750000  0.52770000  0.09757000  1.0 0.5865355853
C  C7  1  0.32620000  0.82170000  0.40216000  1.0 0.0589828274
C  C8  1  0.17830000  0.50450000  0.40216000  1.0 0.0589828274
C  C9  1  0.49550000  0.67380000  0.40216000  1.0 0.0589828274
C  C10  1  0.67380000  0.17830000  0.90216000  1.0 0.0589828274
C  C11  1  0.82170000  0.49550000  0.90216000  1.0 0.0589828274
C  C12  1  0.50450000  0.32620000  0.90216000  1.0 0.0589828274
C  C13  1  0.28140000  0.79000000  0.44037000  1.0 0.051335885
C  C14  1  0.21000000  0.49140000  0.44037000  1.0 0.051335885
C  C15  1  0.50860000  0.71860000  0.44037000  1.0 0.051335885
C  C16  1  0.71860000  0.21000000  0.94037000  1.0 0.051335885
C  C17  1  0.79000000  0.50860000  0.94037000  1.0 0.051335885
C  C18  1  0.49140000  0.28140000  0.94037000  1.0 0.051335885
C  C19  1  0.98860000  0.66830000  0.53828000  1.0 0.6112879489
C  C20  1  0.33170000  0.32030000  0.53828000  1.0 0.6112879489
C  C21  1  0.67970000  0.01140000  0.53828000  1.0 0.6112879489
C  C22  1  0.01140000  0.33170000  0.03828000  1.0 0.6112879489
C  C23  1  0.66830000  0.67970000  0.03828000  1.0 0.6112879489
C  C24  1  0.32030000  0.98860000  0.03828000  1.0 0.6112879489
C  C25  1  0.12900000  0.73040000  0.53249000  1.0 0.2645042662
C  C26  1  0.26960000  0.39860000  0.53249000  1.0 0.2645042662
C  C27  1  0.60140000  0.87100000  0.53249000  1.0 0.2645042662
C  C28  1  0.87100000  0.26960000  0.03249000  1.0 0.2645042662
C  C29  1  0.73040000  0.60140000  0.03249000  1.0 0.2645042662
C  C30  1  0.39860000  0.12900000  0.03249000  1.0 0.2645042662
C  C31  1  0.31260000  0.81710000  0.48283000  1.0 -0.0261142168
C  C32  1  0.18290000  0.49550000  0.48283000  1.0 -0.0261142168
C  C33  1  0.50450000  0.68740000  0.48283000  1.0 -0.0261142168
C  C34  1  0.68740000  0.18290000  0.98283000  1.0 -0.0261142168
C  C35  1  0.81710000  0.50450000  0.98283000  1.0 -0.0261142168
C  C36  1  0.49550000  0.31260000  0.98283000  1.0 -0.0261142168
C  C37  1  0.47590000  0.78710000  0.75165000  1.0 0.2809881889
C  C38  1  0.21290000  0.68880000  0.75165000  1.0 0.2809881889
C  C39  1  0.31120000  0.52410000  0.75165000  1.0 0.2809881889
C  C40  1  0.52410000  0.21290000  0.25165000  1.0 0.2809881889
C  C41  1  0.78710000  0.31120000  0.25165000  1.0 0.2809881889
C  C42  1  0.68880000  0.47590000  0.25165000  1.0 0.2809881889
C  C43  1  0.51020000  0.96690000  0.44862000  1.0 0.5865355853
C  C44  1  0.03310000  0.54330000  0.44862000  1.0 0.5865355853
C  C45  1  0.45670000  0.48980000  0.44862000  1.0 0.5865355853
C  C46  1  0.48980000  0.03310000  0.94862000  1.0 0.5865355853
C  C47  1  0.96690000  0.45670000  0.94862000  1.0 0.5865355853
C  C48  1  0.54330000  0.51020000  0.94862000  1.0 0.5865355853
C  C49  1  0.19870000  0.79380000  0.52780000  1.0 -0.0261142168
C  C50  1  0.20620000  0.40490000  0.52780000  1.0 -0.0261142168
C  C51  1  0.59510000  0.80130000  0.52780000  1.0 -0.0261142168
C  C52  1  0.80130000  0.20620000  0.02780000  1.0 -0.0261142168
C  C53  1  0.79380000  0.59510000  0.02780000  1.0 -0.0261142168
C  C54  1  0.40490000  0.19870000  0.02780000  1.0 -0.0261142168
C  C55  1  0.50650000  0.83540000  0.71567000  1.0 -0.0898259088
C  C56  1  0.16460000  0.67110000  0.71567000  1.0 -0.0898259088
C  C57  1  0.32890000  0.49350000  0.71567000  1.0 -0.0898259088
C  C58  1  0.49350000  0.16460000  0.21567000  1.0 -0.0898259088
C  C59  1  0.83540000  0.32890000  0.21567000  1.0 -0.0898259088
C  C60  1  0.67110000  0.50650000  0.21567000  1.0 -0.0898259088
C  C61  1  0.40000000  0.87970000  0.40694000  1.0 -0.1466018534
C  C62  1  0.12030000  0.52030000  0.40694000  1.0 -0.1466018534
C  C63  1  0.47970000  0.60000000  0.40694000  1.0 -0.1466018534
C  C64  1  0.60000000  0.12030000  0.90694000  1.0 -0.1466018534
C  C65  1  0.87970000  0.47970000  0.90694000  1.0 -0.1466018534
C  C66  1  0.52030000  0.40000000  0.90694000  1.0 -0.1466018534
C  C67  1  0.48820000  0.96180000  0.64247000  1.0 0.2809881889
C  C68  1  0.03820000  0.52640000  0.64247000  1.0 0.2809881889
C  C69  1  0.47360000  0.51180000  0.64247000  1.0 0.2809881889
C  C70  1  0.51180000  0.03820000  0.14247000  1.0 0.2809881889
C  C71  1  0.96180000  0.47360000  0.14247000  1.0 0.2809881889
C  C72  1  0.52640000  0.48820000  0.14247000  1.0 0.2809881889
C  C73  1  0.26700000  0.78580000  0.52399000  1.0 -0.2468738309
C  C74  1  0.21420000  0.48120000  0.52399000  1.0 -0.2468738309
C  C75  1  0.51880000  0.73300000  0.52399000  1.0 -0.2468738309
C  C76  1  0.73300000  0.21420000  0.02399000  1.0 -0.2468738309
C  C77  1  0.78580000  0.51880000  0.02399000  1.0 -0.2468738309
C  C78  1  0.48120000  0.26700000  0.02399000  1.0 -0.2468738309
C  C79  1  0.06240000  0.73540000  0.53245000  1.0 -0.1602788549
C  C80  1  0.26460000  0.32700000  0.53245000  1.0 -0.1602788549
C  C81  1  0.67300000  0.93760000  0.53245000  1.0 -0.1602788549
C  C82  1  0.93760000  0.26460000  0.03245000  1.0 -0.1602788549
C  C83  1  0.73540000  0.67300000  0.03245000  1.0 -0.1602788549
C  C84  1  0.32700000  0.06240000  0.03245000  1.0 -0.1602788549
C  C85  1  0.50570000  0.03740000  0.63985000  1.0 -0.169801207
C  C86  1  0.96260000  0.46830000  0.63985000  1.0 -0.169801207
C  C87  1  0.53170000  0.49430000  0.63985000  1.0 -0.169801207
C  C88  1  0.49430000  0.96260000  0.13985000  1.0 -0.169801207
C  C89  1  0.03740000  0.53170000  0.13985000  1.0 -0.169801207
C  C90  1  0.46830000  0.50570000  0.13985000  1.0 -0.169801207
C  C91  1  0.38750000  0.87150000  0.48547000  1.0 0.2377339327
C  C92  1  0.12850000  0.51600000  0.48547000  1.0 0.2377339327
C  C93  1  0.48400000  0.61250000  0.48547000  1.0 0.2377339327
C  C94  1  0.61250000  0.12850000  0.98547000  1.0 0.2377339327
C  C95  1  0.87150000  0.48400000  0.98547000  1.0 0.2377339327
C  C96  1  0.51600000  0.38750000  0.98547000  1.0 0.2377339327
C  C97  1  0.47910000  0.03610000  0.71708000  1.0 0.051335885
C  C98  1  0.96390000  0.44300000  0.71708000  1.0 0.051335885
C  C99  1  0.55700000  0.52090000  0.71708000  1.0 0.051335885
C  C100  1  0.52090000  0.96390000  0.21708000  1.0 0.051335885
C  C101  1  0.03610000  0.55700000  0.21708000  1.0 0.051335885
C  C102  1  0.44300000  0.47910000  0.21708000  1.0 0.051335885
C  C103  1  0.58420000  0.87370000  0.70998000  1.0 0.0589828274
C  C104  1  0.12630000  0.71050000  0.70998000  1.0 0.0589828274
C  C105  1  0.28950000  0.41580000  0.70998000  1.0 0.0589828274
C  C106  1  0.41580000  0.12630000  0.20998000  1.0 0.0589828274
C  C107  1  0.87370000  0.28950000  0.20998000  1.0 0.0589828274
C  C108  1  0.71050000  0.58420000  0.20998000  1.0 0.0589828274
C  C109  1  0.45510000  0.84500000  0.68442000  1.0 0.1200414721
C  C110  1  0.15500000  0.61010000  0.68442000  1.0 0.1200414721
C  C111  1  0.38990000  0.54490000  0.68442000  1.0 0.1200414721
C  C112  1  0.54490000  0.15500000  0.18442000  1.0 0.1292318766
C  C113  1  0.84500000  0.38990000  0.18442000  1.0 0.1292318766
C  C114  1  0.61010000  0.45510000  0.18442000  1.0 0.1292318766
C  C115  1  0.49200000  0.73620000  0.82426000  1.0 0.6112879489
C  C116  1  0.26380000  0.75580000  0.82426000  1.0 0.6112879489
C  C117  1  0.24420000  0.50800000  0.82426000  1.0 0.6112879489
C  C118  1  0.50800000  0.26380000  0.32426000  1.0 0.6112879489
C  C119  1  0.73620000  0.24420000  0.32426000  1.0 0.6112879489
C  C120  1  0.75580000  0.49200000  0.32426000  1.0 0.6112879489
C  C121  1  0.43480000  0.92340000  0.76095000  1.0 -0.1406369588
C  C122  1  0.07660000  0.51140000  0.76095000  1.0 -0.1406369588
C  C123  1  0.48860000  0.56520000  0.76095000  1.0 -0.1406369588
C  C124  1  0.56520000  0.07660000  0.26095000  1.0 -0.1406369588
C  C125  1  0.92340000  0.48860000  0.26095000  1.0 -0.1406369588
C  C126  1  0.51140000  0.43480000  0.26095000  1.0 -0.1406369588
C  C127  1  0.52230000  0.78160000  0.78379000  1.0 -0.1602788549
C  C128  1  0.21840000  0.74070000  0.78379000  1.0 -0.1602788549
C  C129  1  0.25930000  0.47770000  0.78379000  1.0 -0.1602788549
C  C130  1  0.47770000  0.21840000  0.28379000  1.0 -0.1602788549
C  C131  1  0.78160000  0.25930000  0.28379000  1.0 -0.1602788549
C  C132  1  0.74070000  0.52230000  0.28379000  1.0 -0.1602788549
C  C133  1  0.64650000  0.55110000  0.47847000  1.0 -0.0729654253
C  C134  1  0.44890000  0.09540000  0.47847000  1.0 -0.0729654253
C  C135  1  0.90460000  0.35350000  0.47847000  1.0 -0.0729654253
C  C136  1  0.35350000  0.44890000  0.97847000  1.0 -0.0729654253
C  C137  1  0.55110000  0.90460000  0.97847000  1.0 -0.0729654253
C  C138  1  0.09540000  0.64650000  0.97847000  1.0 -0.0729654253
C  C139  1  0.46140000  0.96060000  0.72007000  1.0 0.051335885
C  C140  1  0.03940000  0.50080000  0.72007000  1.0 0.051335885
C  C141  1  0.49920000  0.53860000  0.72007000  1.0 0.051335885
C  C142  1  0.53860000  0.03940000  0.22007000  1.0 0.051335885
C  C143  1  0.96060000  0.49920000  0.22007000  1.0 0.051335885
C  C144  1  0.50080000  0.46140000  0.22007000  1.0 0.051335885
C  C145  1  0.43160000  0.90430000  0.44760000  1.0 -0.1602788549
C  C146  1  0.09570000  0.52730000  0.44760000  1.0 -0.1602788549
C  C147  1  0.47270000  0.56840000  0.44760000  1.0 -0.1602788549
C  C148  1  0.56840000  0.09570000  0.94760000  1.0 -0.1602788549
C  C149  1  0.90430000  0.47270000  0.94760000  1.0 -0.1602788549
C  C150  1  0.52730000  0.43160000  0.94760000  1.0 -0.1602788549
C  C151  1  0.68460000  0.53740000  0.50988000  1.0 -0.0484942199
C  C152  1  0.46260000  0.14720000  0.50988000  1.0 -0.0484942199
C  C153  1  0.85280000  0.31540000  0.50988000  1.0 -0.0484942199
C  C154  1  0.31540000  0.46260000  0.00988000  1.0 -0.0484942199
C  C155  1  0.53740000  0.85280000  0.00988000  1.0 -0.0484942199
C  C156  1  0.14720000  0.68460000  0.00988000  1.0 -0.0484942199
C  C157  1  0.65190000  0.67790000  0.33344000  1.0 0.0589828274
C  C158  1  0.32210000  0.97400000  0.33344000  1.0 0.0589828274
C  C159  1  0.02600000  0.34810000  0.33344000  1.0 0.0589828274
C  C160  1  0.34810000  0.32210000  0.83344000  1.0 0.0589828274
C  C161  1  0.67790000  0.02600000  0.83344000  1.0 0.0589828274
C  C162  1  0.97400000  0.65190000  0.83344000  1.0 0.0589828274
C  C163  1  0.20390000  0.86490000  0.52703000  1.0 0.051335885
C  C164  1  0.13510000  0.33900000  0.52703000  1.0 0.051335885
C  C165  1  0.66100000  0.79610000  0.52703000  1.0 0.051335885
C  C166  1  0.79610000  0.13510000  0.02703000  1.0 0.051335885
C  C167  1  0.86490000  0.66100000  0.02703000  1.0 0.051335885
C  C168  1  0.33900000  0.20390000  0.02703000  1.0 0.051335885
C  C169  1  0.20700000  0.73110000  0.43437000  1.0 -0.1221937762
C  C170  1  0.26890000  0.47590000  0.43437000  1.0 -0.1221937762
C  C171  1  0.52410000  0.79300000  0.43437000  1.0 -0.1221937762
C  C172  1  0.79300000  0.26890000  0.93437000  1.0 -0.1221937762
C  C173  1  0.73110000  0.52410000  0.93437000  1.0 -0.1221937762
C  C174  1  0.47590000  0.20700000  0.93437000  1.0 -0.1221937762
C  C175  1  0.63700000  0.70340000  0.29170000  1.0 0.0670487407
C  C176  1  0.29660000  0.93360000  0.29170000  1.0 0.0670487407
C  C177  1  0.06640000  0.36300000  0.29170000  1.0 0.0670487407
C  C178  1  0.36300000  0.29660000  0.79170000  1.0 0.0670487407
C  C179  1  0.70340000  0.06640000  0.79170000  1.0 0.0670487407
C  C180  1  0.93360000  0.63700000  0.79170000  1.0 0.0670487407
C  C181  1  0.59590000  0.83630000  0.11409000  1.0 -0.0261142168
C  C182  1  0.16370000  0.75960000  0.11409000  1.0 -0.0261142168
C  C183  1  0.24040000  0.40410000  0.11409000  1.0 -0.0261142168
C  C184  1  0.40410000  0.16370000  0.61409000  1.0 -0.0261142168
C  C185  1  0.83630000  0.24040000  0.61409000  1.0 -0.0261142168
C  C186  1  0.75960000  0.59590000  0.61409000  1.0 -0.0261142168
C  C187  1  0.58630000  0.73120000  0.13146000  1.0 0.1200414721
C  C188  1  0.26880000  0.85510000  0.13146000  1.0 0.1200414721
C  C189  1  0.14490000  0.41370000  0.13146000  1.0 0.1200414721
C  C190  1  0.41370000  0.26880000  0.63146000  1.0 0.1200414721
C  C191  1  0.73120000  0.14490000  0.63146000  1.0 0.1200414721
C  C192  1  0.85510000  0.58630000  0.63146000  1.0 0.1200414721
C  C193  1  0.76620000  0.61560000  0.46404000  1.0 0.102023137
C  C194  1  0.38440000  0.15060000  0.46404000  1.0 0.102023137
C  C195  1  0.84940000  0.23380000  0.46404000  1.0 0.102023137
C  C196  1  0.23380000  0.38440000  0.96404000  1.0 0.102023137
C  C197  1  0.61560000  0.84940000  0.96404000  1.0 0.102023137
C  C198  1  0.15060000  0.76620000  0.96404000  1.0 0.102023137
C  C199  1  0.50250000  0.07360000  0.67705000  1.0 -0.1602788549
C  C200  1  0.92640000  0.42890000  0.67705000  1.0 -0.1602788549
C  C201  1  0.57110000  0.49750000  0.67705000  1.0 -0.1602788549
C  C202  1  0.49750000  0.92640000  0.17705000  1.0 -0.1602788549
C  C203  1  0.07360000  0.57110000  0.17705000  1.0 -0.1602788549
C  C204  1  0.42890000  0.50250000  0.17705000  1.0 -0.1602788549
C  C205  1  0.17860000  0.70860000  0.39306000  1.0 -0.0898259088
C  C206  1  0.29140000  0.47000000  0.39306000  1.0 -0.0898259088
C  C207  1  0.53000000  0.82140000  0.39306000  1.0 -0.0898259088
C  C208  1  0.82140000  0.29140000  0.89306000  1.0 -0.0898259088
C  C209  1  0.70860000  0.53000000  0.89306000  1.0 -0.0898259088
C  C210  1  0.47000000  0.17860000  0.89306000  1.0 -0.0898259088
C  C211  1  0.27540000  0.99960000  0.52840000  1.0 -0.1004712144
C  C212  1  0.00040000  0.27580000  0.52840000  1.0 -0.1004712144
C  C213  1  0.72420000  0.72460000  0.52840000  1.0 -0.1004712144
C  C214  1  0.72460000  0.00040000  0.02840000  1.0 -0.1004712144
C  C215  1  0.99960000  0.72420000  0.02840000  1.0 -0.1004712144
C  C216  1  0.27580000  0.27540000  0.02840000  1.0 -0.1004712144
C  C217  1  0.68270000  0.62750000  0.41017000  1.0 0.1499292874
C  C218  1  0.37250000  0.05520000  0.41017000  1.0 0.1499292874
C  C219  1  0.94480000  0.31730000  0.41017000  1.0 0.1499292874
C  C220  1  0.31730000  0.37250000  0.91017000  1.0 0.1499292874
C  C221  1  0.62750000  0.94480000  0.91017000  1.0 0.1499292874
C  C222  1  0.05520000  0.68270000  0.91017000  1.0 0.1499292874
C  C223  1  0.61010000  0.74850000  0.21081000  1.0 0.1499292874
C  C224  1  0.25150000  0.86160000  0.21081000  1.0 0.1499292874
C  C225  1  0.13840000  0.38990000  0.21081000  1.0 0.1499292874
C  C226  1  0.38990000  0.25150000  0.71081000  1.0 0.1499292874
C  C227  1  0.74850000  0.13840000  0.71081000  1.0 0.1499292874
C  C228  1  0.86160000  0.61010000  0.71081000  1.0 0.1499292874
C  C229  1  0.62050000  0.91780000  0.67210000  1.0 -0.1406369588
C  C230  1  0.08220000  0.70270000  0.67210000  1.0 -0.1406369588
C  C231  1  0.29730000  0.37950000  0.67210000  1.0 -0.1406369588
C  C232  1  0.37950000  0.08220000  0.17210000  1.0 -0.1406369588
C  C233  1  0.91780000  0.29730000  0.17210000  1.0 -0.1406369588
C  C234  1  0.70270000  0.62050000  0.17210000  1.0 -0.1406369588
C  C235  1  0.59830000  0.82300000  0.77931000  1.0 -0.1275460262
C  C236  1  0.17700000  0.77530000  0.77931000  1.0 -0.1275460262
C  C237  1  0.22470000  0.40170000  0.77931000  1.0 -0.1275460262
C  C238  1  0.40170000  0.17700000  0.27931000  1.0 -0.1275460262
C  C239  1  0.82300000  0.22470000  0.27931000  1.0 -0.1275460262
C  C240  1  0.77530000  0.59830000  0.27931000  1.0 -0.1275460262
C  C241  1  0.46840000  0.92420000  0.68231000  1.0 -0.0898259088
C  C242  1  0.07580000  0.54420000  0.68231000  1.0 -0.0898259088
C  C243  1  0.45580000  0.53160000  0.68231000  1.0 -0.0898259088
C  C244  1  0.53160000  0.07580000  0.18231000  1.0 -0.0898259088
C  C245  1  0.92420000  0.45580000  0.18231000  1.0 -0.0898259088
C  C246  1  0.54420000  0.46840000  0.18231000  1.0 -0.0898259088
C  C247  1  0.27300000  0.93220000  0.52875000  1.0 -0.1275460262
C  C248  1  0.06780000  0.34080000  0.52875000  1.0 -0.1275460262
C  C249  1  0.65920000  0.72700000  0.52875000  1.0 -0.1275460262
C  C250  1  0.72700000  0.06780000  0.02875000  1.0 -0.1275460262
C  C251  1  0.93220000  0.65920000  0.02875000  1.0 -0.1275460262
C  C252  1  0.34080000  0.27300000  0.02875000  1.0 -0.1275460262
C  C253  1  0.63040000  0.86860000  0.74257000  1.0 0.0589828274
C  C254  1  0.13140000  0.76180000  0.74257000  1.0 0.0589828274
C  C255  1  0.23820000  0.36960000  0.74257000  1.0 0.0589828274
C  C256  1  0.36960000  0.13140000  0.24257000  1.0 0.0589828274
C  C257  1  0.86860000  0.23820000  0.24257000  1.0 0.0589828274
C  C258  1  0.76180000  0.63040000  0.24257000  1.0 0.0589828274
C  C259  1  0.29550000  0.79560000  0.36037000  1.0 -0.1406369588
C  C260  1  0.20440000  0.49990000  0.36037000  1.0 -0.1406369588
C  C261  1  0.50010000  0.70450000  0.36037000  1.0 -0.1406369588
C  C262  1  0.70450000  0.20440000  0.86037000  1.0 -0.1406369588
C  C263  1  0.79560000  0.50010000  0.86037000  1.0 -0.1406369588
C  C264  1  0.49990000  0.29550000  0.86037000  1.0 -0.1406369588
C  C265  1  0.69490000  0.95410000  0.66820000  1.0 -0.1004712144
C  C266  1  0.04590000  0.74080000  0.66820000  1.0 -0.1004712144
C  C267  1  0.25920000  0.30510000  0.66820000  1.0 -0.1004712144
C  C268  1  0.30510000  0.04590000  0.16820000  1.0 -0.1004712144
C  C269  1  0.95410000  0.25920000  0.16820000  1.0 -0.1004712144
C  C270  1  0.74080000  0.69490000  0.16820000  1.0 -0.1004712144
C  C271  1  0.60870000  0.83980000  0.15689000  1.0 -0.1099569286
C  C272  1  0.16020000  0.76890000  0.15689000  1.0 -0.1099569286
C  C273  1  0.23110000  0.39130000  0.15689000  1.0 -0.1099569286
C  C274  1  0.39130000  0.16020000  0.65689000  1.0 -0.1099569286
C  C275  1  0.83980000  0.23110000  0.65689000  1.0 -0.1099569286
C  C276  1  0.76890000  0.60870000  0.65689000  1.0 -0.1099569286
C  C277  1  0.13700000  0.86900000  0.52624000  1.0 0.051335885
C  C278  1  0.13100000  0.26800000  0.52624000  1.0 0.051335885
C  C279  1  0.73200000  0.86300000  0.52624000  1.0 0.051335885
C  C280  1  0.86300000  0.13100000  0.02624000  1.0 0.051335885
C  C281  1  0.86900000  0.73200000  0.02624000  1.0 0.051335885
C  C282  1  0.26800000  0.13700000  0.02624000  1.0 0.051335885
C  C283  1  0.06810000  0.80390000  0.52756000  1.0 -0.1466018534
C  C284  1  0.19610000  0.26420000  0.52756000  1.0 -0.1466018534
C  C285  1  0.73580000  0.93190000  0.52756000  1.0 -0.1466018534
C  C286  1  0.93190000  0.19610000  0.02756000  1.0 -0.1466018534
C  C287  1  0.80390000  0.73580000  0.02756000  1.0 -0.1466018534
C  C288  1  0.26420000  0.06810000  0.02756000  1.0 -0.1466018534
C  C289  1  0.43070000  0.96150000  0.79728000  1.0 -0.0729654253
C  C290  1  0.03850000  0.46920000  0.79728000  1.0 -0.0729654253
C  C291  1  0.53080000  0.56930000  0.79728000  1.0 -0.0729654253
C  C292  1  0.56930000  0.03850000  0.29728000  1.0 -0.0729654253
C  C293  1  0.96150000  0.53080000  0.29728000  1.0 -0.0729654253
C  C294  1  0.46920000  0.43070000  0.29728000  1.0 -0.0729654253
C  C295  1  0.22280000  0.74060000  0.35554000  1.0 -0.1099569286
C  C296  1  0.25940000  0.48220000  0.35554000  1.0 -0.1099569286
C  C297  1  0.51780000  0.77720000  0.35554000  1.0 -0.1099569286
C  C298  1  0.77720000  0.25940000  0.85554000  1.0 -0.1099569286
C  C299  1  0.74060000  0.51780000  0.85554000  1.0 -0.1099569286
C  C300  1  0.48220000  0.22280000  0.85554000  1.0 -0.1099569286
C  C301  1  0.14310000  0.94060000  0.52530000  1.0 -0.1406369588
C  C302  1  0.05940000  0.20250000  0.52530000  1.0 -0.1406369588
C  C303  1  0.79750000  0.85690000  0.52530000  1.0 -0.1406369588
C  C304  1  0.85690000  0.05940000  0.02530000  1.0 -0.1406369588
C  C305  1  0.94060000  0.79750000  0.02530000  1.0 -0.1406369588
C  C306  1  0.20250000  0.14310000  0.02530000  1.0 -0.1406369588
C  C307  1  0.65040000  0.58040000  0.37620000  1.0 -0.1406369588
C  C308  1  0.41960000  0.07000000  0.37620000  1.0 -0.1406369588
C  C309  1  0.93000000  0.34960000  0.37620000  1.0 -0.1406369588
C  C310  1  0.34960000  0.41960000  0.87620000  1.0 -0.1406369588
C  C311  1  0.58040000  0.93000000  0.87620000  1.0 -0.1406369588
C  C312  1  0.07000000  0.65040000  0.87620000  1.0 -0.1406369588
C  C313  1  0.21100000  0.00400000  0.52600000  1.0 -0.1099569286
C  C314  1  0.99600000  0.20700000  0.52600000  1.0 -0.1099569286
C  C315  1  0.79300000  0.78900000  0.52600000  1.0 -0.1099569286
C  C316  1  0.78900000  0.99600000  0.02600000  1.0 -0.1099569286
C  C317  1  0.00400000  0.79300000  0.02600000  1.0 -0.1099569286
C  C318  1  0.20700000  0.21100000  0.02600000  1.0 -0.1099569286
C  C319  1  0.63630000  0.60560000  0.33770000  1.0 -0.1275460262
C  C320  1  0.39440000  0.03070000  0.33770000  1.0 -0.1275460262
C  C321  1  0.96930000  0.36370000  0.33770000  1.0 -0.1275460262
C  C322  1  0.36370000  0.39440000  0.83770000  1.0 -0.1275460262
C  C323  1  0.60560000  0.96930000  0.83770000  1.0 -0.1275460262
C  C324  1  0.03070000  0.63630000  0.83770000  1.0 -0.1275460262
C  C325  1  0.66000000  0.80180000  0.24000000  1.0 -0.169801207
C  C326  1  0.19820000  0.85820000  0.24000000  1.0 -0.169801207
C  C327  1  0.14180000  0.34000000  0.24000000  1.0 -0.169801207
C  C328  1  0.34000000  0.19820000  0.74000000  1.0 -0.169801207
C  C329  1  0.80180000  0.14180000  0.74000000  1.0 -0.1752330687
C  C330  1  0.85820000  0.66000000  0.74000000  1.0 -0.1752330687
C  C331  1  0.67220000  0.77810000  0.28003000  1.0 -0.1275460262
C  C332  1  0.22190000  0.89410000  0.28003000  1.0 -0.1275460262
C  C333  1  0.10590000  0.32780000  0.28003000  1.0 -0.1275460262
C  C334  1  0.32780000  0.22190000  0.78003000  1.0 -0.1275460262
C  C335  1  0.77810000  0.10590000  0.78003000  1.0 -0.1275460262
C  C336  1  0.89410000  0.67220000  0.78003000  1.0 -0.1275460262
C  C337  1  0.45150000  0.03650000  0.79427000  1.0 -0.0898259088
C  C338  1  0.96350000  0.41500000  0.79427000  1.0 -0.0898259088
C  C339  1  0.58500000  0.54850000  0.79427000  1.0 -0.0898259088
C  C340  1  0.54850000  0.96350000  0.29427000  1.0 -0.0898259088
C  C341  1  0.03650000  0.58500000  0.29427000  1.0 -0.0898259088
C  C342  1  0.41500000  0.45150000  0.29427000  1.0 -0.0898259088
C  C343  1  0.57400000  0.67630000  0.22220000  1.0 -0.1602788549
C  C344  1  0.32370000  0.89770000  0.22220000  1.0 -0.1602788549
C  C345  1  0.10230000  0.42600000  0.22220000  1.0 -0.1602788549
C  C346  1  0.42600000  0.32370000  0.72220000  1.0 -0.1602788549
C  C347  1  0.67630000  0.10230000  0.72220000  1.0 -0.1602788549
C  C348  1  0.89770000  0.57400000  0.72220000  1.0 -0.1602788549
C  C349  1  0.74130000  0.95150000  0.70150000  1.0 -0.1004712144
C  C350  1  0.04850000  0.78980000  0.70150000  1.0 -0.1004712144
C  C351  1  0.21020000  0.25870000  0.70150000  1.0 -0.1004712144
C  C352  1  0.25870000  0.04850000  0.20150000  1.0 -0.1004712144
C  C353  1  0.95150000  0.21020000  0.20150000  1.0 -0.1004712144
C  C354  1  0.78980000  0.74130000  0.20150000  1.0 -0.1004712144
C  C355  1  0.47420000  0.07300000  0.75549000  1.0 -0.1602788549
C  C356  1  0.92700000  0.40120000  0.75549000  1.0 -0.1602788549
C  C357  1  0.59880000  0.52580000  0.75549000  1.0 -0.1602788549
C  C358  1  0.52580000  0.92700000  0.25549000  1.0 -0.1602788549
C  C359  1  0.07300000  0.59880000  0.25549000  1.0 -0.1602788549
C  C360  1  0.40120000  0.47420000  0.25549000  1.0 -0.1602788549
C  C361  1  0.70920000  0.90950000  0.73750000  1.0 -0.1406369588
C  C362  1  0.09050000  0.79970000  0.73750000  1.0 -0.1406369588
C  C363  1  0.20030000  0.29080000  0.73750000  1.0 -0.1406369588
C  C364  1  0.29080000  0.09050000  0.23750000  1.0 -0.1406369588
C  C365  1  0.90950000  0.20030000  0.23750000  1.0 -0.1406369588
C  C366  1  0.79970000  0.70920000  0.23750000  1.0 -0.1406369588
C  C367  1  0.68960000  0.69920000  0.41010000  1.0 -0.169801207
C  C368  1  0.30080000  0.99040000  0.41010000  1.0 -0.169801207
C  C369  1  0.00960000  0.31040000  0.41010000  1.0 -0.169801207
C  C370  1  0.31040000  0.30080000  0.91010000  1.0 -0.169801207
C  C371  1  0.69920000  0.00960000  0.91010000  1.0 -0.169801207
C  C372  1  0.99040000  0.68960000  0.91010000  1.0 -0.169801207
C  C373  1  0.67440000  0.72290000  0.37080000  1.0 -0.1221937762
C  C374  1  0.27710000  0.95150000  0.37080000  1.0 -0.1221937762
C  C375  1  0.04850000  0.32560000  0.37080000  1.0 -0.1221937762
C  C376  1  0.32560000  0.27710000  0.87080000  1.0 -0.1221937762
C  C377  1  0.72290000  0.04850000  0.87080000  1.0 -0.1221937762
C  C378  1  0.95150000  0.67440000  0.87080000  1.0 -0.1221937762
C  C379  1  0.58500000  0.65300000  0.26230000  1.0 -0.1221937762
C  C380  1  0.34700000  0.93200000  0.26230000  1.0 -0.1221937762
C  C381  1  0.06800000  0.41500000  0.26230000  1.0 -0.1221937762
C  C382  1  0.41500000  0.34700000  0.76230000  1.0 -0.1221937762
C  C383  1  0.65300000  0.06800000  0.76230000  1.0 -0.1221937762
C  C384  1  0.93200000  0.58500000  0.76230000  1.0 -0.1221937762
N  N1  1  0.75997000  0.57910000  0.50084000  1.0 -0.2962157504
N  N2  1  0.42090000  0.18087000  0.50084000  1.0 -0.2962157504
N  N3  1  0.81913000  0.24003000  0.50084000  1.0 -0.2962157504
N  N4  1  0.24003000  0.42090000  0.00084000  1.0 -0.2962157504
N  N5  1  0.57910000  0.81913000  0.00084000  1.0 -0.2962157504
N  N6  1  0.18087000  0.75997000  0.00084000  1.0 -0.2962157504
N  N7  1  0.57950000  0.76650000  0.09784000  1.0 -0.2794379916
N  N8  1  0.23350000  0.81300000  0.09784000  1.0 -0.2794379916
N  N9  1  0.18700000  0.42050000  0.09784000  1.0 -0.2794379916
N  N10  1  0.42050000  0.23350000  0.59784000  1.0 -0.2794379916
N  N11  1  0.76650000  0.18700000  0.59784000  1.0 -0.2794379916
N  N12  1  0.81300000  0.57950000  0.59784000  1.0 -0.2794379916
N  N13  1  0.69780000  0.59980000  0.44964000  1.0 0.0155791819
N  N14  1  0.40020000  0.09800000  0.44964000  1.0 0.0155791819
N  N15  1  0.90200000  0.30220000  0.44964000  1.0 0.0155791819
N  N16  1  0.30220000  0.40020000  0.94964000  1.0 0.0155791819
N  N17  1  0.59980000  0.90200000  0.94964000  1.0 0.0155791819
N  N18  1  0.09800000  0.69780000  0.94964000  1.0 0.0155791819
N  N19  1  0.59980000  0.77140000  0.16873000  1.0 0.009585811
N  N20  1  0.22860000  0.82840000  0.16873000  1.0 0.009585811
N  N21  1  0.17160000  0.40020000  0.16873000  1.0 0.009585811
N  N22  1  0.40020000  0.22860000  0.66873000  1.0 0.009585811
N  N23  1  0.77140000  0.17160000  0.66873000  1.0 0.009585811
N  N24  1  0.82840000  0.59980000  0.66873000  1.0 0.009585811
N  N25  1  0.83840000  0.48420000  0.51397000  1.0 -0.7697400477
N  N26  1  0.51580000  0.35420000  0.51397000  1.0 -0.7697400477
N  N27  1  0.64580000  0.16160000  0.51397000  1.0 -0.7697400477
N  N28  1  0.16160000  0.51580000  0.01397000  1.0 -0.7697400477
N  N29  1  0.48420000  0.64580000  0.01397000  1.0 -0.7697400477
N  N30  1  0.35420000  0.83840000  0.01397000  1.0 -0.7697400477
O  O1  1  0.51434000  0.04270000  0.56147000  1.0 -0.6389951981
O  O2  1  0.95730000  0.47164000  0.56147000  1.0 -0.6389951981
O  O3  1  0.52836000  0.48566000  0.56147000  1.0 -0.6389951981
O  O4  1  0.48566000  0.95730000  0.06147000  1.0 -0.6389951981
O  O5  1  0.04270000  0.52836000  0.06147000  1.0 -0.6389951981
O  O6  1  0.47164000  0.51434000  0.06147000  1.0 -0.6389951981
O  O7  1  0.49311000  0.92692000  0.60682000  1.0 -0.6096390512
O  O8  1  0.07308000  0.56619000  0.60682000  1.0 -0.6096390512
O  O9  1  0.43381000  0.50689000  0.60682000  1.0 -0.6096390512
O  O10  1  0.50689000  0.07308000  0.10682000  1.0 -0.6178654618
O  O11  1  0.92692000  0.43381000  0.10682000  1.0 -0.6178654618
O  O12  1  0.56619000  0.49311000  0.10682000  1.0 -0.6178654618
O  O13  1  0.54105000  0.99208000  0.48676000  1.0 -0.6389951981
O  O14  1  0.00792000  0.54897000  0.48676000  1.0 -0.6389951981
O  O15  1  0.45103000  0.45895000  0.48676000  1.0 -0.6389951981
O  O16  1  0.45895000  0.00792000  0.98676000  1.0 -0.6389951981
O  O17  1  0.99208000  0.45103000  0.98676000  1.0 -0.6389951981
O  O18  1  0.54897000  0.54105000  0.98676000  1.0 -0.6389951981
O  O19  1  0.98307000  0.61106000  0.55710000  1.0 -0.6178654618
O  O20  1  0.38894000  0.37201000  0.55710000  1.0 -0.6178654618
O  O21  1  0.62799000  0.01693000  0.55710000  1.0 -0.6178654618
O  O22  1  0.01693000  0.38894000  0.05710000  1.0 -0.6178654618
O  O23  1  0.61106000  0.62799000  0.05710000  1.0 -0.6178654618
O  O24  1  0.37201000  0.98307000  0.05710000  1.0 -0.6178654618
O  O25  1  0.12409000  0.66367000  0.53534000  1.0 -0.6096390512
O  O26  1  0.33633000  0.46042000  0.53534000  1.0 -0.6096390512
O  O27  1  0.53958000  0.87591000  0.53534000  1.0 -0.6096390512
O  O28  1  0.87591000  0.33633000  0.03534000  1.0 -0.6096390512
O  O29  1  0.66367000  0.53958000  0.03534000  1.0 -0.6096390512
O  O30  1  0.46042000  0.12409000  0.03534000  1.0 -0.6096390512
O  O31  1  0.41730000  0.89445000  0.52558000  1.0 -0.6178654618
O  O32  1  0.10555000  0.52285000  0.52558000  1.0 -0.6178654618
O  O33  1  0.47715000  0.58270000  0.52558000  1.0 -0.6178654618
O  O34  1  0.58270000  0.10555000  0.02558000  1.0 -0.6178654618
O  O35  1  0.89445000  0.47715000  0.02558000  1.0 -0.6178654618
O  O36  1  0.52285000  0.41730000  0.02558000  1.0 -0.6178654618
O  O37  1  0.93183000  0.67050000  0.52616000  1.0 -0.5072716799
O  O38  1  0.32950000  0.26133000  0.52616000  1.0 -0.5072716799
O  O39  1  0.73867000  0.06817000  0.52616000  1.0 -0.5072716799
O  O40  1  0.06817000  0.32950000  0.02616000  1.0 -0.5072716799
O  O41  1  0.67050000  0.73867000  0.02616000  1.0 -0.5072716799
O  O42  1  0.26133000  0.93183000  0.02616000  1.0 -0.5072716799
O  O43  1  0.40152000  0.74891000  0.75572000  1.0 -0.5865686562
O  O44  1  0.25109000  0.65261000  0.75572000  1.0 -0.5865686562
O  O45  1  0.34739000  0.59848000  0.75572000  1.0 -0.5865686562
O  O46  1  0.59848000  0.25109000  0.25572000  1.0 -0.5865686562
O  O47  1  0.74891000  0.34739000  0.25572000  1.0 -0.5865686562
O  O48  1  0.65261000  0.40152000  0.25572000  1.0 -0.5865686562
O  O49  1  0.55430000  0.14769000  0.59755000  1.0 -0.5072716799
O  O50  1  0.85231000  0.40661000  0.59755000  1.0 -0.5072716799
O  O51  1  0.59339000  0.44570000  0.59755000  1.0 -0.5072716799
O  O52  1  0.44570000  0.85231000  0.09755000  1.0 -0.5072716799
O  O53  1  0.14769000  0.59339000  0.09755000  1.0 -0.5072716799
O  O54  1  0.40661000  0.55430000  0.09755000  1.0 -0.5072716799
O  O55  1  0.42038000  0.69468000  0.82862000  1.0 -0.6096390512
O  O56  1  0.30532000  0.72570000  0.82862000  1.0 -0.6096390512
O  O57  1  0.27430000  0.57962000  0.82862000  1.0 -0.6096390512
O  O58  1  0.57962000  0.30532000  0.32862000  1.0 -0.6096390512
O  O59  1  0.69468000  0.27430000  0.32862000  1.0 -0.6096390512
O  O60  1  0.72570000  0.42038000  0.32862000  1.0 -0.6096390512
O  O61  1  0.54313000  0.99447000  0.41456000  1.0 -0.500126126
O  O62  1  0.00553000  0.54866000  0.41456000  1.0 -0.500126126
O  O63  1  0.45134000  0.45687000  0.41456000  1.0 -0.500126126
O  O64  1  0.45687000  0.00553000  0.91456000  1.0 -0.500126126
O  O65  1  0.99447000  0.45134000  0.91456000  1.0 -0.500126126
O  O66  1  0.54866000  0.54313000  0.91456000  1.0 -0.500126126
O  O67  1  0.53480000  0.73940000  0.85348000  1.0 -0.5210148122
O  O68  1  0.26060000  0.79540000  0.85348000  1.0 -0.5210148122
O  O69  1  0.20460000  0.46520000  0.85348000  1.0 -0.5210148122
O  O70  1  0.46520000  0.26060000  0.35348000  1.0 -0.5210148122
O  O71  1  0.73940000  0.20460000  0.35348000  1.0 -0.5210148122
O  O72  1  0.79540000  0.53480000  0.35348000  1.0 -0.5210148122
