# DDEC6 charges by PACMAN v1.1 (https://github.com/mtap-research/PACMAN-charge/)
data_UDOKIL_FSR_pacman
_symmetry_space_group_name_H-M   'P 1'
_cell_length_a   20.76780000
_cell_length_b   20.76780000
_cell_length_c   30.74870000
_cell_angle_alpha   90.00000000
_cell_angle_beta   90.00000000
_cell_angle_gamma   120.00000000
_symmetry_Int_Tables_number   1
_chemical_formula_structural   Ti4Zn4H141C192N19O39
_chemical_formula_sum   'Ti8 Zn8 H282 C384 N38 O78'
_cell_volume   11485.19508744
_cell_formula_units_Z   2
loop_
 _symmetry_equiv_pos_site_id
 _symmetry_equiv_pos_as_xyz
  1  'x, y, z'
loop_
 _atom_site_type_symbol
 _atom_site_label
 _atom_site_symmetry_multiplicity
 _atom_site_fract_x
 _atom_site_fract_y
 _atom_site_fract_z
 _atom_site_occupancy
 _atom_site_charge
Ti  Ti1  1  0.56747000  0.51376000  0.44425000  1.0 1.9090628574
Ti  Ti2  1  0.48624000  0.05371000  0.44425000  1.0 1.9090628574
Ti  Ti3  1  0.94629000  0.43253000  0.44425000  1.0 1.9090628574
Ti  Ti4  1  0.43253000  0.48624000  0.94425000  1.0 1.9090628574
Ti  Ti5  1  0.51376000  0.94629000  0.94425000  1.0 1.9090628574
Ti  Ti6  1  0.05371000  0.56747000  0.94425000  1.0 1.9090628574
Ti  Ti7  1  0.66666667  0.33333333  0.20325000  1.0 1.9090628574
Ti  Ti8  1  0.33333333  0.66666667  0.70325000  1.0 1.9090628574
Zn  Zn1  1  0.33333333  0.66666667  0.54831000  1.0 0.7434243659
Zn  Zn2  1  0.66666667  0.33333333  0.04831000  1.0 0.7434243659
Zn  Zn3  1  0.26678000  0.84034000  0.45381000  1.0 0.7434243659
Zn  Zn4  1  0.15966000  0.42644000  0.45381000  1.0 0.7434243659
Zn  Zn5  1  0.57356000  0.73322000  0.45381000  1.0 0.7434243659
Zn  Zn6  1  0.73322000  0.15966000  0.95381000  1.0 0.7434243659
Zn  Zn7  1  0.84034000  0.57356000  0.95381000  1.0 0.7434243659
Zn  Zn8  1  0.42644000  0.26678000  0.95381000  1.0 0.7434243659
H  H1  1  0.41081000  0.78999000  0.57726000  1.0 0.3064240714
H  H2  1  0.21001000  0.62082000  0.57726000  1.0 0.3064240714
H  H3  1  0.37918000  0.58919000  0.57726000  1.0 0.3064240714
H  H4  1  0.58919000  0.21001000  0.07726000  1.0 0.3064240714
H  H5  1  0.78999000  0.37918000  0.07726000  1.0 0.3064240714
H  H6  1  0.62082000  0.41081000  0.07726000  1.0 0.3064240714
H  H7  1  0.45454000  0.77320000  0.54733000  1.0 0.2611535539
H  H8  1  0.22680000  0.68134000  0.54733000  1.0 0.2611535539
H  H9  1  0.31866000  0.54546000  0.54733000  1.0 0.2611535539
H  H10  1  0.54546000  0.22680000  0.04733000  1.0 0.2611535539
H  H11  1  0.77320000  0.31866000  0.04733000  1.0 0.2611535539
H  H12  1  0.68134000  0.45454000  0.04733000  1.0 0.2611535539
H  H13  1  0.44123000  0.74381000  0.59135000  1.0 0.2972457955
H  H14  1  0.25619000  0.69742000  0.59135000  1.0 0.2972457955
H  H15  1  0.30258000  0.55877000  0.59135000  1.0 0.2972457955
H  H16  1  0.55877000  0.25619000  0.09135000  1.0 0.2972457955
H  H17  1  0.74381000  0.30258000  0.09135000  1.0 0.2972457955
H  H18  1  0.69742000  0.44123000  0.09135000  1.0 0.2972457955
H  H19  1  0.34121000  0.71043000  0.45443000  1.0 0.270512859
H  H20  1  0.28957000  0.63078000  0.45443000  1.0 0.270512859
H  H21  1  0.36922000  0.65879000  0.45443000  1.0 0.270512859
H  H22  1  0.65879000  0.28957000  0.95443000  1.0 0.270512859
H  H23  1  0.71043000  0.36922000  0.95443000  1.0 0.270512859
H  H24  1  0.63078000  0.34121000  0.95443000  1.0 0.270512859
H  H25  1  0.39890000  0.90007000  0.58550000  1.0 0.3200067398
H  H26  1  0.09993000  0.49883000  0.58550000  1.0 0.3200067398
H  H27  1  0.50117000  0.60110000  0.58550000  1.0 0.3200067398
H  H28  1  0.60110000  0.09993000  0.08550000  1.0 0.3200067398
H  H29  1  0.90007000  0.50117000  0.08550000  1.0 0.3200067398
H  H30  1  0.49883000  0.39890000  0.08550000  1.0 0.3200067398
H  H31  1  0.32901000  0.84299000  0.58938000  1.0 0.3200067398
H  H32  1  0.15701000  0.48602000  0.58938000  1.0 0.3200067398
H  H33  1  0.51398000  0.67099000  0.58938000  1.0 0.3200067398
H  H34  1  0.67099000  0.15701000  0.08938000  1.0 0.3200067398
H  H35  1  0.84299000  0.51398000  0.08938000  1.0 0.3200067398
H  H36  1  0.48602000  0.32901000  0.08938000  1.0 0.3200067398
H  H37  1  0.34282000  0.81062000  0.50025000  1.0 0.2915995519
H  H38  1  0.18938000  0.53220000  0.50025000  1.0 0.2915995519
H  H39  1  0.46780000  0.65718000  0.50025000  1.0 0.2915995519
H  H40  1  0.65718000  0.18938000  0.00025000  1.0 0.2915995519
H  H41  1  0.81062000  0.46780000  0.00025000  1.0 0.2915995519
H  H42  1  0.53220000  0.34282000  0.00025000  1.0 0.2915995519
H  H43  1  0.38717000  0.88873000  0.48876000  1.0 0.3200067398
H  H44  1  0.11127000  0.49844000  0.48876000  1.0 0.3200067398
H  H45  1  0.50156000  0.61283000  0.48876000  1.0 0.3200067398
H  H46  1  0.61283000  0.11127000  0.98876000  1.0 0.3200067398
H  H47  1  0.88873000  0.50156000  0.98876000  1.0 0.3200067398
H  H48  1  0.49844000  0.38717000  0.98876000  1.0 0.3200067398
H  H49  1  0.37907000  0.83193000  0.45806000  1.0 0.2972457955
H  H50  1  0.16807000  0.54714000  0.45806000  1.0 0.2972457955
H  H51  1  0.45286000  0.62093000  0.45806000  1.0 0.2972457955
H  H52  1  0.62093000  0.16807000  0.95806000  1.0 0.2972457955
H  H53  1  0.83193000  0.45286000  0.95806000  1.0 0.2972457955
H  H54  1  0.54714000  0.37907000  0.95806000  1.0 0.2972457955
H  H55  1  0.48560000  0.29895000  0.44302000  1.0 0.1300309058
H  H56  1  0.70105000  0.18665000  0.44302000  1.0 0.1300309058
H  H57  1  0.81335000  0.51440000  0.44302000  1.0 0.1300309058
H  H58  1  0.51440000  0.70105000  0.94302000  1.0 0.1300309058
H  H59  1  0.29895000  0.81335000  0.94302000  1.0 0.1300309058
H  H60  1  0.18665000  0.48560000  0.94302000  1.0 0.1300309058
H  H61  1  0.51544000  0.25169000  0.46572000  1.0 0.1300309058
H  H62  1  0.74831000  0.26375000  0.46572000  1.0 0.1300309058
H  H63  1  0.73625000  0.48456000  0.46572000  1.0 0.1300309058
H  H64  1  0.48456000  0.74831000  0.96572000  1.0 0.1300309058
H  H65  1  0.25169000  0.73625000  0.96572000  1.0 0.1300309058
H  H66  1  0.26375000  0.51544000  0.96572000  1.0 0.1300309058
H  H67  1  0.52539000  0.42855000  0.60852000  1.0 0.1121635107
H  H68  1  0.57145000  0.09684000  0.60852000  1.0 0.1121635107
H  H69  1  0.90316000  0.47461000  0.60852000  1.0 0.1121635107
H  H70  1  0.47461000  0.57145000  0.10852000  1.0 0.1121635107
H  H71  1  0.42855000  0.90316000  0.10852000  1.0 0.1121635107
H  H72  1  0.09684000  0.52539000  0.10852000  1.0 0.1121635107
H  H73  1  0.59581000  0.40391000  0.29845000  1.0 0.1300309058
H  H74  1  0.59609000  0.19190000  0.29845000  1.0 0.1300309058
H  H75  1  0.80810000  0.40419000  0.29845000  1.0 0.1300309058
H  H76  1  0.40419000  0.59609000  0.79845000  1.0 0.1300309058
H  H77  1  0.40391000  0.80810000  0.79845000  1.0 0.1300309058
H  H78  1  0.19190000  0.59581000  0.79845000  1.0 0.1300309058
H  H79  1  0.63516000  0.46086000  0.33629000  1.0 0.1300309058
H  H80  1  0.53914000  0.17430000  0.33629000  1.0 0.1300309058
H  H81  1  0.82570000  0.36484000  0.33629000  1.0 0.1300309058
H  H82  1  0.36484000  0.53914000  0.83629000  1.0 0.1300309058
H  H83  1  0.46086000  0.82570000  0.83629000  1.0 0.1300309058
H  H84  1  0.17430000  0.63516000  0.83629000  1.0 0.1300309058
H  H85  1  0.06517000  0.59807000  0.51405000  1.0 0.1446799735
H  H86  1  0.40193000  0.46710000  0.51405000  1.0 0.1446799735
H  H87  1  0.53290000  0.93483000  0.51405000  1.0 0.1446799735
H  H88  1  0.93483000  0.40193000  0.01405000  1.0 0.1446799735
H  H89  1  0.59807000  0.53290000  0.01405000  1.0 0.1446799735
H  H90  1  0.46710000  0.06517000  0.01405000  1.0 0.1446799735
H  H91  1  0.80700000  0.62961000  0.19039000  1.0 0.11911649
H  H92  1  0.37039000  0.17739000  0.19039000  1.0 0.11911649
H  H93  1  0.82261000  0.19300000  0.19039000  1.0 0.11911649
H  H94  1  0.19300000  0.37039000  0.69039000  1.0 0.11911649
H  H95  1  0.62961000  0.82261000  0.69039000  1.0 0.11911649
H  H96  1  0.17739000  0.80700000  0.69039000  1.0 0.11911649
H  H97  1  0.74128000  0.71546000  0.35062000  1.0 0.1121635107
H  H98  1  0.28454000  0.02582000  0.35062000  1.0 0.1121635107
H  H99  1  0.97418000  0.25872000  0.35062000  1.0 0.1121635107
H  H100  1  0.25872000  0.28454000  0.85062000  1.0 0.1121635107
H  H101  1  0.71546000  0.97418000  0.85062000  1.0 0.1121635107
H  H102  1  0.02582000  0.74128000  0.85062000  1.0 0.1121635107
H  H103  1  0.54836000  0.41530000  0.23000000  1.0 0.11911649
H  H104  1  0.58470000  0.13306000  0.23000000  1.0 0.11911649
H  H105  1  0.86694000  0.45164000  0.23000000  1.0 0.11911649
H  H106  1  0.45164000  0.58470000  0.73000000  1.0 0.11911649
H  H107  1  0.41530000  0.86694000  0.73000000  1.0 0.11911649
H  H108  1  0.13306000  0.54836000  0.73000000  1.0 0.11911649
H  H109  1  0.17001000  0.81361000  0.53881000  1.0 0.1300309058
H  H110  1  0.18639000  0.35640000  0.53881000  1.0 0.1300309058
H  H111  1  0.64360000  0.82999000  0.53881000  1.0 0.1300309058
H  H112  1  0.82999000  0.18639000  0.03881000  1.0 0.1300309058
H  H113  1  0.81361000  0.64360000  0.03881000  1.0 0.1300309058
H  H114  1  0.35640000  0.17001000  0.03881000  1.0 0.1300309058
H  H115  1  0.15626000  0.66387000  0.45599000  1.0 0.1300309058
H  H116  1  0.33613000  0.49239000  0.45599000  1.0 0.1300309058
H  H117  1  0.50761000  0.84374000  0.45599000  1.0 0.1300309058
H  H118  1  0.84374000  0.33613000  0.95599000  1.0 0.1300309058
H  H119  1  0.66387000  0.50761000  0.95599000  1.0 0.1300309058
H  H120  1  0.49239000  0.15626000  0.95599000  1.0 0.1300309058
H  H121  1  0.90946000  0.59499000  0.86187000  1.0 0.1300309058
H  H122  1  0.40501000  0.31447000  0.86187000  1.0 0.1300309058
H  H123  1  0.68553000  0.09054000  0.86187000  1.0 0.1300309058
H  H124  1  0.09054000  0.40501000  0.36187000  1.0 0.1300309058
H  H125  1  0.59499000  0.68553000  0.36187000  1.0 0.1300309058
H  H126  1  0.31447000  0.90946000  0.36187000  1.0 0.1300309058
H  H127  1  0.39603000  0.51462000  0.31613000  1.0 0.1121635107
H  H128  1  0.48538000  0.88141000  0.31613000  1.0 0.1121635107
H  H129  1  0.11859000  0.60397000  0.31613000  1.0 0.1121635107
H  H130  1  0.60397000  0.48538000  0.81613000  1.0 0.1121635107
H  H131  1  0.51462000  0.11859000  0.81613000  1.0 0.1121635107
H  H132  1  0.88141000  0.39603000  0.81613000  1.0 0.1121635107
H  H133  1  0.08043000  0.60511000  0.59945000  1.0 0.1300309058
H  H134  1  0.39489000  0.47532000  0.59945000  1.0 0.1300309058
H  H135  1  0.52468000  0.91957000  0.59945000  1.0 0.1300309058
H  H136  1  0.91957000  0.39489000  0.09945000  1.0 0.1300309058
H  H137  1  0.60511000  0.52468000  0.09945000  1.0 0.1300309058
H  H138  1  0.47532000  0.08043000  0.09945000  1.0 0.1300309058
H  H139  1  0.47663000  0.40504000  0.17108000  1.0 0.11911649
H  H140  1  0.59496000  0.07159000  0.17108000  1.0 0.11911649
H  H141  1  0.92841000  0.52337000  0.17108000  1.0 0.11911649
H  H142  1  0.52337000  0.59496000  0.67108000  1.0 0.11911649
H  H143  1  0.40504000  0.92841000  0.67108000  1.0 0.11911649
H  H144  1  0.07159000  0.47663000  0.67108000  1.0 0.11911649
H  H145  1  0.46459000  0.17650000  0.53337000  1.0 0.11911649
H  H146  1  0.82350000  0.28809000  0.53337000  1.0 0.11911649
H  H147  1  0.71191000  0.53541000  0.53337000  1.0 0.11911649
H  H148  1  0.53541000  0.82350000  0.03337000  1.0 0.11911649
H  H149  1  0.17650000  0.71191000  0.03337000  1.0 0.11911649
H  H150  1  0.28809000  0.46459000  0.03337000  1.0 0.11911649
H  H151  1  0.67851000  0.59063000  0.34376000  1.0 0.11911649
H  H152  1  0.40937000  0.08788000  0.34376000  1.0 0.11911649
H  H153  1  0.91212000  0.32149000  0.34376000  1.0 0.11911649
H  H154  1  0.32149000  0.40937000  0.84376000  1.0 0.11911649
H  H155  1  0.59063000  0.91212000  0.84376000  1.0 0.11911649
H  H156  1  0.08788000  0.67851000  0.84376000  1.0 0.11911649
H  H157  1  0.49710000  0.32095000  0.65514000  1.0 0.11911649
H  H158  1  0.67905000  0.17615000  0.65514000  1.0 0.11911649
H  H159  1  0.82385000  0.50290000  0.65514000  1.0 0.11911649
H  H160  1  0.50290000  0.67905000  0.15514000  1.0 0.11911649
H  H161  1  0.32095000  0.82385000  0.15514000  1.0 0.11911649
H  H162  1  0.17615000  0.49710000  0.15514000  1.0 0.11911649
H  H163  1  0.45399000  0.12929000  0.60222000  1.0 0.1121635107
H  H164  1  0.87071000  0.32470000  0.60222000  1.0 0.1121635107
H  H165  1  0.67530000  0.54601000  0.60222000  1.0 0.1121635107
H  H166  1  0.54601000  0.87071000  0.10222000  1.0 0.1121635107
H  H167  1  0.12929000  0.67530000  0.10222000  1.0 0.1121635107
H  H168  1  0.32470000  0.45399000  0.10222000  1.0 0.1121635107
H  H169  1  0.47145000  0.20204000  0.66288000  1.0 0.1121635107
H  H170  1  0.79796000  0.26941000  0.66288000  1.0 0.1121635107
H  H171  1  0.73059000  0.52855000  0.66288000  1.0 0.1121635107
H  H172  1  0.52855000  0.79796000  0.16288000  1.0 0.1121635107
H  H173  1  0.20204000  0.73059000  0.16288000  1.0 0.1121635107
H  H174  1  0.26941000  0.47145000  0.16288000  1.0 0.1121635107
H  H175  1  0.82834000  0.67203000  0.75477000  1.0 0.1300309058
H  H176  1  0.32797000  0.15631000  0.75477000  1.0 0.1300309058
H  H177  1  0.84369000  0.17166000  0.75477000  1.0 0.1300309058
H  H178  1  0.17166000  0.32797000  0.25477000  1.0 0.1300309058
H  H179  1  0.67203000  0.84369000  0.25477000  1.0 0.1300309058
H  H180  1  0.15631000  0.82834000  0.25477000  1.0 0.1300309058
H  H181  1  0.36815000  0.48494000  0.23822000  1.0 0.1121635107
H  H182  1  0.51506000  0.88321000  0.23822000  1.0 0.1121635107
H  H183  1  0.11679000  0.63185000  0.23822000  1.0 0.1121635107
H  H184  1  0.63185000  0.51506000  0.73822000  1.0 0.1121635107
H  H185  1  0.48494000  0.11679000  0.73822000  1.0 0.1121635107
H  H186  1  0.88321000  0.36815000  0.73822000  1.0 0.1121635107
H  H187  1  0.39192000  0.44729000  0.17411000  1.0 0.11911649
H  H188  1  0.55271000  0.94463000  0.17411000  1.0 0.11911649
H  H189  1  0.05537000  0.60808000  0.17411000  1.0 0.11911649
H  H190  1  0.60808000  0.55271000  0.67411000  1.0 0.11911649
H  H191  1  0.44729000  0.05537000  0.67411000  1.0 0.11911649
H  H192  1  0.94463000  0.39192000  0.67411000  1.0 0.11911649
H  H193  1  0.93292000  0.56375000  0.79371000  1.0 0.11911649
H  H194  1  0.43625000  0.36917000  0.79371000  1.0 0.11911649
H  H195  1  0.63083000  0.06708000  0.79371000  1.0 0.11911649
H  H196  1  0.06708000  0.43625000  0.29371000  1.0 0.11911649
H  H197  1  0.56375000  0.63083000  0.29371000  1.0 0.11911649
H  H198  1  0.36917000  0.93292000  0.29371000  1.0 0.11911649
H  H199  1  0.01920000  0.58471000  0.66547000  1.0 0.1121635107
H  H200  1  0.41529000  0.43449000  0.66547000  1.0 0.1121635107
H  H201  1  0.56551000  0.98080000  0.66547000  1.0 0.1121635107
H  H202  1  0.98080000  0.41529000  0.16547000  1.0 0.1121635107
H  H203  1  0.58471000  0.56551000  0.16547000  1.0 0.1121635107
H  H204  1  0.43449000  0.01920000  0.16547000  1.0 0.1121635107
H  H205  1  0.27520000  0.32015000  0.46356000  1.0 0.101914304
H  H206  1  0.67985000  0.95505000  0.46356000  1.0 0.101914304
H  H207  1  0.04495000  0.72480000  0.46356000  1.0 0.101914304
H  H208  1  0.72480000  0.67985000  0.96356000  1.0 0.101914304
H  H209  1  0.32015000  0.04495000  0.96356000  1.0 0.101914304
H  H210  1  0.95505000  0.27520000  0.96356000  1.0 0.101914304
H  H211  1  0.38266000  0.31728000  0.46363000  1.0 0.11911649
H  H212  1  0.68272000  0.06538000  0.46363000  1.0 0.11911649
H  H213  1  0.93462000  0.61734000  0.46363000  1.0 0.11911649
H  H214  1  0.61734000  0.68272000  0.96363000  1.0 0.11911649
H  H215  1  0.31728000  0.93462000  0.96363000  1.0 0.11911649
H  H216  1  0.06538000  0.38266000  0.96363000  1.0 0.11911649
H  H217  1  0.81735000  0.79315000  0.29373000  1.0 0.1121635107
H  H218  1  0.20685000  0.02420000  0.29373000  1.0 0.1121635107
H  H219  1  0.97580000  0.18265000  0.29373000  1.0 0.1121635107
H  H220  1  0.18265000  0.20685000  0.79373000  1.0 0.1121635107
H  H221  1  0.79315000  0.97580000  0.79373000  1.0 0.1121635107
H  H222  1  0.02420000  0.81735000  0.79373000  1.0 0.1121635107
H  H223  1  0.21712000  0.02331000  0.46193000  1.0 0.11911649
H  H224  1  0.97669000  0.19381000  0.46193000  1.0 0.11911649
H  H225  1  0.80619000  0.78288000  0.46193000  1.0 0.11911649
H  H226  1  0.78288000  0.97669000  0.96193000  1.0 0.11911649
H  H227  1  0.02331000  0.80619000  0.96193000  1.0 0.11911649
H  H228  1  0.19381000  0.21712000  0.96193000  1.0 0.11911649
H  H229  1  0.88467000  0.69037000  0.68765000  1.0 0.11911649
H  H230  1  0.30963000  0.19430000  0.68765000  1.0 0.11911649
H  H231  1  0.80570000  0.11533000  0.68765000  1.0 0.11911649
H  H232  1  0.11533000  0.30963000  0.18765000  1.0 0.11911649
H  H233  1  0.69037000  0.80570000  0.18765000  1.0 0.11911649
H  H234  1  0.19430000  0.88467000  0.18765000  1.0 0.11911649
H  H235  1  0.82986000  0.73987000  0.23098000  1.0 0.11911649
H  H236  1  0.26013000  0.08999000  0.23098000  1.0 0.11911649
H  H237  1  0.91001000  0.17014000  0.23098000  1.0 0.11911649
H  H238  1  0.17014000  0.26013000  0.73098000  1.0 0.11911649
H  H239  1  0.73987000  0.91001000  0.73098000  1.0 0.11911649
H  H240  1  0.08999000  0.82986000  0.73098000  1.0 0.11911649
H  H241  1  0.15162000  0.09735000  0.46434000  1.0 0.1121635107
H  H242  1  0.90265000  0.05427000  0.46434000  1.0 0.1121635107
H  H243  1  0.94573000  0.84838000  0.46434000  1.0 0.1121635107
H  H244  1  0.84838000  0.90265000  0.96434000  1.0 0.1121635107
H  H245  1  0.09735000  0.94573000  0.96434000  1.0 0.1121635107
H  H246  1  0.05427000  0.15162000  0.96434000  1.0 0.1121635107
H  H247  1  0.98233000  0.75049000  0.64242000  1.0 0.11911649
H  H248  1  0.24951000  0.23184000  0.64242000  1.0 0.11911649
H  H249  1  0.76816000  0.01767000  0.64242000  1.0 0.11911649
H  H250  1  0.01767000  0.24951000  0.14242000  1.0 0.11911649
H  H251  1  0.75049000  0.76816000  0.14242000  1.0 0.11911649
H  H252  1  0.23184000  0.98233000  0.14242000  1.0 0.11911649
H  H253  1  0.73840000  0.60305000  0.81154000  1.0 0.1300309058
H  H254  1  0.39695000  0.13535000  0.81154000  1.0 0.1300309058
H  H255  1  0.86465000  0.26160000  0.81154000  1.0 0.1300309058
H  H256  1  0.26160000  0.39695000  0.31154000  1.0 0.1300309058
H  H257  1  0.60305000  0.86465000  0.31154000  1.0 0.1300309058
H  H258  1  0.13535000  0.73840000  0.31154000  1.0 0.1300309058
H  H259  1  0.71684000  0.57361000  0.88934000  1.0 0.1300309058
H  H260  1  0.42639000  0.14323000  0.88934000  1.0 0.1300309058
H  H261  1  0.85677000  0.28316000  0.88934000  1.0 0.1300309058
H  H262  1  0.28316000  0.42639000  0.38934000  1.0 0.1300309058
H  H263  1  0.57361000  0.85677000  0.38934000  1.0 0.1300309058
H  H264  1  0.14323000  0.71684000  0.38934000  1.0 0.1300309058
H  H265  1  0.02715000  0.75856000  0.57105000  1.0 0.1300309058
H  H266  1  0.24144000  0.26859000  0.57105000  1.0 0.1300309058
H  H267  1  0.73141000  0.97285000  0.57105000  1.0 0.1300309058
H  H268  1  0.97285000  0.24144000  0.07105000  1.0 0.1300309058
H  H269  1  0.75856000  0.73141000  0.07105000  1.0 0.1300309058
H  H270  1  0.26859000  0.02715000  0.07105000  1.0 0.1300309058
H  H271  1  0.99175000  0.58714000  0.72740000  1.0 0.1121635107
H  H272  1  0.41286000  0.40461000  0.72740000  1.0 0.1121635107
H  H273  1  0.59539000  0.00825000  0.72740000  1.0 0.1121635107
H  H274  1  0.00825000  0.41286000  0.22740000  1.0 0.1121635107
H  H275  1  0.58714000  0.59539000  0.22740000  1.0 0.1121635107
H  H276  1  0.40461000  0.99175000  0.22740000  1.0 0.1121635107
H  H277  1  0.15917000  0.21078000  0.46575000  1.0 0.11911649
H  H278  1  0.78922000  0.94839000  0.46575000  1.0 0.11911649
H  H279  1  0.05161000  0.84083000  0.46575000  1.0 0.11911649
H  H280  1  0.84083000  0.78922000  0.96575000  1.0 0.11911649
H  H281  1  0.21078000  0.05161000  0.96575000  1.0 0.11911649
H  H282  1  0.94839000  0.15917000  0.96575000  1.0 0.11911649
C  C1  1  0.45160000  0.52790000  0.39340000  1.0 0.5913434923
C  C2  1  0.47210000  0.92370000  0.39340000  1.0 0.5913434923
C  C3  1  0.07630000  0.54840000  0.39340000  1.0 0.5913434923
C  C4  1  0.54840000  0.47210000  0.89340000  1.0 0.5913434923
C  C5  1  0.52790000  0.07630000  0.89340000  1.0 0.5913434923
C  C6  1  0.92370000  0.45160000  0.89340000  1.0 0.5913434923
C  C7  1  0.49310000  0.31260000  0.50900000  1.0 -0.0231837158
C  C8  1  0.68740000  0.18050000  0.50900000  1.0 -0.0231837158
C  C9  1  0.81950000  0.50690000  0.50900000  1.0 -0.0231837158
C  C10  1  0.50690000  0.68740000  0.00900000  1.0 -0.0231837158
C  C11  1  0.31260000  0.81950000  0.00900000  1.0 -0.0231837158
C  C12  1  0.18050000  0.49310000  0.00900000  1.0 -0.0231837158
C  C13  1  0.69020000  0.47640000  0.24000000  1.0 0.2480569631
C  C14  1  0.52360000  0.21380000  0.24000000  1.0 0.2480569631
C  C15  1  0.78620000  0.30980000  0.24000000  1.0 0.2480569631
C  C16  1  0.30980000  0.52360000  0.74000000  1.0 0.2480569631
C  C17  1  0.47640000  0.78620000  0.74000000  1.0 0.2480569631
C  C18  1  0.21380000  0.69020000  0.74000000  1.0 0.2480569631
C  C19  1  0.49860000  0.32470000  0.58860000  1.0 0.06111578
C  C20  1  0.67530000  0.17390000  0.58860000  1.0 0.06111578
C  C21  1  0.82610000  0.50140000  0.58860000  1.0 0.06111578
C  C22  1  0.50140000  0.67530000  0.08860000  1.0 0.06111578
C  C23  1  0.32470000  0.82610000  0.08860000  1.0 0.06111578
C  C24  1  0.17390000  0.49860000  0.08860000  1.0 0.06111578
C  C25  1  0.67460000  0.50690000  0.27610000  1.0 -0.0325145208
C  C26  1  0.49310000  0.16770000  0.27610000  1.0 -0.0325145208
C  C27  1  0.83230000  0.32540000  0.27610000  1.0 -0.0325145208
C  C28  1  0.32540000  0.49310000  0.77610000  1.0 -0.0325145208
C  C29  1  0.50690000  0.83230000  0.77610000  1.0 -0.0325145208
C  C30  1  0.16770000  0.67460000  0.77610000  1.0 -0.0325145208
C  C31  1  0.54620000  0.51140000  0.54210000  1.0 0.6009175777
C  C32  1  0.48860000  0.03480000  0.54210000  1.0 0.6009175777
C  C33  1  0.96520000  0.45380000  0.54210000  1.0 0.6009175777
C  C34  1  0.45380000  0.48860000  0.04210000  1.0 0.6009175777
C  C35  1  0.51140000  0.96520000  0.04210000  1.0 0.6009175777
C  C36  1  0.03480000  0.54620000  0.04210000  1.0 0.6009175777
C  C37  1  0.31990000  0.98950000  0.45090000  1.0 0.6134741406
C  C38  1  0.01050000  0.33040000  0.45090000  1.0 0.6134741406
C  C39  1  0.66960000  0.68010000  0.45090000  1.0 0.6134741406
C  C40  1  0.68010000  0.01050000  0.95090000  1.0 0.6134741406
C  C41  1  0.98950000  0.66960000  0.95090000  1.0 0.6134741406
C  C42  1  0.33040000  0.31990000  0.95090000  1.0 0.6134741406
C  C43  1  0.48780000  0.28070000  0.55060000  1.0 0.0480266868
C  C44  1  0.71930000  0.20710000  0.55060000  1.0 0.0480266868
C  C45  1  0.79290000  0.51220000  0.55060000  1.0 0.0480266868
C  C46  1  0.51220000  0.71930000  0.05060000  1.0 0.0480266868
C  C47  1  0.28070000  0.79290000  0.05060000  1.0 0.0480266868
C  C48  1  0.20710000  0.48780000  0.05060000  1.0 0.0480266868
C  C49  1  0.47840000  0.26690000  0.46770000  1.0 -0.2450164457
C  C50  1  0.73310000  0.21150000  0.46770000  1.0 -0.2405065869
C  C51  1  0.78850000  0.52160000  0.46770000  1.0 -0.2405065869
C  C52  1  0.52160000  0.73310000  0.96770000  1.0 -0.2450164457
C  C53  1  0.26690000  0.78850000  0.96770000  1.0 -0.2450164457
C  C54  1  0.21150000  0.47840000  0.96770000  1.0 -0.2450164457
C  C55  1  0.51840000  0.39990000  0.58380000  1.0 -0.1512226452
C  C56  1  0.60010000  0.11850000  0.58380000  1.0 -0.1512226452
C  C57  1  0.88150000  0.48160000  0.58380000  1.0 -0.1512226452
C  C58  1  0.48160000  0.60010000  0.08380000  1.0 -0.1512226452
C  C59  1  0.39990000  0.88150000  0.08380000  1.0 -0.1512226452
C  C60  1  0.11850000  0.51840000  0.08380000  1.0 -0.1512226452
C  C61  1  0.39660000  0.12970000  0.45800000  1.0 0.2611535539
C  C62  1  0.87030000  0.26690000  0.45800000  1.0 0.2611535539
C  C63  1  0.73310000  0.60340000  0.45800000  1.0 0.2611535539
C  C64  1  0.60340000  0.87030000  0.95800000  1.0 0.2611535539
C  C65  1  0.12970000  0.73310000  0.95800000  1.0 0.2611535539
C  C66  1  0.26690000  0.39660000  0.95800000  1.0 0.2611535539
C  C67  1  0.52750000  0.43180000  0.54380000  1.0 -0.1512226452
C  C68  1  0.56820000  0.09570000  0.54380000  1.0 -0.1512226452
C  C69  1  0.90430000  0.47250000  0.54380000  1.0 -0.1512226452
C  C70  1  0.47250000  0.56820000  0.04380000  1.0 -0.1512226452
C  C71  1  0.43180000  0.90430000  0.04380000  1.0 -0.1512226452
C  C72  1  0.09570000  0.52750000  0.04380000  1.0 -0.1512226452
C  C73  1  0.61380000  0.45490000  0.30750000  1.0 -0.2405065869
C  C74  1  0.54510000  0.15890000  0.30750000  1.0 -0.2405065869
C  C75  1  0.84110000  0.38620000  0.30750000  1.0 -0.2405065869
C  C76  1  0.38620000  0.54510000  0.80750000  1.0 -0.2405065869
C  C77  1  0.45490000  0.84110000  0.80750000  1.0 -0.2405065869
C  C78  1  0.15890000  0.61380000  0.80750000  1.0 -0.2405065869
C  C79  1  0.40260000  0.19850000  0.46360000  1.0 -0.0325145208
C  C80  1  0.80150000  0.20410000  0.46360000  1.0 -0.0325145208
C  C81  1  0.79590000  0.59740000  0.46360000  1.0 -0.0325145208
C  C82  1  0.59740000  0.80150000  0.96360000  1.0 -0.0325145208
C  C83  1  0.19850000  0.79590000  0.96360000  1.0 -0.0325145208
C  C84  1  0.20410000  0.40260000  0.96360000  1.0 -0.0325145208
C  C85  1  0.47190000  0.50520000  0.35180000  1.0 -0.1685539037
C  C86  1  0.49480000  0.96670000  0.35180000  1.0 -0.1685539037
C  C87  1  0.03330000  0.52810000  0.35180000  1.0 -0.1685539037
C  C88  1  0.52810000  0.49480000  0.85180000  1.0 -0.1685539037
C  C89  1  0.50520000  0.03330000  0.85180000  1.0 -0.1685539037
C  C90  1  0.96670000  0.47190000  0.85180000  1.0 -0.1685539037
C  C91  1  0.71430000  0.58450000  0.28270000  1.0 0.044412485
C  C92  1  0.41550000  0.12980000  0.28270000  1.0 0.044412485
C  C93  1  0.87020000  0.28570000  0.28270000  1.0 0.044412485
C  C94  1  0.28570000  0.41550000  0.78270000  1.0 0.044412485
C  C95  1  0.58450000  0.87020000  0.78270000  1.0 0.044412485
C  C96  1  0.12980000  0.71430000  0.78270000  1.0 0.044412485
C  C97  1  0.09710000  0.64910000  0.51200000  1.0 -0.0906577259
C  C98  1  0.35090000  0.44800000  0.51200000  1.0 -0.0906577259
C  C99  1  0.55200000  0.90290000  0.51200000  1.0 -0.0906577259
C  C100  1  0.90290000  0.35090000  0.01200000  1.0 -0.0906577259
C  C101  1  0.64910000  0.55200000  0.01200000  1.0 -0.0906577259
C  C102  1  0.44800000  0.09710000  0.01200000  1.0 -0.0906577259
C  C103  1  0.86970000  0.60860000  0.77930000  1.0 0.1601551871
C  C104  1  0.39140000  0.26110000  0.77930000  1.0 0.1601551871
C  C105  1  0.73890000  0.13030000  0.77930000  1.0 0.1601551871
C  C106  1  0.13030000  0.39140000  0.27930000  1.0 0.1601551871
C  C107  1  0.60860000  0.73890000  0.27930000  1.0 0.1601551871
C  C108  1  0.26110000  0.86970000  0.27930000  1.0 0.1601551871
C  C109  1  0.74020000  0.52180000  0.20710000  1.0 -0.1609587868
C  C110  1  0.47820000  0.21840000  0.20710000  1.0 -0.1609587868
C  C111  1  0.78160000  0.25980000  0.20710000  1.0 -0.1609587868
C  C112  1  0.25980000  0.47820000  0.70710000  1.0 -0.1609587868
C  C113  1  0.52180000  0.78160000  0.70710000  1.0 -0.1609587868
C  C114  1  0.21840000  0.74020000  0.70710000  1.0 -0.1609587868
C  C115  1  0.51590000  0.38750000  0.50600000  1.0 0.2358013193
C  C116  1  0.61250000  0.12840000  0.50600000  1.0 0.2358013193
C  C117  1  0.87160000  0.48410000  0.50600000  1.0 0.2358013193
C  C118  1  0.48410000  0.61250000  0.00600000  1.0 0.2358013193
C  C119  1  0.38750000  0.87160000  0.00600000  1.0 0.2358013193
C  C120  1  0.12840000  0.51590000  0.00600000  1.0 0.2358013193
C  C121  1  0.53090000  0.48870000  0.34920000  1.0 0.2480569631
C  C122  1  0.51130000  0.04220000  0.34920000  1.0 0.2480569631
C  C123  1  0.95780000  0.46910000  0.34920000  1.0 0.2480569631
C  C124  1  0.46910000  0.51130000  0.84920000  1.0 0.2480569631
C  C125  1  0.48870000  0.95780000  0.84920000  1.0 0.2480569631
C  C126  1  0.04220000  0.53090000  0.84920000  1.0 0.2480569631
C  C127  1  0.32570000  0.06270000  0.45720000  1.0 -0.1512226452
C  C128  1  0.93730000  0.26300000  0.45720000  1.0 -0.1512226452
C  C129  1  0.73700000  0.67430000  0.45720000  1.0 -0.1512226452
C  C130  1  0.67430000  0.93730000  0.95720000  1.0 -0.1512226452
C  C131  1  0.06270000  0.73700000  0.95720000  1.0 -0.1512226452
C  C132  1  0.26300000  0.32570000  0.95720000  1.0 -0.1512226452
C  C133  1  0.77550000  0.59910000  0.21220000  1.0 -0.1512226452
C  C134  1  0.40090000  0.17640000  0.21220000  1.0 -0.1512226452
C  C135  1  0.82360000  0.22450000  0.21220000  1.0 -0.1512226452
C  C136  1  0.22450000  0.40090000  0.71220000  1.0 -0.1512226452
C  C137  1  0.59910000  0.82360000  0.71220000  1.0 -0.1512226452
C  C138  1  0.17640000  0.77550000  0.71220000  1.0 -0.1512226452
C  C139  1  0.98500000  0.65840000  0.65850000  1.0 0.06111578
C  C140  1  0.34160000  0.32660000  0.65850000  1.0 0.06111578
C  C141  1  0.67340000  0.01500000  0.65850000  1.0 0.06111578
C  C142  1  0.01500000  0.34160000  0.15850000  1.0 0.06111578
C  C143  1  0.65840000  0.67340000  0.15850000  1.0 0.06111578
C  C144  1  0.32660000  0.98500000  0.15850000  1.0 0.06111578
C  C145  1  0.54860000  0.46830000  0.31000000  1.0 -0.0384551038
C  C146  1  0.53170000  0.08030000  0.31000000  1.0 -0.0384551038
C  C147  1  0.91970000  0.45140000  0.31000000  1.0 -0.0384551038
C  C148  1  0.45140000  0.53170000  0.81000000  1.0 -0.0384551038
C  C149  1  0.46830000  0.91970000  0.81000000  1.0 -0.0384551038
C  C150  1  0.08030000  0.54860000  0.81000000  1.0 -0.0384551038
C  C151  1  0.75440000  0.49090000  0.16670000  1.0 0.6009175777
C  C152  1  0.50910000  0.26350000  0.16670000  1.0 0.6009175777
C  C153  1  0.73650000  0.24560000  0.16670000  1.0 0.6009175777
C  C154  1  0.24560000  0.50910000  0.66666667  1.0 0.6009175777
C  C155  1  0.49090000  0.73650000  0.66666667  1.0 0.6009175777
C  C156  1  0.26350000  0.75440000  0.66666667  1.0 0.6009175777
C  C157  1  0.74590000  0.69410000  0.32510000  1.0 -0.0991127238
C  C158  1  0.30590000  0.05180000  0.32510000  1.0 -0.0991127238
C  C159  1  0.94820000  0.25410000  0.32510000  1.0 -0.0991127238
C  C160  1  0.25410000  0.30590000  0.82510000  1.0 -0.0991127238
C  C161  1  0.69410000  0.94820000  0.82510000  1.0 -0.0991127238
C  C162  1  0.05180000  0.74590000  0.82510000  1.0 -0.0991127238
C  C163  1  0.51310000  0.43030000  0.23220000  1.0 -0.1296494476
C  C164  1  0.56970000  0.08280000  0.23220000  1.0 -0.1296494476
C  C165  1  0.91720000  0.48690000  0.23220000  1.0 -0.1296494476
C  C166  1  0.48690000  0.56970000  0.73220000  1.0 -0.1296494476
C  C167  1  0.43030000  0.91720000  0.73220000  1.0 -0.1296494476
C  C168  1  0.08280000  0.51310000  0.73220000  1.0 -0.1296494476
C  C169  1  0.15530000  0.76840000  0.52520000  1.0 0.0884512688
C  C170  1  0.23160000  0.38690000  0.52520000  1.0 0.0884512688
C  C171  1  0.61310000  0.84470000  0.52520000  1.0 0.0884512688
C  C172  1  0.84470000  0.23160000  0.02520000  1.0 0.0884512688
C  C173  1  0.76840000  0.61310000  0.02520000  1.0 0.0884512688
C  C174  1  0.38690000  0.15530000  0.02520000  1.0 0.0884512688
C  C175  1  0.06380000  0.68820000  0.58110000  1.0 0.1479888956
C  C176  1  0.31180000  0.37560000  0.58110000  1.0 0.1479888956
C  C177  1  0.62440000  0.93620000  0.58110000  1.0 0.1479888956
C  C178  1  0.93620000  0.31180000  0.08110000  1.0 0.1479888956
C  C179  1  0.68820000  0.62440000  0.08110000  1.0 0.1479888956
C  C180  1  0.37560000  0.06380000  0.08110000  1.0 0.1479888956
C  C181  1  0.44720000  0.47860000  0.27490000  1.0 0.0480266868
C  C182  1  0.52140000  0.96860000  0.27490000  1.0 0.0480266868
C  C183  1  0.03140000  0.55280000  0.27490000  1.0 0.0480266868
C  C184  1  0.55280000  0.52140000  0.77490000  1.0 0.0480266868
C  C185  1  0.47860000  0.03140000  0.77490000  1.0 0.0480266868
C  C186  1  0.96860000  0.44720000  0.77490000  1.0 0.0480266868
C  C187  1  0.76450000  0.63170000  0.24920000  1.0 0.06111578
C  C188  1  0.36830000  0.13280000  0.24920000  1.0 0.06111578
C  C189  1  0.86720000  0.23550000  0.24920000  1.0 0.06111578
C  C190  1  0.23550000  0.36830000  0.74920000  1.0 0.06111578
C  C191  1  0.63170000  0.86720000  0.74920000  1.0 0.06111578
C  C192  1  0.13280000  0.76450000  0.74920000  1.0 0.06111578
C  C193  1  0.14730000  0.68590000  0.47980000  1.0 -0.0451535222
C  C194  1  0.31410000  0.46140000  0.47980000  1.0 -0.0451535222
C  C195  1  0.53860000  0.85270000  0.47980000  1.0 -0.0451535222
C  C196  1  0.85270000  0.31410000  0.97980000  1.0 -0.0384551038
C  C197  1  0.68590000  0.53860000  0.97980000  1.0 -0.0451535222
C  C198  1  0.46140000  0.14730000  0.97980000  1.0 -0.0451535222
C  C199  1  0.86220000  0.58890000  0.85860000  1.0 0.11911649
C  C200  1  0.41110000  0.27330000  0.85860000  1.0 0.11911649
C  C201  1  0.72670000  0.13780000  0.85860000  1.0 0.11911649
C  C202  1  0.13780000  0.41110000  0.35860000  1.0 0.11911649
C  C203  1  0.58890000  0.72670000  0.35860000  1.0 0.11911649
C  C204  1  0.27330000  0.86220000  0.35860000  1.0 0.11911649
C  C205  1  0.43280000  0.50150000  0.31470000  1.0 -0.1685539037
C  C206  1  0.49850000  0.93130000  0.31470000  1.0 -0.1685539037
C  C207  1  0.06870000  0.56720000  0.31470000  1.0 -0.1685539037
C  C208  1  0.56720000  0.49850000  0.81470000  1.0 -0.1685539037
C  C209  1  0.50150000  0.06870000  0.81470000  1.0 -0.1685539037
C  C210  1  0.93130000  0.43280000  0.81470000  1.0 -0.1685539037
C  C211  1  0.05890000  0.63330000  0.60740000  1.0 -0.1414174758
C  C212  1  0.36670000  0.42560000  0.60740000  1.0 -0.1414174758
C  C213  1  0.57440000  0.94110000  0.60740000  1.0 -0.1414174758
C  C214  1  0.94110000  0.36670000  0.10740000  1.0 -0.1414174758
C  C215  1  0.63330000  0.57440000  0.10740000  1.0 -0.1414174758
C  C216  1  0.42560000  0.05890000  0.10740000  1.0 -0.1414174758
C  C217  1  0.50370000  0.45880000  0.27240000  1.0 0.044412485
C  C218  1  0.54120000  0.04490000  0.27240000  1.0 0.044412485
C  C219  1  0.95510000  0.49630000  0.27240000  1.0 0.044412485
C  C220  1  0.49630000  0.54120000  0.77240000  1.0 0.044412485
C  C221  1  0.45880000  0.95510000  0.77240000  1.0 0.044412485
C  C222  1  0.04490000  0.50370000  0.77240000  1.0 0.044412485
C  C223  1  0.47060000  0.42470000  0.19690000  1.0 -0.0826787154
C  C224  1  0.57530000  0.04590000  0.19690000  1.0 -0.0826787154
C  C225  1  0.95410000  0.52940000  0.19690000  1.0 -0.0826787154
C  C226  1  0.52940000  0.57530000  0.69690000  1.0 -0.0826787154
C  C227  1  0.42470000  0.95410000  0.69690000  1.0 -0.0826787154
C  C228  1  0.04590000  0.47060000  0.69690000  1.0 -0.0826787154
C  C229  1  0.47140000  0.20670000  0.55730000  1.0 -0.1221655315
C  C230  1  0.79330000  0.26470000  0.55730000  1.0 -0.1221655315
C  C231  1  0.73530000  0.52860000  0.55730000  1.0 -0.1221655315
C  C232  1  0.52860000  0.79330000  0.05730000  1.0 -0.1221655315
C  C233  1  0.20670000  0.73530000  0.05730000  1.0 -0.1221655315
C  C234  1  0.26470000  0.47140000  0.05730000  1.0 -0.1221655315
C  C235  1  0.70860000  0.61970000  0.32110000  1.0 -0.1296494476
C  C236  1  0.38030000  0.08890000  0.32110000  1.0 -0.1296494476
C  C237  1  0.91110000  0.29140000  0.32110000  1.0 -0.1296494476
C  C238  1  0.29140000  0.38030000  0.82110000  1.0 -0.1296494476
C  C239  1  0.61970000  0.91110000  0.82110000  1.0 -0.1296494476
C  C240  1  0.08890000  0.70860000  0.82110000  1.0 -0.1296494476
C  C241  1  0.94480000  0.64200000  0.70040000  1.0 0.0655397351
C  C242  1  0.35800000  0.30280000  0.70040000  1.0 0.0655397351
C  C243  1  0.69720000  0.05520000  0.70040000  1.0 0.06111578
C  C244  1  0.05520000  0.35800000  0.20040000  1.0 0.0655397351
C  C245  1  0.64200000  0.69720000  0.20040000  1.0 0.0655397351
C  C246  1  0.30280000  0.94480000  0.20040000  1.0 0.0655397351
C  C247  1  0.33680000  0.20300000  0.46350000  1.0 0.0480266868
C  C248  1  0.79700000  0.13380000  0.46350000  1.0 0.0480266868
C  C249  1  0.86620000  0.66320000  0.46350000  1.0 0.0480266868
C  C250  1  0.66320000  0.79700000  0.96350000  1.0 0.0480266868
C  C251  1  0.20300000  0.86620000  0.96350000  1.0 0.0480266868
C  C252  1  0.13380000  0.33680000  0.96350000  1.0 0.0480266868
C  C253  1  0.49110000  0.29250000  0.63050000  1.0 -0.1414174758
C  C254  1  0.70750000  0.19860000  0.63050000  1.0 -0.1414174758
C  C255  1  0.80140000  0.50890000  0.63050000  1.0 -0.1414174758
C  C256  1  0.50890000  0.70750000  0.13050000  1.0 -0.1414174758
C  C257  1  0.29250000  0.80140000  0.13050000  1.0 -0.1414174758
C  C258  1  0.19860000  0.49110000  0.13050000  1.0 -0.1414174758
C  C259  1  0.46520000  0.17830000  0.59870000  1.0 -0.0906577259
C  C260  1  0.82170000  0.28690000  0.59870000  1.0 -0.0906577259
C  C261  1  0.71310000  0.53480000  0.59870000  1.0 -0.0906577259
C  C262  1  0.53480000  0.82170000  0.09870000  1.0 -0.0906577259
C  C263  1  0.17830000  0.71310000  0.09870000  1.0 -0.0906577259
C  C264  1  0.28690000  0.46520000  0.09870000  1.0 -0.0906577259
C  C265  1  0.47540000  0.22180000  0.63520000  1.0 -0.0991127238
C  C266  1  0.77820000  0.25360000  0.63520000  1.0 -0.0991127238
C  C267  1  0.74640000  0.52460000  0.63520000  1.0 -0.0991127238
C  C268  1  0.52460000  0.77820000  0.13520000  1.0 -0.0991127238
C  C269  1  0.22180000  0.74640000  0.13520000  1.0 -0.0991127238
C  C270  1  0.25360000  0.47540000  0.13520000  1.0 -0.0991127238
C  C271  1  0.85890000  0.65230000  0.74870000  1.0 -0.1787437623
C  C272  1  0.34770000  0.20660000  0.74870000  1.0 -0.1787437623
C  C273  1  0.79340000  0.14110000  0.74870000  1.0 -0.1787437623
C  C274  1  0.14110000  0.34770000  0.24870000  1.0 -0.1787437623
C  C275  1  0.65230000  0.79340000  0.24870000  1.0 -0.1787437623
C  C276  1  0.20660000  0.85890000  0.24870000  1.0 -0.1787437623
C  C277  1  0.40520000  0.47220000  0.23680000  1.0 -0.1609587868
C  C278  1  0.52780000  0.93300000  0.23680000  1.0 -0.1609587868
C  C279  1  0.06700000  0.59480000  0.23680000  1.0 -0.1609587868
C  C280  1  0.59480000  0.52780000  0.73680000  1.0 -0.1609587868
C  C281  1  0.47220000  0.06700000  0.73680000  1.0 -0.1609587868
C  C282  1  0.93300000  0.40520000  0.73680000  1.0 -0.1609587868
C  C283  1  0.41790000  0.44830000  0.19900000  1.0 -0.0991127238
C  C284  1  0.55170000  0.96960000  0.19900000  1.0 -0.0991127238
C  C285  1  0.03040000  0.58210000  0.19900000  1.0 -0.0991127238
C  C286  1  0.58210000  0.55170000  0.69900000  1.0 -0.0991127238
C  C287  1  0.44830000  0.03040000  0.69900000  1.0 -0.0991127238
C  C288  1  0.96960000  0.41790000  0.69900000  1.0 -0.0991127238
C  C289  1  0.92180000  0.58800000  0.77210000  1.0 -0.1512226452
C  C290  1  0.41200000  0.33380000  0.77210000  1.0 -0.1512226452
C  C291  1  0.66620000  0.07820000  0.77210000  1.0 -0.1512226452
C  C292  1  0.07820000  0.41200000  0.27210000  1.0 -0.1512226452
C  C293  1  0.58800000  0.66620000  0.27210000  1.0 -0.1512226452
C  C294  1  0.33380000  0.92180000  0.27210000  1.0 -0.1512226452
C  C295  1  0.02060000  0.62040000  0.64660000  1.0 -0.1296494476
C  C296  1  0.37960000  0.40020000  0.64660000  1.0 -0.1296494476
C  C297  1  0.59980000  0.97940000  0.64660000  1.0 -0.1296494476
C  C298  1  0.97940000  0.37960000  0.14660000  1.0 -0.1296494476
C  C299  1  0.62040000  0.59980000  0.14660000  1.0 -0.1296494476
C  C300  1  0.40020000  0.02060000  0.14660000  1.0 -0.1296494476
C  C301  1  0.27330000  0.27440000  0.46390000  1.0 -0.0906577259
C  C302  1  0.72560000  0.99890000  0.46390000  1.0 -0.0906577259
C  C303  1  0.00110000  0.72670000  0.46390000  1.0 -0.0906577259
C  C304  1  0.72670000  0.72560000  0.96390000  1.0 -0.0906577259
C  C305  1  0.27440000  0.00110000  0.96390000  1.0 -0.0906577259
C  C306  1  0.99890000  0.27330000  0.96390000  1.0 -0.0906577259
C  C307  1  0.33750000  0.27290000  0.46370000  1.0 -0.1296494476
C  C308  1  0.72710000  0.06460000  0.46370000  1.0 -0.1296494476
C  C309  1  0.93540000  0.66250000  0.46370000  1.0 -0.1296494476
C  C310  1  0.66250000  0.72710000  0.96370000  1.0 -0.1296494476
C  C311  1  0.27290000  0.93540000  0.96370000  1.0 -0.1296494476
C  C312  1  0.06460000  0.33750000  0.96370000  1.0 -0.1296494476
C  C313  1  0.79280000  0.74170000  0.29070000  1.0 -0.1101001004
C  C314  1  0.25830000  0.05110000  0.29070000  1.0 -0.1101001004
C  C315  1  0.94890000  0.20720000  0.29070000  1.0 -0.1101001004
C  C316  1  0.20720000  0.25830000  0.79070000  1.0 -0.1101001004
C  C317  1  0.74170000  0.94890000  0.79070000  1.0 -0.1101001004
C  C318  1  0.05110000  0.79280000  0.79070000  1.0 -0.1101001004
C  C319  1  0.26300000  0.06680000  0.46080000  1.0 -0.1414174758
C  C320  1  0.93320000  0.19620000  0.46080000  1.0 -0.1414174758
C  C321  1  0.80380000  0.73700000  0.46080000  1.0 -0.1414174758
C  C322  1  0.73700000  0.93320000  0.96080000  1.0 -0.1414174758
C  C323  1  0.06680000  0.80380000  0.96080000  1.0 -0.1414174758
C  C324  1  0.19620000  0.26300000  0.96080000  1.0 -0.1414174758
C  C325  1  0.26610000  0.13700000  0.46290000  1.0 0.06111578
C  C326  1  0.86300000  0.12910000  0.46290000  1.0 0.06111578
C  C327  1  0.87090000  0.73390000  0.46290000  1.0 0.06111578
C  C328  1  0.73390000  0.86300000  0.96290000  1.0 0.06111578
C  C329  1  0.13700000  0.87090000  0.96290000  1.0 0.06111578
C  C330  1  0.12910000  0.26610000  0.96290000  1.0 0.06111578
C  C331  1  0.89480000  0.66510000  0.70910000  1.0 -0.1296494476
C  C332  1  0.33490000  0.22970000  0.70910000  1.0 -0.1296494476
C  C333  1  0.77030000  0.10520000  0.70910000  1.0 -0.1296494476
C  C334  1  0.10520000  0.33490000  0.20910000  1.0 -0.1296494476
C  C335  1  0.66510000  0.77030000  0.20910000  1.0 -0.1296494476
C  C336  1  0.22970000  0.89480000  0.20910000  1.0 -0.1296494476
C  C337  1  0.80050000  0.70970000  0.25360000  1.0 -0.1414174758
C  C338  1  0.29030000  0.09080000  0.25360000  1.0 -0.1512226452
C  C339  1  0.90920000  0.19950000  0.25360000  1.0 -0.1512226452
C  C340  1  0.19950000  0.29030000  0.75360000  1.0 -0.1512226452
C  C341  1  0.70970000  0.90920000  0.75360000  1.0 -0.1512226452
C  C342  1  0.09080000  0.80050000  0.75360000  1.0 -0.1512226452
C  C343  1  0.19770000  0.14070000  0.46410000  1.0 -0.1414174758
C  C344  1  0.85930000  0.05700000  0.46410000  1.0 -0.1414174758
C  C345  1  0.94300000  0.80230000  0.46410000  1.0 -0.1414174758
C  C346  1  0.80230000  0.85930000  0.96410000  1.0 -0.1414174758
C  C347  1  0.14070000  0.94300000  0.96410000  1.0 -0.1414174758
C  C348  1  0.05700000  0.19770000  0.96410000  1.0 -0.1414174758
C  C349  1  0.99630000  0.71690000  0.63270000  1.0 -0.1296494476
C  C350  1  0.28310000  0.27940000  0.63270000  1.0 -0.1414174758
C  C351  1  0.72060000  0.00370000  0.63270000  1.0 -0.1296494476
C  C352  1  0.00370000  0.28310000  0.13270000  1.0 -0.1414174758
C  C353  1  0.71690000  0.72060000  0.13270000  1.0 -0.1296494476
C  C354  1  0.27940000  0.99630000  0.13270000  1.0 -0.1414174758
C  C355  1  0.76820000  0.59450000  0.83050000  1.0 -0.1221655315
C  C356  1  0.40550000  0.17370000  0.83050000  1.0 -0.1221655315
C  C357  1  0.82630000  0.23180000  0.83050000  1.0 -0.1221655315
C  C358  1  0.23180000  0.40550000  0.33050000  1.0 -0.1221655315
C  C359  1  0.59450000  0.82630000  0.33050000  1.0 -0.1221655315
C  C360  1  0.17370000  0.76820000  0.33050000  1.0 -0.1221655315
C  C361  1  0.75770000  0.57950000  0.87360000  1.0 -0.0101157388
C  C362  1  0.42050000  0.17820000  0.87360000  1.0 -0.0101157388
C  C363  1  0.82180000  0.24230000  0.87360000  1.0 -0.0101157388
C  C364  1  0.24230000  0.42050000  0.37360000  1.0 -0.0101157388
C  C365  1  0.57950000  0.82180000  0.37360000  1.0 -0.0101157388
C  C366  1  0.17820000  0.75770000  0.37360000  1.0 -0.0101157388
C  C367  1  0.02930000  0.72630000  0.59120000  1.0 -0.1609587868
C  C368  1  0.27370000  0.30300000  0.59120000  1.0 -0.1609587868
C  C369  1  0.69700000  0.97070000  0.59120000  1.0 -0.1609587868
C  C370  1  0.97070000  0.27370000  0.09120000  1.0 -0.1609587868
C  C371  1  0.72630000  0.69700000  0.09120000  1.0 -0.1609587868
C  C372  1  0.30300000  0.02930000  0.09120000  1.0 -0.1609587868
C  C373  1  0.95790000  0.60320000  0.73260000  1.0 -0.1101001004
C  C374  1  0.39680000  0.35470000  0.73260000  1.0 -0.1101001004
C  C375  1  0.64530000  0.04210000  0.73260000  1.0 -0.1101001004
C  C376  1  0.04210000  0.39680000  0.23260000  1.0 -0.1101001004
C  C377  1  0.60320000  0.64530000  0.23260000  1.0 -0.1101001004
C  C378  1  0.35470000  0.95790000  0.23260000  1.0 -0.1101001004
C  C379  1  0.20240000  0.20780000  0.46470000  1.0 -0.1101001004
C  C380  1  0.79220000  0.99460000  0.46470000  1.0 -0.1101001004
C  C381  1  0.00540000  0.79760000  0.46470000  1.0 -0.1101001004
C  C382  1  0.79760000  0.79220000  0.96470000  1.0 -0.1101001004
C  C383  1  0.20780000  0.00540000  0.96470000  1.0 -0.1101001004
C  C384  1  0.99460000  0.20240000  0.96470000  1.0 -0.1101001004
N  N1  1  0.42180000  0.75550000  0.56900000  1.0 -0.819684652
N  N2  1  0.24450000  0.66630000  0.56900000  1.0 -0.819684652
N  N3  1  0.33370000  0.57820000  0.56900000  1.0 -0.819684652
N  N4  1  0.57820000  0.24450000  0.06900000  1.0 -0.819684652
N  N5  1  0.75550000  0.33370000  0.06900000  1.0 -0.819684652
N  N6  1  0.66630000  0.42180000  0.06900000  1.0 -0.819684652
N  N7  1  0.33333333  0.66666667  0.46410000  1.0 -0.819684652
N  N8  1  0.66666667  0.33333333  0.96410000  1.0 -0.819684652
N  N9  1  0.18250000  0.76060000  0.48830000  1.0 -0.2818677624
N  N10  1  0.23940000  0.42190000  0.48830000  1.0 -0.2818677624
N  N11  1  0.57810000  0.81750000  0.48830000  1.0 -0.2818677624
N  N12  1  0.81750000  0.23940000  0.98830000  1.0 -0.2818677624
N  N13  1  0.76060000  0.57810000  0.98830000  1.0 -0.2818677624
N  N14  1  0.42190000  0.18250000  0.98830000  1.0 -0.2818677624
N  N15  1  0.81530000  0.57420000  0.89060000  1.0 -0.2723989387
N  N16  1  0.42580000  0.24110000  0.89060000  1.0 -0.2723989387
N  N17  1  0.75890000  0.18470000  0.89060000  1.0 -0.2723989387
N  N18  1  0.18470000  0.42580000  0.39060000  1.0 -0.2723989387
N  N19  1  0.57420000  0.75890000  0.39060000  1.0 -0.2723989387
N  N20  1  0.24110000  0.81530000  0.39060000  1.0 -0.2723989387
N  N21  1  0.10280000  0.70150000  0.54060000  1.0 0.0088075904
N  N22  1  0.29850000  0.40130000  0.54060000  1.0 0.0088075904
N  N23  1  0.59870000  0.89720000  0.54060000  1.0 0.0088075904
N  N24  1  0.89720000  0.29850000  0.04060000  1.0 0.0088075904
N  N25  1  0.70150000  0.59870000  0.04060000  1.0 0.0088075904
N  N26  1  0.40130000  0.10280000  0.04060000  1.0 0.0088075904
N  N27  1  0.35630000  0.84330000  0.47870000  1.0 -0.8062092562
N  N28  1  0.15670000  0.51300000  0.47870000  1.0 -0.8062092562
N  N29  1  0.48700000  0.64370000  0.47870000  1.0 -0.8062092562
N  N30  1  0.64370000  0.15670000  0.97870000  1.0 -0.8048631648
N  N31  1  0.84330000  0.48700000  0.97870000  1.0 -0.8048631648
N  N32  1  0.51300000  0.35630000  0.97870000  1.0 -0.8048631648
N  N33  1  0.83380000  0.59410000  0.82080000  1.0 0.0088075904
N  N34  1  0.40590000  0.23970000  0.82080000  1.0 0.0088075904
N  N35  1  0.76030000  0.16620000  0.82080000  1.0 0.0088075904
N  N36  1  0.16620000  0.40590000  0.32080000  1.0 0.0088075904
N  N37  1  0.59410000  0.76030000  0.32080000  1.0 0.0088075904
N  N38  1  0.23970000  0.83380000  0.32080000  1.0 0.0088075904
O  O1  1  0.36900000  0.85730000  0.57520000  1.0 -0.6762589017
O  O2  1  0.14270000  0.51170000  0.57520000  1.0 -0.6762589017
O  O3  1  0.48830000  0.63100000  0.57520000  1.0 -0.6762589017
O  O4  1  0.63100000  0.14270000  0.07520000  1.0 -0.6762589017
O  O5  1  0.85730000  0.48830000  0.07520000  1.0 -0.6762589017
O  O6  1  0.51170000  0.36900000  0.07520000  1.0 -0.6762589017
O  O7  1  0.47310000  0.51300000  0.42960000  1.0 -0.628667742
O  O8  1  0.48700000  0.96010000  0.42960000  1.0 -0.628667742
O  O9  1  0.03990000  0.52690000  0.42960000  1.0 -0.628667742
O  O10  1  0.52690000  0.48700000  0.92960000  1.0 -0.628667742
O  O11  1  0.51300000  0.03990000  0.92960000  1.0 -0.628667742
O  O12  1  0.96010000  0.47310000  0.92960000  1.0 -0.628667742
O  O13  1  0.55140000  0.54140000  0.50470000  1.0 -0.619041351
O  O14  1  0.45860000  0.01000000  0.50470000  1.0 -0.619041351
O  O15  1  0.99000000  0.44860000  0.50470000  1.0 -0.619041351
O  O16  1  0.44860000  0.45860000  0.00470000  1.0 -0.619041351
O  O17  1  0.54140000  0.99000000  0.00470000  1.0 -0.619041351
O  O18  1  0.01000000  0.55140000  0.00470000  1.0 -0.619041351
O  O19  1  0.56970000  0.49330000  0.38480000  1.0 -0.619041351
O  O20  1  0.50670000  0.07640000  0.38480000  1.0 -0.619041351
O  O21  1  0.92360000  0.43030000  0.38480000  1.0 -0.619041351
O  O22  1  0.43030000  0.50670000  0.88480000  1.0 -0.619041351
O  O23  1  0.49330000  0.92360000  0.88480000  1.0 -0.619041351
O  O24  1  0.07640000  0.56970000  0.88480000  1.0 -0.619041351
O  O25  1  0.37250000  0.98460000  0.43370000  1.0 -0.612787048
O  O26  1  0.01540000  0.38790000  0.43370000  1.0 -0.612787048
O  O27  1  0.61210000  0.62750000  0.43370000  1.0 -0.612787048
O  O28  1  0.62750000  0.01540000  0.93370000  1.0 -0.612787048
O  O29  1  0.98460000  0.61210000  0.93370000  1.0 -0.612787048
O  O30  1  0.38790000  0.37250000  0.93370000  1.0 -0.612787048
O  O31  1  0.65440000  0.40240000  0.23600000  1.0 -0.612787048
O  O32  1  0.59760000  0.25200000  0.23600000  1.0 -0.612787048
O  O33  1  0.74800000  0.34560000  0.23600000  1.0 -0.612787048
O  O34  1  0.34560000  0.59760000  0.73600000  1.0 -0.612787048
O  O35  1  0.40240000  0.74800000  0.73600000  1.0 -0.612787048
O  O36  1  0.25200000  0.65440000  0.73600000  1.0 -0.612787048
O  O37  1  0.45850000  0.12490000  0.45600000  1.0 -0.612787048
O  O38  1  0.87510000  0.33360000  0.45600000  1.0 -0.612787048
O  O39  1  0.66640000  0.54150000  0.45600000  1.0 -0.612787048
O  O40  1  0.54150000  0.87510000  0.95600000  1.0 -0.612787048
O  O41  1  0.12490000  0.66640000  0.95600000  1.0 -0.612787048
O  O42  1  0.33360000  0.45850000  0.95600000  1.0 -0.612787048
O  O43  1  0.72620000  0.42050000  0.16300000  1.0 -0.619041351
O  O44  1  0.57950000  0.30570000  0.16300000  1.0 -0.619041351
O  O45  1  0.69430000  0.27380000  0.16300000  1.0 -0.619041351
O  O46  1  0.27380000  0.57950000  0.66300000  1.0 -0.619041351
O  O47  1  0.42050000  0.69430000  0.66300000  1.0 -0.619041351
O  O48  1  0.30570000  0.72620000  0.66300000  1.0 -0.619041351
O  O49  1  0.52580000  0.41800000  0.46610000  1.0 -0.619041351
O  O50  1  0.58200000  0.10780000  0.46610000  1.0 -0.619041351
O  O51  1  0.89220000  0.47420000  0.46610000  1.0 -0.619041351
O  O52  1  0.47420000  0.58200000  0.96610000  1.0 -0.619041351
O  O53  1  0.41800000  0.89220000  0.96610000  1.0 -0.619041351
O  O54  1  0.10780000  0.52580000  0.96610000  1.0 -0.619041351
O  O55  1  0.26030000  0.93200000  0.46180000  1.0 -0.5178969105
O  O56  1  0.06800000  0.32830000  0.46180000  1.0 -0.5178969105
O  O57  1  0.67170000  0.73970000  0.46180000  1.0 -0.5178969105
O  O58  1  0.73970000  0.06800000  0.96180000  1.0 -0.5178969105
O  O59  1  0.93200000  0.67170000  0.96180000  1.0 -0.5178969105
O  O60  1  0.32830000  0.26030000  0.96180000  1.0 -0.5178969105
O  O61  1  0.41260000  0.55680000  0.39310000  1.0 -0.5178969105
O  O62  1  0.44320000  0.85580000  0.39310000  1.0 -0.5178969105
O  O63  1  0.14420000  0.58740000  0.39310000  1.0 -0.5178969105
O  O64  1  0.58740000  0.44320000  0.89310000  1.0 -0.5178969105
O  O65  1  0.55680000  0.14420000  0.89310000  1.0 -0.5178969105
O  O66  1  0.85580000  0.41260000  0.89310000  1.0 -0.5178969105
O  O67  1  0.55350000  0.54520000  0.57650000  1.0 -0.5124927859
O  O68  1  0.45480000  0.00830000  0.57650000  1.0 -0.5124927859
O  O69  1  0.99170000  0.44650000  0.57650000  1.0 -0.5124927859
O  O70  1  0.44650000  0.45480000  0.07650000  1.0 -0.5124927859
O  O71  1  0.54520000  0.99170000  0.07650000  1.0 -0.5124927859
O  O72  1  0.00830000  0.55350000  0.07650000  1.0 -0.5124927859
O  O73  1  0.79240000  0.53390000  0.13730000  1.0 -0.5265040794
O  O74  1  0.46610000  0.25850000  0.13730000  1.0 -0.5265040794
O  O75  1  0.74150000  0.20760000  0.13730000  1.0 -0.5265040794
O  O76  1  0.20760000  0.46610000  0.63730000  1.0 -0.5265040794
O  O77  1  0.53390000  0.74150000  0.63730000  1.0 -0.5265040794
O  O78  1  0.25850000  0.79240000  0.63730000  1.0 -0.5265040794
