# DDEC6 charges by PACMAN v1.1 (https://github.com/mtap-research/PACMAN-charge/)
data_UDOKOR_FSR_pacman
_symmetry_space_group_name_H-M   'P 1'
_cell_length_a   20.71380000
_cell_length_b   20.71380000
_cell_length_c   30.63890000
_cell_angle_alpha   90.00000000
_cell_angle_beta   90.00000000
_cell_angle_gamma   120.00000000
_symmetry_Int_Tables_number   1
_chemical_formula_structural   Ti4Zn4H141C192N19O39
_chemical_formula_sum   'Ti8 Zn8 H282 C384 N38 O78'
_cell_volume   11384.74632624
_cell_formula_units_Z   2
loop_
 _symmetry_equiv_pos_site_id
 _symmetry_equiv_pos_as_xyz
  1  'x, y, z'
loop_
 _atom_site_type_symbol
 _atom_site_label
 _atom_site_symmetry_multiplicity
 _atom_site_fract_x
 _atom_site_fract_y
 _atom_site_fract_z
 _atom_site_occupancy
 _atom_site_charge
Ti  Ti1  1  0.51436000  0.94833000  0.54803000  1.0 1.9114645634
Ti  Ti2  1  0.05167000  0.56603000  0.54803000  1.0 1.9114645634
Ti  Ti3  1  0.43397000  0.48564000  0.54803000  1.0 1.9114645634
Ti  Ti4  1  0.48564000  0.05167000  0.04803000  1.0 1.9114645634
Ti  Ti5  1  0.94833000  0.43397000  0.04803000  1.0 1.9114645634
Ti  Ti6  1  0.56603000  0.51436000  0.04803000  1.0 1.9114645634
Ti  Ti7  1  0.33333333  0.66666667  0.78841000  1.0 1.9114645634
Ti  Ti8  1  0.66666667  0.33333333  0.28841000  1.0 1.9114645634
Zn  Zn1  1  0.66666667  0.33333333  0.44422000  1.0 0.7573233012
Zn  Zn2  1  0.33333333  0.66666667  0.94422000  1.0 0.7573233012
Zn  Zn3  1  0.83917000  0.57523000  0.53676000  1.0 0.7475893263
Zn  Zn4  1  0.42477000  0.26394000  0.53676000  1.0 0.7475893263
Zn  Zn5  1  0.73606000  0.16083000  0.53676000  1.0 0.7475893263
Zn  Zn6  1  0.16083000  0.42477000  0.03676000  1.0 0.7475893263
Zn  Zn7  1  0.57523000  0.73606000  0.03676000  1.0 0.7475893263
Zn  Zn8  1  0.26394000  0.83917000  0.03676000  1.0 0.7475893263
H  H1  1  0.62491000  0.41914000  0.42282000  1.0 0.3001199759
H  H2  1  0.58086000  0.20577000  0.42282000  1.0 0.3001199759
H  H3  1  0.79423000  0.37509000  0.42282000  1.0 0.3001199759
H  H4  1  0.37509000  0.58086000  0.92282000  1.0 0.3001199759
H  H5  1  0.41914000  0.79423000  0.92282000  1.0 0.3001199759
H  H6  1  0.20577000  0.62491000  0.92282000  1.0 0.3001199759
H  H7  1  0.69910000  0.46102000  0.44164000  1.0 0.2689206712
H  H8  1  0.53898000  0.23808000  0.44164000  1.0 0.2689206712
H  H9  1  0.76192000  0.30090000  0.44164000  1.0 0.2689206712
H  H10  1  0.30090000  0.53898000  0.94164000  1.0 0.2689206712
H  H11  1  0.46102000  0.76192000  0.94164000  1.0 0.2689206712
H  H12  1  0.23808000  0.69910000  0.94164000  1.0 0.2689206712
H  H13  1  0.68991000  0.43638000  0.39651000  1.0 0.3001199759
H  H14  1  0.56362000  0.25353000  0.39651000  1.0 0.3001199759
H  H15  1  0.74647000  0.31009000  0.39651000  1.0 0.3001199759
H  H16  1  0.31009000  0.56362000  0.89651000  1.0 0.3001199759
H  H17  1  0.43638000  0.74647000  0.89651000  1.0 0.3001199759
H  H18  1  0.25353000  0.68991000  0.89651000  1.0 0.3001199759
H  H19  1  0.70593000  0.37499000  0.53186000  1.0 0.2637870043
H  H20  1  0.62501000  0.33094000  0.53186000  1.0 0.2637870043
H  H21  1  0.66906000  0.29407000  0.53186000  1.0 0.2637870043
H  H22  1  0.29407000  0.62501000  0.03186000  1.0 0.2637870043
H  H23  1  0.37499000  0.66906000  0.03186000  1.0 0.2637870043
H  H24  1  0.33094000  0.70593000  0.03186000  1.0 0.2637870043
H  H25  1  0.89795000  0.49580000  0.40581000  1.0 0.3209984365
H  H26  1  0.50420000  0.40215000  0.40581000  1.0 0.3209984365
H  H27  1  0.59785000  0.10205000  0.40581000  1.0 0.3209984365
H  H28  1  0.10205000  0.50420000  0.90581000  1.0 0.3209984365
H  H29  1  0.49580000  0.59785000  0.90581000  1.0 0.3209984365
H  H30  1  0.40215000  0.89795000  0.90581000  1.0 0.3209984365
H  H31  1  0.84084000  0.50854000  0.40081000  1.0 0.3257762555
H  H32  1  0.49146000  0.33230000  0.40081000  1.0 0.3257762555
H  H33  1  0.66770000  0.15916000  0.40081000  1.0 0.3257762555
H  H34  1  0.15916000  0.49146000  0.90081000  1.0 0.3257762555
H  H35  1  0.50854000  0.66770000  0.90081000  1.0 0.3257762555
H  H36  1  0.33230000  0.84084000  0.90081000  1.0 0.3257762555
H  H37  1  0.25139000  0.73474000  0.52685000  1.0 0.1300533074
H  H38  1  0.26526000  0.51665000  0.52685000  1.0 0.1300533074
H  H39  1  0.48335000  0.74861000  0.52685000  1.0 0.1300533074
H  H40  1  0.74861000  0.26526000  0.02685000  1.0 0.1300533074
H  H41  1  0.73474000  0.48335000  0.02685000  1.0 0.1300533074
H  H42  1  0.51665000  0.25139000  0.02685000  1.0 0.1300533074
H  H43  1  0.29922000  0.81168000  0.54995000  1.0 0.1300533074
H  H44  1  0.18832000  0.48754000  0.54995000  1.0 0.1300533074
H  H45  1  0.51246000  0.70078000  0.54995000  1.0 0.1300533074
H  H46  1  0.70078000  0.18832000  0.04995000  1.0 0.1300533074
H  H47  1  0.81168000  0.51246000  0.04995000  1.0 0.1300533074
H  H48  1  0.48754000  0.29922000  0.04995000  1.0 0.1300533074
H  H49  1  0.88318000  0.48939000  0.52229000  1.0 0.3001199759
H  H50  1  0.51061000  0.39379000  0.52229000  1.0 0.3001199759
H  H51  1  0.60621000  0.11682000  0.52229000  1.0 0.3001199759
H  H52  1  0.11682000  0.51061000  0.02229000  1.0 0.3001199759
H  H53  1  0.48939000  0.60621000  0.02229000  1.0 0.3001199759
H  H54  1  0.39379000  0.88318000  0.02229000  1.0 0.3001199759
H  H55  1  0.84208000  0.49013000  0.48409000  1.0 0.3085075481
H  H56  1  0.50987000  0.35195000  0.48409000  1.0 0.3085075481
H  H57  1  0.64805000  0.15792000  0.48409000  1.0 0.3085075481
H  H58  1  0.15792000  0.50987000  0.98409000  1.0 0.3085075481
H  H59  1  0.49013000  0.64805000  0.98409000  1.0 0.3085075481
H  H60  1  0.35195000  0.84208000  0.98409000  1.0 0.3085075481
H  H61  1  0.80224000  0.44705000  0.52229000  1.0 0.2689206712
H  H62  1  0.55295000  0.35519000  0.52229000  1.0 0.2689206712
H  H63  1  0.64481000  0.19776000  0.52229000  1.0 0.2689206712
H  H64  1  0.19776000  0.55295000  0.02229000  1.0 0.2689206712
H  H65  1  0.44705000  0.64481000  0.02229000  1.0 0.2689206712
H  H66  1  0.35519000  0.80224000  0.02229000  1.0 0.2689206712
H  H67  1  0.59499000  0.53124000  0.47838000  1.0 0.1398006567
H  H68  1  0.46876000  0.06375000  0.47838000  1.0 0.1398006567
H  H69  1  0.93625000  0.40501000  0.47838000  1.0 0.1398006567
H  H70  1  0.40501000  0.46876000  0.97838000  1.0 0.1398006567
H  H71  1  0.53124000  0.93625000  0.97838000  1.0 0.1398006567
H  H72  1  0.06375000  0.59499000  0.97838000  1.0 0.1398006567
H  H73  1  0.46152000  0.82863000  0.65504000  1.0 0.1300533074
H  H74  1  0.17137000  0.63289000  0.65504000  1.0 0.1300533074
H  H75  1  0.36711000  0.53848000  0.65504000  1.0 0.1300533074
H  H76  1  0.53848000  0.17137000  0.15504000  1.0 0.1300533074
H  H77  1  0.82863000  0.36711000  0.15504000  1.0 0.1300533074
H  H78  1  0.63289000  0.46152000  0.15504000  1.0 0.1300533074
H  H79  1  0.40377000  0.80938000  0.69286000  1.0 0.1300533074
H  H80  1  0.19062000  0.59439000  0.69286000  1.0 0.1300533074
H  H81  1  0.40561000  0.59623000  0.69286000  1.0 0.1300533074
H  H82  1  0.59623000  0.19062000  0.19286000  1.0 0.1300533074
H  H83  1  0.80938000  0.40561000  0.19286000  1.0 0.1300533074
H  H84  1  0.59439000  0.40377000  0.19286000  1.0 0.1300533074
H  H85  1  0.41707000  0.86920000  0.76276000  1.0 0.1201337419
H  H86  1  0.13080000  0.54787000  0.76276000  1.0 0.1201337419
H  H87  1  0.45213000  0.58293000  0.76276000  1.0 0.1201337419
H  H88  1  0.58293000  0.13080000  0.26276000  1.0 0.1201337419
H  H89  1  0.86920000  0.45213000  0.26276000  1.0 0.1201337419
H  H90  1  0.54787000  0.41707000  0.26276000  1.0 0.1201337419
H  H91  1  0.81035000  0.64752000  0.45103000  1.0 0.1300533074
H  H92  1  0.35248000  0.16283000  0.45103000  1.0 0.1300533074
H  H93  1  0.83717000  0.18965000  0.45103000  1.0 0.1300533074
H  H94  1  0.18965000  0.35248000  0.95103000  1.0 0.1300533074
H  H95  1  0.64752000  0.83717000  0.95103000  1.0 0.1300533074
H  H96  1  0.16283000  0.81035000  0.95103000  1.0 0.1300533074
H  H97  1  0.42860000  0.90380000  0.38328000  1.0 0.1126709631
H  H98  1  0.09620000  0.52480000  0.38328000  1.0 0.1126709631
H  H99  1  0.47520000  0.57140000  0.38328000  1.0 0.1126709631
H  H100  1  0.57140000  0.09620000  0.88328000  1.0 0.1126709631
H  H101  1  0.90380000  0.47520000  0.88328000  1.0 0.1126709631
H  H102  1  0.52480000  0.42860000  0.88328000  1.0 0.1126709631
H  H103  1  0.66394000  0.50619000  0.53478000  1.0 0.1398006567
H  H104  1  0.49381000  0.15775000  0.53478000  1.0 0.1398006567
H  H105  1  0.84225000  0.33606000  0.53478000  1.0 0.1398006567
H  H106  1  0.33606000  0.49381000  0.03478000  1.0 0.1398006567
H  H107  1  0.50619000  0.84225000  0.03478000  1.0 0.1398006567
H  H108  1  0.15775000  0.66394000  0.03478000  1.0 0.1398006567
H  H109  1  0.59163000  0.91661000  0.64874000  1.0 0.1201337419
H  H110  1  0.08339000  0.67502000  0.64874000  1.0 0.1201337419
H  H111  1  0.32498000  0.40837000  0.64874000  1.0 0.1201337419
H  H112  1  0.40837000  0.08339000  0.14874000  1.0 0.1201337419
H  H113  1  0.91661000  0.32498000  0.14874000  1.0 0.1201337419
H  H114  1  0.67502000  0.59163000  0.14874000  1.0 0.1201337419
H  H115  1  0.71736000  0.97888000  0.64247000  1.0 0.1126709631
H  H116  1  0.02112000  0.73848000  0.64247000  1.0 0.1126709631
H  H117  1  0.26152000  0.28264000  0.64247000  1.0 0.1126709631
H  H118  1  0.28264000  0.02112000  0.14247000  1.0 0.1126709631
H  H119  1  0.97888000  0.26152000  0.14247000  1.0 0.1126709631
H  H120  1  0.73848000  0.71736000  0.14247000  1.0 0.1126709631
H  H121  1  0.31759000  0.93254000  0.53020000  1.0 0.1201337419
H  H122  1  0.06746000  0.38505000  0.53020000  1.0 0.1201337419
H  H123  1  0.61495000  0.68241000  0.53020000  1.0 0.1201337419
H  H124  1  0.68241000  0.06746000  0.03020000  1.0 0.1201337419
H  H125  1  0.93254000  0.61495000  0.03020000  1.0 0.1201337419
H  H126  1  0.38505000  0.31759000  0.03020000  1.0 0.1201337419
H  H127  1  0.32317000  0.04435000  0.53112000  1.0 0.1009371493
H  H128  1  0.95565000  0.27882000  0.53112000  1.0 0.1009371493
H  H129  1  0.72118000  0.67683000  0.53112000  1.0 0.1009371493
H  H130  1  0.67683000  0.95565000  0.03112000  1.0 0.1009371493
H  H131  1  0.04435000  0.72118000  0.03112000  1.0 0.1009371493
H  H132  1  0.27882000  0.32317000  0.03112000  1.0 0.1009371493
H  H133  1  0.62904000  0.81976000  0.80046000  1.0 0.1201337419
H  H134  1  0.18024000  0.80928000  0.80046000  1.0 0.1201337419
H  H135  1  0.19072000  0.37096000  0.80046000  1.0 0.1201337419
H  H136  1  0.37096000  0.18024000  0.30046000  1.0 0.1201337419
H  H137  1  0.81976000  0.19072000  0.30046000  1.0 0.1201337419
H  H138  1  0.80928000  0.62904000  0.30046000  1.0 0.1201337419
H  H139  1  0.17784000  0.70908000  0.46032000  1.0 0.1201337419
H  H140  1  0.29092000  0.46876000  0.46032000  1.0 0.1201337419
H  H141  1  0.53124000  0.82216000  0.46032000  1.0 0.1201337419
H  H142  1  0.82216000  0.29092000  0.96032000  1.0 0.1201337419
H  H143  1  0.70908000  0.53124000  0.96032000  1.0 0.1201337419
H  H144  1  0.46876000  0.17784000  0.96032000  1.0 0.1201337419
H  H145  1  0.58176000  0.68329000  0.13085000  1.0 0.1300533074
H  H146  1  0.31671000  0.89847000  0.13085000  1.0 0.1300533074
H  H147  1  0.10153000  0.41824000  0.13085000  1.0 0.1300533074
H  H148  1  0.41824000  0.31671000  0.63085000  1.0 0.1300533074
H  H149  1  0.68329000  0.10153000  0.63085000  1.0 0.1300533074
H  H150  1  0.89847000  0.58176000  0.63085000  1.0 0.1300533074
H  H151  1  0.51378000  0.12094000  0.67578000  1.0 0.1126709631
H  H152  1  0.87906000  0.39284000  0.67578000  1.0 0.1126709631
H  H153  1  0.60716000  0.48622000  0.67578000  1.0 0.1126709631
H  H154  1  0.48622000  0.87906000  0.17578000  1.0 0.1126709631
H  H155  1  0.12094000  0.60716000  0.17578000  1.0 0.1126709631
H  H156  1  0.39284000  0.51378000  0.17578000  1.0 0.1126709631
H  H157  1  0.32222000  0.81888000  0.33681000  1.0 0.1126709631
H  H158  1  0.18112000  0.50334000  0.33681000  1.0 0.1126709631
H  H159  1  0.49666000  0.67778000  0.33681000  1.0 0.1126709631
H  H160  1  0.67778000  0.18112000  0.83681000  1.0 0.1126709631
H  H161  1  0.81888000  0.49666000  0.83681000  1.0 0.1126709631
H  H162  1  0.50334000  0.32222000  0.83681000  1.0 0.1126709631
H  H163  1  0.12792000  0.67224000  0.39128000  1.0 0.1126709631
H  H164  1  0.32776000  0.45568000  0.39128000  1.0 0.1126709631
H  H165  1  0.54432000  0.87208000  0.39128000  1.0 0.1126709631
H  H166  1  0.87208000  0.32776000  0.89128000  1.0 0.1126709631
H  H167  1  0.67224000  0.54432000  0.89128000  1.0 0.1126709631
H  H168  1  0.45568000  0.12792000  0.89128000  1.0 0.1126709631
H  H169  1  0.59695000  0.87408000  0.09877000  1.0 0.1300533074
H  H170  1  0.12592000  0.72287000  0.09877000  1.0 0.1300533074
H  H171  1  0.27713000  0.40305000  0.09877000  1.0 0.1300533074
H  H172  1  0.40305000  0.12592000  0.59877000  1.0 0.1300533074
H  H173  1  0.87408000  0.27713000  0.59877000  1.0 0.1300533074
H  H174  1  0.72287000  0.59695000  0.59877000  1.0 0.1300533074
H  H175  1  0.02578000  0.80971000  0.53131000  1.0 0.1201337419
H  H176  1  0.19029000  0.21607000  0.53131000  1.0 0.1201337419
H  H177  1  0.78393000  0.97422000  0.53131000  1.0 0.1201337419
H  H178  1  0.97422000  0.19029000  0.03131000  1.0 0.1201337419
H  H179  1  0.80971000  0.78393000  0.03131000  1.0 0.1201337419
H  H180  1  0.21607000  0.02578000  0.03131000  1.0 0.1201337419
H  H181  1  0.40856000  0.93234000  0.82339000  1.0 0.1201337419
H  H182  1  0.06766000  0.47622000  0.82339000  1.0 0.1201337419
H  H183  1  0.52378000  0.59144000  0.82339000  1.0 0.1201337419
H  H184  1  0.59144000  0.06766000  0.32339000  1.0 0.1201337419
H  H185  1  0.93234000  0.52378000  0.32339000  1.0 0.1201337419
H  H186  1  0.47622000  0.40856000  0.32339000  1.0 0.1201337419
H  H187  1  0.68682000  0.85043000  0.23311000  1.0 0.1300533074
H  H188  1  0.14957000  0.83639000  0.23311000  1.0 0.1300533074
H  H189  1  0.16361000  0.31318000  0.23311000  1.0 0.1300533074
H  H190  1  0.31318000  0.14957000  0.73311000  1.0 0.1300533074
H  H191  1  0.85043000  0.16361000  0.73311000  1.0 0.1300533074
H  H192  1  0.83639000  0.68682000  0.73311000  1.0 0.1300533074
H  H193  1  0.62196000  0.87951000  0.17678000  1.0 0.1300533074
H  H194  1  0.12049000  0.74245000  0.17678000  1.0 0.1300533074
H  H195  1  0.25755000  0.37804000  0.17678000  1.0 0.1300533074
H  H196  1  0.37804000  0.12049000  0.67678000  1.0 0.1300533074
H  H197  1  0.87951000  0.25755000  0.67678000  1.0 0.1300533074
H  H198  1  0.74245000  0.62196000  0.67678000  1.0 0.1300533074
H  H199  1  0.20361000  0.72534000  0.32924000  1.0 0.1126709631
H  H200  1  0.27466000  0.47827000  0.32924000  1.0 0.1126709631
H  H201  1  0.52173000  0.79639000  0.32924000  1.0 0.1126709631
H  H202  1  0.79639000  0.27466000  0.82924000  1.0 0.1126709631
H  H203  1  0.72534000  0.52173000  0.82924000  1.0 0.1126709631
H  H204  1  0.47827000  0.20361000  0.82924000  1.0 0.1126709631
H  H205  1  0.74021000  0.90482000  0.75873000  1.0 0.1201337419
H  H206  1  0.09518000  0.83539000  0.75873000  1.0 0.1201337419
H  H207  1  0.16461000  0.25979000  0.75873000  1.0 0.1201337419
H  H208  1  0.25979000  0.09518000  0.25873000  1.0 0.1201337419
H  H209  1  0.90482000  0.16461000  0.25873000  1.0 0.1201337419
H  H210  1  0.83539000  0.74021000  0.25873000  1.0 0.1201337419
H  H211  1  0.60534000  0.56800000  0.31712000  1.0 0.1126709631
H  H212  1  0.43200000  0.03734000  0.31712000  1.0 0.1126709631
H  H213  1  0.96266000  0.39466000  0.31712000  1.0 0.1126709631
H  H214  1  0.39466000  0.43200000  0.81712000  1.0 0.1126709631
H  H215  1  0.56800000  0.96266000  0.81712000  1.0 0.1126709631
H  H216  1  0.03734000  0.60534000  0.81712000  1.0 0.1126709631
H  H217  1  0.10059000  0.94579000  0.52992000  1.0 0.1201337419
H  H218  1  0.05421000  0.15480000  0.52992000  1.0 0.1201337419
H  H219  1  0.84520000  0.89941000  0.52992000  1.0 0.1201337419
H  H220  1  0.89941000  0.05421000  0.02992000  1.0 0.1201337419
H  H221  1  0.94579000  0.84520000  0.02992000  1.0 0.1201337419
H  H222  1  0.15480000  0.10059000  0.02992000  1.0 0.1201337419
H  H223  1  0.63178000  0.52742000  0.38137000  1.0 0.1398006567
H  H224  1  0.47258000  0.10436000  0.38137000  1.0 0.1398006567
H  H225  1  0.89564000  0.36822000  0.38137000  1.0 0.1398006567
H  H226  1  0.36822000  0.47258000  0.88137000  1.0 0.1398006567
H  H227  1  0.52742000  0.89564000  0.88137000  1.0 0.1398006567
H  H228  1  0.10436000  0.63178000  0.88137000  1.0 0.1398006567
H  H229  1  0.79320000  0.97289000  0.69631000  1.0 0.1126709631
H  H230  1  0.02711000  0.82031000  0.69631000  1.0 0.1126709631
H  H231  1  0.17969000  0.20680000  0.69631000  1.0 0.1126709631
H  H232  1  0.20680000  0.02711000  0.19631000  1.0 0.1126709631
H  H233  1  0.97289000  0.17969000  0.19631000  1.0 0.1126709631
H  H234  1  0.82031000  0.79320000  0.19631000  1.0 0.1126709631
H  H235  1  0.21474000  0.05266000  0.52923000  1.0 0.1201337419
H  H236  1  0.94734000  0.16208000  0.52923000  1.0 0.1201337419
H  H237  1  0.83792000  0.78526000  0.52923000  1.0 0.1201337419
H  H238  1  0.78526000  0.94734000  0.02923000  1.0 0.1201337419
H  H239  1  0.05266000  0.83792000  0.02923000  1.0 0.1201337419
H  H240  1  0.16208000  0.21474000  0.02923000  1.0 0.1201337419
H  H241  1  0.70532000  0.81168000  0.30090000  1.0 0.1126709631
H  H242  1  0.18832000  0.89364000  0.30090000  1.0 0.1126709631
H  H243  1  0.10636000  0.29468000  0.30090000  1.0 0.1126709631
H  H244  1  0.29468000  0.18832000  0.80090000  1.0 0.1126709631
H  H245  1  0.81168000  0.10636000  0.80090000  1.0 0.1126709631
H  H246  1  0.89364000  0.70532000  0.80090000  1.0 0.1126709631
H  H247  1  0.48514000  0.11971000  0.75509000  1.0 0.1126709631
H  H248  1  0.88029000  0.36543000  0.75509000  1.0 0.1126709631
H  H249  1  0.63457000  0.51486000  0.75509000  1.0 0.1126709631
H  H250  1  0.51486000  0.88029000  0.25509000  1.0 0.1126709631
H  H251  1  0.11971000  0.63457000  0.25509000  1.0 0.1126709631
H  H252  1  0.36543000  0.48514000  0.25509000  1.0 0.1126709631
H  H253  1  0.44754000  0.05817000  0.81882000  1.0 0.1201337419
H  H254  1  0.94183000  0.38937000  0.81882000  1.0 0.1201337419
H  H255  1  0.61063000  0.55246000  0.81882000  1.0 0.1201337419
H  H256  1  0.55246000  0.94183000  0.31882000  1.0 0.1201337419
H  H257  1  0.05817000  0.61063000  0.31882000  1.0 0.1201337419
H  H258  1  0.38937000  0.44754000  0.31882000  1.0 0.1201337419
H  H259  1  0.54378000  0.63799000  0.20255000  1.0 0.1201337419
H  H260  1  0.36201000  0.90579000  0.20255000  1.0 0.1201337419
H  H261  1  0.09421000  0.45622000  0.20255000  1.0 0.1201337419
H  H262  1  0.45622000  0.36201000  0.70255000  1.0 0.1201337419
H  H263  1  0.63799000  0.09421000  0.70255000  1.0 0.1201337419
H  H264  1  0.90579000  0.54378000  0.70255000  1.0 0.1201337419
H  H265  1  0.56554000  0.60154000  0.26846000  1.0 0.1126709631
H  H266  1  0.39846000  0.96400000  0.26846000  1.0 0.1126709631
H  H267  1  0.03600000  0.43446000  0.26846000  1.0 0.1126709631
H  H268  1  0.43446000  0.39846000  0.76846000  1.0 0.1126709631
H  H269  1  0.60154000  0.03600000  0.76846000  1.0 0.1126709631
H  H270  1  0.96400000  0.56554000  0.76846000  1.0 0.1126709631
H  H271  1  0.68855000  0.77065000  0.36711000  1.0 0.1201337419
H  H272  1  0.22935000  0.91790000  0.36711000  1.0 0.1201337419
H  H273  1  0.08210000  0.31145000  0.36711000  1.0 0.1201337419
H  H274  1  0.31145000  0.22935000  0.86711000  1.0 0.1201337419
H  H275  1  0.77065000  0.08210000  0.86711000  1.0 0.1126709631
H  H276  1  0.91790000  0.68855000  0.86711000  1.0 0.1126709631
H  H277  1  0.71215000  0.72834000  0.43346000  1.0 0.1300533074
H  H278  1  0.27166000  0.98381000  0.43346000  1.0 0.1300533074
H  H279  1  0.01619000  0.28785000  0.43346000  1.0 0.1300533074
H  H280  1  0.28785000  0.27166000  0.93346000  1.0 0.1300533074
H  H281  1  0.72834000  0.01619000  0.93346000  1.0 0.1300533074
H  H282  1  0.98381000  0.71215000  0.93346000  1.0 0.1300533074
C  C1  1  0.19910000  0.79530000  0.52938000  1.0 -0.0284523144
C  C2  1  0.20470000  0.40380000  0.52938000  1.0 -0.0284523144
C  C3  1  0.59620000  0.80090000  0.52938000  1.0 -0.0284523144
C  C4  1  0.80090000  0.20470000  0.02938000  1.0 -0.0284523144
C  C5  1  0.79530000  0.59620000  0.02938000  1.0 -0.0284523144
C  C6  1  0.40380000  0.19910000  0.02938000  1.0 -0.0284523144
C  C7  1  0.98920000  0.67050000  0.54057000  1.0 0.6144663556
C  C8  1  0.32950000  0.31870000  0.54057000  1.0 0.6144663556
C  C9  1  0.68130000  0.01080000  0.54057000  1.0 0.6144663556
C  C10  1  0.01080000  0.32950000  0.04057000  1.0 0.6144663556
C  C11  1  0.67050000  0.68130000  0.04057000  1.0 0.6144663556
C  C12  1  0.31870000  0.98920000  0.04057000  1.0 0.6144663556
C  C13  1  0.52830000  0.07910000  0.59858000  1.0 0.592685358
C  C14  1  0.92090000  0.44920000  0.59858000  1.0 0.592685358
C  C15  1  0.55080000  0.47170000  0.59858000  1.0 0.592685358
C  C16  1  0.47170000  0.92090000  0.09858000  1.0 0.592685358
C  C17  1  0.07910000  0.55080000  0.09858000  1.0 0.592685358
C  C18  1  0.44920000  0.52830000  0.09858000  1.0 0.592685358
C  C19  1  0.31310000  0.81880000  0.48359000  1.0 -0.0284523144
C  C20  1  0.18120000  0.49430000  0.48359000  1.0 -0.0284523144
C  C21  1  0.50570000  0.68690000  0.48359000  1.0 -0.0284523144
C  C22  1  0.68690000  0.18120000  0.98359000  1.0 -0.0284523144
C  C23  1  0.81880000  0.50570000  0.98359000  1.0 -0.0284523144
C  C24  1  0.49430000  0.31310000  0.98359000  1.0 -0.0284523144
C  C25  1  0.12920000  0.73180000  0.53430000  1.0 0.2637870043
C  C26  1  0.26820000  0.39740000  0.53430000  1.0 0.2637870043
C  C27  1  0.60260000  0.87080000  0.53430000  1.0 0.2637870043
C  C28  1  0.87080000  0.26820000  0.03430000  1.0 0.2637870043
C  C29  1  0.73180000  0.60260000  0.03430000  1.0 0.2637870043
C  C30  1  0.39740000  0.12920000  0.03430000  1.0 0.2637870043
C  C31  1  0.51100000  0.96690000  0.44978000  1.0 0.592685358
C  C32  1  0.03310000  0.54410000  0.44978000  1.0 0.592685358
C  C33  1  0.45590000  0.48900000  0.44978000  1.0 0.592685358
C  C34  1  0.48900000  0.03310000  0.94978000  1.0 0.592685358
C  C35  1  0.96690000  0.45590000  0.94978000  1.0 0.592685358
C  C36  1  0.54410000  0.51100000  0.94978000  1.0 0.592685358
C  C37  1  0.28110000  0.79160000  0.44164000  1.0 0.0512468058
C  C38  1  0.20840000  0.48950000  0.44164000  1.0 0.0512468058
C  C39  1  0.51050000  0.71890000  0.44164000  1.0 0.0512468058
C  C40  1  0.71890000  0.20840000  0.94164000  1.0 0.0512468058
C  C41  1  0.79160000  0.51050000  0.94164000  1.0 0.0512468058
C  C42  1  0.48950000  0.28110000  0.94164000  1.0 0.0512468058
C  C43  1  0.32580000  0.82350000  0.40352000  1.0 0.0605669175
C  C44  1  0.17650000  0.50230000  0.40352000  1.0 0.0605669175
C  C45  1  0.49770000  0.67420000  0.40352000  1.0 0.0605669175
C  C46  1  0.67420000  0.17650000  0.90352000  1.0 0.0605669175
C  C47  1  0.82350000  0.49770000  0.90352000  1.0 0.0605669175
C  C48  1  0.50230000  0.32580000  0.90352000  1.0 0.0605669175
C  C49  1  0.47550000  0.78640000  0.75178000  1.0 0.2637870043
C  C50  1  0.21360000  0.68910000  0.75178000  1.0 0.2637870043
C  C51  1  0.31090000  0.52450000  0.75178000  1.0 0.2637870043
C  C52  1  0.52450000  0.21360000  0.25178000  1.0 0.2637870043
C  C53  1  0.78640000  0.31090000  0.25178000  1.0 0.2637870043
C  C54  1  0.68910000  0.47550000  0.25178000  1.0 0.2637870043
C  C55  1  0.58450000  0.87150000  0.70931000  1.0 0.0413917713
C  C56  1  0.12850000  0.71300000  0.70931000  1.0 0.0413917713
C  C57  1  0.28700000  0.41550000  0.70931000  1.0 0.0413917713
C  C58  1  0.41550000  0.12850000  0.20931000  1.0 0.0413917713
C  C59  1  0.87150000  0.28700000  0.20931000  1.0 0.0413917713
C  C60  1  0.71300000  0.58450000  0.20931000  1.0 0.0413917713
C  C61  1  0.50550000  0.03610000  0.64075000  1.0 -0.1591422078
C  C62  1  0.96390000  0.46940000  0.64075000  1.0 -0.1591422078
C  C63  1  0.53060000  0.49450000  0.64075000  1.0 -0.1591422078
C  C64  1  0.49450000  0.96390000  0.14075000  1.0 -0.1591422078
C  C65  1  0.03610000  0.53060000  0.14075000  1.0 -0.1591422078
C  C66  1  0.46940000  0.50550000  0.14075000  1.0 -0.1591422078
C  C67  1  0.26710000  0.78730000  0.52511000  1.0 -0.247383484
C  C68  1  0.21270000  0.47980000  0.52511000  1.0 -0.247383484
C  C69  1  0.52020000  0.73290000  0.52511000  1.0 -0.247383484
C  C70  1  0.73290000  0.21270000  0.02511000  1.0 -0.247383484
C  C71  1  0.78730000  0.52020000  0.02511000  1.0 -0.247383484
C  C72  1  0.47980000  0.26710000  0.02511000  1.0 -0.247383484
C  C73  1  0.20480000  0.86670000  0.52960000  1.0 0.0512468058
C  C74  1  0.13330000  0.33810000  0.52960000  1.0 0.0512468058
C  C75  1  0.66190000  0.79520000  0.52960000  1.0 0.0512468058
C  C76  1  0.79520000  0.13330000  0.02960000  1.0 0.0512468058
C  C77  1  0.86670000  0.66190000  0.02960000  1.0 0.0512468058
C  C78  1  0.33810000  0.20480000  0.02960000  1.0 0.0512468058
C  C79  1  0.48910000  0.96080000  0.64288000  1.0 0.2467386736
C  C80  1  0.03920000  0.52830000  0.64288000  1.0 0.2467386736
C  C81  1  0.47170000  0.51090000  0.64288000  1.0 0.2467386736
C  C82  1  0.51090000  0.03920000  0.14288000  1.0 0.2467386736
C  C83  1  0.96080000  0.47170000  0.14288000  1.0 0.2467386736
C  C84  1  0.52830000  0.48910000  0.14288000  1.0 0.2467386736
C  C85  1  0.50710000  0.83390000  0.71554000  1.0 -0.0218876233
C  C86  1  0.16610000  0.67320000  0.71554000  1.0 -0.0218876233
C  C87  1  0.32680000  0.49290000  0.71554000  1.0 -0.0218876233
C  C88  1  0.49290000  0.16610000  0.21554000  1.0 -0.0218876233
C  C89  1  0.83390000  0.32680000  0.21554000  1.0 -0.0218876233
C  C90  1  0.67320000  0.50710000  0.21554000  1.0 -0.0218876233
C  C91  1  0.38790000  0.87240000  0.48666000  1.0 0.2406158659
C  C92  1  0.12760000  0.51550000  0.48666000  1.0 0.2406158659
C  C93  1  0.48450000  0.61210000  0.48666000  1.0 0.2406158659
C  C94  1  0.61210000  0.12760000  0.98666000  1.0 0.2406158659
C  C95  1  0.87240000  0.48450000  0.98666000  1.0 0.2406158659
C  C96  1  0.51550000  0.38790000  0.98666000  1.0 0.2406158659
C  C97  1  0.47770000  0.03350000  0.71782000  1.0 0.0512468058
C  C98  1  0.96650000  0.44420000  0.71782000  1.0 0.0512468058
C  C99  1  0.55580000  0.52230000  0.71782000  1.0 0.0512468058
C  C100  1  0.52230000  0.96650000  0.21782000  1.0 0.0512468058
C  C101  1  0.03350000  0.55580000  0.21782000  1.0 0.0512468058
C  C102  1  0.44420000  0.47770000  0.21782000  1.0 0.0512468058
C  C103  1  0.64640000  0.55130000  0.47973000  1.0 -0.0898182612
C  C104  1  0.44870000  0.09510000  0.47973000  1.0 -0.0898182612
C  C105  1  0.90490000  0.35360000  0.47973000  1.0 -0.0898182612
C  C106  1  0.35360000  0.44870000  0.97973000  1.0 -0.0898182612
C  C107  1  0.55130000  0.90490000  0.97973000  1.0 -0.0898182612
C  C108  1  0.09510000  0.64640000  0.97973000  1.0 -0.0898182612
C  C109  1  0.45490000  0.84290000  0.68412000  1.0 -0.2439685252
C  C110  1  0.15710000  0.61200000  0.68412000  1.0 -0.2439685252
C  C111  1  0.38800000  0.54510000  0.68412000  1.0 -0.2439685252
C  C112  1  0.54510000  0.15710000  0.18412000  1.0 -0.2439685252
C  C113  1  0.84290000  0.38800000  0.18412000  1.0 -0.2439685252
C  C114  1  0.61200000  0.45490000  0.18412000  1.0 -0.2439685252
C  C115  1  0.43170000  0.91950000  0.76065000  1.0 -0.1309385026
C  C116  1  0.08050000  0.51220000  0.76065000  1.0 -0.1309385026
C  C117  1  0.48780000  0.56830000  0.76065000  1.0 -0.1309385026
C  C118  1  0.56830000  0.08050000  0.26065000  1.0 -0.1309385026
C  C119  1  0.91950000  0.48780000  0.26065000  1.0 -0.1309385026
C  C120  1  0.51220000  0.43170000  0.26065000  1.0 -0.1309385026
C  C121  1  0.76570000  0.61570000  0.46505000  1.0 0.0880827073
C  C122  1  0.38430000  0.15000000  0.46505000  1.0 0.0880827073
C  C123  1  0.85000000  0.23430000  0.46505000  1.0 0.0880827073
C  C124  1  0.23430000  0.38430000  0.96505000  1.0 0.0880827073
C  C125  1  0.61570000  0.85000000  0.96505000  1.0 0.0880827073
C  C126  1  0.15000000  0.76570000  0.96505000  1.0 0.0880827073
C  C127  1  0.43230000  0.90500000  0.44868000  1.0 -0.1689288661
C  C128  1  0.09500000  0.52730000  0.44868000  1.0 -0.1689288661
C  C129  1  0.47270000  0.56770000  0.44868000  1.0 -0.1689288661
C  C130  1  0.56770000  0.09500000  0.94868000  1.0 -0.1689288661
C  C131  1  0.90500000  0.47270000  0.94868000  1.0 -0.1689288661
C  C132  1  0.52730000  0.43230000  0.94868000  1.0 -0.1689288661
C  C133  1  0.65340000  0.67640000  0.33379000  1.0 0.0605669175
C  C134  1  0.32360000  0.97700000  0.33379000  1.0 0.0605669175
C  C135  1  0.02300000  0.34660000  0.33379000  1.0 0.0605669175
C  C136  1  0.34660000  0.32360000  0.83379000  1.0 0.0605669175
C  C137  1  0.67640000  0.02300000  0.83379000  1.0 0.0605669175
C  C138  1  0.97700000  0.65340000  0.83379000  1.0 0.0605669175
C  C139  1  0.52270000  0.78140000  0.78454000  1.0 -0.1689288661
C  C140  1  0.21860000  0.74130000  0.78454000  1.0 -0.1689288661
C  C141  1  0.25870000  0.47730000  0.78454000  1.0 -0.1689288661
C  C142  1  0.47730000  0.21860000  0.28454000  1.0 -0.1689288661
C  C143  1  0.78140000  0.25870000  0.28454000  1.0 -0.1689288661
C  C144  1  0.74130000  0.52270000  0.28454000  1.0 -0.1689288661
C  C145  1  0.40040000  0.88130000  0.40811000  1.0 -0.1467657548
C  C146  1  0.11870000  0.51910000  0.40811000  1.0 -0.1467657548
C  C147  1  0.48090000  0.59960000  0.40811000  1.0 -0.1467657548
C  C148  1  0.59960000  0.11870000  0.90811000  1.0 -0.1467657548
C  C149  1  0.88130000  0.48090000  0.90811000  1.0 -0.1467657548
C  C150  1  0.51910000  0.40040000  0.90811000  1.0 -0.1467657548
C  C151  1  0.68490000  0.53810000  0.51110000  1.0 -0.0452310753
C  C152  1  0.46190000  0.14680000  0.51110000  1.0 -0.0452310753
C  C153  1  0.85320000  0.31510000  0.51110000  1.0 -0.0452310753
C  C154  1  0.31510000  0.46190000  0.01110000  1.0 -0.0452310753
C  C155  1  0.53810000  0.85320000  0.01110000  1.0 -0.0452310753
C  C156  1  0.14680000  0.68490000  0.01110000  1.0 -0.0452310753
C  C157  1  0.06330000  0.73760000  0.53554000  1.0 -0.1591422078
C  C158  1  0.26240000  0.32570000  0.53554000  1.0 -0.1591422078
C  C159  1  0.67430000  0.93670000  0.53554000  1.0 -0.1591422078
C  C160  1  0.93670000  0.26240000  0.03554000  1.0 -0.1591422078
C  C161  1  0.73760000  0.67430000  0.03554000  1.0 -0.1591422078
C  C162  1  0.32570000  0.06330000  0.03554000  1.0 -0.1591422078
C  C163  1  0.62030000  0.91400000  0.67130000  1.0 -0.1309385026
C  C164  1  0.08600000  0.70630000  0.67130000  1.0 -0.1309385026
C  C165  1  0.29370000  0.37970000  0.67130000  1.0 -0.1309385026
C  C166  1  0.37970000  0.08600000  0.17130000  1.0 -0.1309385026
C  C167  1  0.91400000  0.29370000  0.17130000  1.0 -0.1309385026
C  C168  1  0.70630000  0.62030000  0.17130000  1.0 -0.1309385026
C  C169  1  0.69560000  0.95070000  0.66740000  1.0 -0.1011725825
C  C170  1  0.04930000  0.74490000  0.66740000  1.0 -0.1011725825
C  C171  1  0.25510000  0.30440000  0.66740000  1.0 -0.1011725825
C  C172  1  0.30440000  0.04930000  0.16740000  1.0 -0.1011725825
C  C173  1  0.95070000  0.25510000  0.16740000  1.0 -0.1011725825
C  C174  1  0.74490000  0.69560000  0.16740000  1.0 -0.1011725825
C  C175  1  0.27350000  0.93410000  0.53010000  1.0 -0.1309385026
C  C176  1  0.06590000  0.33940000  0.53010000  1.0 -0.1309385026
C  C177  1  0.66060000  0.72650000  0.53010000  1.0 -0.1309385026
C  C178  1  0.72650000  0.06590000  0.03010000  1.0 -0.1309385026
C  C179  1  0.93410000  0.66060000  0.03010000  1.0 -0.1309385026
C  C180  1  0.33940000  0.27350000  0.03010000  1.0 -0.1309385026
C  C181  1  0.61020000  0.74730000  0.21186000  1.0 0.1560731891
C  C182  1  0.25270000  0.86290000  0.21186000  1.0 0.1560731891
C  C183  1  0.13710000  0.38980000  0.21186000  1.0 0.1560731891
C  C184  1  0.38980000  0.25270000  0.71186000  1.0 0.1560731891
C  C185  1  0.74730000  0.13710000  0.71186000  1.0 0.1560731891
C  C186  1  0.86290000  0.61020000  0.71186000  1.0 0.1560731891
C  C187  1  0.27690000  0.00100000  0.53040000  1.0 -0.0898182612
C  C188  1  0.99900000  0.27590000  0.53040000  1.0 -0.0898182612
C  C189  1  0.72410000  0.72310000  0.53040000  1.0 -0.0898182612
C  C190  1  0.72310000  0.99900000  0.03040000  1.0 -0.0898182612
C  C191  1  0.00100000  0.72410000  0.03040000  1.0 -0.0898182612
C  C192  1  0.27590000  0.27690000  0.03040000  1.0 -0.0898182612
C  C193  1  0.45920000  0.95800000  0.72006000  1.0 0.0413917713
C  C194  1  0.04200000  0.50120000  0.72006000  1.0 0.0413917713
C  C195  1  0.49880000  0.54080000  0.72006000  1.0 0.0413917713
C  C196  1  0.54080000  0.04200000  0.22006000  1.0 0.0413917713
C  C197  1  0.95800000  0.49880000  0.22006000  1.0 0.0413917713
C  C198  1  0.50120000  0.45920000  0.22006000  1.0 0.0413917713
C  C199  1  0.68220000  0.62610000  0.41086000  1.0 0.1468252751
C  C200  1  0.37390000  0.05610000  0.41086000  1.0 0.1468252751
C  C201  1  0.94390000  0.31780000  0.41086000  1.0 0.1468252751
C  C202  1  0.31780000  0.37390000  0.91086000  1.0 0.1468252751
C  C203  1  0.62610000  0.94390000  0.91086000  1.0 0.1468252751
C  C204  1  0.05610000  0.68220000  0.91086000  1.0 0.1468252751
C  C205  1  0.49240000  0.73630000  0.82453000  1.0 0.5989420179
C  C206  1  0.26370000  0.75610000  0.82453000  1.0 0.5989420179
C  C207  1  0.24390000  0.50760000  0.82453000  1.0 0.5989420179
C  C208  1  0.50760000  0.26370000  0.32453000  1.0 0.5989420179
C  C209  1  0.73630000  0.24390000  0.32453000  1.0 0.5989420179
C  C210  1  0.75610000  0.49240000  0.32453000  1.0 0.5989420179
C  C211  1  0.63150000  0.86660000  0.74200000  1.0 0.0605669175
C  C212  1  0.13340000  0.76490000  0.74200000  1.0 0.0605669175
C  C213  1  0.23510000  0.36850000  0.74200000  1.0 0.0605669175
C  C214  1  0.36850000  0.13340000  0.24200000  1.0 0.0605669175
C  C215  1  0.86660000  0.23510000  0.24200000  1.0 0.0605669175
C  C216  1  0.76490000  0.63150000  0.24200000  1.0 0.0605669175
C  C217  1  0.59840000  0.82190000  0.77899000  1.0 -0.1402188571
C  C218  1  0.17810000  0.77650000  0.77899000  1.0 -0.1402188571
C  C219  1  0.22350000  0.40160000  0.77899000  1.0 -0.1402188571
C  C220  1  0.40160000  0.17810000  0.27899000  1.0 -0.1402188571
C  C221  1  0.82190000  0.22350000  0.27899000  1.0 -0.1402188571
C  C222  1  0.77650000  0.59840000  0.27899000  1.0 -0.1402188571
C  C223  1  0.20700000  0.73260000  0.43596000  1.0 -0.1235358326
C  C224  1  0.26740000  0.47440000  0.43596000  1.0 -0.1235358326
C  C225  1  0.52560000  0.79300000  0.43596000  1.0 -0.1235358326
C  C226  1  0.79300000  0.26740000  0.93596000  1.0 -0.1235358326
C  C227  1  0.73260000  0.52560000  0.93596000  1.0 -0.1235358326
C  C228  1  0.47440000  0.20700000  0.93596000  1.0 -0.1235358326
C  C229  1  0.63830000  0.70160000  0.29192000  1.0 0.0660206515
C  C230  1  0.29840000  0.93670000  0.29192000  1.0 0.0660206515
C  C231  1  0.06330000  0.36170000  0.29192000  1.0 0.0660206515
C  C232  1  0.36170000  0.29840000  0.79192000  1.0 0.0660206515
C  C233  1  0.70160000  0.06330000  0.79192000  1.0 0.0660206515
C  C234  1  0.93670000  0.63830000  0.79192000  1.0 0.0660206515
C  C235  1  0.13770000  0.87110000  0.53022000  1.0 0.0605669175
C  C236  1  0.12890000  0.26660000  0.53022000  1.0 0.0605669175
C  C237  1  0.73340000  0.86230000  0.53022000  1.0 0.0605669175
C  C238  1  0.86230000  0.12890000  0.03022000  1.0 0.0605669175
C  C239  1  0.87110000  0.73340000  0.03022000  1.0 0.0605669175
C  C240  1  0.26660000  0.13770000  0.03022000  1.0 0.0605669175
C  C241  1  0.58620000  0.73020000  0.13254000  1.0 0.1201337419
C  C242  1  0.26980000  0.85600000  0.13254000  1.0 0.1201337419
C  C243  1  0.14400000  0.41380000  0.13254000  1.0 0.1201337419
C  C244  1  0.41380000  0.26980000  0.63254000  1.0 0.1201337419
C  C245  1  0.73020000  0.14400000  0.63254000  1.0 0.1201337419
C  C246  1  0.85600000  0.58620000  0.63254000  1.0 0.1201337419
C  C247  1  0.46820000  0.92200000  0.68264000  1.0 -0.0218876233
C  C248  1  0.07800000  0.54620000  0.68264000  1.0 -0.0218876233
C  C249  1  0.45380000  0.53180000  0.68264000  1.0 -0.0218876233
C  C250  1  0.53180000  0.07800000  0.18264000  1.0 -0.0218876233
C  C251  1  0.92200000  0.45380000  0.18264000  1.0 -0.0218876233
C  C252  1  0.54620000  0.46820000  0.18264000  1.0 -0.0218876233
C  C253  1  0.50110000  0.07110000  0.67742000  1.0 -0.1689288661
C  C254  1  0.92890000  0.43000000  0.67742000  1.0 -0.1689288661
C  C255  1  0.57000000  0.49890000  0.67742000  1.0 -0.1689288661
C  C256  1  0.49890000  0.92890000  0.17742000  1.0 -0.1689288661
C  C257  1  0.07110000  0.57000000  0.17742000  1.0 -0.1689288661
C  C258  1  0.43000000  0.50110000  0.17742000  1.0 -0.1689288661
C  C259  1  0.29350000  0.79720000  0.36159000  1.0 -0.1402188571
C  C260  1  0.20280000  0.49630000  0.36159000  1.0 -0.1402188571
C  C261  1  0.50370000  0.70650000  0.36159000  1.0 -0.1402188571
C  C262  1  0.70650000  0.20280000  0.86159000  1.0 -0.1402188571
C  C263  1  0.79720000  0.50370000  0.86159000  1.0 -0.1402188571
C  C264  1  0.49630000  0.29350000  0.86159000  1.0 -0.1402188571
C  C265  1  0.17750000  0.70930000  0.39457000  1.0 -0.0898182612
C  C266  1  0.29070000  0.46820000  0.39457000  1.0 -0.0898182612
C  C267  1  0.53180000  0.82250000  0.39457000  1.0 -0.0898182612
C  C268  1  0.82250000  0.29070000  0.89457000  1.0 -0.0898182612
C  C269  1  0.70930000  0.53180000  0.89457000  1.0 -0.0898182612
C  C270  1  0.46820000  0.17750000  0.89457000  1.0 -0.0898182612
C  C271  1  0.59570000  0.83580000  0.11531000  1.0 -0.0218876233
C  C272  1  0.16420000  0.75990000  0.11531000  1.0 -0.0218876233
C  C273  1  0.24010000  0.40430000  0.11531000  1.0 -0.0218876233
C  C274  1  0.40430000  0.16420000  0.61531000  1.0 -0.0218876233
C  C275  1  0.83580000  0.24010000  0.61531000  1.0 -0.0218876233
C  C276  1  0.75990000  0.59570000  0.61531000  1.0 -0.0218876233
C  C277  1  0.06900000  0.80650000  0.53223000  1.0 -0.1402188571
C  C278  1  0.19350000  0.26250000  0.53223000  1.0 -0.1402188571
C  C279  1  0.73750000  0.93100000  0.53223000  1.0 -0.1402188571
C  C280  1  0.93100000  0.19350000  0.03223000  1.0 -0.1402188571
C  C281  1  0.80650000  0.73750000  0.03223000  1.0 -0.1402188571
C  C282  1  0.26250000  0.06900000  0.03223000  1.0 -0.1402188571
C  C283  1  0.42670000  0.95750000  0.79711000  1.0 -0.0814823197
C  C284  1  0.04250000  0.46920000  0.79711000  1.0 -0.0814823197
C  C285  1  0.53080000  0.57330000  0.79711000  1.0 -0.0814823197
C  C286  1  0.57330000  0.04250000  0.29711000  1.0 -0.0814823197
C  C287  1  0.95750000  0.53080000  0.29711000  1.0 -0.0814823197
C  C288  1  0.46920000  0.42670000  0.29711000  1.0 -0.0814823197
C  C289  1  0.66120000  0.80020000  0.24060000  1.0 -0.1771880921
C  C290  1  0.19980000  0.86100000  0.24060000  1.0 -0.1771880921
C  C291  1  0.13900000  0.33880000  0.24060000  1.0 -0.1771880921
C  C292  1  0.33880000  0.19980000  0.74060000  1.0 -0.1771880921
C  C293  1  0.80020000  0.13900000  0.74060000  1.0 -0.1771880921
C  C294  1  0.86100000  0.66120000  0.74060000  1.0 -0.1771880921
C  C295  1  0.60920000  0.83930000  0.15829000  1.0 -0.1095473985
C  C296  1  0.16070000  0.76990000  0.15829000  1.0 -0.1095473985
C  C297  1  0.23010000  0.39080000  0.15829000  1.0 -0.1095473985
C  C298  1  0.39080000  0.16070000  0.65829000  1.0 -0.1095473985
C  C299  1  0.83930000  0.23010000  0.65829000  1.0 -0.1095473985
C  C300  1  0.76990000  0.60920000  0.65829000  1.0 -0.1095473985
C  C301  1  0.22300000  0.74220000  0.35697000  1.0 -0.1095473985
C  C302  1  0.25780000  0.48080000  0.35697000  1.0 -0.1095473985
C  C303  1  0.51920000  0.77700000  0.35697000  1.0 -0.1095473985
C  C304  1  0.77700000  0.25780000  0.85697000  1.0 -0.1095473985
C  C305  1  0.74220000  0.51920000  0.85697000  1.0 -0.1095473985
C  C306  1  0.48080000  0.22300000  0.85697000  1.0 -0.1095473985
C  C307  1  0.71000000  0.90650000  0.73680000  1.0 -0.1467657548
C  C308  1  0.09350000  0.80350000  0.73680000  1.0 -0.1467657548
C  C309  1  0.19650000  0.29000000  0.73680000  1.0 -0.1467657548
C  C310  1  0.29000000  0.09350000  0.23680000  1.0 -0.1467657548
C  C311  1  0.90650000  0.19650000  0.23680000  1.0 -0.1467657548
C  C312  1  0.80350000  0.71000000  0.23680000  1.0 -0.1467657548
C  C313  1  0.63090000  0.60180000  0.33940000  1.0 -0.1235358326
C  C314  1  0.39820000  0.02910000  0.33940000  1.0 -0.1235358326
C  C315  1  0.97090000  0.36910000  0.33940000  1.0 -0.1235358326
C  C316  1  0.36910000  0.39820000  0.83940000  1.0 -0.1235358326
C  C317  1  0.60180000  0.97090000  0.83940000  1.0 -0.1235358326
C  C318  1  0.02910000  0.63090000  0.83940000  1.0 -0.1235358326
C  C319  1  0.14370000  0.94240000  0.53000000  1.0 -0.1402188571
C  C320  1  0.05760000  0.20130000  0.53000000  1.0 -0.1402188571
C  C321  1  0.79870000  0.85630000  0.53000000  1.0 -0.1402188571
C  C322  1  0.85630000  0.05760000  0.03000000  1.0 -0.1402188571
C  C323  1  0.94240000  0.79870000  0.03000000  1.0 -0.1402188571
C  C324  1  0.20130000  0.14370000  0.03000000  1.0 -0.1402188571
C  C325  1  0.64630000  0.57750000  0.37800000  1.0 -0.1402188571
C  C326  1  0.42250000  0.06880000  0.37800000  1.0 -0.1402188571
C  C327  1  0.93120000  0.35370000  0.37800000  1.0 -0.1402188571
C  C328  1  0.35370000  0.42250000  0.87800000  1.0 -0.1402188571
C  C329  1  0.57750000  0.93120000  0.87800000  1.0 -0.1402188571
C  C330  1  0.06880000  0.64630000  0.87800000  1.0 -0.1402188571
C  C331  1  0.74170000  0.94750000  0.69990000  1.0 -0.1095473985
C  C332  1  0.05250000  0.79420000  0.69990000  1.0 -0.1095473985
C  C333  1  0.20580000  0.25830000  0.69990000  1.0 -0.1095473985
C  C334  1  0.25830000  0.05250000  0.19990000  1.0 -0.1095473985
C  C335  1  0.94750000  0.20580000  0.19990000  1.0 -0.1011725825
C  C336  1  0.79420000  0.74170000  0.19990000  1.0 -0.1011725825
C  C337  1  0.21160000  0.00630000  0.52980000  1.0 -0.1095473985
C  C338  1  0.99370000  0.20530000  0.52980000  1.0 -0.1095473985
C  C339  1  0.79470000  0.78840000  0.52980000  1.0 -0.1095473985
C  C340  1  0.78840000  0.99370000  0.02980000  1.0 -0.1095473985
C  C341  1  0.00630000  0.79470000  0.02980000  1.0 -0.1095473985
C  C342  1  0.20530000  0.21160000  0.02980000  1.0 -0.1095473985
C  C343  1  0.67320000  0.77640000  0.28090000  1.0 -0.1309385026
C  C344  1  0.22360000  0.89680000  0.28090000  1.0 -0.1309385026
C  C345  1  0.10320000  0.32680000  0.28090000  1.0 -0.1309385026
C  C346  1  0.32680000  0.22360000  0.78090000  1.0 -0.1309385026
C  C347  1  0.77640000  0.10320000  0.78090000  1.0 -0.1309385026
C  C348  1  0.89680000  0.67320000  0.78090000  1.0 -0.1309385026
C  C349  1  0.47230000  0.06980000  0.75640000  1.0 -0.1591422078
C  C350  1  0.93020000  0.40250000  0.75640000  1.0 -0.1591422078
C  C351  1  0.59750000  0.52770000  0.75640000  1.0 -0.1591422078
C  C352  1  0.52770000  0.93020000  0.25640000  1.0 -0.1591422078
C  C353  1  0.06980000  0.59750000  0.25640000  1.0 -0.1591422078
C  C354  1  0.40250000  0.47230000  0.25640000  1.0 -0.1591422078
C  C355  1  0.44900000  0.03300000  0.79400000  1.0 -0.0898182612
C  C356  1  0.96700000  0.41600000  0.79400000  1.0 -0.0898182612
C  C357  1  0.58400000  0.55100000  0.79400000  1.0 -0.0898182612
C  C358  1  0.55100000  0.96700000  0.29400000  1.0 -0.0898182612
C  C359  1  0.03300000  0.58400000  0.29400000  1.0 -0.0898182612
C  C360  1  0.41600000  0.44900000  0.29400000  1.0 -0.0898182612
C  C361  1  0.57630000  0.67360000  0.22220000  1.0 -0.1591422078
C  C362  1  0.32640000  0.90270000  0.22220000  1.0 -0.1591422078
C  C363  1  0.09730000  0.42370000  0.22220000  1.0 -0.1591422078
C  C364  1  0.42370000  0.32640000  0.72220000  1.0 -0.1591422078
C  C365  1  0.67360000  0.09730000  0.72220000  1.0 -0.1591422078
C  C366  1  0.90270000  0.57630000  0.72220000  1.0 -0.1591422078
C  C367  1  0.59000000  0.65210000  0.26180000  1.0 -0.1235358326
C  C368  1  0.34790000  0.93790000  0.26180000  1.0 -0.1235358326
C  C369  1  0.06210000  0.41000000  0.26180000  1.0 -0.1235358326
C  C370  1  0.41000000  0.34790000  0.76180000  1.0 -0.1235358326
C  C371  1  0.65210000  0.06210000  0.76180000  1.0 -0.1235358326
C  C372  1  0.93790000  0.59000000  0.76180000  1.0 -0.1235358326
C  C373  1  0.67990000  0.72220000  0.36920000  1.0 -0.1235358326
C  C374  1  0.27780000  0.95770000  0.36920000  1.0 -0.1235358326
C  C375  1  0.04230000  0.32010000  0.36920000  1.0 -0.1235358326
C  C376  1  0.32010000  0.27780000  0.86920000  1.0 -0.1235358326
C  C377  1  0.72220000  0.04230000  0.86920000  1.0 -0.1235358326
C  C378  1  0.95770000  0.67990000  0.86920000  1.0 -0.1235358326
C  C379  1  0.69470000  0.69720000  0.40920000  1.0 -0.1591422078
C  C380  1  0.30280000  0.99750000  0.40920000  1.0 -0.1591422078
C  C381  1  0.00250000  0.30530000  0.40920000  1.0 -0.1591422078
C  C382  1  0.30530000  0.30280000  0.90920000  1.0 -0.1591422078
C  C383  1  0.69720000  0.00250000  0.90920000  1.0 -0.1591422078
C  C384  1  0.99750000  0.69470000  0.90920000  1.0 -0.1591422078
N  N1  1  0.67040000  0.42470000  0.42320000  1.0 -0.8285963174
N  N2  1  0.57530000  0.24570000  0.42320000  1.0 -0.8285963174
N  N3  1  0.75430000  0.32960000  0.42320000  1.0 -0.8285963174
N  N4  1  0.32960000  0.57530000  0.92320000  1.0 -0.8285963174
N  N5  1  0.42470000  0.75430000  0.92320000  1.0 -0.8285963174
N  N6  1  0.24570000  0.67040000  0.92320000  1.0 -0.8285963174
N  N7  1  0.66666667  0.33333333  0.52220000  1.0 -0.8147927162
N  N8  1  0.33333333  0.66666667  0.02220000  1.0 -0.8158803221
N  N9  1  0.76006000  0.57970000  0.50217000  1.0 -0.2976924615
N  N10  1  0.42030000  0.18036000  0.50217000  1.0 -0.2976924615
N  N11  1  0.81964000  0.23994000  0.50217000  1.0 -0.2976924615
N  N12  1  0.23994000  0.42030000  0.00217000  1.0 -0.2976924615
N  N13  1  0.57970000  0.81964000  0.00217000  1.0 -0.2976924615
N  N14  1  0.18036000  0.76006000  0.00217000  1.0 -0.2976924615
N  N15  1  0.57960000  0.76650000  0.09905000  1.0 -0.2864849008
N  N16  1  0.23350000  0.81310000  0.09905000  1.0 -0.2864849008
N  N17  1  0.18690000  0.42040000  0.09905000  1.0 -0.2864849008
N  N18  1  0.42040000  0.23350000  0.59905000  1.0 -0.2864849008
N  N19  1  0.76650000  0.18690000  0.59905000  1.0 -0.2864849008
N  N20  1  0.81310000  0.57960000  0.59905000  1.0 -0.2864849008
N  N21  1  0.69780000  0.59960000  0.45062000  1.0 0.0089385028
N  N22  1  0.40040000  0.09820000  0.45062000  1.0 0.0089385028
N  N23  1  0.90180000  0.30220000  0.45062000  1.0 0.0089385028
N  N24  1  0.30220000  0.40040000  0.95062000  1.0 0.0089385028
N  N25  1  0.59960000  0.90180000  0.95062000  1.0 0.0089385028
N  N26  1  0.09820000  0.69780000  0.95062000  1.0 0.0089385028
N  N27  1  0.84210000  0.48860000  0.51307000  1.0 -0.7918886281
N  N28  1  0.51140000  0.35350000  0.51307000  1.0 -0.7918886281
N  N29  1  0.64650000  0.15790000  0.51307000  1.0 -0.7918886281
N  N30  1  0.15790000  0.51140000  0.01307000  1.0 -0.7918886281
N  N31  1  0.48860000  0.64650000  0.01307000  1.0 -0.7918886281
N  N32  1  0.35350000  0.84210000  0.01307000  1.0 -0.7918886281
N  N33  1  0.60020000  0.77010000  0.16948000  1.0 0.0089385028
N  N34  1  0.22990000  0.83010000  0.16948000  1.0 0.0089385028
N  N35  1  0.16990000  0.39980000  0.16948000  1.0 0.0089385028
N  N36  1  0.39980000  0.22990000  0.66948000  1.0 0.0089385028
N  N37  1  0.77010000  0.16990000  0.66948000  1.0 0.0089385028
N  N38  1  0.83010000  0.60020000  0.66948000  1.0 0.0089385028
O  O1  1  0.85520000  0.48360000  0.41590000  1.0 -0.6694851753
O  O2  1  0.51640000  0.37160000  0.41590000  1.0 -0.6694851753
O  O3  1  0.62840000  0.14480000  0.41590000  1.0 -0.6694851753
O  O4  1  0.14480000  0.51640000  0.91590000  1.0 -0.6694851753
O  O5  1  0.48360000  0.62840000  0.91590000  1.0 -0.6694851753
O  O6  1  0.37160000  0.85520000  0.91590000  1.0 -0.6694851753
O  O7  1  0.51487000  0.04270000  0.56240000  1.0 -0.6364868021
O  O8  1  0.95730000  0.47217000  0.56240000  1.0 -0.6364868021
O  O9  1  0.52783000  0.48513000  0.56240000  1.0 -0.6364868021
O  O10  1  0.48513000  0.95730000  0.06240000  1.0 -0.6364868021
O  O11  1  0.04270000  0.52783000  0.06240000  1.0 -0.6364868021
O  O12  1  0.47217000  0.51487000  0.06240000  1.0 -0.6364868021
O  O13  1  0.49353000  0.92590000  0.60739000  1.0 -0.6126434293
O  O14  1  0.07410000  0.56763000  0.60739000  1.0 -0.6126434293
O  O15  1  0.43237000  0.50647000  0.60739000  1.0 -0.6126434293
O  O16  1  0.50647000  0.07410000  0.10739000  1.0 -0.6126434293
O  O17  1  0.92590000  0.43237000  0.10739000  1.0 -0.6126434293
O  O18  1  0.56763000  0.49353000  0.10739000  1.0 -0.6126434293
O  O19  1  0.12390000  0.66498000  0.53607000  1.0 -0.6126434293
O  O20  1  0.33502000  0.45892000  0.53607000  1.0 -0.6126434293
O  O21  1  0.54108000  0.87610000  0.53607000  1.0 -0.6126434293
O  O22  1  0.87610000  0.33502000  0.03607000  1.0 -0.6126434293
O  O23  1  0.66498000  0.54108000  0.03607000  1.0 -0.6126434293
O  O24  1  0.45892000  0.12390000  0.03607000  1.0 -0.6126434293
O  O25  1  0.54220000  0.99214000  0.48759000  1.0 -0.6320838203
O  O26  1  0.00786000  0.55006000  0.48759000  1.0 -0.6320838203
O  O27  1  0.44994000  0.45780000  0.48759000  1.0 -0.6320838203
O  O28  1  0.45780000  0.00786000  0.98759000  1.0 -0.6320838203
O  O29  1  0.99214000  0.44994000  0.98759000  1.0 -0.6320838203
O  O30  1  0.55006000  0.54220000  0.98759000  1.0 -0.6320838203
O  O31  1  0.98311000  0.61148000  0.55822000  1.0 -0.6320838203
O  O32  1  0.38852000  0.37163000  0.55822000  1.0 -0.6320838203
O  O33  1  0.62837000  0.01689000  0.55822000  1.0 -0.6320838203
O  O34  1  0.01689000  0.38852000  0.05822000  1.0 -0.6320838203
O  O35  1  0.61148000  0.62837000  0.05822000  1.0 -0.6320838203
O  O36  1  0.37163000  0.98311000  0.05822000  1.0 -0.6320838203
O  O37  1  0.41814000  0.89460000  0.52648000  1.0 -0.6231219209
O  O38  1  0.10540000  0.52354000  0.52648000  1.0 -0.6231219209
O  O39  1  0.47646000  0.58186000  0.52648000  1.0 -0.6231219209
O  O40  1  0.58186000  0.10540000  0.02648000  1.0 -0.6231219209
O  O41  1  0.89460000  0.47646000  0.02648000  1.0 -0.6231219209
O  O42  1  0.52354000  0.41814000  0.02648000  1.0 -0.6231219209
O  O43  1  0.93265000  0.67297000  0.52871000  1.0 -0.5190490769
O  O44  1  0.32703000  0.25968000  0.52871000  1.0 -0.5190490769
O  O45  1  0.74032000  0.06735000  0.52871000  1.0 -0.5190490769
O  O46  1  0.06735000  0.32703000  0.02871000  1.0 -0.5190490769
O  O47  1  0.67297000  0.74032000  0.02871000  1.0 -0.5190490769
O  O48  1  0.25968000  0.93265000  0.02871000  1.0 -0.5190490769
O  O49  1  0.40189000  0.74854000  0.75629000  1.0 -0.6042908665
O  O50  1  0.25146000  0.65335000  0.75629000  1.0 -0.6042908665
O  O51  1  0.34665000  0.59811000  0.75629000  1.0 -0.6042908665
O  O52  1  0.59811000  0.25146000  0.25629000  1.0 -0.6042908665
O  O53  1  0.74854000  0.34665000  0.25629000  1.0 -0.6042908665
O  O54  1  0.65335000  0.40189000  0.25629000  1.0 -0.6042908665
O  O55  1  0.42094000  0.69483000  0.82906000  1.0 -0.6320838203
O  O56  1  0.30517000  0.72611000  0.82906000  1.0 -0.6320838203
O  O57  1  0.27389000  0.57906000  0.82906000  1.0 -0.6320838203
O  O58  1  0.57906000  0.30517000  0.32906000  1.0 -0.6320838203
O  O59  1  0.69483000  0.27389000  0.32906000  1.0 -0.6320838203
O  O60  1  0.72611000  0.42094000  0.32906000  1.0 -0.6320838203
O  O61  1  0.54410000  0.99350000  0.41559000  1.0 -0.5073941337
O  O62  1  0.00650000  0.55060000  0.41559000  1.0 -0.5073941337
O  O63  1  0.44940000  0.45590000  0.41559000  1.0 -0.5073941337
O  O64  1  0.45590000  0.00650000  0.91559000  1.0 -0.5073941337
O  O65  1  0.99350000  0.44940000  0.91559000  1.0 -0.5073941337
O  O66  1  0.55060000  0.54410000  0.91559000  1.0 -0.5073941337
O  O67  1  0.55590000  0.14710000  0.59926000  1.0 -0.5073941337
O  O68  1  0.85290000  0.40880000  0.59926000  1.0 -0.5073941337
O  O69  1  0.59120000  0.44410000  0.59926000  1.0 -0.5073941337
O  O70  1  0.44410000  0.85290000  0.09926000  1.0 -0.5073941337
O  O71  1  0.14710000  0.59120000  0.09926000  1.0 -0.5073941337
O  O72  1  0.40880000  0.55590000  0.09926000  1.0 -0.5073941337
O  O73  1  0.53530000  0.74040000  0.85398000  1.0 -0.5190490769
O  O74  1  0.25960000  0.79490000  0.85398000  1.0 -0.5190490769
O  O75  1  0.20510000  0.46470000  0.85398000  1.0 -0.5190490769
O  O76  1  0.46470000  0.25960000  0.35398000  1.0 -0.5190490769
O  O77  1  0.74040000  0.20510000  0.35398000  1.0 -0.5190490769
O  O78  1  0.79490000  0.53530000  0.35398000  1.0 -0.5190490769
