# DDEC6 charges by PACMAN v1.1 (https://github.com/mtap-research/PACMAN-charge/)
data_UDOKUX_FSR_pacman
_symmetry_space_group_name_H-M   'P 1'
_cell_length_a   20.74130000
_cell_length_b   20.74130000
_cell_length_c   30.82140000
_cell_angle_alpha   90.00000000
_cell_angle_beta   90.00000000
_cell_angle_gamma   120.00000000
_symmetry_Int_Tables_number   1
_chemical_formula_structural   Ti4Zn4H171C216N19O42
_chemical_formula_sum   'Ti8 Zn8 H342 C432 N38 O84'
_cell_volume   11482.98876046
_cell_formula_units_Z   2
loop_
 _symmetry_equiv_pos_site_id
 _symmetry_equiv_pos_as_xyz
  1  'x, y, z'
loop_
 _atom_site_type_symbol
 _atom_site_label
 _atom_site_symmetry_multiplicity
 _atom_site_fract_x
 _atom_site_fract_y
 _atom_site_fract_z
 _atom_site_occupancy
 _atom_site_charge
Ti  Ti1  1  0.33333333  0.66666667  0.60520000  1.0 1.9072709162
Ti  Ti2  1  0.66666667  0.33333333  0.10520000  1.0 1.9154115099
Ti  Ti3  1  0.05162000  0.56641000  0.36495000  1.0 1.9072709162
Ti  Ti4  1  0.43359000  0.48521000  0.36495000  1.0 1.9047457356
Ti  Ti5  1  0.51479000  0.94838000  0.36495000  1.0 1.9072709162
Ti  Ti6  1  0.94838000  0.43359000  0.86495000  1.0 1.9047457356
Ti  Ti7  1  0.56641000  0.51479000  0.86495000  1.0 1.9047457356
Ti  Ti8  1  0.48521000  0.05162000  0.86495000  1.0 1.9072709162
Zn  Zn1  1  0.66666667  0.33333333  0.25844000  1.0 0.7082851011
Zn  Zn2  1  0.33333333  0.66666667  0.75844000  1.0 0.7082851011
Zn  Zn3  1  0.83993000  0.57516000  0.35450000  1.0 0.7504349926
Zn  Zn4  1  0.42484000  0.26477000  0.35450000  1.0 0.7504349926
Zn  Zn5  1  0.73523000  0.16007000  0.35450000  1.0 0.7504349926
Zn  Zn6  1  0.16007000  0.42484000  0.85450000  1.0 0.7504349926
Zn  Zn7  1  0.57516000  0.73523000  0.85450000  1.0 0.7504349926
Zn  Zn8  1  0.26477000  0.83993000  0.85450000  1.0 0.7504349926
H  H1  1  0.79065000  0.38173000  0.24059000  1.0 0.2937780995
H  H2  1  0.61827000  0.40892000  0.24059000  1.0 0.2937780995
H  H3  1  0.59108000  0.20935000  0.24059000  1.0 0.2937780995
H  H4  1  0.20935000  0.61827000  0.74059000  1.0 0.2937780995
H  H5  1  0.38173000  0.59108000  0.74059000  1.0 0.2937780995
H  H6  1  0.40892000  0.79065000  0.74059000  1.0 0.2937780995
H  H7  1  0.76364000  0.31024000  0.26191000  1.0 0.2626909228
H  H8  1  0.68976000  0.45340000  0.26191000  1.0 0.2626909228
H  H9  1  0.54660000  0.23636000  0.26191000  1.0 0.2626909228
H  H10  1  0.23636000  0.68976000  0.76191000  1.0 0.2626909228
H  H11  1  0.31024000  0.54660000  0.76191000  1.0 0.2626909228
H  H12  1  0.45340000  0.76364000  0.76191000  1.0 0.2626909228
H  H13  1  0.74599000  0.31315000  0.21658000  1.0 0.3007617621
H  H14  1  0.68685000  0.43284000  0.21658000  1.0 0.3007617621
H  H15  1  0.56716000  0.25401000  0.21658000  1.0 0.3007617621
H  H16  1  0.25401000  0.68685000  0.71658000  1.0 0.3007617621
H  H17  1  0.31315000  0.56716000  0.71658000  1.0 0.3007617621
H  H18  1  0.43284000  0.74599000  0.71658000  1.0 0.3007617621
H  H19  1  0.68971000  0.38012000  0.35910000  1.0 0.2626909228
H  H20  1  0.61988000  0.30959000  0.35910000  1.0 0.2626909228
H  H21  1  0.69041000  0.31029000  0.35910000  1.0 0.2626909228
H  H22  1  0.31029000  0.61988000  0.85910000  1.0 0.2626909228
H  H23  1  0.38012000  0.69041000  0.85910000  1.0 0.2626909228
H  H24  1  0.30959000  0.68971000  0.85910000  1.0 0.2626909228
H  H25  1  0.84239000  0.52016000  0.22077000  1.0 0.3129923273
H  H26  1  0.47984000  0.32223000  0.22077000  1.0 0.3129923273
H  H27  1  0.67777000  0.15761000  0.22077000  1.0 0.3129923273
H  H28  1  0.15761000  0.47984000  0.72077000  1.0 0.3129923273
H  H29  1  0.52016000  0.67777000  0.72077000  1.0 0.3129923273
H  H30  1  0.32223000  0.84239000  0.72077000  1.0 0.3129923273
H  H31  1  0.89919000  0.50672000  0.22445000  1.0 0.3129923273
H  H32  1  0.49328000  0.39247000  0.22445000  1.0 0.3129923273
H  H33  1  0.60753000  0.10081000  0.22445000  1.0 0.3129923273
H  H34  1  0.10081000  0.49328000  0.72445000  1.0 0.3129923273
H  H35  1  0.50672000  0.60753000  0.72445000  1.0 0.3129923273
H  H36  1  0.39247000  0.89919000  0.72445000  1.0 0.3129923273
H  H37  1  0.96110000  0.67473000  0.22246000  1.0 0.1126175905
H  H38  1  0.32527000  0.28637000  0.22246000  1.0 0.1126175905
H  H39  1  0.71363000  0.03890000  0.22246000  1.0 0.1020457181
H  H40  1  0.03890000  0.32527000  0.72246000  1.0 0.1020457181
H  H41  1  0.67473000  0.71363000  0.72246000  1.0 0.1126175905
H  H42  1  0.28637000  0.96110000  0.72246000  1.0 0.1020457181
H  H43  1  0.94739000  0.63670000  0.15694000  1.0 0.1291244969
H  H44  1  0.36330000  0.31069000  0.15694000  1.0 0.1291244969
H  H45  1  0.68931000  0.05261000  0.15694000  1.0 0.1291244969
H  H46  1  0.05261000  0.36330000  0.65694000  1.0 0.1291244969
H  H47  1  0.63670000  0.68931000  0.65694000  1.0 0.1291244969
H  H48  1  0.31069000  0.94739000  0.65694000  1.0 0.1291244969
H  H49  1  0.02527000  0.70806000  0.16399000  1.0 0.1291244969
H  H50  1  0.29194000  0.31721000  0.16399000  1.0 0.1291244969
H  H51  1  0.68279000  0.97473000  0.16399000  1.0 0.1291244969
H  H52  1  0.97473000  0.29194000  0.66399000  1.0 0.1291244969
H  H53  1  0.70806000  0.68279000  0.66399000  1.0 0.1291244969
H  H54  1  0.31721000  0.02527000  0.66399000  1.0 0.1291244969
H  H55  1  0.96245000  0.71379000  0.13911000  1.0 0.1391762962
H  H56  1  0.28621000  0.24866000  0.13911000  1.0 0.1391762962
H  H57  1  0.75134000  0.03755000  0.13911000  1.0 0.1391762962
H  H58  1  0.03755000  0.28621000  0.63911000  1.0 0.1391762962
H  H59  1  0.71379000  0.75134000  0.63911000  1.0 0.1391762962
H  H60  1  0.24866000  0.96245000  0.63911000  1.0 0.1391762962
H  H61  1  0.00364000  0.94087000  0.20337000  1.0 0.1020457181
H  H62  1  0.05913000  0.06277000  0.20337000  1.0 0.1020457181
H  H63  1  0.93723000  0.99636000  0.20337000  1.0 0.1020457181
H  H64  1  0.99636000  0.05913000  0.70337000  1.0 0.1020457181
H  H65  1  0.94087000  0.93723000  0.70337000  1.0 0.1020457181
H  H66  1  0.06277000  0.00364000  0.70337000  1.0 0.1020457181
H  H67  1  0.92520000  0.81466000  0.19267000  1.0 0.1291244969
H  H68  1  0.18534000  0.11054000  0.19267000  1.0 0.1291244969
H  H69  1  0.88946000  0.07480000  0.19267000  1.0 0.1291244969
H  H70  1  0.07480000  0.18534000  0.69267000  1.0 0.1291244969
H  H71  1  0.81466000  0.88946000  0.69267000  1.0 0.1291244969
H  H72  1  0.11054000  0.92520000  0.69267000  1.0 0.1291244969
H  H73  1  0.08278000  0.77462000  0.23802000  1.0 0.120483385
H  H74  1  0.22538000  0.30816000  0.23802000  1.0 0.120483385
H  H75  1  0.69184000  0.91722000  0.23802000  1.0 0.120483385
H  H76  1  0.91722000  0.22538000  0.73802000  1.0 0.120483385
H  H77  1  0.77462000  0.69184000  0.73802000  1.0 0.120483385
H  H78  1  0.30816000  0.08278000  0.73802000  1.0 0.120483385
H  H79  1  0.16127000  0.90084000  0.24879000  1.0 0.1126175905
H  H80  1  0.09916000  0.26043000  0.24879000  1.0 0.1126175905
H  H81  1  0.73957000  0.83873000  0.24879000  1.0 0.1126175905
H  H82  1  0.83873000  0.09916000  0.74879000  1.0 0.1126175905
H  H83  1  0.90084000  0.73957000  0.74879000  1.0 0.1126175905
H  H84  1  0.26043000  0.16127000  0.74879000  1.0 0.1126175905
H  H85  1  0.12152000  0.98399000  0.23150000  1.0 0.1126175905
H  H86  1  0.01601000  0.13753000  0.23150000  1.0 0.1126175905
H  H87  1  0.86247000  0.87848000  0.23150000  1.0 0.1126175905
H  H88  1  0.87848000  0.01601000  0.73150000  1.0 0.1126175905
H  H89  1  0.98399000  0.86247000  0.73150000  1.0 0.1126175905
H  H90  1  0.13753000  0.12152000  0.73150000  1.0 0.1126175905
H  H91  1  0.85231000  0.63795000  0.19366000  1.0 0.329701496
H  H92  1  0.36205000  0.21436000  0.19366000  1.0 0.329701496
H  H93  1  0.78564000  0.14769000  0.19366000  1.0 0.329701496
H  H94  1  0.14769000  0.36205000  0.69366000  1.0 0.329701496
H  H95  1  0.63795000  0.78564000  0.69366000  1.0 0.329701496
H  H96  1  0.21436000  0.85231000  0.69366000  1.0 0.329701496
H  H97  1  0.83733000  0.48645000  0.30231000  1.0 0.3007617621
H  H98  1  0.51355000  0.35088000  0.30231000  1.0 0.3007617621
H  H99  1  0.64912000  0.16267000  0.30231000  1.0 0.3007617621
H  H100  1  0.16267000  0.51355000  0.80231000  1.0 0.3007617621
H  H101  1  0.48645000  0.64912000  0.80231000  1.0 0.3007617621
H  H102  1  0.35088000  0.83733000  0.80231000  1.0 0.3007617621
H  H103  1  0.80190000  0.44562000  0.34175000  1.0 0.2740923741
H  H104  1  0.55438000  0.35628000  0.34175000  1.0 0.2740923741
H  H105  1  0.64372000  0.19810000  0.34175000  1.0 0.2740923741
H  H106  1  0.19810000  0.55438000  0.84175000  1.0 0.2740923741
H  H107  1  0.44562000  0.64372000  0.84175000  1.0 0.2740923741
H  H108  1  0.35628000  0.80190000  0.84175000  1.0 0.2740923741
H  H109  1  0.88261000  0.48813000  0.33875000  1.0 0.3007617621
H  H110  1  0.51187000  0.39448000  0.33875000  1.0 0.3007617621
H  H111  1  0.60552000  0.11739000  0.33875000  1.0 0.3007617621
H  H112  1  0.11739000  0.51187000  0.83875000  1.0 0.3007617621
H  H113  1  0.48813000  0.60552000  0.83875000  1.0 0.3007617621
H  H114  1  0.39448000  0.88261000  0.83875000  1.0 0.3007617621
H  H115  1  0.17515000  0.62981000  0.47139000  1.0 0.1291244969
H  H116  1  0.37019000  0.54534000  0.47139000  1.0 0.1291244969
H  H117  1  0.45466000  0.82485000  0.47139000  1.0 0.1291244969
H  H118  1  0.82485000  0.37019000  0.97139000  1.0 0.1291244969
H  H119  1  0.62981000  0.45466000  0.97139000  1.0 0.1291244969
H  H120  1  0.54534000  0.17515000  0.97139000  1.0 0.1291244969
H  H121  1  0.19086000  0.59074000  0.51018000  1.0 0.1291244969
H  H122  1  0.40926000  0.60012000  0.51018000  1.0 0.1291244969
H  H123  1  0.39988000  0.80914000  0.51018000  1.0 0.1291244969
H  H124  1  0.80914000  0.40926000  0.01018000  1.0 0.1291244969
H  H125  1  0.59074000  0.39988000  0.01018000  1.0 0.1291244969
H  H126  1  0.60012000  0.19086000  0.01018000  1.0 0.1291244969
H  H127  1  0.42576000  0.90515000  0.20153000  1.0 0.120483385
H  H128  1  0.09485000  0.52061000  0.20153000  1.0 0.120483385
H  H129  1  0.47939000  0.57424000  0.20153000  1.0 0.120483385
H  H130  1  0.57424000  0.09485000  0.70153000  1.0 0.120483385
H  H131  1  0.90515000  0.47939000  0.70153000  1.0 0.120483385
H  H132  1  0.52061000  0.42576000  0.70153000  1.0 0.120483385
H  H133  1  0.25178000  0.73511000  0.34538000  1.0 0.1291244969
H  H134  1  0.26489000  0.51667000  0.34538000  1.0 0.1291244969
H  H135  1  0.48333000  0.74822000  0.34538000  1.0 0.1291244969
H  H136  1  0.74822000  0.26489000  0.84538000  1.0 0.1291244969
H  H137  1  0.73511000  0.48333000  0.84538000  1.0 0.1291244969
H  H138  1  0.51667000  0.25178000  0.84538000  1.0 0.1291244969
H  H139  1  0.29990000  0.81258000  0.36774000  1.0 0.1291244969
H  H140  1  0.18742000  0.48732000  0.36774000  1.0 0.1291244969
H  H141  1  0.51268000  0.70010000  0.36774000  1.0 0.1291244969
H  H142  1  0.70010000  0.18742000  0.86774000  1.0 0.1291244969
H  H143  1  0.81258000  0.51268000  0.86774000  1.0 0.1291244969
H  H144  1  0.48732000  0.29990000  0.86774000  1.0 0.1291244969
H  H145  1  0.16653000  0.81241000  0.76920000  1.0 0.120483385
H  H146  1  0.18759000  0.35412000  0.76920000  1.0 0.120483385
H  H147  1  0.64588000  0.83347000  0.76920000  1.0 0.120483385
H  H148  1  0.83347000  0.18759000  0.26920000  1.0 0.120483385
H  H149  1  0.81241000  0.64588000  0.26920000  1.0 0.120483385
H  H150  1  0.35412000  0.16653000  0.26920000  1.0 0.120483385
H  H151  1  0.90538000  0.58831000  0.44736000  1.0 0.120483385
H  H152  1  0.41169000  0.31707000  0.44736000  1.0 0.120483385
H  H153  1  0.68293000  0.09462000  0.44736000  1.0 0.120483385
H  H154  1  0.09462000  0.41169000  0.94736000  1.0 0.120483385
H  H155  1  0.58831000  0.68293000  0.94736000  1.0 0.120483385
H  H156  1  0.31707000  0.90538000  0.94736000  1.0 0.120483385
H  H157  1  0.07004000  0.59596000  0.79279000  1.0 0.1487815285
H  H158  1  0.40404000  0.47408000  0.79279000  1.0 0.1487815285
H  H159  1  0.52592000  0.92996000  0.79279000  1.0 0.1487815285
H  H160  1  0.92996000  0.40404000  0.29279000  1.0 0.1487815285
H  H161  1  0.59596000  0.52592000  0.29279000  1.0 0.1487815285
H  H162  1  0.47408000  0.07004000  0.29279000  1.0 0.1487815285
H  H163  1  0.87726000  0.39421000  0.49252000  1.0 0.1126175905
H  H164  1  0.60579000  0.48305000  0.49252000  1.0 0.1126175905
H  H165  1  0.51695000  0.12274000  0.49252000  1.0 0.1126175905
H  H166  1  0.12274000  0.60579000  0.99252000  1.0 0.1126175905
H  H167  1  0.39421000  0.51695000  0.99252000  1.0 0.1126175905
H  H168  1  0.48305000  0.87726000  0.99252000  1.0 0.1126175905
H  H169  1  0.13030000  0.54690000  0.57834000  1.0 0.120483385
H  H170  1  0.45310000  0.58340000  0.57834000  1.0 0.120483385
H  H171  1  0.41660000  0.86970000  0.57834000  1.0 0.120483385
H  H172  1  0.86970000  0.45310000  0.07834000  1.0 0.120483385
H  H173  1  0.54690000  0.41660000  0.07834000  1.0 0.120483385
H  H174  1  0.58340000  0.13030000  0.07834000  1.0 0.120483385
H  H175  1  0.09258000  0.67873000  0.46142000  1.0 0.1291244969
H  H176  1  0.32127000  0.41385000  0.46142000  1.0 0.1291244969
H  H177  1  0.58615000  0.90742000  0.46142000  1.0 0.1291244969
H  H178  1  0.90742000  0.32127000  0.96142000  1.0 0.1291244969
H  H179  1  0.67873000  0.58615000  0.96142000  1.0 0.1291244969
H  H180  1  0.41385000  0.09258000  0.96142000  1.0 0.1291244969
H  H181  1  0.03324000  0.74582000  0.45349000  1.0 0.1126175905
H  H182  1  0.25418000  0.28742000  0.45349000  1.0 0.1126175905
H  H183  1  0.71258000  0.96676000  0.45349000  1.0 0.1126175905
H  H184  1  0.96676000  0.25418000  0.95349000  1.0 0.1126175905
H  H185  1  0.74582000  0.71258000  0.95349000  1.0 0.1126175905
H  H186  1  0.28742000  0.03324000  0.95349000  1.0 0.1126175905
H  H187  1  0.17685000  0.70667000  0.27862000  1.0 0.120483385
H  H188  1  0.29333000  0.47018000  0.27862000  1.0 0.120483385
H  H189  1  0.52982000  0.82315000  0.27862000  1.0 0.120483385
H  H190  1  0.82315000  0.29333000  0.77862000  1.0 0.120483385
H  H191  1  0.70667000  0.52982000  0.77862000  1.0 0.120483385
H  H192  1  0.47018000  0.17685000  0.77862000  1.0 0.120483385
H  H193  1  0.15667000  0.66323000  0.85181000  1.0 0.1391762962
H  H194  1  0.33677000  0.49344000  0.85181000  1.0 0.1391762962
H  H195  1  0.50656000  0.84333000  0.85181000  1.0 0.1391762962
H  H196  1  0.84333000  0.33677000  0.35181000  1.0 0.1391762962
H  H197  1  0.66323000  0.50656000  0.35181000  1.0 0.1391762962
H  H198  1  0.49344000  0.15667000  0.35181000  1.0 0.1391762962
H  H199  1  0.12715000  0.67312000  0.21038000  1.0 0.1126175905
H  H200  1  0.32688000  0.45403000  0.21038000  1.0 0.1126175905
H  H201  1  0.54597000  0.87285000  0.21038000  1.0 0.1126175905
H  H202  1  0.87285000  0.32688000  0.71038000  1.0 0.1126175905
H  H203  1  0.67312000  0.54597000  0.71038000  1.0 0.1126175905
H  H204  1  0.45403000  0.12715000  0.71038000  1.0 0.1126175905
H  H205  1  0.06662000  0.47600000  0.63819000  1.0 0.120483385
H  H206  1  0.52400000  0.59062000  0.63819000  1.0 0.120483385
H  H207  1  0.40938000  0.93338000  0.63819000  1.0 0.120483385
H  H208  1  0.93338000  0.52400000  0.13819000  1.0 0.120483385
H  H209  1  0.47600000  0.40938000  0.13819000  1.0 0.120483385
H  H210  1  0.59062000  0.06662000  0.13819000  1.0 0.120483385
H  H211  1  0.18096000  0.80991000  0.61394000  1.0 0.120483385
H  H212  1  0.19009000  0.37105000  0.61394000  1.0 0.120483385
H  H213  1  0.62895000  0.81904000  0.61394000  1.0 0.120483385
H  H214  1  0.81904000  0.19009000  0.11394000  1.0 0.120483385
H  H215  1  0.80991000  0.62895000  0.11394000  1.0 0.120483385
H  H216  1  0.37105000  0.18096000  0.11394000  1.0 0.120483385
H  H217  1  0.31903000  0.82309000  0.15554000  1.0 0.120483385
H  H218  1  0.17691000  0.49594000  0.15554000  1.0 0.120483385
H  H219  1  0.50406000  0.68097000  0.15554000  1.0 0.120483385
H  H220  1  0.68097000  0.17691000  0.65554000  1.0 0.120483385
H  H221  1  0.82309000  0.50406000  0.65554000  1.0 0.120483385
H  H222  1  0.49594000  0.31903000  0.65554000  1.0 0.120483385
H  H223  1  0.08669000  0.60809000  0.70558000  1.0 0.1391762962
H  H224  1  0.39191000  0.47860000  0.70558000  1.0 0.1391762962
H  H225  1  0.52140000  0.91331000  0.70558000  1.0 0.1391762962
H  H226  1  0.91331000  0.39191000  0.20558000  1.0 0.1391762962
H  H227  1  0.60809000  0.52140000  0.20558000  1.0 0.1391762962
H  H228  1  0.47860000  0.08669000  0.20558000  1.0 0.1391762962
H  H229  1  0.31757000  0.93283000  0.34765000  1.0 0.120483385
H  H230  1  0.06717000  0.38474000  0.34765000  1.0 0.120483385
H  H231  1  0.61526000  0.68243000  0.34765000  1.0 0.120483385
H  H232  1  0.68243000  0.06717000  0.84765000  1.0 0.120483385
H  H233  1  0.93283000  0.61526000  0.84765000  1.0 0.120483385
H  H234  1  0.38474000  0.31757000  0.84765000  1.0 0.120483385
H  H235  1  0.32116000  0.04528000  0.34532000  1.0 0.1020457181
H  H236  1  0.95472000  0.27588000  0.34532000  1.0 0.1020457181
H  H237  1  0.72412000  0.67884000  0.34532000  1.0 0.1020457181
H  H238  1  0.67884000  0.95472000  0.84532000  1.0 0.1020457181
H  H239  1  0.04528000  0.72412000  0.84532000  1.0 0.1020457181
H  H240  1  0.27588000  0.32116000  0.84532000  1.0 0.1020457181
H  H241  1  0.74450000  0.61940000  0.49551000  1.0 0.1291244969
H  H242  1  0.38060000  0.12510000  0.49551000  1.0 0.1291244969
H  H243  1  0.87490000  0.25550000  0.49551000  1.0 0.1291244969
H  H244  1  0.25550000  0.38060000  0.99551000  1.0 0.1291244969
H  H245  1  0.61940000  0.87490000  0.99551000  1.0 0.1291244969
H  H246  1  0.12510000  0.74450000  0.99551000  1.0 0.1291244969
H  H247  1  0.19805000  0.72798000  0.14908000  1.0 0.1126175905
H  H248  1  0.27202000  0.47007000  0.14908000  1.0 0.1126175905
H  H249  1  0.52993000  0.80195000  0.14908000  1.0 0.1126175905
H  H250  1  0.80195000  0.27202000  0.64908000  1.0 0.1126175905
H  H251  1  0.72798000  0.52993000  0.64908000  1.0 0.1126175905
H  H252  1  0.47007000  0.19805000  0.64908000  1.0 0.1126175905
H  H253  1  0.03750000  0.82618000  0.50622000  1.0 0.1126175905
H  H254  1  0.17382000  0.21132000  0.50622000  1.0 0.1126175905
H  H255  1  0.78868000  0.96250000  0.50622000  1.0 0.1126175905
H  H256  1  0.96250000  0.17382000  0.00622000  1.0 0.1126175905
H  H257  1  0.82618000  0.78868000  0.00622000  1.0 0.1126175905
H  H258  1  0.21132000  0.03750000  0.00622000  1.0 0.1126175905
H  H259  1  0.72381000  0.59552000  0.41706000  1.0 0.1291244969
H  H260  1  0.40448000  0.12829000  0.41706000  1.0 0.1291244969
H  H261  1  0.87171000  0.27619000  0.41706000  1.0 0.1291244969
H  H262  1  0.27619000  0.40448000  0.91706000  1.0 0.1291244969
H  H263  1  0.59552000  0.87171000  0.91706000  1.0 0.1291244969
H  H264  1  0.12829000  0.72381000  0.91706000  1.0 0.1291244969
H  H265  1  0.87748000  0.37042000  0.57146000  1.0 0.120483385
H  H266  1  0.62958000  0.50706000  0.57146000  1.0 0.120483385
H  H267  1  0.49294000  0.12252000  0.57146000  1.0 0.120483385
H  H268  1  0.12252000  0.62958000  0.07146000  1.0 0.120483385
H  H269  1  0.37042000  0.49294000  0.07146000  1.0 0.120483385
H  H270  1  0.50706000  0.87748000  0.07146000  1.0 0.120483385
H  H271  1  0.93555000  0.57094000  0.51300000  1.0 0.120483385
H  H272  1  0.42906000  0.36461000  0.51300000  1.0 0.120483385
H  H273  1  0.63539000  0.06445000  0.51300000  1.0 0.120483385
H  H274  1  0.06445000  0.42906000  0.01300000  1.0 0.120483385
H  H275  1  0.57094000  0.63539000  0.01300000  1.0 0.120483385
H  H276  1  0.36461000  0.93555000  0.01300000  1.0 0.120483385
H  H277  1  0.82311000  0.66809000  0.55517000  1.0 0.1291244969
H  H278  1  0.33191000  0.15502000  0.55517000  1.0 0.1291244969
H  H279  1  0.84498000  0.17689000  0.55517000  1.0 0.1291244969
H  H280  1  0.17689000  0.33191000  0.05517000  1.0 0.1291244969
H  H281  1  0.66809000  0.84498000  0.05517000  1.0 0.1291244969
H  H282  1  0.15502000  0.82311000  0.05517000  1.0 0.1291244969
H  H283  1  0.09949000  0.83828000  0.56949000  1.0 0.120483385
H  H284  1  0.16172000  0.26121000  0.56949000  1.0 0.120483385
H  H285  1  0.73879000  0.90051000  0.56949000  1.0 0.120483385
H  H286  1  0.90051000  0.16172000  0.06949000  1.0 0.120483385
H  H287  1  0.83828000  0.73879000  0.06949000  1.0 0.120483385
H  H288  1  0.26121000  0.09949000  0.06949000  1.0 0.120483385
H  H289  1  0.02419000  0.58806000  0.64012000  1.0 0.1126175905
H  H290  1  0.41194000  0.43613000  0.64012000  1.0 0.1126175905
H  H291  1  0.56387000  0.97581000  0.64012000  1.0 0.1126175905
H  H292  1  0.97581000  0.41194000  0.14012000  1.0 0.1126175905
H  H293  1  0.58806000  0.56387000  0.14012000  1.0 0.1126175905
H  H294  1  0.43613000  0.02419000  0.14012000  1.0 0.1126175905
H  H295  1  0.02413000  0.80747000  0.34580000  1.0 0.1291244969
H  H296  1  0.19253000  0.21666000  0.34580000  1.0 0.1291244969
H  H297  1  0.78334000  0.97587000  0.34580000  1.0 0.1291244969
H  H298  1  0.97587000  0.19253000  0.84580000  1.0 0.1291244969
H  H299  1  0.80747000  0.78334000  0.84580000  1.0 0.1291244969
H  H300  1  0.21666000  0.02413000  0.84580000  1.0 0.1291244969
H  H301  1  0.88003000  0.68547000  0.62212000  1.0 0.120483385
H  H302  1  0.31453000  0.19456000  0.62212000  1.0 0.120483385
H  H303  1  0.80544000  0.11997000  0.62212000  1.0 0.120483385
H  H304  1  0.11997000  0.31453000  0.12212000  1.0 0.120483385
H  H305  1  0.68547000  0.80544000  0.12212000  1.0 0.120483385
H  H306  1  0.19456000  0.88003000  0.12212000  1.0 0.120483385
H  H307  1  0.93942000  0.39444000  0.63479000  1.0 0.120483385
H  H308  1  0.60556000  0.54498000  0.63479000  1.0 0.120483385
H  H309  1  0.45502000  0.06058000  0.63479000  1.0 0.120483385
H  H310  1  0.06058000  0.60556000  0.13479000  1.0 0.120483385
H  H311  1  0.39444000  0.45502000  0.13479000  1.0 0.120483385
H  H312  1  0.54498000  0.93942000  0.13479000  1.0 0.120483385
H  H313  1  0.21245000  0.05224000  0.33772000  1.0 0.120483385
H  H314  1  0.94776000  0.16021000  0.33772000  1.0 0.120483385
H  H315  1  0.83979000  0.78755000  0.33772000  1.0 0.120483385
H  H316  1  0.78755000  0.94776000  0.83772000  1.0 0.120483385
H  H317  1  0.05224000  0.83979000  0.83772000  1.0 0.120483385
H  H318  1  0.16021000  0.21245000  0.83772000  1.0 0.120483385
H  H319  1  0.09805000  0.94591000  0.34237000  1.0 0.120483385
H  H320  1  0.05409000  0.15214000  0.34237000  1.0 0.120483385
H  H321  1  0.84786000  0.90195000  0.34237000  1.0 0.120483385
H  H322  1  0.90195000  0.05409000  0.84237000  1.0 0.120483385
H  H323  1  0.94591000  0.84786000  0.84237000  1.0 0.120483385
H  H324  1  0.15214000  0.09805000  0.84237000  1.0 0.120483385
H  H325  1  0.02528000  0.75456000  0.73765000  1.0 0.1291244969
H  H326  1  0.24544000  0.27072000  0.73765000  1.0 0.1291244969
H  H327  1  0.72928000  0.97472000  0.73765000  1.0 0.1291244969
H  H328  1  0.97472000  0.24544000  0.23765000  1.0 0.120483385
H  H329  1  0.75456000  0.72928000  0.23765000  1.0 0.120483385
H  H330  1  0.27072000  0.02528000  0.23765000  1.0 0.1291244969
H  H331  1  0.99550000  0.59430000  0.57930000  1.0 0.1126175905
H  H332  1  0.40570000  0.40120000  0.57930000  1.0 0.1126175905
H  H333  1  0.59880000  0.00450000  0.57930000  1.0 0.1126175905
H  H334  1  0.00450000  0.40570000  0.07930000  1.0 0.1126175905
H  H335  1  0.59430000  0.59880000  0.07930000  1.0 0.1126175905
H  H336  1  0.40120000  0.99550000  0.07930000  1.0 0.1126175905
H  H337  1  0.96930000  0.73798000  0.67007000  1.0 0.120483385
H  H338  1  0.26202000  0.23132000  0.67007000  1.0 0.120483385
H  H339  1  0.76868000  0.03070000  0.67007000  1.0 0.120483385
H  H340  1  0.03070000  0.26202000  0.17007000  1.0 0.120483385
H  H341  1  0.73798000  0.76868000  0.17007000  1.0 0.120483385
H  H342  1  0.23132000  0.96930000  0.17007000  1.0 0.120483385
C  C1  1  0.95170000  0.70370000  0.20080000  1.0 0.1487815285
C  C2  1  0.29630000  0.24800000  0.20080000  1.0 0.1487815285
C  C3  1  0.75200000  0.04830000  0.20080000  1.0 0.1487815285
C  C4  1  0.04830000  0.29630000  0.70080000  1.0 0.1487815285
C  C5  1  0.70370000  0.75200000  0.70080000  1.0 0.1487815285
C  C6  1  0.24800000  0.95170000  0.70080000  1.0 0.1487815285
C  C7  1  0.97260000  0.68930000  0.16230000  1.0 -0.4433409891
C  C8  1  0.31070000  0.28330000  0.16230000  1.0 -0.4433409891
C  C9  1  0.71670000  0.02740000  0.16230000  1.0 -0.4433409891
C  C10  1  0.02740000  0.31070000  0.66230000  1.0 -0.4433409891
C  C11  1  0.68930000  0.71670000  0.66230000  1.0 -0.4433409891
C  C12  1  0.28330000  0.97260000  0.66230000  1.0 -0.4433409891
C  C13  1  0.01960000  0.90750000  0.21030000  1.0 -0.1087315728
C  C14  1  0.09250000  0.11210000  0.21030000  1.0 -0.1087315728
C  C15  1  0.88790000  0.98040000  0.21030000  1.0 -0.1087315728
C  C16  1  0.98040000  0.09250000  0.71030000  1.0 -0.1087315728
C  C17  1  0.90750000  0.88790000  0.71030000  1.0 -0.1087315728
C  C18  1  0.11210000  0.01960000  0.71030000  1.0 -0.1087315728
C  C19  1  0.97270000  0.83200000  0.20390000  1.0 -0.1286987572
C  C20  1  0.16800000  0.14070000  0.20390000  1.0 -0.1286987572
C  C21  1  0.85930000  0.02730000  0.20390000  1.0 -0.1286987572
C  C22  1  0.02730000  0.16800000  0.70390000  1.0 -0.1286987572
C  C23  1  0.83200000  0.85930000  0.70390000  1.0 -0.1286987572
C  C24  1  0.14070000  0.97270000  0.70390000  1.0 -0.1286987572
C  C25  1  0.99640000  0.78240000  0.21420000  1.0 0.0595695595
C  C26  1  0.21760000  0.21400000  0.21420000  1.0 0.0595695595
C  C27  1  0.78600000  0.00360000  0.21420000  1.0 0.0595695595
C  C28  1  0.00360000  0.21760000  0.71420000  1.0 0.0595695595
C  C29  1  0.78240000  0.78600000  0.71420000  1.0 0.0595695595
C  C30  1  0.21400000  0.99640000  0.71420000  1.0 0.0595695595
C  C31  1  0.06690000  0.80810000  0.23100000  1.0 -0.1484168988
C  C32  1  0.19190000  0.25880000  0.23100000  1.0 -0.1484168988
C  C33  1  0.74120000  0.93310000  0.23100000  1.0 -0.1484168988
C  C34  1  0.93310000  0.19190000  0.73100000  1.0 -0.1484168988
C  C35  1  0.80810000  0.74120000  0.73100000  1.0 -0.1484168988
C  C36  1  0.25880000  0.06690000  0.73100000  1.0 -0.1484168988
C  C37  1  0.11380000  0.88350000  0.23750000  1.0 -0.0907065365
C  C38  1  0.11650000  0.23030000  0.23750000  1.0 -0.0907065365
C  C39  1  0.76970000  0.88620000  0.23750000  1.0 -0.0907065365
C  C40  1  0.88620000  0.11650000  0.73750000  1.0 -0.0907065365
C  C41  1  0.88350000  0.76970000  0.73750000  1.0 -0.0907065365
C  C42  1  0.23030000  0.11380000  0.73750000  1.0 -0.0907065365
C  C43  1  0.09010000  0.93320000  0.22710000  1.0 -0.1087315728
C  C44  1  0.06680000  0.15690000  0.22710000  1.0 -0.1087315728
C  C45  1  0.84310000  0.90990000  0.22710000  1.0 -0.1087315728
C  C46  1  0.90990000  0.06680000  0.72710000  1.0 -0.1087315728
C  C47  1  0.93320000  0.84310000  0.72710000  1.0 -0.1087315728
C  C48  1  0.15690000  0.09010000  0.72710000  1.0 -0.1087315728
C  C49  1  0.92220000  0.44880000  0.41540000  1.0 0.5942959367
C  C50  1  0.55120000  0.47340000  0.41540000  1.0 0.5942959367
C  C51  1  0.52660000  0.07780000  0.41540000  1.0 0.5942959367
C  C52  1  0.07780000  0.55120000  0.91540000  1.0 0.5942959367
C  C53  1  0.44880000  0.52660000  0.91540000  1.0 0.5942959367
C  C54  1  0.47340000  0.92220000  0.91540000  1.0 0.5942959367
C  C55  1  0.98900000  0.67040000  0.35700000  1.0 0.6086001027
C  C56  1  0.32960000  0.31860000  0.35700000  1.0 0.6086001027
C  C57  1  0.68140000  0.01100000  0.35700000  1.0 0.6086001027
C  C58  1  0.01100000  0.32960000  0.85700000  1.0 0.6086001027
C  C59  1  0.67040000  0.68140000  0.85700000  1.0 0.6086001027
C  C60  1  0.31860000  0.98900000  0.85700000  1.0 0.6086001027
C  C61  1  0.12940000  0.73210000  0.35120000  1.0 0.2626909228
C  C62  1  0.26790000  0.39730000  0.35120000  1.0 0.2626909228
C  C63  1  0.60270000  0.87060000  0.35120000  1.0 0.2626909228
C  C64  1  0.87060000  0.26790000  0.85120000  1.0 0.2626909228
C  C65  1  0.73210000  0.60270000  0.85120000  1.0 0.2626909228
C  C66  1  0.39730000  0.12940000  0.85120000  1.0 0.2626909228
C  C67  1  0.27980000  0.79280000  0.26010000  1.0 0.0492329782
C  C68  1  0.20720000  0.48700000  0.26010000  1.0 0.0492329782
C  C69  1  0.51300000  0.72020000  0.26010000  1.0 0.0492329782
C  C70  1  0.72020000  0.20720000  0.76010000  1.0 0.0492329782
C  C71  1  0.79280000  0.51300000  0.76010000  1.0 0.0492329782
C  C72  1  0.48700000  0.27980000  0.76010000  1.0 0.0492329782
C  C73  1  0.21350000  0.68790000  0.56730000  1.0 0.2498184471
C  C74  1  0.31210000  0.52560000  0.56730000  1.0 0.2498184471
C  C75  1  0.47440000  0.78650000  0.56730000  1.0 0.2498184471
C  C76  1  0.78650000  0.31210000  0.06730000  1.0 0.2498184471
C  C77  1  0.68790000  0.47440000  0.06730000  1.0 0.2498184471
C  C78  1  0.52560000  0.21350000  0.06730000  1.0 0.2498184471
C  C79  1  0.32290000  0.82650000  0.22200000  1.0 0.0595695595
C  C80  1  0.17350000  0.49640000  0.22200000  1.0 0.0595695595
C  C81  1  0.50360000  0.67710000  0.22200000  1.0 0.0595695595
C  C82  1  0.67710000  0.17350000  0.72200000  1.0 0.0595695595
C  C83  1  0.82650000  0.50360000  0.72200000  1.0 0.0595695595
C  C84  1  0.49640000  0.32290000  0.72200000  1.0 0.0595695595
C  C85  1  0.19920000  0.79650000  0.34660000  1.0 -0.0310936324
C  C86  1  0.20350000  0.40270000  0.34660000  1.0 -0.0310936324
C  C87  1  0.59730000  0.80080000  0.34660000  1.0 -0.0310936324
C  C88  1  0.80080000  0.20350000  0.84660000  1.0 -0.0310936324
C  C89  1  0.79650000  0.59730000  0.84660000  1.0 -0.0310936324
C  C90  1  0.40270000  0.19920000  0.84660000  1.0 -0.0310936324
C  C91  1  0.16880000  0.67260000  0.53080000  1.0 -0.0396911765
C  C92  1  0.32740000  0.49620000  0.53080000  1.0 -0.0396911765
C  C93  1  0.50380000  0.83120000  0.53080000  1.0 -0.0396911765
C  C94  1  0.83120000  0.32740000  0.03080000  1.0 -0.0396911765
C  C95  1  0.67260000  0.50380000  0.03080000  1.0 -0.0396911765
C  C96  1  0.49620000  0.16880000  0.03080000  1.0 -0.0396911765
C  C97  1  0.13370000  0.71500000  0.52300000  1.0 0.0443633104
C  C98  1  0.28500000  0.41870000  0.52300000  1.0 0.0492329782
C  C99  1  0.58130000  0.86630000  0.52300000  1.0 0.0492329782
C  C100  1  0.86630000  0.28500000  0.02300000  1.0 0.0443633104
C  C101  1  0.71500000  0.58130000  0.02300000  1.0 0.0443633104
C  C102  1  0.41870000  0.13370000  0.02300000  1.0 0.0492329782
C  C103  1  0.96400000  0.47020000  0.45670000  1.0 -0.1795229225
C  C104  1  0.52980000  0.49380000  0.45670000  1.0 -0.1795229225
C  C105  1  0.50620000  0.03600000  0.45670000  1.0 -0.1795229225
C  C106  1  0.03600000  0.52980000  0.95670000  1.0 -0.1795229225
C  C107  1  0.47020000  0.50620000  0.95670000  1.0 -0.1795229225
C  C108  1  0.49380000  0.96400000  0.95670000  1.0 -0.1795229225
C  C109  1  0.51070000  0.96660000  0.26760000  1.0 0.5942959367
C  C110  1  0.03340000  0.54410000  0.26760000  1.0 0.5942959367
C  C111  1  0.45590000  0.48930000  0.26760000  1.0 0.5942959367
C  C112  1  0.48930000  0.03340000  0.76760000  1.0 0.5942959367
C  C113  1  0.96660000  0.45590000  0.76760000  1.0 0.5942959367
C  C114  1  0.54410000  0.51070000  0.76760000  1.0 0.5942959367
C  C115  1  0.15910000  0.60970000  0.50030000  1.0 -0.2341966054
C  C116  1  0.39030000  0.54940000  0.50030000  1.0 -0.2341966054
C  C117  1  0.45060000  0.84090000  0.50030000  1.0 -0.2341966054
C  C118  1  0.84090000  0.39030000  0.00030000  1.0 -0.2341966054
C  C119  1  0.60970000  0.45060000  0.00030000  1.0 -0.2341966054
C  C120  1  0.54940000  0.15910000  0.00030000  1.0 -0.2341966054
C  C121  1  0.43140000  0.90580000  0.26640000  1.0 -0.1698524427
C  C122  1  0.09420000  0.52560000  0.26640000  1.0 -0.1698524427
C  C123  1  0.47440000  0.56860000  0.26640000  1.0 -0.1698524427
C  C124  1  0.56860000  0.09420000  0.76640000  1.0 -0.1698524427
C  C125  1  0.90580000  0.47440000  0.76640000  1.0 -0.1698524427
C  C126  1  0.52560000  0.43140000  0.76640000  1.0 -0.1698524427
C  C127  1  0.04050000  0.52770000  0.45940000  1.0 0.2385605503
C  C128  1  0.47230000  0.51280000  0.45940000  1.0 0.2385605503
C  C129  1  0.48720000  0.95950000  0.45940000  1.0 0.2385605503
C  C130  1  0.95950000  0.47230000  0.95940000  1.0 0.2385605503
C  C131  1  0.52770000  0.48720000  0.95940000  1.0 0.2385605503
C  C132  1  0.51280000  0.04050000  0.95940000  1.0 0.2385605503
C  C133  1  0.31240000  0.81820000  0.30160000  1.0 -0.0310936324
C  C134  1  0.18180000  0.49420000  0.30160000  1.0 -0.0310936324
C  C135  1  0.50580000  0.68760000  0.30160000  1.0 -0.0310936324
C  C136  1  0.68760000  0.18180000  0.80160000  1.0 -0.0310936324
C  C137  1  0.81820000  0.50580000  0.80160000  1.0 -0.0310936324
C  C138  1  0.49420000  0.31240000  0.80160000  1.0 -0.0310936324
C  C139  1  0.39800000  0.88290000  0.22640000  1.0 -0.1484168988
C  C140  1  0.11710000  0.51510000  0.22640000  1.0 -0.1484168988
C  C141  1  0.48490000  0.60200000  0.22640000  1.0 -0.1484168988
C  C142  1  0.60200000  0.11710000  0.72640000  1.0 -0.1409422103
C  C143  1  0.88290000  0.48490000  0.72640000  1.0 -0.1484168988
C  C144  1  0.51510000  0.39800000  0.72640000  1.0 -0.1409422103
C  C145  1  0.96500000  0.44660000  0.53400000  1.0 0.0492329782
C  C146  1  0.55340000  0.51840000  0.53400000  1.0 0.0492329782
C  C147  1  0.48160000  0.03500000  0.53400000  1.0 0.0492329782
C  C148  1  0.03500000  0.55340000  0.03400000  1.0 0.0492329782
C  C149  1  0.44660000  0.48160000  0.03400000  1.0 0.0492329782
C  C150  1  0.51840000  0.96500000  0.03400000  1.0 0.0492329782
C  C151  1  0.38780000  0.87260000  0.30450000  1.0 0.2498184471
C  C152  1  0.12740000  0.51520000  0.30450000  1.0 0.2498184471
C  C153  1  0.48480000  0.61220000  0.30450000  1.0 0.2498184471
C  C154  1  0.61220000  0.12740000  0.80450000  1.0 0.2498184471
C  C155  1  0.87260000  0.48480000  0.80450000  1.0 0.2498184471
C  C156  1  0.51520000  0.38780000  0.80450000  1.0 0.2498184471
C  C157  1  0.26760000  0.78760000  0.34320000  1.0 -0.2402330186
C  C158  1  0.21240000  0.48000000  0.34320000  1.0 -0.2402330186
C  C159  1  0.52000000  0.73240000  0.34320000  1.0 -0.2402330186
C  C160  1  0.73240000  0.21240000  0.84320000  1.0 -0.2402330186
C  C161  1  0.78760000  0.52000000  0.84320000  1.0 -0.2402330186
C  C162  1  0.48000000  0.26760000  0.84320000  1.0 -0.2402330186
C  C163  1  0.15380000  0.76730000  0.78240000  1.0 0.1020457181
C  C164  1  0.23270000  0.38650000  0.78240000  1.0 0.1020457181
C  C165  1  0.61350000  0.84620000  0.78240000  1.0 0.1020457181
C  C166  1  0.84620000  0.23270000  0.28240000  1.0 0.1020457181
C  C167  1  0.76730000  0.61350000  0.28240000  1.0 0.1020457181
C  C168  1  0.38650000  0.15380000  0.28240000  1.0 0.1020457181
C  C169  1  0.06350000  0.73810000  0.35110000  1.0 -0.1484168988
C  C170  1  0.26190000  0.32540000  0.35110000  1.0 -0.1484168988
C  C171  1  0.67460000  0.93650000  0.35110000  1.0 -0.1484168988
C  C172  1  0.93650000  0.26190000  0.85110000  1.0 -0.1484168988
C  C173  1  0.73810000  0.67460000  0.85110000  1.0 -0.1484168988
C  C174  1  0.32540000  0.06350000  0.85110000  1.0 -0.1484168988
C  C175  1  0.86200000  0.59080000  0.44970000  1.0 0.120483385
C  C176  1  0.40920000  0.27120000  0.44970000  1.0 0.120483385
C  C177  1  0.72880000  0.13800000  0.44970000  1.0 0.120483385
C  C178  1  0.13800000  0.40920000  0.94970000  1.0 0.120483385
C  C179  1  0.59080000  0.72880000  0.94970000  1.0 0.120483385
C  C180  1  0.27120000  0.86200000  0.94970000  1.0 0.120483385
C  C181  1  0.10000000  0.64730000  0.79530000  1.0 -0.0907065365
C  C182  1  0.35270000  0.45270000  0.79530000  1.0 -0.0907065365
C  C183  1  0.54730000  0.90000000  0.79530000  1.0 -0.0907065365
C  C184  1  0.90000000  0.35270000  0.29530000  1.0 -0.0907065365
C  C185  1  0.64730000  0.54730000  0.29530000  1.0 -0.0907065365
C  C186  1  0.45270000  0.10000000  0.29530000  1.0 -0.0907065365
C  C187  1  0.87120000  0.61380000  0.52850000  1.0 0.1577254984
C  C188  1  0.38620000  0.25740000  0.52850000  1.0 0.1577254984
C  C189  1  0.74260000  0.12880000  0.52850000  1.0 0.1577254984
C  C190  1  0.12880000  0.38620000  0.02850000  1.0 0.1577254984
C  C191  1  0.61380000  0.74260000  0.02850000  1.0 0.1577254984
C  C192  1  0.25740000  0.87120000  0.02850000  1.0 0.1577254984
C  C193  1  0.92710000  0.43090000  0.49400000  1.0 -0.1698524427
C  C194  1  0.56910000  0.49620000  0.49400000  1.0 -0.1698524427
C  C195  1  0.50380000  0.07290000  0.49400000  1.0 -0.1698524427
C  C196  1  0.07290000  0.56910000  0.99400000  1.0 -0.1698524427
C  C197  1  0.43090000  0.50380000  0.99400000  1.0 -0.1698524427
C  C198  1  0.49620000  0.92710000  0.99400000  1.0 -0.1698524427
C  C199  1  0.04220000  0.50140000  0.53600000  1.0 0.0443633104
C  C200  1  0.49860000  0.54080000  0.53600000  1.0 0.0443633104
C  C201  1  0.45920000  0.95780000  0.53600000  1.0 0.0443633104
C  C202  1  0.95780000  0.49860000  0.03600000  1.0 0.0443633104
C  C203  1  0.50140000  0.45920000  0.03600000  1.0 0.0443633104
C  C204  1  0.54080000  0.04220000  0.03600000  1.0 0.0443633104
C  C205  1  0.07890000  0.54550000  0.49820000  1.0 -0.0396911765
C  C206  1  0.45450000  0.53340000  0.49820000  1.0 -0.0396911765
C  C207  1  0.46660000  0.92110000  0.49820000  1.0 -0.0396911765
C  C208  1  0.92110000  0.45450000  0.99820000  1.0 -0.0396911765
C  C209  1  0.54550000  0.46660000  0.99820000  1.0 -0.0396911765
C  C210  1  0.53340000  0.07890000  0.99820000  1.0 -0.0396911765
C  C211  1  0.07990000  0.51200000  0.57620000  1.0 -0.1286987572
C  C212  1  0.48800000  0.56790000  0.57620000  1.0 -0.1286987572
C  C213  1  0.43210000  0.92010000  0.57620000  1.0 -0.1286987572
C  C214  1  0.92010000  0.48800000  0.07620000  1.0 -0.1286987572
C  C215  1  0.51200000  0.43210000  0.07620000  1.0 -0.1286987572
C  C216  1  0.56790000  0.07990000  0.07620000  1.0 -0.1286987572
C  C217  1  0.94560000  0.64330000  0.60770000  1.0 0.0650480319
C  C218  1  0.35670000  0.30230000  0.60770000  1.0 0.0595695595
C  C219  1  0.69770000  0.05440000  0.60770000  1.0 0.0595695595
C  C220  1  0.05440000  0.35670000  0.10770000  1.0 0.0650480319
C  C221  1  0.64330000  0.69770000  0.10770000  1.0 0.0650480319
C  C222  1  0.30230000  0.94560000  0.10770000  1.0 0.0650480319
C  C223  1  0.21880000  0.73940000  0.59950000  1.0 -0.1795229225
C  C224  1  0.26060000  0.47940000  0.59950000  1.0 -0.1795229225
C  C225  1  0.52060000  0.78120000  0.59950000  1.0 -0.1795229225
C  C226  1  0.78120000  0.26060000  0.09950000  1.0 -0.1795229225
C  C227  1  0.73940000  0.52060000  0.09950000  1.0 -0.1795229225
C  C228  1  0.47940000  0.21880000  0.09950000  1.0 -0.1795229225
C  C229  1  0.26180000  0.75400000  0.64020000  1.0 0.6086001027
C  C230  1  0.24600000  0.50780000  0.64020000  1.0 0.6086001027
C  C231  1  0.49220000  0.73820000  0.64020000  1.0 0.6086001027
C  C232  1  0.73820000  0.24600000  0.14020000  1.0 0.6086001027
C  C233  1  0.75400000  0.49220000  0.14020000  1.0 0.6086001027
C  C234  1  0.50780000  0.26180000  0.14020000  1.0 0.6086001027
C  C235  1  0.98600000  0.65930000  0.64960000  1.0 0.0595695595
C  C236  1  0.34070000  0.32670000  0.64960000  1.0 0.0595695595
C  C237  1  0.67330000  0.01400000  0.64960000  1.0 0.0595695595
C  C238  1  0.01400000  0.34070000  0.14960000  1.0 0.0595695595
C  C239  1  0.65930000  0.67330000  0.14960000  1.0 0.0595695595
C  C240  1  0.32670000  0.98600000  0.14960000  1.0 0.0595695595
C  C241  1  0.09440000  0.70980000  0.48370000  1.0 -0.1286987572
C  C242  1  0.29020000  0.38460000  0.48370000  1.0 -0.1286987572
C  C243  1  0.61540000  0.90560000  0.48370000  1.0 -0.1286987572
C  C244  1  0.90560000  0.29020000  0.98370000  1.0 -0.1286987572
C  C245  1  0.70980000  0.61540000  0.98370000  1.0 -0.1286987572
C  C246  1  0.38460000  0.09440000  0.98370000  1.0 -0.1286987572
C  C247  1  0.06390000  0.68670000  0.72660000  1.0 0.1487815285
C  C248  1  0.31330000  0.37720000  0.72660000  1.0 0.1487815285
C  C249  1  0.62280000  0.93610000  0.72660000  1.0 0.1487815285
C  C250  1  0.93610000  0.31330000  0.22660000  1.0 0.1487815285
C  C251  1  0.68670000  0.62280000  0.22660000  1.0 0.1487815285
C  C252  1  0.37720000  0.06390000  0.22660000  1.0 0.1487815285
C  C253  1  0.05940000  0.75070000  0.47900000  1.0 -0.1009587046
C  C254  1  0.24930000  0.30870000  0.47900000  1.0 -0.1009587046
C  C255  1  0.69130000  0.94060000  0.47900000  1.0 -0.1009587046
C  C256  1  0.94060000  0.24930000  0.97900000  1.0 -0.1009587046
C  C257  1  0.75070000  0.69130000  0.97900000  1.0 -0.1009587046
C  C258  1  0.30870000  0.05940000  0.97900000  1.0 -0.1009587046
C  C259  1  0.20540000  0.73180000  0.25450000  1.0 -0.1286987572
C  C260  1  0.26820000  0.47360000  0.25450000  1.0 -0.1286987572
C  C261  1  0.52640000  0.79460000  0.25450000  1.0 -0.1286987572
C  C262  1  0.79460000  0.26820000  0.75450000  1.0 -0.1286987572
C  C263  1  0.73180000  0.52640000  0.75450000  1.0 -0.1286987572
C  C264  1  0.47360000  0.20540000  0.75450000  1.0 -0.1286987572
C  C265  1  0.14790000  0.68470000  0.82770000  1.0 -0.0396911765
C  C266  1  0.31530000  0.46320000  0.82770000  1.0 -0.0396911765
C  C267  1  0.53680000  0.85210000  0.82770000  1.0 -0.0396911765
C  C268  1  0.85210000  0.31530000  0.32770000  1.0 -0.0396911765
C  C269  1  0.68470000  0.53680000  0.32770000  1.0 -0.0396911765
C  C270  1  0.46320000  0.14790000  0.32770000  1.0 -0.0396911765
C  C271  1  0.20360000  0.86760000  0.34580000  1.0 0.0443633104
C  C272  1  0.13240000  0.33600000  0.34580000  1.0 0.0443633104
C  C273  1  0.66400000  0.79640000  0.34580000  1.0 0.0443633104
C  C274  1  0.79640000  0.13240000  0.84580000  1.0 0.0443633104
C  C275  1  0.86760000  0.66400000  0.84580000  1.0 0.0492329782
C  C276  1  0.33600000  0.20360000  0.84580000  1.0 0.0443633104
C  C277  1  0.17640000  0.71080000  0.21350000  1.0 -0.1009587046
C  C278  1  0.28920000  0.46560000  0.21350000  1.0 -0.1009587046
C  C279  1  0.53440000  0.82360000  0.21350000  1.0 -0.1009587046
C  C280  1  0.82360000  0.28920000  0.71350000  1.0 -0.1009587046
C  C281  1  0.71080000  0.53440000  0.71350000  1.0 -0.1009587046
C  C282  1  0.46560000  0.17640000  0.71350000  1.0 -0.1009587046
C  C283  1  0.04140000  0.47020000  0.61220000  1.0 -0.0907065365
C  C284  1  0.52980000  0.57120000  0.61220000  1.0 -0.0907065365
C  C285  1  0.42880000  0.95860000  0.61220000  1.0 -0.0907065365
C  C286  1  0.95860000  0.52980000  0.11220000  1.0 -0.0907065365
C  C287  1  0.47020000  0.42880000  0.11220000  1.0 -0.0907065365
C  C288  1  0.57120000  0.04140000  0.11220000  1.0 -0.0907065365
C  C289  1  0.17900000  0.77700000  0.59280000  1.0 -0.1484168988
C  C290  1  0.22300000  0.40200000  0.59280000  1.0 -0.1484168988
C  C291  1  0.59800000  0.82100000  0.59280000  1.0 -0.1484168988
C  C292  1  0.82100000  0.22300000  0.09280000  1.0 -0.1484168988
C  C293  1  0.77700000  0.59800000  0.09280000  1.0 -0.1484168988
C  C294  1  0.40200000  0.17900000  0.09280000  1.0 -0.1484168988
C  C295  1  0.29090000  0.80110000  0.18030000  1.0 -0.1484168988
C  C296  1  0.19890000  0.48980000  0.18030000  1.0 -0.1484168988
C  C297  1  0.51020000  0.70910000  0.18030000  1.0 -0.1484168988
C  C298  1  0.70910000  0.19890000  0.68030000  1.0 -0.1409422103
C  C299  1  0.80110000  0.51020000  0.68030000  1.0 -0.1484168988
C  C300  1  0.48980000  0.29090000  0.68030000  1.0 -0.1484168988
C  C301  1  0.13700000  0.76660000  0.55580000  1.0 0.0595695595
C  C302  1  0.23340000  0.37040000  0.55580000  1.0 0.0595695595
C  C303  1  0.62960000  0.86300000  0.55580000  1.0 0.0595695595
C  C304  1  0.86300000  0.23340000  0.05580000  1.0 0.0595695595
C  C305  1  0.76660000  0.62960000  0.05580000  1.0 0.0595695595
C  C306  1  0.37040000  0.13700000  0.05580000  1.0 0.0595695595
C  C307  1  0.06260000  0.63440000  0.69870000  1.0 -0.1484168988
C  C308  1  0.36560000  0.42820000  0.69870000  1.0 -0.1484168988
C  C309  1  0.57180000  0.93740000  0.69870000  1.0 -0.1484168988
C  C310  1  0.93740000  0.36560000  0.19870000  1.0 -0.1484168988
C  C311  1  0.63440000  0.57180000  0.19870000  1.0 -0.1484168988
C  C312  1  0.42820000  0.06260000  0.19870000  1.0 -0.1484168988
C  C313  1  0.27360000  0.93440000  0.34620000  1.0 -0.1286987572
C  C314  1  0.06560000  0.33920000  0.34620000  1.0 -0.1286987572
C  C315  1  0.66080000  0.72640000  0.34620000  1.0 -0.1286987572
C  C316  1  0.72640000  0.06560000  0.84620000  1.0 -0.1286987572
C  C317  1  0.93440000  0.66080000  0.84620000  1.0 -0.1286987572
C  C318  1  0.33920000  0.27360000  0.84620000  1.0 -0.1286987572
C  C319  1  0.27540000  0.00150000  0.34430000  1.0 -0.0907065365
C  C320  1  0.99850000  0.27390000  0.34430000  1.0 -0.0907065365
C  C321  1  0.72610000  0.72460000  0.34430000  1.0 -0.0907065365
C  C322  1  0.72460000  0.99850000  0.84430000  1.0 -0.0907065365
C  C323  1  0.00150000  0.72610000  0.84430000  1.0 -0.0907065365
C  C324  1  0.27390000  0.27540000  0.84430000  1.0 -0.0907065365
C  C325  1  0.77280000  0.60890000  0.47650000  1.0 -0.1174314246
C  C326  1  0.39110000  0.16390000  0.47650000  1.0 -0.1174314246
C  C327  1  0.83610000  0.22720000  0.47650000  1.0 -0.1174314246
C  C328  1  0.22720000  0.39110000  0.97650000  1.0 -0.1174314246
C  C329  1  0.60890000  0.83610000  0.97650000  1.0 -0.1174314246
C  C330  1  0.16390000  0.77280000  0.97650000  1.0 -0.1174314246
C  C331  1  0.21880000  0.74430000  0.17640000  1.0 -0.1087315728
C  C332  1  0.25570000  0.47450000  0.17640000  1.0 -0.1087315728
C  C333  1  0.52550000  0.78120000  0.17640000  1.0 -0.1087315728
C  C334  1  0.78120000  0.25570000  0.67640000  1.0 -0.1087315728
C  C335  1  0.74430000  0.52550000  0.67640000  1.0 -0.1087315728
C  C336  1  0.47450000  0.21880000  0.67640000  1.0 -0.1087315728
C  C337  1  0.06150000  0.79900000  0.51060000  1.0 -0.1009587046
C  C338  1  0.20100000  0.26250000  0.51060000  1.0 -0.1009587046
C  C339  1  0.73750000  0.93850000  0.51060000  1.0 -0.1009587046
C  C340  1  0.93850000  0.20100000  0.01060000  1.0 -0.1009587046
C  C341  1  0.79900000  0.73750000  0.01060000  1.0 -0.1009587046
C  C342  1  0.26250000  0.06150000  0.01060000  1.0 -0.1009587046
C  C343  1  0.76180000  0.59570000  0.43320000  1.0 -0.0142798783
C  C344  1  0.40430000  0.16610000  0.43320000  1.0 -0.0142798783
C  C345  1  0.83390000  0.23820000  0.43320000  1.0 -0.0142798783
C  C346  1  0.23820000  0.40430000  0.93320000  1.0 -0.0142798783
C  C347  1  0.59570000  0.83390000  0.93320000  1.0 -0.0142798783
C  C348  1  0.16610000  0.76180000  0.93320000  1.0 -0.0142798783
C  C349  1  0.92780000  0.40610000  0.57250000  1.0 -0.1484168988
C  C350  1  0.59390000  0.52170000  0.57250000  1.0 -0.1484168988
C  C351  1  0.47830000  0.07220000  0.57250000  1.0 -0.1484168988
C  C352  1  0.07220000  0.59390000  0.07250000  1.0 -0.1484168988
C  C353  1  0.40610000  0.47830000  0.07250000  1.0 -0.1484168988
C  C354  1  0.52170000  0.92780000  0.07250000  1.0 -0.1484168988
C  C355  1  0.92380000  0.59400000  0.53500000  1.0 -0.1484168988
C  C356  1  0.40600000  0.32980000  0.53500000  1.0 -0.1484168988
C  C357  1  0.67020000  0.07620000  0.53500000  1.0 -0.1484168988
C  C358  1  0.07620000  0.40600000  0.03500000  1.0 -0.1484168988
C  C359  1  0.59400000  0.67020000  0.03500000  1.0 -0.1484168988
C  C360  1  0.32980000  0.92380000  0.03500000  1.0 -0.1484168988
C  C361  1  0.85640000  0.65120000  0.56020000  1.0 -0.1698524427
C  C362  1  0.34880000  0.20520000  0.56020000  1.0 -0.1698524427
C  C363  1  0.79480000  0.14360000  0.56020000  1.0 -0.1698524427
C  C364  1  0.14360000  0.34880000  0.06020000  1.0 -0.1698524427
C  C365  1  0.65120000  0.79480000  0.06020000  1.0 -0.1698524427
C  C366  1  0.20520000  0.85640000  0.06020000  1.0 -0.1698524427
C  C367  1  0.09890000  0.80630000  0.54820000  1.0 -0.1409422103
C  C368  1  0.19370000  0.29260000  0.54820000  1.0 -0.1409422103
C  C369  1  0.70740000  0.90110000  0.54820000  1.0 -0.1409422103
C  C370  1  0.90110000  0.19370000  0.04820000  1.0 -0.1409422103
C  C371  1  0.80630000  0.70740000  0.04820000  1.0 -0.1409422103
C  C372  1  0.29260000  0.09890000  0.04820000  1.0 -0.1409422103
C  C373  1  0.13680000  0.87110000  0.34480000  1.0 0.0492329782
C  C374  1  0.12890000  0.26570000  0.34480000  1.0 0.0492329782
C  C375  1  0.73430000  0.86320000  0.34480000  1.0 0.0492329782
C  C376  1  0.86320000  0.12890000  0.84480000  1.0 0.0492329782
C  C377  1  0.87110000  0.73430000  0.84480000  1.0 0.0492329782
C  C378  1  0.26570000  0.13680000  0.84480000  1.0 0.0492329782
C  C379  1  0.02430000  0.62210000  0.65980000  1.0 -0.1286987572
C  C380  1  0.37790000  0.40220000  0.65980000  1.0 -0.1286987572
C  C381  1  0.59780000  0.97570000  0.65980000  1.0 -0.1286987572
C  C382  1  0.97570000  0.37790000  0.15980000  1.0 -0.1286987572
C  C383  1  0.62210000  0.59780000  0.15980000  1.0 -0.1286987572
C  C384  1  0.40220000  0.02430000  0.15980000  1.0 -0.1286987572
C  C385  1  0.06770000  0.80510000  0.34710000  1.0 -0.1409422103
C  C386  1  0.19490000  0.26260000  0.34710000  1.0 -0.1409422103
C  C387  1  0.73740000  0.93230000  0.34710000  1.0 -0.1409422103
C  C388  1  0.93230000  0.19490000  0.84710000  1.0 -0.1409422103
C  C389  1  0.80510000  0.73740000  0.84710000  1.0 -0.1409422103
C  C390  1  0.26260000  0.06770000  0.84710000  1.0 -0.1409422103
C  C391  1  0.89230000  0.66320000  0.59990000  1.0 -0.1409422103
C  C392  1  0.33680000  0.22910000  0.59990000  1.0 -0.1409422103
C  C393  1  0.77090000  0.10770000  0.59990000  1.0 -0.1409422103
C  C394  1  0.10770000  0.33680000  0.09990000  1.0 -0.1409422103
C  C395  1  0.66320000  0.77090000  0.09990000  1.0 -0.1409422103
C  C396  1  0.22910000  0.89230000  0.09990000  1.0 -0.1409422103
C  C397  1  0.96490000  0.41940000  0.60980000  1.0 -0.1009587046
C  C398  1  0.58060000  0.54550000  0.60980000  1.0 -0.1009587046
C  C399  1  0.45450000  0.03510000  0.60980000  1.0 -0.1009587046
C  C400  1  0.03510000  0.58060000  0.10980000  1.0 -0.1009587046
C  C401  1  0.41940000  0.45450000  0.10980000  1.0 -0.1009587046
C  C402  1  0.54550000  0.96490000  0.10980000  1.0 -0.1009587046
C  C403  1  0.20930000  0.00620000  0.34100000  1.0 -0.1087315728
C  C404  1  0.99380000  0.20310000  0.34100000  1.0 -0.1087315728
C  C405  1  0.79690000  0.79070000  0.34100000  1.0 -0.1087315728
C  C406  1  0.79070000  0.99380000  0.84100000  1.0 -0.1087315728
C  C407  1  0.00620000  0.79690000  0.84100000  1.0 -0.1087315728
C  C408  1  0.20310000  0.20930000  0.84100000  1.0 -0.1087315728
C  C409  1  0.14130000  0.94290000  0.34260000  1.0 -0.1409422103
C  C410  1  0.05710000  0.19840000  0.34260000  1.0 -0.1409422103
C  C411  1  0.80160000  0.85870000  0.34260000  1.0 -0.1409422103
C  C412  1  0.85870000  0.05710000  0.84260000  1.0 -0.1409422103
C  C413  1  0.94290000  0.80160000  0.84260000  1.0 -0.1409422103
C  C414  1  0.19840000  0.14130000  0.84260000  1.0 -0.1409422103
C  C415  1  0.02710000  0.72200000  0.71760000  1.0 -0.1646419685
C  C416  1  0.27800000  0.30510000  0.71760000  1.0 -0.1646419685
C  C417  1  0.69490000  0.97290000  0.71760000  1.0 -0.1646419685
C  C418  1  0.97290000  0.27800000  0.21760000  1.0 -0.1646419685
C  C419  1  0.72200000  0.69490000  0.21760000  1.0 -0.1646419685
C  C420  1  0.30510000  0.02710000  0.21760000  1.0 -0.1646419685
C  C421  1  0.96010000  0.60870000  0.57500000  1.0 -0.1174314246
C  C422  1  0.39130000  0.35140000  0.57500000  1.0 -0.1174314246
C  C423  1  0.64860000  0.03990000  0.57500000  1.0 -0.1174314246
C  C424  1  0.03990000  0.39130000  0.07500000  1.0 -0.1174314246
C  C425  1  0.60870000  0.64860000  0.07500000  1.0 -0.1174314246
C  C426  1  0.35140000  0.96010000  0.07500000  1.0 -0.1174314246
C  C427  1  0.99080000  0.70940000  0.67730000  1.0 -0.1174314246
C  C428  1  0.29060000  0.28140000  0.67730000  1.0 -0.1174314246
C  C429  1  0.71860000  0.00920000  0.67730000  1.0 -0.1174314246
C  C430  1  0.00920000  0.29060000  0.17730000  1.0 -0.1174314246
C  C431  1  0.70940000  0.71860000  0.17730000  1.0 -0.1174314246
C  C432  1  0.28140000  0.99080000  0.17730000  1.0 -0.1174314246
N  N1  1  0.75300000  0.33510000  0.24230000  1.0 -0.7912334225
N  N2  1  0.66490000  0.41790000  0.24230000  1.0 -0.7912334225
N  N3  1  0.58210000  0.24700000  0.24230000  1.0 -0.7912334225
N  N4  1  0.24700000  0.66490000  0.74230000  1.0 -0.7912334225
N  N5  1  0.33510000  0.58210000  0.74230000  1.0 -0.7912334225
N  N6  1  0.41790000  0.75300000  0.74230000  1.0 -0.7912334225
N  N7  1  0.66666667  0.33333333  0.34950000  1.0 -0.8457659107
N  N8  1  0.33333333  0.66666667  0.84950000  1.0 -0.8457659107
N  N9  1  0.18190000  0.76020000  0.81942000  1.0 -0.2885267209
N  N10  1  0.23980000  0.42170000  0.81942000  1.0 -0.2885267209
N  N11  1  0.57830000  0.81810000  0.81942000  1.0 -0.2885267209
N  N12  1  0.81810000  0.23980000  0.31942000  1.0 -0.2885267209
N  N13  1  0.76020000  0.57830000  0.31942000  1.0 -0.2885267209
N  N14  1  0.42170000  0.18190000  0.31942000  1.0 -0.2885267209
N  N15  1  0.81670000  0.58260000  0.41690000  1.0 -0.2885267209
N  N16  1  0.41740000  0.23410000  0.41690000  1.0 -0.2885267209
N  N17  1  0.76590000  0.18330000  0.41690000  1.0 -0.2885267209
N  N18  1  0.18330000  0.41740000  0.91690000  1.0 -0.2885267209
N  N19  1  0.58260000  0.76590000  0.91690000  1.0 -0.2885267209
N  N20  1  0.23410000  0.81670000  0.91690000  1.0 -0.2885267209
N  N21  1  0.10450000  0.70030000  0.76672000  1.0 0.004513347
N  N22  1  0.29970000  0.40420000  0.76672000  1.0 0.004513347
N  N23  1  0.59580000  0.89550000  0.76672000  1.0 0.004513347
N  N24  1  0.89550000  0.29970000  0.26672000  1.0 0.004513347
N  N25  1  0.70030000  0.59580000  0.26672000  1.0 0.004513347
N  N26  1  0.40420000  0.10450000  0.26672000  1.0 0.004513347
N  N27  1  0.84050000  0.48670000  0.33110000  1.0 -0.8038905482
N  N28  1  0.51330000  0.35380000  0.33110000  1.0 -0.8038905482
N  N29  1  0.64620000  0.15950000  0.33110000  1.0 -0.8038905482
N  N30  1  0.15950000  0.51330000  0.83110000  1.0 -0.8054984432
N  N31  1  0.48670000  0.64620000  0.83110000  1.0 -0.8038905482
N  N32  1  0.35380000  0.84050000  0.83110000  1.0 -0.8054984432
N  N33  1  0.83560000  0.60330000  0.48660000  1.0 0.010364748
N  N34  1  0.39670000  0.23230000  0.48660000  1.0 0.010364748
N  N35  1  0.76770000  0.16440000  0.48660000  1.0 0.010364748
N  N36  1  0.16440000  0.39670000  0.98660000  1.0 0.010364748
N  N37  1  0.60330000  0.76770000  0.98660000  1.0 0.010364748
N  N38  1  0.23230000  0.83560000  0.98660000  1.0 0.010364748
O  O1  1  0.85650000  0.49400000  0.23470000  1.0 -0.6770368438
O  O2  1  0.50600000  0.36250000  0.23470000  1.0 -0.6770368438
O  O3  1  0.63750000  0.14350000  0.23470000  1.0 -0.6770368438
O  O4  1  0.14350000  0.50600000  0.73470000  1.0 -0.6770368438
O  O5  1  0.49400000  0.63750000  0.73470000  1.0 -0.6770368438
O  O6  1  0.36250000  0.85650000  0.73470000  1.0 -0.6770368438
O  O7  1  0.87640000  0.68030000  0.20340000  1.0 -0.4926609716
O  O8  1  0.31970000  0.19610000  0.20340000  1.0 -0.4926609716
O  O9  1  0.80390000  0.12360000  0.20340000  1.0 -0.4926609716
O  O10  1  0.12360000  0.31970000  0.70340000  1.0 -0.4926609716
O  O11  1  0.68030000  0.80390000  0.70340000  1.0 -0.4926609716
O  O12  1  0.19610000  0.87640000  0.70340000  1.0 -0.4926609716
O  O13  1  0.95760000  0.47320000  0.37928000  1.0 -0.6322098594
O  O14  1  0.52680000  0.48440000  0.37928000  1.0 -0.6322098594
O  O15  1  0.51560000  0.04240000  0.37928000  1.0 -0.6322098594
O  O16  1  0.04240000  0.52680000  0.87928000  1.0 -0.6322098594
O  O17  1  0.47320000  0.51560000  0.87928000  1.0 -0.6322098594
O  O18  1  0.48440000  0.95760000  0.87928000  1.0 -0.6322098594
O  O19  1  0.98340000  0.61240000  0.37459000  1.0 -0.6209215419
O  O20  1  0.38760000  0.37100000  0.37459000  1.0 -0.6209215419
O  O21  1  0.62900000  0.01660000  0.37459000  1.0 -0.6209215419
O  O22  1  0.01660000  0.38760000  0.87459000  1.0 -0.6209215419
O  O23  1  0.61240000  0.62900000  0.87459000  1.0 -0.6209215419
O  O24  1  0.37100000  0.98340000  0.87459000  1.0 -0.6209215419
O  O25  1  0.12430000  0.66550000  0.35341000  1.0 -0.6092701873
O  O26  1  0.33450000  0.45880000  0.35341000  1.0 -0.6092701873
O  O27  1  0.54120000  0.87570000  0.35341000  1.0 -0.6092701873
O  O28  1  0.87570000  0.33450000  0.85341000  1.0 -0.6092701873
O  O29  1  0.66550000  0.54120000  0.85341000  1.0 -0.6092701873
O  O30  1  0.45880000  0.12430000  0.85341000  1.0 -0.6092701873
O  O31  1  0.54190000  0.99140000  0.30473000  1.0 -0.6209215419
O  O32  1  0.00860000  0.55050000  0.30473000  1.0 -0.6209215419
O  O33  1  0.44950000  0.45810000  0.30473000  1.0 -0.6209215419
O  O34  1  0.45810000  0.00860000  0.80473000  1.0 -0.6209215419
O  O35  1  0.99140000  0.44950000  0.80473000  1.0 -0.6209215419
O  O36  1  0.55050000  0.54190000  0.80473000  1.0 -0.6209215419
O  O37  1  0.07440000  0.56760000  0.42347000  1.0 -0.6322098594
O  O38  1  0.43240000  0.50680000  0.42347000  1.0 -0.6322098594
O  O39  1  0.49320000  0.92560000  0.42347000  1.0 -0.6322098594
O  O40  1  0.92560000  0.43240000  0.92347000  1.0 -0.6322098594
O  O41  1  0.56760000  0.49320000  0.92347000  1.0 -0.6322098594
O  O42  1  0.50680000  0.07440000  0.92347000  1.0 -0.6322098594
O  O43  1  0.41820000  0.89400000  0.34363000  1.0 -0.6002577763
O  O44  1  0.10600000  0.52420000  0.34363000  1.0 -0.6002577763
O  O45  1  0.47580000  0.58180000  0.34363000  1.0 -0.6002577763
O  O46  1  0.58180000  0.10600000  0.84363000  1.0 -0.6002577763
O  O47  1  0.89400000  0.47580000  0.84363000  1.0 -0.6002577763
O  O48  1  0.52420000  0.41820000  0.84363000  1.0 -0.6002577763
O  O49  1  0.25010000  0.65030000  0.57298000  1.0 -0.6209215419
O  O50  1  0.34970000  0.59980000  0.57298000  1.0 -0.6209215419
O  O51  1  0.40020000  0.74990000  0.57298000  1.0 -0.6209215419
O  O52  1  0.74990000  0.34970000  0.07298000  1.0 -0.6209215419
O  O53  1  0.65030000  0.40020000  0.07298000  1.0 -0.6209215419
O  O54  1  0.59980000  0.25010000  0.07298000  1.0 -0.6209215419
O  O55  1  0.30320000  0.72400000  0.64567000  1.0 -0.6209215419
O  O56  1  0.27600000  0.57920000  0.64567000  1.0 -0.6209215419
O  O57  1  0.42080000  0.69680000  0.64567000  1.0 -0.6209215419
O  O58  1  0.69680000  0.27600000  0.14567000  1.0 -0.6209215419
O  O59  1  0.72400000  0.42080000  0.14567000  1.0 -0.6209215419
O  O60  1  0.57920000  0.30320000  0.14567000  1.0 -0.6209215419
O  O61  1  0.93250000  0.67280000  0.34474000  1.0 -0.5149417143
O  O62  1  0.32720000  0.25970000  0.34474000  1.0 -0.5149417143
O  O63  1  0.74030000  0.06750000  0.34474000  1.0 -0.5149417143
O  O64  1  0.06750000  0.32720000  0.84474000  1.0 -0.5228484135
O  O65  1  0.67280000  0.74030000  0.84474000  1.0 -0.5149417143
O  O66  1  0.25970000  0.93250000  0.84474000  1.0 -0.5149417143
O  O67  1  0.85330000  0.40600000  0.41560000  1.0 -0.529169573
O  O68  1  0.59400000  0.44730000  0.41560000  1.0 -0.529169573
O  O69  1  0.55270000  0.14670000  0.41560000  1.0 -0.529169573
O  O70  1  0.14670000  0.59400000  0.91560000  1.0 -0.529169573
O  O71  1  0.40600000  0.55270000  0.91560000  1.0 -0.529169573
O  O72  1  0.44730000  0.85330000  0.91560000  1.0 -0.529169573
O  O73  1  0.54360000  0.99370000  0.23315000  1.0 -0.5228484135
O  O74  1  0.00630000  0.54990000  0.23315000  1.0 -0.5228484135
O  O75  1  0.45010000  0.45640000  0.23315000  1.0 -0.5228484135
O  O76  1  0.45640000  0.00630000  0.73315000  1.0 -0.5228484135
O  O77  1  0.99370000  0.45010000  0.73315000  1.0 -0.529169573
O  O78  1  0.54990000  0.54360000  0.73315000  1.0 -0.529169573
O  O79  1  0.25710000  0.79310000  0.66910000  1.0 -0.529169573
O  O80  1  0.20690000  0.46400000  0.66910000  1.0 -0.529169573
O  O81  1  0.53600000  0.74290000  0.66910000  1.0 -0.529169573
O  O82  1  0.74290000  0.20690000  0.16910000  1.0 -0.529169573
O  O83  1  0.79310000  0.53600000  0.16910000  1.0 -0.529169573
O  O84  1  0.46400000  0.25710000  0.16910000  1.0 -0.529169573
