# DDEC6 charges by PACMAN v1.1 (https://github.com/mtap-research/PACMAN-charge/)
data_UDOLAE_FSR_pacman
_symmetry_space_group_name_H-M   'P 1'
_cell_length_a   20.70160000
_cell_length_b   20.70160000
_cell_length_c   30.74350000
_cell_angle_alpha   90.00000000
_cell_angle_beta   90.00000000
_cell_angle_gamma   120.00000000
_symmetry_Int_Tables_number   1
_chemical_formula_structural   Ti4Zn4H171C216N19O42
_chemical_formula_sum   'Ti8 Zn8 H342 C432 N38 O84'
_cell_volume   11410.16082112
_cell_formula_units_Z   2
loop_
 _symmetry_equiv_pos_site_id
 _symmetry_equiv_pos_as_xyz
  1  'x, y, z'
loop_
 _atom_site_type_symbol
 _atom_site_label
 _atom_site_symmetry_multiplicity
 _atom_site_fract_x
 _atom_site_fract_y
 _atom_site_fract_z
 _atom_site_occupancy
 _atom_site_charge
Ti  Ti1  1  0.43254000  0.48479000  0.63489000  1.0 1.9066833226
Ti  Ti2  1  0.51521000  0.94775000  0.63489000  1.0 1.9066833226
Ti  Ti3  1  0.05225000  0.56746000  0.63489000  1.0 1.9066833226
Ti  Ti4  1  0.56746000  0.51521000  0.13489000  1.0 1.9066833226
Ti  Ti5  1  0.48479000  0.05225000  0.13489000  1.0 1.9066833226
Ti  Ti6  1  0.94775000  0.43254000  0.13489000  1.0 1.9066833226
Ti  Ti7  1  0.33333333  0.66666667  0.39420000  1.0 1.9043696292
Ti  Ti8  1  0.66666667  0.33333333  0.89420000  1.0 1.9043696292
Zn  Zn1  1  0.33333333  0.66666667  0.24057000  1.0 0.7509546943
Zn  Zn2  1  0.66666667  0.33333333  0.74057000  1.0 0.7509546943
Zn  Zn3  1  0.73604000  0.16278000  0.64653000  1.0 0.7412796386
Zn  Zn4  1  0.83722000  0.57326000  0.64653000  1.0 0.7412796386
Zn  Zn5  1  0.42674000  0.26396000  0.64653000  1.0 0.7412796386
Zn  Zn6  1  0.26396000  0.83722000  0.14653000  1.0 0.7412796386
Zn  Zn7  1  0.16278000  0.42674000  0.14653000  1.0 0.7412796386
Zn  Zn8  1  0.57326000  0.73604000  0.14653000  1.0 0.7412796386
H  H1  1  0.45448000  0.77356000  0.24161000  1.0 0.2609493849
H  H2  1  0.22644000  0.68092000  0.24161000  1.0 0.2609493849
H  H3  1  0.31908000  0.54552000  0.24161000  1.0 0.2609493849
H  H4  1  0.54552000  0.22644000  0.74161000  1.0 0.2609493849
H  H5  1  0.77356000  0.31908000  0.74161000  1.0 0.2609493849
H  H6  1  0.68092000  0.45448000  0.74161000  1.0 0.2609493849
H  H7  1  0.43909000  0.74383000  0.28556000  1.0 0.2934790643
H  H8  1  0.25617000  0.69526000  0.28556000  1.0 0.2934790643
H  H9  1  0.30474000  0.56091000  0.28556000  1.0 0.2934790643
H  H10  1  0.56091000  0.25617000  0.78556000  1.0 0.2934790643
H  H11  1  0.74383000  0.30474000  0.78556000  1.0 0.2934790643
H  H12  1  0.69526000  0.43909000  0.78556000  1.0 0.2934790643
H  H13  1  0.40895000  0.78996000  0.27046000  1.0 0.3044354089
H  H14  1  0.21004000  0.61899000  0.27046000  1.0 0.3044354089
H  H15  1  0.38101000  0.59105000  0.27046000  1.0 0.3044354089
H  H16  1  0.59105000  0.21004000  0.77046000  1.0 0.3044354089
H  H17  1  0.78996000  0.38101000  0.77046000  1.0 0.3044354089
H  H18  1  0.61899000  0.40895000  0.77046000  1.0 0.3044354089
H  H19  1  0.37848000  0.67854000  0.15648000  1.0 0.2609493849
H  H20  1  0.32146000  0.69994000  0.15648000  1.0 0.2609493849
H  H21  1  0.30006000  0.62152000  0.15648000  1.0 0.2609493849
H  H22  1  0.62152000  0.32146000  0.65648000  1.0 0.2609493849
H  H23  1  0.67854000  0.30006000  0.65648000  1.0 0.2609493849
H  H24  1  0.69994000  0.37848000  0.65648000  1.0 0.2609493849
H  H25  1  0.50370000  0.60353000  0.27651000  1.0 0.3118008127
H  H26  1  0.39647000  0.90017000  0.27651000  1.0 0.3118008127
H  H27  1  0.09983000  0.49630000  0.27651000  1.0 0.3118008127
H  H28  1  0.49630000  0.39647000  0.77651000  1.0 0.3118008127
H  H29  1  0.60353000  0.09983000  0.77651000  1.0 0.3118008127
H  H30  1  0.90017000  0.50370000  0.77651000  1.0 0.3118008127
H  H31  1  0.51614000  0.67352000  0.28038000  1.0 0.3118008127
H  H32  1  0.32648000  0.84262000  0.28038000  1.0 0.3118008127
H  H33  1  0.15738000  0.48386000  0.28038000  1.0 0.3118008127
H  H34  1  0.48386000  0.32648000  0.78038000  1.0 0.3118008127
H  H35  1  0.67352000  0.15738000  0.78038000  1.0 0.3118008127
H  H36  1  0.84262000  0.51614000  0.78038000  1.0 0.3118008127
H  H37  1  0.63746000  0.78207000  0.30688000  1.0 0.3295905061
H  H38  1  0.21793000  0.85539000  0.30688000  1.0 0.3295905061
H  H39  1  0.14461000  0.36254000  0.30688000  1.0 0.3295905061
H  H40  1  0.36254000  0.21793000  0.80688000  1.0 0.3295905061
H  H41  1  0.78207000  0.14461000  0.80688000  1.0 0.3295905061
H  H42  1  0.85539000  0.63746000  0.80688000  1.0 0.3295905061
H  H43  1  0.67381000  0.71141000  0.27735000  1.0 0.0910744846
H  H44  1  0.28859000  0.96240000  0.27735000  1.0 0.0910744846
H  H45  1  0.03760000  0.32619000  0.27735000  1.0 0.0910744846
H  H46  1  0.32619000  0.28859000  0.77735000  1.0 0.0910744846
H  H47  1  0.71141000  0.03760000  0.77735000  1.0 0.0910744846
H  H48  1  0.96240000  0.67381000  0.77735000  1.0 0.0910744846
H  H49  1  0.77733000  0.69173000  0.26773000  1.0 0.119725572
H  H50  1  0.30827000  0.08560000  0.26773000  1.0 0.119725572
H  H51  1  0.91440000  0.22267000  0.26773000  1.0 0.119725572
H  H52  1  0.22267000  0.30827000  0.76773000  1.0 0.119725572
H  H53  1  0.69173000  0.91440000  0.76773000  1.0 0.119725572
H  H54  1  0.08560000  0.77733000  0.76773000  1.0 0.119725572
H  H55  1  0.90262000  0.73993000  0.25157000  1.0 0.1017289328
H  H56  1  0.26007000  0.16269000  0.25157000  1.0 0.1017289328
H  H57  1  0.83731000  0.09738000  0.25157000  1.0 0.1017289328
H  H58  1  0.09738000  0.26007000  0.75157000  1.0 0.1017289328
H  H59  1  0.73993000  0.83731000  0.75157000  1.0 0.1017289328
H  H60  1  0.16269000  0.90262000  0.75157000  1.0 0.1017289328
H  H61  1  0.98456000  0.86735000  0.25635000  1.0 0.1108666862
H  H62  1  0.13265000  0.11721000  0.25635000  1.0 0.1108666862
H  H63  1  0.88279000  0.01544000  0.25635000  1.0 0.1108666862
H  H64  1  0.01544000  0.13265000  0.75635000  1.0 0.1108666862
H  H65  1  0.86735000  0.88279000  0.75635000  1.0 0.1108666862
H  H66  1  0.11721000  0.98456000  0.75635000  1.0 0.1108666862
H  H67  1  0.94119000  0.94657000  0.27729000  1.0 0.0910744846
H  H68  1  0.05343000  0.99462000  0.27729000  1.0 0.0910744846
H  H69  1  0.00538000  0.05881000  0.27729000  1.0 0.0910744846
H  H70  1  0.05881000  0.05343000  0.77729000  1.0 0.0910744846
H  H71  1  0.94657000  0.00538000  0.77729000  1.0 0.0910744846
H  H72  1  0.99462000  0.94119000  0.77729000  1.0 0.0910744846
H  H73  1  0.81590000  0.89837000  0.29345000  1.0 0.119725572
H  H74  1  0.10163000  0.91753000  0.29345000  1.0 0.119725572
H  H75  1  0.08247000  0.18410000  0.29345000  1.0 0.119725572
H  H76  1  0.18410000  0.10163000  0.79345000  1.0 0.119725572
H  H77  1  0.89837000  0.08247000  0.79345000  1.0 0.119725572
H  H78  1  0.91753000  0.81590000  0.79345000  1.0 0.119725572
H  H79  1  0.72056000  0.75928000  0.36202000  1.0 0.1364983387
H  H80  1  0.24072000  0.96128000  0.36202000  1.0 0.1364983387
H  H81  1  0.03872000  0.27944000  0.36202000  1.0 0.1364983387
H  H82  1  0.27944000  0.24072000  0.86202000  1.0 0.1364983387
H  H83  1  0.75928000  0.03872000  0.86202000  1.0 0.1364983387
H  H84  1  0.96128000  0.72056000  0.86202000  1.0 0.1364983387
H  H85  1  0.71163000  0.68395000  0.34485000  1.0 0.1302039513
H  H86  1  0.31605000  0.02768000  0.34485000  1.0 0.1302039513
H  H87  1  0.97232000  0.28837000  0.34485000  1.0 0.1302039513
H  H88  1  0.28837000  0.31605000  0.84485000  1.0 0.1302039513
H  H89  1  0.68395000  0.97232000  0.84485000  1.0 0.1302039513
H  H90  1  0.02768000  0.71163000  0.84485000  1.0 0.1302039513
H  H91  1  0.64137000  0.69334000  0.34961000  1.0 0.1302039513
H  H92  1  0.30666000  0.94803000  0.34961000  1.0 0.1302039513
H  H93  1  0.05197000  0.35863000  0.34961000  1.0 0.1302039513
H  H94  1  0.35863000  0.30666000  0.84961000  1.0 0.1302039513
H  H95  1  0.69334000  0.05197000  0.84961000  1.0 0.1302039513
H  H96  1  0.94803000  0.64137000  0.84961000  1.0 0.1302039513
H  H97  1  0.60627000  0.12421000  0.65571000  1.0 0.2934790643
H  H98  1  0.87579000  0.48206000  0.65571000  1.0 0.2934790643
H  H99  1  0.51794000  0.39373000  0.65571000  1.0 0.2934790643
H  H100  1  0.39373000  0.87579000  0.15571000  1.0 0.2934790643
H  H101  1  0.12421000  0.51794000  0.15571000  1.0 0.2934790643
H  H102  1  0.48206000  0.60627000  0.15571000  1.0 0.2934790643
H  H103  1  0.64190000  0.14753000  0.69806000  1.0 0.3118008127
H  H104  1  0.85247000  0.49437000  0.69806000  1.0 0.3118008127
H  H105  1  0.50563000  0.35810000  0.69806000  1.0 0.3118008127
H  H106  1  0.35810000  0.85247000  0.19806000  1.0 0.3118008127
H  H107  1  0.14753000  0.50563000  0.19806000  1.0 0.3118008127
H  H108  1  0.49437000  0.64190000  0.19806000  1.0 0.3118008127
H  H109  1  0.64939000  0.20308000  0.66642000  1.0 0.2609493849
H  H110  1  0.79692000  0.44631000  0.66642000  1.0 0.2609493849
H  H111  1  0.55369000  0.35061000  0.66642000  1.0 0.2609493849
H  H112  1  0.35061000  0.79692000  0.16642000  1.0 0.2609493849
H  H113  1  0.20308000  0.55369000  0.16642000  1.0 0.2609493849
H  H114  1  0.44631000  0.64939000  0.16642000  1.0 0.2609493849
H  H115  1  0.40803000  0.59797000  0.48941000  1.0 0.1302039513
H  H116  1  0.40203000  0.81006000  0.48941000  1.0 0.1302039513
H  H117  1  0.18994000  0.59197000  0.48941000  1.0 0.1302039513
H  H118  1  0.59197000  0.40203000  0.98941000  1.0 0.1302039513
H  H119  1  0.59797000  0.18994000  0.98941000  1.0 0.1302039513
H  H120  1  0.81006000  0.40803000  0.98941000  1.0 0.1302039513
H  H121  1  0.36864000  0.54157000  0.52760000  1.0 0.1302039513
H  H122  1  0.45843000  0.82707000  0.52760000  1.0 0.1302039513
H  H123  1  0.17293000  0.63136000  0.52760000  1.0 0.1302039513
H  H124  1  0.63136000  0.45843000  0.02760000  1.0 0.1302039513
H  H125  1  0.54157000  0.17293000  0.02760000  1.0 0.1302039513
H  H126  1  0.82707000  0.36864000  0.02760000  1.0 0.1302039513
H  H127  1  0.60482000  0.48102000  0.50839000  1.0 0.1108666862
H  H128  1  0.51898000  0.12380000  0.50839000  1.0 0.1108666862
H  H129  1  0.87620000  0.39518000  0.50839000  1.0 0.1108666862
H  H130  1  0.39518000  0.51898000  0.00839000  1.0 0.1108666862
H  H131  1  0.48102000  0.87620000  0.00839000  1.0 0.1108666862
H  H132  1  0.12380000  0.60482000  0.00839000  1.0 0.1108666862
H  H133  1  0.64452000  0.83279000  0.23290000  1.0 0.1302039513
H  H134  1  0.16721000  0.81173000  0.23290000  1.0 0.1302039513
H  H135  1  0.18827000  0.35548000  0.23290000  1.0 0.1302039513
H  H136  1  0.35548000  0.16721000  0.73290000  1.0 0.1302039513
H  H137  1  0.83279000  0.18827000  0.73290000  1.0 0.1302039513
H  H138  1  0.81173000  0.64452000  0.73290000  1.0 0.1302039513
H  H139  1  0.53255000  0.93687000  0.20744000  1.0 0.149163377
H  H140  1  0.06313000  0.59568000  0.20744000  1.0 0.149163377
H  H141  1  0.40432000  0.46745000  0.20744000  1.0 0.149163377
H  H142  1  0.46745000  0.06313000  0.70744000  1.0 0.149163377
H  H143  1  0.93687000  0.40432000  0.70744000  1.0 0.149163377
H  H144  1  0.59568000  0.53255000  0.70744000  1.0 0.149163377
H  H145  1  0.45337000  0.58147000  0.42027000  1.0 0.119725572
H  H146  1  0.41853000  0.87190000  0.42027000  1.0 0.119725572
H  H147  1  0.12810000  0.54663000  0.42027000  1.0 0.119725572
H  H148  1  0.54663000  0.41853000  0.92027000  1.0 0.119725572
H  H149  1  0.58147000  0.12810000  0.92027000  1.0 0.119725572
H  H150  1  0.87190000  0.45337000  0.92027000  1.0 0.119725572
H  H151  1  0.47651000  0.57130000  0.79902000  1.0 0.119725572
H  H152  1  0.42870000  0.90521000  0.79902000  1.0 0.119725572
H  H153  1  0.09479000  0.52349000  0.79902000  1.0 0.119725572
H  H154  1  0.52349000  0.42870000  0.29902000  1.0 0.119725572
H  H155  1  0.57130000  0.09479000  0.29902000  1.0 0.119725572
H  H156  1  0.90521000  0.47651000  0.29902000  1.0 0.119725572
H  H157  1  0.51846000  0.70149000  0.63312000  1.0 0.1302039513
H  H158  1  0.29851000  0.81697000  0.63312000  1.0 0.1302039513
H  H159  1  0.18303000  0.48154000  0.63312000  1.0 0.1302039513
H  H160  1  0.48154000  0.29851000  0.13312000  1.0 0.1302039513
H  H161  1  0.70149000  0.18303000  0.13312000  1.0 0.1302039513
H  H162  1  0.81697000  0.51846000  0.13312000  1.0 0.1302039513
H  H163  1  0.48708000  0.74836000  0.65499000  1.0 0.1302039513
H  H164  1  0.25164000  0.73872000  0.65499000  1.0 0.1302039513
H  H165  1  0.26128000  0.51292000  0.65499000  1.0 0.1302039513
H  H166  1  0.51292000  0.25164000  0.15499000  1.0 0.1302039513
H  H167  1  0.74836000  0.26128000  0.15499000  1.0 0.1302039513
H  H168  1  0.73872000  0.48708000  0.15499000  1.0 0.1302039513
H  H169  1  0.32310000  0.41099000  0.53623000  1.0 0.119725572
H  H170  1  0.58901000  0.91211000  0.53623000  1.0 0.119725572
H  H171  1  0.08789000  0.67690000  0.53623000  1.0 0.119725572
H  H172  1  0.67690000  0.58901000  0.03623000  1.0 0.1302039513
H  H173  1  0.41099000  0.08789000  0.03623000  1.0 0.1302039513
H  H174  1  0.91211000  0.32310000  0.03623000  1.0 0.119725572
H  H175  1  0.68445000  0.09993000  0.55320000  1.0 0.1302039513
H  H176  1  0.90007000  0.58452000  0.55320000  1.0 0.1302039513
H  H177  1  0.41548000  0.31555000  0.55320000  1.0 0.1302039513
H  H178  1  0.31555000  0.90007000  0.05320000  1.0 0.1302039513
H  H179  1  0.09993000  0.41548000  0.05320000  1.0 0.1302039513
H  H180  1  0.58452000  0.68445000  0.05320000  1.0 0.1302039513
H  H181  1  0.50797000  0.84650000  0.14951000  1.0 0.1364983387
H  H182  1  0.15350000  0.66147000  0.14951000  1.0 0.1364983387
H  H183  1  0.33853000  0.49203000  0.14951000  1.0 0.1364983387
H  H184  1  0.49203000  0.15350000  0.64951000  1.0 0.1364983387
H  H185  1  0.84650000  0.33853000  0.64951000  1.0 0.1364983387
H  H186  1  0.66147000  0.50797000  0.64951000  1.0 0.1364983387
H  H187  1  0.18826000  0.37109000  0.38464000  1.0 0.119725572
H  H188  1  0.62891000  0.81717000  0.38464000  1.0 0.119725572
H  H189  1  0.18283000  0.81174000  0.38464000  1.0 0.119725572
H  H190  1  0.81174000  0.62891000  0.88464000  1.0 0.119725572
H  H191  1  0.37109000  0.18283000  0.88464000  1.0 0.119725572
H  H192  1  0.81717000  0.18826000  0.88464000  1.0 0.119725572
H  H193  1  0.25534000  0.28382000  0.54418000  1.0 0.119725572
H  H194  1  0.71618000  0.97152000  0.54418000  1.0 0.119725572
H  H195  1  0.02848000  0.74466000  0.54418000  1.0 0.1108666862
H  H196  1  0.74466000  0.71618000  0.04418000  1.0 0.1108666862
H  H197  1  0.28382000  0.02848000  0.04418000  1.0 0.1108666862
H  H198  1  0.97152000  0.25534000  0.04418000  1.0 0.1108666862
H  H199  1  0.54016000  0.82576000  0.72280000  1.0 0.119725572
H  H200  1  0.17424000  0.71440000  0.72280000  1.0 0.119725572
H  H201  1  0.28560000  0.45984000  0.72280000  1.0 0.119725572
H  H202  1  0.45984000  0.17424000  0.22280000  1.0 0.119725572
H  H203  1  0.82576000  0.28560000  0.22280000  1.0 0.119725572
H  H204  1  0.71440000  0.54016000  0.22280000  1.0 0.119725572
H  H205  1  0.52356000  0.58648000  0.36047000  1.0 0.119725572
H  H206  1  0.41352000  0.93708000  0.36047000  1.0 0.119725572
H  H207  1  0.06292000  0.47644000  0.36047000  1.0 0.119725572
H  H208  1  0.47644000  0.41352000  0.86047000  1.0 0.119725572
H  H209  1  0.58648000  0.06292000  0.86047000  1.0 0.119725572
H  H210  1  0.93708000  0.52356000  0.86047000  1.0 0.119725572
H  H211  1  0.62211000  0.68555000  0.65551000  1.0 0.119725572
H  H212  1  0.31445000  0.93656000  0.65551000  1.0 0.119725572
H  H213  1  0.06344000  0.37789000  0.65551000  1.0 0.119725572
H  H214  1  0.37789000  0.31445000  0.15551000  1.0 0.119725572
H  H215  1  0.68555000  0.06344000  0.15551000  1.0 0.119725572
H  H216  1  0.93656000  0.62211000  0.15551000  1.0 0.119725572
H  H217  1  0.84975000  0.17487000  0.44732000  1.0 0.1302039513
H  H218  1  0.82513000  0.67488000  0.44732000  1.0 0.1302039513
H  H219  1  0.32512000  0.15025000  0.44732000  1.0 0.1302039513
H  H220  1  0.15025000  0.82513000  0.94732000  1.0 0.1302039513
H  H221  1  0.17487000  0.32512000  0.94732000  1.0 0.1302039513
H  H222  1  0.67488000  0.84975000  0.94732000  1.0 0.1302039513
H  H223  1  0.55090000  0.87369000  0.79127000  1.0 0.1108666862
H  H224  1  0.12631000  0.67721000  0.79127000  1.0 0.1108666862
H  H225  1  0.32279000  0.44910000  0.79127000  1.0 0.1108666862
H  H226  1  0.44910000  0.12631000  0.29127000  1.0 0.1108666862
H  H227  1  0.87369000  0.32279000  0.29127000  1.0 0.1108666862
H  H228  1  0.67721000  0.55090000  0.29127000  1.0 0.1108666862
H  H229  1  0.73095000  0.68418000  0.65668000  1.0 0.1017289328
H  H230  1  0.31582000  0.04677000  0.65668000  1.0 0.1017289328
H  H231  1  0.95323000  0.26905000  0.65668000  1.0 0.1017289328
H  H232  1  0.26905000  0.31582000  0.15668000  1.0 0.1017289328
H  H233  1  0.68418000  0.95323000  0.15668000  1.0 0.1017289328
H  H234  1  0.04677000  0.73095000  0.15668000  1.0 0.1017289328
H  H235  1  0.87514000  0.27759000  0.58418000  1.0 0.1302039513
H  H236  1  0.72241000  0.59755000  0.58418000  1.0 0.1302039513
H  H237  1  0.40245000  0.12486000  0.58418000  1.0 0.1302039513
H  H238  1  0.12486000  0.72241000  0.08418000  1.0 0.1302039513
H  H239  1  0.27759000  0.40245000  0.08418000  1.0 0.1302039513
H  H240  1  0.59755000  0.87514000  0.08418000  1.0 0.1302039513
H  H241  1  0.87820000  0.25874000  0.50617000  1.0 0.1302039513
H  H242  1  0.74126000  0.61946000  0.50617000  1.0 0.1302039513
H  H243  1  0.38054000  0.12180000  0.50617000  1.0 0.1302039513
H  H244  1  0.12180000  0.74126000  0.00617000  1.0 0.1302039513
H  H245  1  0.25874000  0.38054000  0.00617000  1.0 0.1302039513
H  H246  1  0.61946000  0.87820000  0.00617000  1.0 0.1302039513
H  H247  1  0.50404000  0.67924000  0.84593000  1.0 0.119725572
H  H248  1  0.32076000  0.82480000  0.84593000  1.0 0.119725572
H  H249  1  0.17520000  0.49596000  0.84593000  1.0 0.119725572
H  H250  1  0.49596000  0.32076000  0.34593000  1.0 0.119725572
H  H251  1  0.67924000  0.17520000  0.34593000  1.0 0.119725572
H  H252  1  0.82480000  0.50404000  0.34593000  1.0 0.119725572
H  H253  1  0.15939000  0.25994000  0.42884000  1.0 0.119725572
H  H254  1  0.74006000  0.89945000  0.42884000  1.0 0.119725572
H  H255  1  0.10055000  0.84061000  0.42884000  1.0 0.119725572
H  H256  1  0.84061000  0.74006000  0.92884000  1.0 0.119725572
H  H257  1  0.25994000  0.10055000  0.92884000  1.0 0.119725572
H  H258  1  0.89945000  0.15939000  0.92884000  1.0 0.119725572
H  H259  1  0.63123000  0.50670000  0.42953000  1.0 0.1108666862
H  H260  1  0.49330000  0.12453000  0.42953000  1.0 0.1108666862
H  H261  1  0.87547000  0.36877000  0.42953000  1.0 0.1108666862
H  H262  1  0.36877000  0.49330000  0.92953000  1.0 0.1108666862
H  H263  1  0.50670000  0.87547000  0.92953000  1.0 0.1108666862
H  H264  1  0.12453000  0.63123000  0.92953000  1.0 0.1108666862
H  H265  1  0.17288000  0.20982000  0.49169000  1.0 0.1108666862
H  H266  1  0.79018000  0.96306000  0.49169000  1.0 0.1108666862
H  H267  1  0.03694000  0.82712000  0.49169000  1.0 0.1108666862
H  H268  1  0.82712000  0.79018000  0.99169000  1.0 0.1108666862
H  H269  1  0.20982000  0.03694000  0.99169000  1.0 0.1108666862
H  H270  1  0.96306000  0.17288000  0.99169000  1.0 0.1108666862
H  H271  1  0.53062000  0.80078000  0.85240000  1.0 0.1108666862
H  H272  1  0.19922000  0.72984000  0.85240000  1.0 0.1108666862
H  H273  1  0.27016000  0.46938000  0.85240000  1.0 0.1108666862
H  H274  1  0.46938000  0.19922000  0.35240000  1.0 0.1108666862
H  H275  1  0.80078000  0.27016000  0.35240000  1.0 0.1108666862
H  H276  1  0.72984000  0.53062000  0.35240000  1.0 0.1108666862
H  H277  1  0.81038000  0.11720000  0.38040000  1.0 0.119725572
H  H278  1  0.88280000  0.69318000  0.38040000  1.0 0.119725572
H  H279  1  0.30682000  0.18962000  0.38040000  1.0 0.119725572
H  H280  1  0.18962000  0.88280000  0.88040000  1.0 0.119725572
H  H281  1  0.11720000  0.30682000  0.88040000  1.0 0.119725572
H  H282  1  0.69318000  0.81038000  0.88040000  1.0 0.119725572
H  H283  1  0.78619000  0.97972000  0.65351000  1.0 0.119725572
H  H284  1  0.02028000  0.80647000  0.65351000  1.0 0.119725572
H  H285  1  0.19353000  0.21381000  0.65351000  1.0 0.119725572
H  H286  1  0.21381000  0.02028000  0.15351000  1.0 0.119725572
H  H287  1  0.97972000  0.19353000  0.15351000  1.0 0.119725572
H  H288  1  0.80647000  0.78619000  0.15351000  1.0 0.119725572
H  H289  1  0.60750000  0.54408000  0.36489000  1.0 0.119725572
H  H290  1  0.45592000  0.06342000  0.36489000  1.0 0.119725572
H  H291  1  0.93658000  0.39250000  0.36489000  1.0 0.119725572
H  H292  1  0.39250000  0.45592000  0.86489000  1.0 0.119725572
H  H293  1  0.54408000  0.93658000  0.86489000  1.0 0.119725572
H  H294  1  0.06342000  0.60750000  0.86489000  1.0 0.119725572
H  H295  1  0.63887000  0.07689000  0.48531000  1.0 0.119725572
H  H296  1  0.92311000  0.56198000  0.48531000  1.0 0.119725572
H  H297  1  0.43802000  0.36113000  0.48531000  1.0 0.119725572
H  H298  1  0.36113000  0.92311000  0.98531000  1.0 0.119725572
H  H299  1  0.07689000  0.43802000  0.98531000  1.0 0.119725572
H  H300  1  0.56198000  0.63887000  0.98531000  1.0 0.119725572
H  H301  1  0.84675000  0.79490000  0.66202000  1.0 0.119725572
H  H302  1  0.20510000  0.05185000  0.66202000  1.0 0.119725572
H  H303  1  0.94815000  0.15325000  0.66202000  1.0 0.119725572
H  H304  1  0.15325000  0.20510000  0.16202000  1.0 0.119725572
H  H305  1  0.79490000  0.94815000  0.16202000  1.0 0.119725572
H  H306  1  0.05185000  0.84675000  0.16202000  1.0 0.119725572
H  H307  1  0.85314000  0.90935000  0.65897000  1.0 0.119725572
H  H308  1  0.09065000  0.94379000  0.65897000  1.0 0.119725572
H  H309  1  0.05621000  0.14686000  0.65897000  1.0 0.119725572
H  H310  1  0.14686000  0.09065000  0.15897000  1.0 0.119725572
H  H311  1  0.90935000  0.05621000  0.15897000  1.0 0.119725572
H  H312  1  0.94379000  0.85314000  0.15897000  1.0 0.119725572
H  H313  1  0.60141000  0.01306000  0.42133000  1.0 0.1108666862
H  H314  1  0.98694000  0.58835000  0.42133000  1.0 0.1108666862
H  H315  1  0.41165000  0.39859000  0.42133000  1.0 0.1108666862
H  H316  1  0.39859000  0.98694000  0.92133000  1.0 0.1108666862
H  H317  1  0.01306000  0.41165000  0.92133000  1.0 0.1108666862
H  H318  1  0.58835000  0.60141000  0.92133000  1.0 0.1108666862
H  H319  1  0.77787000  0.04514000  0.32702000  1.0 0.1108666862
H  H320  1  0.95486000  0.73273000  0.32702000  1.0 0.1108666862
H  H321  1  0.26727000  0.22213000  0.32702000  1.0 0.1108666862
H  H322  1  0.22213000  0.95486000  0.82702000  1.0 0.1108666862
H  H323  1  0.04514000  0.26727000  0.82702000  1.0 0.1108666862
H  H324  1  0.73273000  0.77787000  0.82702000  1.0 0.1108666862
H  H325  1  0.73502000  0.98007000  0.26216000  1.0 0.119725572
H  H326  1  0.01993000  0.75495000  0.26216000  1.0 0.119725572
H  H327  1  0.24505000  0.26498000  0.26216000  1.0 0.119725572
H  H328  1  0.26498000  0.01993000  0.76216000  1.0 0.119725572
H  H329  1  0.98007000  0.24505000  0.76216000  1.0 0.119725572
H  H330  1  0.75495000  0.73502000  0.76216000  1.0 0.119725572
H  H331  1  0.52388000  0.91123000  0.29838000  1.0 0.1364983387
H  H332  1  0.08877000  0.61265000  0.29838000  1.0 0.1364983387
H  H333  1  0.38735000  0.47612000  0.29838000  1.0 0.1364983387
H  H334  1  0.47612000  0.08877000  0.79838000  1.0 0.1364983387
H  H335  1  0.91123000  0.38735000  0.79838000  1.0 0.1364983387
H  H336  1  0.61265000  0.52388000  0.79838000  1.0 0.1364983387
H  H337  1  0.56672000  0.97630000  0.36324000  1.0 0.1108666862
H  H338  1  0.02370000  0.59042000  0.36324000  1.0 0.1108666862
H  H339  1  0.40958000  0.43328000  0.36324000  1.0 0.1108666862
H  H340  1  0.43328000  0.02370000  0.86324000  1.0 0.1108666862
H  H341  1  0.97630000  0.40958000  0.86324000  1.0 0.1108666862
H  H342  1  0.59042000  0.56672000  0.86324000  1.0 0.1108666862
C  C1  1  0.70410000  0.75160000  0.29780000  1.0 0.1961098579
C  C2  1  0.24840000  0.95250000  0.29780000  1.0 0.1961098579
C  C3  1  0.04750000  0.29590000  0.29780000  1.0 0.1961098579
C  C4  1  0.29590000  0.24840000  0.79780000  1.0 0.1961098579
C  C5  1  0.75160000  0.04750000  0.79780000  1.0 0.1961098579
C  C6  1  0.95250000  0.70410000  0.79780000  1.0 0.1961098579
C  C7  1  0.78420000  0.79030000  0.28220000  1.0 0.0677584791
C  C8  1  0.20970000  0.99390000  0.28220000  1.0 0.0677584791
C  C9  1  0.00610000  0.21580000  0.28220000  1.0 0.0677584791
C  C10  1  0.21580000  0.20970000  0.78220000  1.0 0.0677584791
C  C11  1  0.79030000  0.00610000  0.78220000  1.0 0.0677584791
C  C12  1  0.99390000  0.78420000  0.78220000  1.0 0.0677584791
C  C13  1  0.81020000  0.74280000  0.26960000  1.0 -0.1408437175
C  C14  1  0.25720000  0.06740000  0.26960000  1.0 -0.1408437175
C  C15  1  0.93260000  0.18980000  0.26960000  1.0 -0.1408437175
C  C16  1  0.18980000  0.25720000  0.76960000  1.0 -0.1408437175
C  C17  1  0.74280000  0.93260000  0.76960000  1.0 -0.1408437175
C  C18  1  0.06740000  0.81020000  0.76960000  1.0 -0.1408437175
C  C19  1  0.88520000  0.77170000  0.26000000  1.0 -0.0864068244
C  C20  1  0.22830000  0.11350000  0.26000000  1.0 -0.0864068244
C  C21  1  0.88650000  0.11480000  0.26000000  1.0 -0.0864068244
C  C22  1  0.11480000  0.22830000  0.76000000  1.0 -0.0864068244
C  C23  1  0.77170000  0.88650000  0.76000000  1.0 -0.0864068244
C  C24  1  0.11350000  0.88520000  0.76000000  1.0 -0.0864068244
C  C25  1  0.93430000  0.84800000  0.26280000  1.0 -0.1087890567
C  C26  1  0.15200000  0.08630000  0.26280000  1.0 -0.1087890567
C  C27  1  0.91370000  0.06570000  0.26280000  1.0 -0.1087890567
C  C28  1  0.06570000  0.15200000  0.76280000  1.0 -0.1087890567
C  C29  1  0.84800000  0.91370000  0.76280000  1.0 -0.1087890567
C  C30  1  0.08630000  0.93430000  0.76280000  1.0 -0.1087890567
C  C31  1  0.90830000  0.89550000  0.27540000  1.0 -0.1012227261
C  C32  1  0.10450000  0.01280000  0.27540000  1.0 -0.1012227261
C  C33  1  0.98720000  0.09170000  0.27540000  1.0 -0.1012227261
C  C34  1  0.09170000  0.10450000  0.77540000  1.0 -0.1012227261
C  C35  1  0.89550000  0.98720000  0.77540000  1.0 -0.1012227261
C  C36  1  0.01280000  0.90830000  0.77540000  1.0 -0.1012227261
C  C37  1  0.83330000  0.86660000  0.28510000  1.0 -0.1408437175
C  C38  1  0.13340000  0.96670000  0.28510000  1.0 -0.1408437175
C  C39  1  0.03330000  0.16670000  0.28510000  1.0 -0.1408437175
C  C40  1  0.16670000  0.13340000  0.78510000  1.0 -0.1408437175
C  C41  1  0.86660000  0.03330000  0.78510000  1.0 -0.1408437175
C  C42  1  0.96670000  0.83330000  0.78510000  1.0 -0.1408437175
C  C43  1  0.69300000  0.71800000  0.34240000  1.0 -0.4808627995
C  C44  1  0.28200000  0.97500000  0.34240000  1.0 -0.4808627995
C  C45  1  0.02500000  0.30700000  0.34240000  1.0 -0.4808627995
C  C46  1  0.30700000  0.28200000  0.84240000  1.0 -0.4808627995
C  C47  1  0.71800000  0.02500000  0.84240000  1.0 -0.4808627995
C  C48  1  0.97500000  0.69300000  0.84240000  1.0 -0.4808627995
C  C49  1  0.55090000  0.47310000  0.58529000  1.0 0.5917021699
C  C50  1  0.52690000  0.07780000  0.58529000  1.0 0.5917021699
C  C51  1  0.92220000  0.44910000  0.58529000  1.0 0.5917021699
C  C52  1  0.44910000  0.52690000  0.08529000  1.0 0.5917021699
C  C53  1  0.47310000  0.92220000  0.08529000  1.0 0.5917021699
C  C54  1  0.07780000  0.55090000  0.08529000  1.0 0.5917021699
C  C55  1  0.45310000  0.48770000  0.73291000  1.0 0.5917021699
C  C56  1  0.51230000  0.96540000  0.73291000  1.0 0.5917021699
C  C57  1  0.03460000  0.54690000  0.73291000  1.0 0.5917021699
C  C58  1  0.54690000  0.51230000  0.23291000  1.0 0.5917021699
C  C59  1  0.48770000  0.03460000  0.23291000  1.0 0.5917021699
C  C60  1  0.96540000  0.45310000  0.23291000  1.0 0.5917021699
C  C61  1  0.68200000  0.01250000  0.64294000  1.0 0.6091929443
C  C62  1  0.98750000  0.66950000  0.64294000  1.0 0.6091929443
C  C63  1  0.33050000  0.31800000  0.64294000  1.0 0.6091929443
C  C64  1  0.31800000  0.98750000  0.14294000  1.0 0.6091929443
C  C65  1  0.01250000  0.33050000  0.14294000  1.0 0.6091929443
C  C66  1  0.66950000  0.68200000  0.14294000  1.0 0.6091929443
C  C67  1  0.51660000  0.72050000  0.74095000  1.0 0.0502401595
C  C68  1  0.27950000  0.79610000  0.74095000  1.0 0.0502401595
C  C69  1  0.20390000  0.48340000  0.74095000  1.0 0.0502401595
C  C70  1  0.48340000  0.27950000  0.24095000  1.0 0.0502401595
C  C71  1  0.72050000  0.20390000  0.24095000  1.0 0.0502401595
C  C72  1  0.79610000  0.51660000  0.24095000  1.0 0.0502401595
C  C73  1  0.52990000  0.49360000  0.54319000  1.0 -0.1602879898
C  C74  1  0.50640000  0.03630000  0.54319000  1.0 -0.1602879898
C  C75  1  0.96370000  0.47010000  0.54319000  1.0 -0.1602879898
C  C76  1  0.47010000  0.50640000  0.04319000  1.0 -0.1602879898
C  C77  1  0.49360000  0.96370000  0.04319000  1.0 -0.1602879898
C  C78  1  0.03630000  0.52990000  0.04319000  1.0 -0.1602879898
C  C79  1  0.31090000  0.52460000  0.43159000  1.0 0.2455675222
C  C80  1  0.47540000  0.78630000  0.43159000  1.0 0.2455675222
C  C81  1  0.21370000  0.68910000  0.43159000  1.0 0.2455675222
C  C82  1  0.68910000  0.47540000  0.93159000  1.0 0.2455675222
C  C83  1  0.52460000  0.21370000  0.93159000  1.0 0.2455675222
C  C84  1  0.78630000  0.31090000  0.93159000  1.0 0.2455675222
C  C85  1  0.32710000  0.49470000  0.46764000  1.0 -0.0307409191
C  C86  1  0.50530000  0.83240000  0.46764000  1.0 -0.0307409191
C  C87  1  0.16760000  0.67290000  0.46764000  1.0 -0.0307409191
C  C88  1  0.67290000  0.50530000  0.96764000  1.0 -0.0307409191
C  C89  1  0.49470000  0.16760000  0.96764000  1.0 -0.0307409191
C  C90  1  0.83240000  0.32710000  0.96764000  1.0 -0.0307409191
C  C91  1  0.51010000  0.68900000  0.69901000  1.0 -0.0307409191
C  C92  1  0.31100000  0.82110000  0.69901000  1.0 -0.0307409191
C  C93  1  0.17890000  0.48990000  0.69901000  1.0 -0.0307409191
C  C94  1  0.48990000  0.31100000  0.19901000  1.0 -0.0307409191
C  C95  1  0.68900000  0.17890000  0.19901000  1.0 -0.0307409191
C  C96  1  0.82110000  0.51010000  0.19901000  1.0 -0.0307409191
C  C97  1  0.60470000  0.87160000  0.64892000  1.0 0.2667179473
C  C98  1  0.12840000  0.73310000  0.64892000  1.0 0.2667179473
C  C99  1  0.26690000  0.39530000  0.64892000  1.0 0.2667179473
C  C100  1  0.39530000  0.12840000  0.14892000  1.0 0.2667179473
C  C101  1  0.87160000  0.26690000  0.14892000  1.0 0.2667179473
C  C102  1  0.73310000  0.60470000  0.14892000  1.0 0.2667179473
C  C103  1  0.55410000  0.51730000  0.46628000  1.0 0.0502401595
C  C104  1  0.48270000  0.03680000  0.46628000  1.0 0.0502401595
C  C105  1  0.96320000  0.44590000  0.46628000  1.0 0.0502401595
C  C106  1  0.44590000  0.48270000  0.96628000  1.0 0.0502401595
C  C107  1  0.51730000  0.96320000  0.96628000  1.0 0.0502401595
C  C108  1  0.03680000  0.55410000  0.96628000  1.0 0.0502401595
C  C109  1  0.48570000  0.61260000  0.69619000  1.0 0.2388734363
C  C110  1  0.38740000  0.87310000  0.69619000  1.0 0.2388734363
C  C111  1  0.12690000  0.51430000  0.69619000  1.0 0.2388734363
C  C112  1  0.51430000  0.38740000  0.19619000  1.0 0.2388734363
C  C113  1  0.61260000  0.12690000  0.19619000  1.0 0.2388734363
C  C114  1  0.87310000  0.48570000  0.19619000  1.0 0.2388734363
C  C115  1  0.38930000  0.54680000  0.49865000  1.0 -0.2434903912
C  C116  1  0.45320000  0.84250000  0.49865000  1.0 -0.2434903912
C  C117  1  0.15750000  0.61070000  0.49865000  1.0 -0.2434903912
C  C118  1  0.61070000  0.45320000  0.99865000  1.0 -0.2434903912
C  C119  1  0.54680000  0.15750000  0.99865000  1.0 -0.2434903912
C  C120  1  0.84250000  0.38930000  0.99865000  1.0 -0.2434903912
C  C121  1  0.28530000  0.41720000  0.47544000  1.0 0.0424238287
C  C122  1  0.58280000  0.86810000  0.47544000  1.0 0.0424238287
C  C123  1  0.13190000  0.71470000  0.47544000  1.0 0.0424238287
C  C124  1  0.71470000  0.58280000  0.97544000  1.0 0.0424238287
C  C125  1  0.41720000  0.13190000  0.97544000  1.0 0.0424238287
C  C126  1  0.86810000  0.28530000  0.97544000  1.0 0.0424238287
C  C127  1  0.60070000  0.80290000  0.65423000  1.0 -0.0408428679
C  C128  1  0.19710000  0.79780000  0.65423000  1.0 -0.0408428679
C  C129  1  0.20220000  0.39930000  0.65423000  1.0 -0.0408428679
C  C130  1  0.39930000  0.19710000  0.15423000  1.0 -0.0408428679
C  C131  1  0.80290000  0.20220000  0.15423000  1.0 -0.0408428679
C  C132  1  0.79780000  0.60070000  0.15423000  1.0 -0.0408428679
C  C133  1  0.47290000  0.56810000  0.73401000  1.0 -0.1602879898
C  C134  1  0.43190000  0.90480000  0.73401000  1.0 -0.1602879898
C  C135  1  0.09520000  0.52710000  0.73401000  1.0 -0.1602879898
C  C136  1  0.52710000  0.43190000  0.23401000  1.0 -0.1602879898
C  C137  1  0.56810000  0.09520000  0.23401000  1.0 -0.1602879898
C  C138  1  0.90480000  0.47290000  0.23401000  1.0 -0.1602879898
C  C139  1  0.50390000  0.67630000  0.77907000  1.0 0.0677584791
C  C140  1  0.32370000  0.82760000  0.77907000  1.0 0.0677584791
C  C141  1  0.17240000  0.49610000  0.77907000  1.0 0.0677584791
C  C142  1  0.49610000  0.32370000  0.27907000  1.0 0.0677584791
C  C143  1  0.67630000  0.17240000  0.27907000  1.0 0.0677584791
C  C144  1  0.82760000  0.50390000  0.27907000  1.0 0.0677584791
C  C145  1  0.74690000  0.13260000  0.47280000  1.0 0.149163377
C  C146  1  0.86740000  0.61430000  0.47280000  1.0 0.149163377
C  C147  1  0.38570000  0.25310000  0.47280000  1.0 0.149163377
C  C148  1  0.25310000  0.86740000  0.97280000  1.0 0.149163377
C  C149  1  0.13260000  0.38570000  0.97280000  1.0 0.149163377
C  C150  1  0.61430000  0.74690000  0.97280000  1.0 0.149163377
C  C151  1  0.25900000  0.47870000  0.39959000  1.0 -0.1714768106
C  C152  1  0.52130000  0.78030000  0.39959000  1.0 -0.1714768106
C  C153  1  0.21970000  0.74100000  0.39959000  1.0 -0.1714768106
C  C154  1  0.74100000  0.52130000  0.89959000  1.0 -0.1714768106
C  C155  1  0.47870000  0.21970000  0.89959000  1.0 -0.1714768106
C  C156  1  0.78030000  0.25900000  0.89959000  1.0 -0.1714768106
C  C157  1  0.56860000  0.49500000  0.50653000  1.0 -0.1602879898
C  C158  1  0.50500000  0.07360000  0.50653000  1.0 -0.1602879898
C  C159  1  0.92640000  0.43140000  0.50653000  1.0 -0.1602879898
C  C160  1  0.43140000  0.50500000  0.00653000  1.0 -0.1602879898
C  C161  1  0.49500000  0.92640000  0.00653000  1.0 -0.1714768106
C  C162  1  0.07360000  0.56860000  0.00653000  1.0 -0.1714768106
C  C163  1  0.47200000  0.51150000  0.54049000  1.0 0.2388734363
C  C164  1  0.48850000  0.96050000  0.54049000  1.0 0.2388734363
C  C165  1  0.03950000  0.52800000  0.54049000  1.0 0.2388734363
C  C166  1  0.52800000  0.48850000  0.04049000  1.0 0.2388734363
C  C167  1  0.51150000  0.03950000  0.04049000  1.0 0.2388734363
C  C168  1  0.96050000  0.47200000  0.04049000  1.0 0.2388734363
C  C169  1  0.61340000  0.84700000  0.21926000  1.0 0.1017289328
C  C170  1  0.15300000  0.76640000  0.21926000  1.0 0.1017289328
C  C171  1  0.23360000  0.38660000  0.21926000  1.0 0.1017289328
C  C172  1  0.38660000  0.15300000  0.71926000  1.0 0.1017289328
C  C173  1  0.84700000  0.23360000  0.71926000  1.0 0.1017289328
C  C174  1  0.76640000  0.61340000  0.71926000  1.0 0.1017289328
C  C175  1  0.55160000  0.90470000  0.20548000  1.0 -0.0864068244
C  C176  1  0.09530000  0.64690000  0.20548000  1.0 -0.0864068244
C  C177  1  0.35310000  0.44840000  0.20548000  1.0 -0.0864068244
C  C178  1  0.44840000  0.09530000  0.70548000  1.0 -0.0864068244
C  C179  1  0.90470000  0.35310000  0.70548000  1.0 -0.0864068244
C  C180  1  0.64690000  0.55160000  0.70548000  1.0 -0.0864068244
C  C181  1  0.49810000  0.53890000  0.46366000  1.0 0.0424238287
C  C182  1  0.46110000  0.95920000  0.46366000  1.0 0.0424238287
C  C183  1  0.04080000  0.50190000  0.46366000  1.0 0.0424238287
C  C184  1  0.50190000  0.46110000  0.96366000  1.0 0.0424238287
C  C185  1  0.53890000  0.04080000  0.96366000  1.0 0.0424238287
C  C186  1  0.95920000  0.49810000  0.96366000  1.0 0.0424238287
C  C187  1  0.48810000  0.56570000  0.42280000  1.0 -0.1293440092
C  C188  1  0.43430000  0.92240000  0.42280000  1.0 -0.1293440092
C  C189  1  0.07760000  0.51190000  0.42280000  1.0 -0.1293440092
C  C190  1  0.51190000  0.43430000  0.92280000  1.0 -0.1293440092
C  C191  1  0.56570000  0.07760000  0.92280000  1.0 -0.1293440092
C  C192  1  0.92240000  0.48810000  0.92280000  1.0 -0.1293440092
C  C193  1  0.48320000  0.60000000  0.77436000  1.0 -0.1500193464
C  C194  1  0.40000000  0.88320000  0.77436000  1.0 -0.1500193464
C  C195  1  0.11680000  0.51680000  0.77436000  1.0 -0.1500193464
C  C196  1  0.51680000  0.40000000  0.27436000  1.0 -0.1500193464
C  C197  1  0.60000000  0.11680000  0.27436000  1.0 -0.1500193464
C  C198  1  0.88320000  0.48320000  0.27436000  1.0 -0.1500193464
C  C199  1  0.67640000  0.93900000  0.64880000  1.0 -0.1602879898
C  C200  1  0.06100000  0.73740000  0.64880000  1.0 -0.1602879898
C  C201  1  0.26260000  0.32360000  0.64880000  1.0 -0.1602879898
C  C202  1  0.32360000  0.06100000  0.14880000  1.0 -0.1602879898
C  C203  1  0.93900000  0.26260000  0.14880000  1.0 -0.1602879898
C  C204  1  0.73740000  0.67640000  0.14880000  1.0 -0.1602879898
C  C205  1  0.52470000  0.73370000  0.65760000  1.0 -0.2434903912
C  C206  1  0.26630000  0.79100000  0.65760000  1.0 -0.2434903912
C  C207  1  0.20900000  0.47530000  0.65760000  1.0 -0.2434903912
C  C208  1  0.47530000  0.26630000  0.15760000  1.0 -0.2434903912
C  C209  1  0.73370000  0.20900000  0.15760000  1.0 -0.2434903912
C  C210  1  0.79100000  0.52470000  0.15760000  1.0 -0.2434903912
C  C211  1  0.24470000  0.50800000  0.35886000  1.0 0.6091929443
C  C212  1  0.49200000  0.73670000  0.35886000  1.0 0.6091929443
C  C213  1  0.26330000  0.75530000  0.35886000  1.0 0.6091929443
C  C214  1  0.75530000  0.49200000  0.85886000  1.0 0.6091929443
C  C215  1  0.50800000  0.26330000  0.85886000  1.0 0.6091929443
C  C216  1  0.73670000  0.24470000  0.85886000  1.0 0.6091929443
C  C217  1  0.70220000  0.05890000  0.39342000  1.0 0.0606694295
C  C218  1  0.94110000  0.64330000  0.39342000  1.0 0.0606694295
C  C219  1  0.35670000  0.29780000  0.39342000  1.0 0.0606694295
C  C220  1  0.29780000  0.94110000  0.89342000  1.0 0.0606694295
C  C221  1  0.05890000  0.35670000  0.89342000  1.0 0.0606694295
C  C222  1  0.64330000  0.70220000  0.89342000  1.0 0.0606694295
C  C223  1  0.29110000  0.38200000  0.51410000  1.0 -0.1293440092
C  C224  1  0.61800000  0.90910000  0.51410000  1.0 -0.1293440092
C  C225  1  0.09090000  0.70890000  0.51410000  1.0 -0.1293440092
C  C226  1  0.70890000  0.61800000  0.01410000  1.0 -0.1293440092
C  C227  1  0.38200000  0.09090000  0.01410000  1.0 -0.1293440092
C  C228  1  0.90910000  0.29110000  0.01410000  1.0 -0.1293440092
C  C229  1  0.73130000  0.14240000  0.55128000  1.0 0.119725572
C  C230  1  0.85760000  0.58890000  0.55128000  1.0 0.119725572
C  C231  1  0.41110000  0.26870000  0.55128000  1.0 0.119725572
C  C232  1  0.26870000  0.85760000  0.05128000  1.0 0.119725572
C  C233  1  0.14240000  0.41110000  0.05128000  1.0 0.119725572
C  C234  1  0.58890000  0.73130000  0.05128000  1.0 0.119725572
C  C235  1  0.53860000  0.85510000  0.17350000  1.0 -0.0408428679
C  C236  1  0.14490000  0.68350000  0.17350000  1.0 -0.0408428679
C  C237  1  0.31650000  0.46140000  0.17350000  1.0 -0.0408428679
C  C238  1  0.46140000  0.14490000  0.67350000  1.0 -0.0408428679
C  C239  1  0.85510000  0.31650000  0.67350000  1.0 -0.0408428679
C  C240  1  0.68350000  0.53860000  0.67350000  1.0 -0.0408428679
C  C241  1  0.22170000  0.40180000  0.40577000  1.0 -0.1500193464
C  C242  1  0.59820000  0.81990000  0.40577000  1.0 -0.1500193464
C  C243  1  0.18010000  0.77830000  0.40577000  1.0 -0.1500193464
C  C244  1  0.77830000  0.59820000  0.90577000  1.0 -0.1500193464
C  C245  1  0.40180000  0.18010000  0.90577000  1.0 -0.1500193464
C  C246  1  0.81990000  0.22170000  0.90577000  1.0 -0.1500193464
C  C247  1  0.23280000  0.36940000  0.44260000  1.0 0.0606694295
C  C248  1  0.63060000  0.86340000  0.44260000  1.0 0.0606694295
C  C249  1  0.13660000  0.76720000  0.44260000  1.0 0.0606694295
C  C250  1  0.76720000  0.63060000  0.94260000  1.0 0.0606694295
C  C251  1  0.36940000  0.13660000  0.94260000  1.0 0.0606694295
C  C252  1  0.86340000  0.23280000  0.94260000  1.0 0.0606694295
C  C253  1  0.24980000  0.30560000  0.51900000  1.0 -0.1012227261
C  C254  1  0.69440000  0.94420000  0.51900000  1.0 -0.1012227261
C  C255  1  0.05580000  0.75020000  0.51900000  1.0 -0.1012227261
C  C256  1  0.75020000  0.69440000  0.01900000  1.0 -0.1012227261
C  C257  1  0.30560000  0.05580000  0.01900000  1.0 -0.1012227261
C  C258  1  0.94420000  0.24980000  0.01900000  1.0 -0.1012227261
C  C259  1  0.66770000  0.79960000  0.65571000  1.0 0.0502401595
C  C260  1  0.20040000  0.86810000  0.65571000  1.0 0.0502401595
C  C261  1  0.13190000  0.33230000  0.65571000  1.0 0.0502401595
C  C262  1  0.33230000  0.20040000  0.15571000  1.0 0.0502401595
C  C263  1  0.79960000  0.13190000  0.15571000  1.0 0.0502401595
C  C264  1  0.86810000  0.66770000  0.15571000  1.0 0.0502401595
C  C265  1  0.53320000  0.79580000  0.74691000  1.0 -0.1293440092
C  C266  1  0.20420000  0.73740000  0.74691000  1.0 -0.1293440092
C  C267  1  0.26260000  0.46680000  0.74691000  1.0 -0.1293440092
C  C268  1  0.46680000  0.20420000  0.24691000  1.0 -0.1293440092
C  C269  1  0.79580000  0.26260000  0.24691000  1.0 -0.1293440092
C  C270  1  0.73740000  0.53320000  0.24691000  1.0 -0.1293440092
C  C271  1  0.53010000  0.56830000  0.38679000  1.0 -0.0864068244
C  C272  1  0.43170000  0.96180000  0.38679000  1.0 -0.0864068244
C  C273  1  0.03820000  0.46990000  0.38679000  1.0 -0.0864068244
C  C274  1  0.46990000  0.43170000  0.88679000  1.0 -0.0864068244
C  C275  1  0.56830000  0.03820000  0.88679000  1.0 -0.0864068244
C  C276  1  0.96180000  0.53010000  0.88679000  1.0 -0.0864068244
C  C277  1  0.45440000  0.53180000  0.50073000  1.0 -0.0222757745
C  C278  1  0.46820000  0.92260000  0.50073000  1.0 -0.0222757745
C  C279  1  0.07740000  0.54560000  0.50073000  1.0 -0.0222757745
C  C280  1  0.54560000  0.46820000  0.00073000  1.0 -0.0222757745
C  C281  1  0.53180000  0.07740000  0.00073000  1.0 -0.0222757745
C  C282  1  0.92260000  0.45440000  0.00073000  1.0 -0.0222757745
C  C283  1  0.66720000  0.73030000  0.65610000  1.0 -0.1293440092
C  C284  1  0.26970000  0.93690000  0.65610000  1.0 -0.1293440092
C  C285  1  0.06310000  0.33280000  0.65610000  1.0 -0.1293440092
C  C286  1  0.33280000  0.26970000  0.15610000  1.0 -0.1293440092
C  C287  1  0.73030000  0.06310000  0.15610000  1.0 -0.1293440092
C  C288  1  0.93690000  0.66720000  0.15610000  1.0 -0.1293440092
C  C289  1  0.79920000  0.14370000  0.44180000  1.0 -0.1714768106
C  C290  1  0.85630000  0.65550000  0.44180000  1.0 -0.1714768106
C  C291  1  0.34450000  0.20080000  0.44180000  1.0 -0.1714768106
C  C292  1  0.20080000  0.85630000  0.94180000  1.0 -0.1752710871
C  C293  1  0.14370000  0.34450000  0.94180000  1.0 -0.1752710871
C  C294  1  0.65550000  0.79920000  0.94180000  1.0 -0.1752710871
C  C295  1  0.53900000  0.82430000  0.78800000  1.0 -0.1012227261
C  C296  1  0.17570000  0.71470000  0.78800000  1.0 -0.1012227261
C  C297  1  0.28530000  0.46100000  0.78800000  1.0 -0.1012227261
C  C298  1  0.46100000  0.17570000  0.28800000  1.0 -0.1012227261
C  C299  1  0.82430000  0.28530000  0.28800000  1.0 -0.1012227261
C  C300  1  0.71470000  0.53900000  0.28800000  1.0 -0.1012227261
C  C301  1  0.73220000  0.72970000  0.65740000  1.0 -0.1012227261
C  C302  1  0.27030000  0.00250000  0.65740000  1.0 -0.1012227261
C  C303  1  0.99750000  0.26780000  0.65740000  1.0 -0.1012227261
C  C304  1  0.26780000  0.27030000  0.15740000  1.0 -0.1012227261
C  C305  1  0.72970000  0.99750000  0.15740000  1.0 -0.1012227261
C  C306  1  0.00250000  0.73220000  0.15740000  1.0 -0.1012227261
C  C307  1  0.83670000  0.24030000  0.56800000  1.0 -0.0222757745
C  C308  1  0.75970000  0.59640000  0.56800000  1.0 -0.0222757745
C  C309  1  0.40360000  0.16330000  0.56800000  1.0 -0.0222757745
C  C310  1  0.16330000  0.75970000  0.06800000  1.0 -0.0222757745
C  C311  1  0.24030000  0.40360000  0.06800000  1.0 -0.0222757745
C  C312  1  0.59640000  0.83670000  0.06800000  1.0 -0.0222757745
C  C313  1  0.83910000  0.22990000  0.52510000  1.0 -0.1087890567
C  C314  1  0.77010000  0.60920000  0.52510000  1.0 -0.1087890567
C  C315  1  0.39080000  0.16090000  0.52510000  1.0 -0.1087890567
C  C316  1  0.16090000  0.77010000  0.02510000  1.0 -0.1087890567
C  C317  1  0.22990000  0.39080000  0.02510000  1.0 -0.1087890567
C  C318  1  0.60920000  0.83910000  0.02510000  1.0 -0.1087890567
C  C319  1  0.51070000  0.70780000  0.82118000  1.0 -0.1500193464
C  C320  1  0.29220000  0.80290000  0.82118000  1.0 -0.1500193464
C  C321  1  0.19710000  0.48930000  0.82118000  1.0 -0.1500193464
C  C322  1  0.48930000  0.29220000  0.32118000  1.0 -0.1500193464
C  C323  1  0.70780000  0.19710000  0.32118000  1.0 -0.1500193464
C  C324  1  0.80290000  0.51070000  0.32118000  1.0 -0.1500193464
C  C325  1  0.19230000  0.29120000  0.45000000  1.0 -0.1408437175
C  C326  1  0.70880000  0.90110000  0.45000000  1.0 -0.1408437175
C  C327  1  0.09890000  0.80770000  0.45000000  1.0 -0.1408437175
C  C328  1  0.80770000  0.70880000  0.95000000  1.0 -0.1408437175
C  C329  1  0.29120000  0.09890000  0.95000000  1.0 -0.1408437175
C  C330  1  0.90110000  0.19230000  0.95000000  1.0 -0.1408437175
C  C331  1  0.59510000  0.52070000  0.42800000  1.0 -0.1500193464
C  C332  1  0.47930000  0.07440000  0.42800000  1.0 -0.1500193464
C  C333  1  0.92560000  0.40490000  0.42800000  1.0 -0.1500193464
C  C334  1  0.40490000  0.47930000  0.92800000  1.0 -0.1500193464
C  C335  1  0.52070000  0.92560000  0.92800000  1.0 -0.1500193464
C  C336  1  0.07440000  0.59510000  0.92800000  1.0 -0.1500193464
C  C337  1  0.20070000  0.26110000  0.48740000  1.0 -0.1012227261
C  C338  1  0.73890000  0.93960000  0.48740000  1.0 -0.1012227261
C  C339  1  0.06040000  0.79930000  0.48740000  1.0 -0.1012227261
C  C340  1  0.79930000  0.73890000  0.98740000  1.0 -0.1012227261
C  C341  1  0.26110000  0.06040000  0.98740000  1.0 -0.1012227261
C  C342  1  0.93960000  0.20070000  0.98740000  1.0 -0.1012227261
C  C343  1  0.52720000  0.78040000  0.82500000  1.0 -0.1087890567
C  C344  1  0.21960000  0.74680000  0.82500000  1.0 -0.1087890567
C  C345  1  0.25320000  0.47280000  0.82500000  1.0 -0.1087890567
C  C346  1  0.47280000  0.21960000  0.32500000  1.0 -0.1087890567
C  C347  1  0.78040000  0.25320000  0.32500000  1.0 -0.1087890567
C  C348  1  0.74680000  0.52720000  0.32500000  1.0 -0.1087890567
C  C349  1  0.77520000  0.10760000  0.40200000  1.0 -0.1293440092
C  C350  1  0.89240000  0.66760000  0.40200000  1.0 -0.1293440092
C  C351  1  0.33240000  0.22480000  0.40200000  1.0 -0.1293440092
C  C352  1  0.22480000  0.89240000  0.90200000  1.0 -0.1293440092
C  C353  1  0.10760000  0.33240000  0.90200000  1.0 -0.1293440092
C  C354  1  0.66760000  0.77520000  0.90200000  1.0 -0.1293440092
C  C355  1  0.74050000  0.93560000  0.65300000  1.0 -0.1293440092
C  C356  1  0.06440000  0.80490000  0.65300000  1.0 -0.1293440092
C  C357  1  0.19510000  0.25950000  0.65300000  1.0 -0.1293440092
C  C358  1  0.25950000  0.06440000  0.15300000  1.0 -0.1293440092
C  C359  1  0.93560000  0.19510000  0.15300000  1.0 -0.1293440092
C  C360  1  0.80490000  0.74050000  0.15300000  1.0 -0.1293440092
C  C361  1  0.58170000  0.54420000  0.38970000  1.0 -0.1012227261
C  C362  1  0.45580000  0.03750000  0.38970000  1.0 -0.1012227261
C  C363  1  0.96250000  0.41830000  0.38970000  1.0 -0.1012227261
C  C364  1  0.41830000  0.45580000  0.88970000  1.0 -0.1012227261
C  C365  1  0.54420000  0.96250000  0.88970000  1.0 -0.1012227261
C  C366  1  0.03750000  0.58170000  0.88970000  1.0 -0.1012227261
C  C367  1  0.67440000  0.08460000  0.46430000  1.0 -0.1602879898
C  C368  1  0.91540000  0.58980000  0.46430000  1.0 -0.1602879898
C  C369  1  0.41020000  0.32560000  0.46430000  1.0 -0.1602879898
C  C370  1  0.32560000  0.91540000  0.96430000  1.0 -0.1602879898
C  C371  1  0.08460000  0.41020000  0.96430000  1.0 -0.1602879898
C  C372  1  0.58980000  0.67440000  0.96430000  1.0 -0.1602879898
C  C373  1  0.73890000  0.86760000  0.65660000  1.0 0.0606694295
C  C374  1  0.13240000  0.87130000  0.65660000  1.0 0.0606694295
C  C375  1  0.12870000  0.26110000  0.65660000  1.0 0.0606694295
C  C376  1  0.26110000  0.13240000  0.15660000  1.0 0.0606694295
C  C377  1  0.86760000  0.12870000  0.15660000  1.0 0.0606694295
C  C378  1  0.87130000  0.73890000  0.15660000  1.0 0.0606694295
C  C379  1  0.80320000  0.79740000  0.65970000  1.0 -0.1087890567
C  C380  1  0.20260000  0.00580000  0.65970000  1.0 -0.1087890567
C  C381  1  0.99420000  0.19680000  0.65970000  1.0 -0.1087890567
C  C382  1  0.19680000  0.20260000  0.15970000  1.0 -0.1087890567
C  C383  1  0.79740000  0.99420000  0.15970000  1.0 -0.1087890567
C  C384  1  0.00580000  0.80320000  0.15970000  1.0 -0.1087890567
C  C385  1  0.80720000  0.86550000  0.65850000  1.0 -0.1408437175
C  C386  1  0.13450000  0.94170000  0.65850000  1.0 -0.1408437175
C  C387  1  0.05830000  0.19280000  0.65850000  1.0 -0.1408437175
C  C388  1  0.19280000  0.13450000  0.15850000  1.0 -0.1408437175
C  C389  1  0.86550000  0.05830000  0.15850000  1.0 -0.1408437175
C  C390  1  0.94170000  0.80720000  0.15850000  1.0 -0.1408437175
C  C391  1  0.65170000  0.04710000  0.42570000  1.0 -0.1189049763
C  C392  1  0.95290000  0.60460000  0.42570000  1.0 -0.1189049763
C  C393  1  0.39540000  0.34830000  0.42570000  1.0 -0.1189049763
C  C394  1  0.34830000  0.95290000  0.92570000  1.0 -0.1189049763
C  C395  1  0.04710000  0.39540000  0.92570000  1.0 -0.1189049763
C  C396  1  0.60460000  0.65170000  0.92570000  1.0 -0.1189049763
C  C397  1  0.72696000  0.01830000  0.32128000  1.0 -0.1189049763
C  C398  1  0.98170000  0.70866000  0.32128000  1.0 -0.1189049763
C  C399  1  0.29134000  0.27304000  0.32128000  1.0 -0.1189049763
C  C400  1  0.27304000  0.98170000  0.82128000  1.0 -0.1189049763
C  C401  1  0.01830000  0.29134000  0.82128000  1.0 -0.1189049763
C  C402  1  0.70866000  0.72696000  0.82128000  1.0 -0.1189049763
C  C403  1  0.70130000  0.97930000  0.28242000  1.0 -0.1714768106
C  C404  1  0.02070000  0.72200000  0.28242000  1.0 -0.1714768106
C  C405  1  0.27800000  0.29870000  0.28242000  1.0 -0.1714768106
C  C406  1  0.29870000  0.02070000  0.78242000  1.0 -0.1714768106
C  C407  1  0.97930000  0.27800000  0.78242000  1.0 -0.1714768106
C  C408  1  0.72200000  0.70130000  0.78242000  1.0 -0.1714768106
C  C409  1  0.62520000  0.93920000  0.27384000  1.0 0.1660344817
C  C410  1  0.06080000  0.68600000  0.27384000  1.0 0.1660344817
C  C411  1  0.31400000  0.37480000  0.27384000  1.0 0.1660344817
C  C412  1  0.37480000  0.06080000  0.77384000  1.0 0.1660344817
C  C413  1  0.93920000  0.31400000  0.77384000  1.0 0.1660344817
C  C414  1  0.68600000  0.62520000  0.77384000  1.0 0.1660344817
C  C415  1  0.57479000  0.93810000  0.30412000  1.0 -0.1500193464
C  C416  1  0.06190000  0.63669000  0.30412000  1.0 -0.1500193464
C  C417  1  0.36331000  0.42521000  0.30412000  1.0 -0.1500193464
C  C418  1  0.42521000  0.06190000  0.80412000  1.0 -0.1500193464
C  C419  1  0.93810000  0.36331000  0.80412000  1.0 -0.1500193464
C  C420  1  0.63669000  0.57479000  0.80412000  1.0 -0.1500193464
C  C421  1  0.60050000  0.97710000  0.34298000  1.0 -0.1189049763
C  C422  1  0.02290000  0.62340000  0.34298000  1.0 -0.1189049763
C  C423  1  0.37660000  0.39950000  0.34298000  1.0 -0.1189049763
C  C424  1  0.39950000  0.02290000  0.84298000  1.0 -0.1189049763
C  C425  1  0.97710000  0.37660000  0.84298000  1.0 -0.1189049763
C  C426  1  0.62340000  0.60050000  0.84298000  1.0 -0.1189049763
C  C427  1  0.67650000  0.01720000  0.35156000  1.0 0.0677584791
C  C428  1  0.98280000  0.65930000  0.35156000  1.0 0.0677584791
C  C429  1  0.34070000  0.32350000  0.35156000  1.0 0.0677584791
C  C430  1  0.32350000  0.98280000  0.85156000  1.0 0.0677584791
C  C431  1  0.01720000  0.34070000  0.85156000  1.0 0.0677584791
C  C432  1  0.65930000  0.67650000  0.85156000  1.0 0.0677584791
N  N1  1  0.42060000  0.75560000  0.26270000  1.0 -0.8234090738
N  N2  1  0.24440000  0.66500000  0.26270000  1.0 -0.8234090738
N  N3  1  0.33500000  0.57940000  0.26270000  1.0 -0.8234090738
N  N4  1  0.57940000  0.24440000  0.76270000  1.0 -0.8234090738
N  N5  1  0.75560000  0.33500000  0.76270000  1.0 -0.8234090738
N  N6  1  0.66500000  0.42060000  0.76270000  1.0 -0.8234090738
N  N7  1  0.33333333  0.66666667  0.16610000  1.0 -0.8139770262
N  N8  1  0.66666667  0.33333333  0.66610000  1.0 -0.8139770262
N  N9  1  0.76820000  0.18710000  0.58442000  1.0 -0.281531208
N  N10  1  0.81290000  0.58110000  0.58442000  1.0 -0.281531208
N  N11  1  0.41890000  0.23180000  0.58442000  1.0 -0.281531208
N  N12  1  0.23180000  0.81290000  0.08442000  1.0 -0.281531208
N  N13  1  0.18710000  0.41890000  0.08442000  1.0 -0.281531208
N  N14  1  0.58110000  0.76820000  0.08442000  1.0 -0.281531208
N  N15  1  0.57800000  0.81904000  0.18206000  1.0 -0.2906112306
N  N16  1  0.18096000  0.75896000  0.18206000  1.0 -0.2906112306
N  N17  1  0.24104000  0.42200000  0.18206000  1.0 -0.2906112306
N  N18  1  0.42200000  0.18096000  0.68206000  1.0 -0.2906112306
N  N19  1  0.81904000  0.24104000  0.68206000  1.0 -0.2906112306
N  N20  1  0.75896000  0.57800000  0.68206000  1.0 -0.2906112306
N  N21  1  0.59820000  0.89840000  0.23444000  1.0 0.0038232763
N  N22  1  0.10160000  0.69980000  0.23444000  1.0 0.0038232763
N  N23  1  0.30020000  0.40180000  0.23444000  1.0 0.0038232763
N  N24  1  0.40180000  0.10160000  0.73444000  1.0 0.0038232763
N  N25  1  0.89840000  0.30020000  0.73444000  1.0 0.0038232763
N  N26  1  0.69980000  0.59820000  0.73444000  1.0 0.0038232763
N  N27  1  0.77180000  0.16770000  0.51459000  1.0 0.013401828
N  N28  1  0.83230000  0.60410000  0.51459000  1.0 0.013401828
N  N29  1  0.39590000  0.22820000  0.51459000  1.0 0.013401828
N  N30  1  0.22820000  0.83230000  0.01459000  1.0 0.013401828
N  N31  1  0.16770000  0.39590000  0.01459000  1.0 0.013401828
N  N32  1  0.60410000  0.77180000  0.01459000  1.0 0.013401828
N  N33  1  0.64610000  0.15880000  0.66986000  1.0 -0.8024709257
N  N34  1  0.84120000  0.48730000  0.66986000  1.0 -0.8024709257
N  N35  1  0.51270000  0.35390000  0.66986000  1.0 -0.8024709257
N  N36  1  0.35390000  0.84120000  0.16986000  1.0 -0.8024709257
N  N37  1  0.15880000  0.51270000  0.16986000  1.0 -0.8024709257
N  N38  1  0.48730000  0.64610000  0.16986000  1.0 -0.8024709257
O  O1  1  0.49020000  0.63320000  0.26642000  1.0 -0.6735852294
O  O2  1  0.36680000  0.85700000  0.26642000  1.0 -0.6735852294
O  O3  1  0.14300000  0.50980000  0.26642000  1.0 -0.6735852294
O  O4  1  0.50980000  0.36680000  0.76642000  1.0 -0.6735852294
O  O5  1  0.63320000  0.14300000  0.76642000  1.0 -0.6735852294
O  O6  1  0.85700000  0.49020000  0.76642000  1.0 -0.6735852294
O  O7  1  0.67990000  0.80240000  0.29690000  1.0 -0.4884803824
O  O8  1  0.19760000  0.87750000  0.29690000  1.0 -0.4884803824
O  O9  1  0.12250000  0.32010000  0.29690000  1.0 -0.4884803824
O  O10  1  0.32010000  0.19760000  0.79690000  1.0 -0.4884803824
O  O11  1  0.80240000  0.12250000  0.79690000  1.0 -0.4884803824
O  O12  1  0.87750000  0.67990000  0.79690000  1.0 -0.4884803824
O  O13  1  0.52672000  0.48594000  0.62107000  1.0 -0.6363357338
O  O14  1  0.51406000  0.04078000  0.62107000  1.0 -0.6363357338
O  O15  1  0.95922000  0.47328000  0.62107000  1.0 -0.6363357338
O  O16  1  0.47328000  0.51406000  0.12107000  1.0 -0.6363357338
O  O17  1  0.48594000  0.95922000  0.12107000  1.0 -0.6363357338
O  O18  1  0.04078000  0.52672000  0.12107000  1.0 -0.6363357338
O  O19  1  0.62856000  0.01697000  0.62451000  1.0 -0.6334896319
O  O20  1  0.98303000  0.61159000  0.62451000  1.0 -0.6334896319
O  O21  1  0.38841000  0.37144000  0.62451000  1.0 -0.6334896319
O  O22  1  0.37144000  0.98303000  0.12451000  1.0 -0.6334896319
O  O23  1  0.01697000  0.38841000  0.12451000  1.0 -0.6334896319
O  O24  1  0.61159000  0.62856000  0.12451000  1.0 -0.6334896319
O  O25  1  0.44698000  0.45716000  0.69545000  1.0 -0.6193464927
O  O26  1  0.54284000  0.98982000  0.69545000  1.0 -0.6193464927
O  O27  1  0.01018000  0.55302000  0.69545000  1.0 -0.6193464927
O  O28  1  0.55302000  0.54284000  0.19545000  1.0 -0.6193464927
O  O29  1  0.45716000  0.01018000  0.19545000  1.0 -0.6193464927
O  O30  1  0.98982000  0.44698000  0.19545000  1.0 -0.6193464927
O  O31  1  0.47432000  0.58145000  0.65647000  1.0 -0.6095392935
O  O32  1  0.41855000  0.89287000  0.65647000  1.0 -0.6095392935
O  O33  1  0.10713000  0.52568000  0.65647000  1.0 -0.6095392935
O  O34  1  0.52568000  0.41855000  0.15647000  1.0 -0.6095392935
O  O35  1  0.58145000  0.10713000  0.15647000  1.0 -0.6095392935
O  O36  1  0.89287000  0.47432000  0.15647000  1.0 -0.6095392935
O  O37  1  0.54253000  0.87537000  0.64587000  1.0 -0.5981322162
O  O38  1  0.12463000  0.66716000  0.64587000  1.0 -0.5981322162
O  O39  1  0.33284000  0.45747000  0.64587000  1.0 -0.5981322162
O  O40  1  0.45747000  0.12463000  0.14587000  1.0 -0.5981322162
O  O41  1  0.87537000  0.33284000  0.14587000  1.0 -0.5981322162
O  O42  1  0.66716000  0.54253000  0.14587000  1.0 -0.5981322162
O  O43  1  0.43167000  0.50701000  0.57620000  1.0 -0.6193464927
O  O44  1  0.49299000  0.92466000  0.57620000  1.0 -0.6193464927
O  O45  1  0.07534000  0.56833000  0.57620000  1.0 -0.6193464927
O  O46  1  0.56833000  0.49299000  0.07620000  1.0 -0.6193464927
O  O47  1  0.50701000  0.07534000  0.07620000  1.0 -0.6193464927
O  O48  1  0.92466000  0.43167000  0.07620000  1.0 -0.6193464927
O  O49  1  0.34867000  0.59909000  0.42670000  1.0 -0.6193464927
O  O50  1  0.40091000  0.74958000  0.42670000  1.0 -0.6193464927
O  O51  1  0.25042000  0.65133000  0.42670000  1.0 -0.6193464927
O  O52  1  0.65133000  0.40091000  0.92670000  1.0 -0.6193464927
O  O53  1  0.59909000  0.25042000  0.92670000  1.0 -0.6193464927
O  O54  1  0.74958000  0.34867000  0.92670000  1.0 -0.6193464927
O  O55  1  0.27518000  0.57918000  0.35391000  1.0 -0.6193464927
O  O56  1  0.42082000  0.69600000  0.35391000  1.0 -0.6193464927
O  O57  1  0.30400000  0.72482000  0.35391000  1.0 -0.6193464927
O  O58  1  0.72482000  0.42082000  0.85391000  1.0 -0.6193464927
O  O59  1  0.57918000  0.30400000  0.85391000  1.0 -0.6193464927
O  O60  1  0.69600000  0.27518000  0.85391000  1.0 -0.6193464927
O  O61  1  0.74040000  0.06950000  0.65475000  1.0 -0.5116956598
O  O62  1  0.93050000  0.67090000  0.65475000  1.0 -0.5116956598
O  O63  1  0.32910000  0.25960000  0.65475000  1.0 -0.5116956598
O  O64  1  0.25960000  0.93050000  0.15475000  1.0 -0.5116956598
O  O65  1  0.06950000  0.32910000  0.15475000  1.0 -0.5116956598
O  O66  1  0.67090000  0.74040000  0.15475000  1.0 -0.5116956598
O  O67  1  0.59270000  0.44650000  0.58537000  1.0 -0.5116956598
O  O68  1  0.55350000  0.14620000  0.58537000  1.0 -0.5116956598
O  O69  1  0.85380000  0.40730000  0.58537000  1.0 -0.5116956598
O  O70  1  0.40730000  0.55350000  0.08537000  1.0 -0.5116956598
O  O71  1  0.44650000  0.85380000  0.08537000  1.0 -0.5116956598
O  O72  1  0.14620000  0.59270000  0.08537000  1.0 -0.5116956598
O  O73  1  0.44570000  0.45437000  0.76692000  1.0 -0.5116956598
O  O74  1  0.54563000  0.99133000  0.76692000  1.0 -0.5116956598
O  O75  1  0.00867000  0.55430000  0.76692000  1.0 -0.5116956598
O  O76  1  0.55430000  0.54563000  0.26692000  1.0 -0.5116956598
O  O77  1  0.45437000  0.00867000  0.26692000  1.0 -0.5116956598
O  O78  1  0.99133000  0.44570000  0.26692000  1.0 -0.5116956598
O  O79  1  0.20520000  0.46420000  0.32995000  1.0 -0.5349172585
O  O80  1  0.53580000  0.74100000  0.32995000  1.0 -0.5349172585
O  O81  1  0.25900000  0.79480000  0.32995000  1.0 -0.5349172585
O  O82  1  0.79480000  0.53580000  0.82995000  1.0 -0.5355668299
O  O83  1  0.46420000  0.25900000  0.82995000  1.0 -0.5355668299
O  O84  1  0.74100000  0.20520000  0.82995000  1.0 -0.5355668299
