# DDEC6 charges by PACMAN v1.1 (https://github.com/mtap-research/PACMAN-charge/)
data_UDOLEI_ASR_pacman
_symmetry_space_group_name_H-M   'P 1'
_cell_length_a   20.86500000
_cell_length_b   20.86500000
_cell_length_c   30.63200000
_cell_angle_alpha   90.00000000
_cell_angle_beta   90.00000000
_cell_angle_gamma   120.00000000
_symmetry_Int_Tables_number   1
_chemical_formula_structural   Ti4Zn3H129C198(N5O12)3
_chemical_formula_sum   'Ti8 Zn6 H258 C396 N30 O72'
_cell_volume   11548.95696759
_cell_formula_units_Z   2
loop_
 _symmetry_equiv_pos_site_id
 _symmetry_equiv_pos_as_xyz
  1  'x, y, z'
loop_
 _atom_site_type_symbol
 _atom_site_label
 _atom_site_symmetry_multiplicity
 _atom_site_fract_x
 _atom_site_fract_y
 _atom_site_fract_z
 _atom_site_occupancy
 _atom_site_charge
Ti  Ti1  1  0.66666667  0.33333333  0.39754000  1.0 1.889244943
Ti  Ti2  1  0.33333333  0.66666667  0.89754000  1.0 1.889244943
Ti  Ti3  1  0.48805000  0.43433000  0.63891000  1.0 1.902416298
Ti  Ti4  1  0.56567000  0.05372000  0.63891000  1.0 1.902416298
Ti  Ti5  1  0.94628000  0.51195000  0.63891000  1.0 1.902416298
Ti  Ti6  1  0.51195000  0.56567000  0.13891000  1.0 1.902416298
Ti  Ti7  1  0.43433000  0.94628000  0.13891000  1.0 1.902416298
Ti  Ti8  1  0.05372000  0.48805000  0.13891000  1.0 1.902416298
Zn  Zn1  1  0.26901000  0.42788000  0.64832000  1.0 0.7321284108
Zn  Zn2  1  0.57212000  0.84113000  0.64832000  1.0 0.7321284108
Zn  Zn3  1  0.15887000  0.73099000  0.64832000  1.0 0.7321284108
Zn  Zn4  1  0.73099000  0.57212000  0.14832000  1.0 0.7321284108
Zn  Zn5  1  0.42788000  0.15887000  0.14832000  1.0 0.7321284108
Zn  Zn6  1  0.84113000  0.26901000  0.14832000  1.0 0.7321284108
H  H1  1  0.54217000  0.36876000  0.53113000  1.0 0.1298120012
H  H2  1  0.63124000  0.17341000  0.53113000  1.0 0.1298120012
H  H3  1  0.82659000  0.45783000  0.53113000  1.0 0.1298120012
H  H4  1  0.45783000  0.63124000  0.03113000  1.0 0.1298120012
H  H5  1  0.36876000  0.82659000  0.03113000  1.0 0.1298120012
H  H6  1  0.17341000  0.54217000  0.03113000  1.0 0.1298120012
H  H7  1  0.59782000  0.40717000  0.49259000  1.0 0.1357975743
H  H8  1  0.59283000  0.19065000  0.49259000  1.0 0.1357975743
H  H9  1  0.80935000  0.40218000  0.49259000  1.0 0.1357975743
H  H10  1  0.40218000  0.59283000  0.99259000  1.0 0.1357975743
H  H11  1  0.40717000  0.80935000  0.99259000  1.0 0.1357975743
H  H12  1  0.19065000  0.59782000  0.99259000  1.0 0.1357975743
H  H13  1  0.39632000  0.52143000  0.65841000  1.0 0.301631281
H  H14  1  0.47857000  0.87489000  0.65841000  1.0 0.301631281
H  H15  1  0.12511000  0.60368000  0.65841000  1.0 0.301631281
H  H16  1  0.60368000  0.47857000  0.15841000  1.0 0.301631281
H  H17  1  0.52143000  0.12511000  0.15841000  1.0 0.301631281
H  H18  1  0.87489000  0.39632000  0.15841000  1.0 0.301631281
H  H19  1  0.36241000  0.50097000  0.70135000  1.0 0.3170700363
H  H20  1  0.49903000  0.86144000  0.70135000  1.0 0.3170700363
H  H21  1  0.13856000  0.63759000  0.70135000  1.0 0.3170700363
H  H22  1  0.63759000  0.49903000  0.20135000  1.0 0.3170700363
H  H23  1  0.50097000  0.13856000  0.20135000  1.0 0.3170700363
H  H24  1  0.86144000  0.36241000  0.20135000  1.0 0.3170700363
H  H25  1  0.35085000  0.55139000  0.67410000  1.0 0.301631281
H  H26  1  0.44861000  0.79946000  0.67410000  1.0 0.301631281
H  H27  1  0.20054000  0.64915000  0.67410000  1.0 0.301631281
H  H28  1  0.64915000  0.44861000  0.17410000  1.0 0.301631281
H  H29  1  0.55139000  0.20054000  0.17410000  1.0 0.301631281
H  H30  1  0.79946000  0.35085000  0.17410000  1.0 0.301631281
H  H31  1  0.48813000  0.19008000  0.63679000  1.0 0.1298120012
H  H32  1  0.80992000  0.29805000  0.63679000  1.0 0.1298120012
H  H33  1  0.70195000  0.51187000  0.63679000  1.0 0.1298120012
H  H34  1  0.51187000  0.80992000  0.13679000  1.0 0.1298120012
H  H35  1  0.19008000  0.70195000  0.13679000  1.0 0.1298120012
H  H36  1  0.29805000  0.48813000  0.13679000  1.0 0.1298120012
H  H37  1  0.51773000  0.26679000  0.65966000  1.0 0.1298120012
H  H38  1  0.73321000  0.25094000  0.65966000  1.0 0.1298120012
H  H39  1  0.74906000  0.48227000  0.65966000  1.0 0.1298120012
H  H40  1  0.48227000  0.73321000  0.15966000  1.0 0.1298120012
H  H41  1  0.26679000  0.74906000  0.15966000  1.0 0.1298120012
H  H42  1  0.25094000  0.51773000  0.15966000  1.0 0.1298120012
H  H43  1  0.45836000  0.32875000  0.79559000  1.0 0.1124765223
H  H44  1  0.67125000  0.12961000  0.79559000  1.0 0.1124765223
H  H45  1  0.87039000  0.54164000  0.79559000  1.0 0.1124765223
H  H46  1  0.54164000  0.67125000  0.29559000  1.0 0.1124765223
H  H47  1  0.32875000  0.87039000  0.29559000  1.0 0.1124765223
H  H48  1  0.12961000  0.45836000  0.29559000  1.0 0.1124765223
H  H49  1  0.52169000  0.09705000  0.80349000  1.0 0.1195585329
H  H50  1  0.90295000  0.42464000  0.80349000  1.0 0.1195585329
H  H51  1  0.57536000  0.47831000  0.80349000  1.0 0.1195585329
H  H52  1  0.47831000  0.90295000  0.30349000  1.0 0.1195585329
H  H53  1  0.09705000  0.57536000  0.30349000  1.0 0.1195585329
H  H54  1  0.42464000  0.52169000  0.30349000  1.0 0.1195585329
H  H55  1  0.58074000  0.45075000  0.42311000  1.0 0.1298120012
H  H56  1  0.54925000  0.12999000  0.42311000  1.0 0.1298120012
H  H57  1  0.87001000  0.41926000  0.42311000  1.0 0.1298120012
H  H58  1  0.41926000  0.54925000  0.92311000  1.0 0.1298120012
H  H59  1  0.45075000  0.87001000  0.92311000  1.0 0.1298120012
H  H60  1  0.12999000  0.58074000  0.92311000  1.0 0.1298120012
H  H61  1  0.48289000  0.60327000  0.51066000  1.0 0.1011812513
H  H62  1  0.39673000  0.87962000  0.51066000  1.0 0.1011812513
H  H63  1  0.12038000  0.51711000  0.51066000  1.0 0.1011812513
H  H64  1  0.51711000  0.39673000  0.01066000  1.0 0.1011812513
H  H65  1  0.60327000  0.12038000  0.01066000  1.0 0.1011812513
H  H66  1  0.87962000  0.48289000  0.01066000  1.0 0.1011812513
H  H67  1  0.35677000  0.18520000  0.23265000  1.0 0.1298120012
H  H68  1  0.81480000  0.17157000  0.23265000  1.0 0.1298120012
H  H69  1  0.82843000  0.64323000  0.23265000  1.0 0.1298120012
H  H70  1  0.64323000  0.81480000  0.73265000  1.0 0.1298120012
H  H71  1  0.18520000  0.82843000  0.73265000  1.0 0.1298120012
H  H72  1  0.17157000  0.35677000  0.73265000  1.0 0.1298120012
H  H73  1  0.47614000  0.27500000  0.85695000  1.0 0.1124765223
H  H74  1  0.72500000  0.20114000  0.85695000  1.0 0.1124765223
H  H75  1  0.79886000  0.52386000  0.85695000  1.0 0.1124765223
H  H76  1  0.52386000  0.72500000  0.35695000  1.0 0.1124765223
H  H77  1  0.27500000  0.79886000  0.35695000  1.0 0.1124765223
H  H78  1  0.20114000  0.47614000  0.35695000  1.0 0.1124765223
H  H79  1  0.41244000  0.32434000  0.53914000  1.0 0.1195585329
H  H80  1  0.67566000  0.08810000  0.53914000  1.0 0.1195585329
H  H81  1  0.91190000  0.58756000  0.53914000  1.0 0.1298120012
H  H82  1  0.58756000  0.67566000  0.03914000  1.0 0.1195585329
H  H83  1  0.32434000  0.91190000  0.03914000  1.0 0.1195585329
H  H84  1  0.08810000  0.41244000  0.03914000  1.0 0.1195585329
H  H85  1  0.47616000  0.39120000  0.29382000  1.0 0.1493875457
H  H86  1  0.60880000  0.08496000  0.29382000  1.0 0.1493875457
H  H87  1  0.91504000  0.52384000  0.29382000  1.0 0.1493875457
H  H88  1  0.52384000  0.60880000  0.79382000  1.0 0.1493875457
H  H89  1  0.39120000  0.91504000  0.79382000  1.0 0.1493875457
H  H90  1  0.08496000  0.47616000  0.79382000  1.0 0.1493875457
H  H91  1  0.31734000  0.40599000  0.55617000  1.0 0.1298120012
H  H92  1  0.59401000  0.91135000  0.55617000  1.0 0.1298120012
H  H93  1  0.08865000  0.68266000  0.55617000  1.0 0.1298120012
H  H94  1  0.68266000  0.59401000  0.05617000  1.0 0.1298120012
H  H95  1  0.40599000  0.08865000  0.05617000  1.0 0.1298120012
H  H96  1  0.91135000  0.31734000  0.05617000  1.0 0.1298120012
H  H97  1  0.49650000  0.17789000  0.85043000  1.0 0.1124765223
H  H98  1  0.82211000  0.31861000  0.85043000  1.0 0.1124765223
H  H99  1  0.68139000  0.50350000  0.85043000  1.0 0.1124765223
H  H100  1  0.50350000  0.82211000  0.35043000  1.0 0.1124765223
H  H101  1  0.17789000  0.68139000  0.35043000  1.0 0.1124765223
H  H102  1  0.31861000  0.49650000  0.35043000  1.0 0.1124765223
H  H103  1  0.46885000  0.29274000  0.72679000  1.0 0.1195585329
H  H104  1  0.70726000  0.17611000  0.72679000  1.0 0.1195585329
H  H105  1  0.82389000  0.53115000  0.72679000  1.0 0.1195585329
H  H106  1  0.53115000  0.70726000  0.22679000  1.0 0.1195585329
H  H107  1  0.29274000  0.82389000  0.22679000  1.0 0.1195585329
H  H108  1  0.17611000  0.46885000  0.22679000  1.0 0.1195585329
H  H109  1  0.46743000  0.40037000  0.20571000  1.0 0.1493875457
H  H110  1  0.59963000  0.06706000  0.20571000  1.0 0.1493875457
H  H111  1  0.93294000  0.53257000  0.20571000  1.0 0.1493875457
H  H112  1  0.53257000  0.59963000  0.70571000  1.0 0.1493875457
H  H113  1  0.40037000  0.93294000  0.70571000  1.0 0.1493875457
H  H114  1  0.06706000  0.46743000  0.70571000  1.0 0.1493875457
H  H115  1  0.37269000  0.19545000  0.38555000  1.0 0.1195585329
H  H116  1  0.80455000  0.17724000  0.38555000  1.0 0.1195585329
H  H117  1  0.82276000  0.62731000  0.38555000  1.0 0.1195585329
H  H118  1  0.62731000  0.80455000  0.88555000  1.0 0.1195585329
H  H119  1  0.19545000  0.82276000  0.88555000  1.0 0.1195585329
H  H120  1  0.17724000  0.37269000  0.88555000  1.0 0.1195585329
H  H121  1  0.28712000  0.25933000  0.54660000  1.0 0.1124765223
H  H122  1  0.74067000  0.02779000  0.54660000  1.0 0.1124765223
H  H123  1  0.97221000  0.71288000  0.54660000  1.0 0.1124765223
H  H124  1  0.71288000  0.74067000  0.04660000  1.0 0.1124765223
H  H125  1  0.25933000  0.97221000  0.04660000  1.0 0.1124765223
H  H126  1  0.02779000  0.28712000  0.04660000  1.0 0.1124765223
H  H127  1  0.58695000  0.52082000  0.36293000  1.0 0.1298120012
H  H128  1  0.47918000  0.06613000  0.36293000  1.0 0.1298120012
H  H129  1  0.93387000  0.41305000  0.36293000  1.0 0.1298120012
H  H130  1  0.41305000  0.47918000  0.86293000  1.0 0.1298120012
H  H131  1  0.52082000  0.93387000  0.86293000  1.0 0.1298120012
H  H132  1  0.06613000  0.58695000  0.86293000  1.0 0.1298120012
H  H133  1  0.49205000  0.33422000  0.14972000  1.0 0.1298120012
H  H134  1  0.66578000  0.15783000  0.14972000  1.0 0.1298120012
H  H135  1  0.84217000  0.50795000  0.14972000  1.0 0.1298120012
H  H136  1  0.50795000  0.66578000  0.64972000  1.0 0.1298120012
H  H137  1  0.33422000  0.84217000  0.64972000  1.0 0.1298120012
H  H138  1  0.15783000  0.49205000  0.64972000  1.0 0.1298120012
H  H139  1  0.16105000  0.34123000  0.44591000  1.0 0.1298120012
H  H140  1  0.65877000  0.81982000  0.44591000  1.0 0.1298120012
H  H141  1  0.18018000  0.83895000  0.44591000  1.0 0.1298120012
H  H142  1  0.83895000  0.65877000  0.94591000  1.0 0.1298120012
H  H143  1  0.34123000  0.18018000  0.94591000  1.0 0.1298120012
H  H144  1  0.81982000  0.16105000  0.94591000  1.0 0.1298120012
H  H145  1  0.50600000  0.62630000  0.43085000  1.0 0.1124765223
H  H146  1  0.37370000  0.87970000  0.43085000  1.0 0.1124765223
H  H147  1  0.12030000  0.49400000  0.43085000  1.0 0.1124765223
H  H148  1  0.49400000  0.37370000  0.93085000  1.0 0.1124765223
H  H149  1  0.62630000  0.12030000  0.93085000  1.0 0.1124765223
H  H150  1  0.87970000  0.50600000  0.93085000  1.0 0.1124765223
H  H151  1  0.21128000  0.17938000  0.49232000  1.0 0.1124765223
H  H152  1  0.82062000  0.03190000  0.49232000  1.0 0.1124765223
H  H153  1  0.96810000  0.78872000  0.49232000  1.0 0.1124765223
H  H154  1  0.78872000  0.82062000  0.99232000  1.0 0.1124765223
H  H155  1  0.17938000  0.96810000  0.99232000  1.0 0.1124765223
H  H156  1  0.03190000  0.21128000  0.99232000  1.0 0.1124765223
H  H157  1  0.54280000  0.60310000  0.36686000  1.0 0.1195585329
H  H158  1  0.39690000  0.93970000  0.36686000  1.0 0.1195585329
H  H159  1  0.06030000  0.45720000  0.36686000  1.0 0.1195585329
H  H160  1  0.45720000  0.39690000  0.86686000  1.0 0.1195585329
H  H161  1  0.60310000  0.06030000  0.86686000  1.0 0.1195585329
H  H162  1  0.93970000  0.54280000  0.86686000  1.0 0.1195585329
H  H163  1  0.36955000  0.43072000  0.48719000  1.0 0.1298120012
H  H164  1  0.56928000  0.93883000  0.48719000  1.0 0.1298120012
H  H165  1  0.06117000  0.63045000  0.48719000  1.0 0.1298120012
H  H166  1  0.63045000  0.56928000  0.98719000  1.0 0.1298120012
H  H167  1  0.43072000  0.06117000  0.98719000  1.0 0.1298120012
H  H168  1  0.93883000  0.36955000  0.98719000  1.0 0.1298120012
H  H169  1  0.27856000  0.95899000  0.65701000  1.0 0.1011812513
H  H170  1  0.04101000  0.31957000  0.65701000  1.0 0.1011812513
H  H171  1  0.68043000  0.72144000  0.65701000  1.0 0.1011812513
H  H172  1  0.72144000  0.04101000  0.15701000  1.0 0.1011812513
H  H173  1  0.95899000  0.68043000  0.15701000  1.0 0.1011812513
H  H174  1  0.31957000  0.27856000  0.15701000  1.0 0.1011812513
H  H175  1  0.38437000  0.06940000  0.65961000  1.0 0.1195585329
H  H176  1  0.93060000  0.31497000  0.65961000  1.0 0.1195585329
H  H177  1  0.68503000  0.61563000  0.65961000  1.0 0.1195585329
H  H178  1  0.61563000  0.93060000  0.15961000  1.0 0.1195585329
H  H179  1  0.06940000  0.68503000  0.15961000  1.0 0.1195585329
H  H180  1  0.31497000  0.38437000  0.15961000  1.0 0.1195585329
H  H181  1  0.43557000  0.41395000  0.35900000  1.0 0.1195585329
H  H182  1  0.58605000  0.02162000  0.35900000  1.0 0.1195585329
H  H183  1  0.97838000  0.56443000  0.35900000  1.0 0.1195585329
H  H184  1  0.56443000  0.58605000  0.85900000  1.0 0.1195585329
H  H185  1  0.41395000  0.97838000  0.85900000  1.0 0.1195585329
H  H186  1  0.02162000  0.43557000  0.85900000  1.0 0.1195585329
H  H187  1  0.19558000  0.31270000  0.38061000  1.0 0.1195585329
H  H188  1  0.68730000  0.88288000  0.38061000  1.0 0.1195585329
H  H189  1  0.11712000  0.80442000  0.38061000  1.0 0.1195585329
H  H190  1  0.80442000  0.68730000  0.88061000  1.0 0.1195585329
H  H191  1  0.31270000  0.11712000  0.88061000  1.0 0.1195585329
H  H192  1  0.88288000  0.19558000  0.88061000  1.0 0.1195585329
H  H193  1  0.21998000  0.19596000  0.65535000  1.0 0.1195585329
H  H194  1  0.80404000  0.02402000  0.65535000  1.0 0.1195585329
H  H195  1  0.97598000  0.78002000  0.65535000  1.0 0.1195585329
H  H196  1  0.78002000  0.80404000  0.15535000  1.0 0.1195585329
H  H197  1  0.19596000  0.97598000  0.15535000  1.0 0.1195585329
H  H198  1  0.02402000  0.21998000  0.15535000  1.0 0.1195585329
H  H199  1  0.26355000  0.17117000  0.42794000  1.0 0.1195585329
H  H200  1  0.82883000  0.09238000  0.42794000  1.0 0.1195585329
H  H201  1  0.90762000  0.73645000  0.42794000  1.0 0.1195585329
H  H202  1  0.73645000  0.82883000  0.92794000  1.0 0.1195585329
H  H203  1  0.17117000  0.90762000  0.92794000  1.0 0.1195585329
H  H204  1  0.09238000  0.26355000  0.92794000  1.0 0.1195585329
H  H205  1  0.23040000  0.26389000  0.33102000  1.0 0.1195585329
H  H206  1  0.73611000  0.96651000  0.33102000  1.0 0.1195585329
H  H207  1  0.03349000  0.76960000  0.33102000  1.0 0.1195585329
H  H208  1  0.76960000  0.73611000  0.83102000  1.0 0.1195585329
H  H209  1  0.26389000  0.03349000  0.83102000  1.0 0.1195585329
H  H210  1  0.96651000  0.23040000  0.83102000  1.0 0.1195585329
H  H211  1  0.40311000  0.40510000  0.42218000  1.0 0.1124765223
H  H212  1  0.59490000  0.99801000  0.42218000  1.0 0.1124765223
H  H213  1  0.00199000  0.59689000  0.42218000  1.0 0.1124765223
H  H214  1  0.59689000  0.59490000  0.92218000  1.0 0.1124765223
H  H215  1  0.40510000  0.00199000  0.92218000  1.0 0.1124765223
H  H216  1  0.99801000  0.40311000  0.92218000  1.0 0.1124765223
H  H217  1  0.27173000  0.23518000  0.26626000  1.0 0.1298120012
H  H218  1  0.76482000  0.03655000  0.26626000  1.0 0.1298120012
H  H219  1  0.96345000  0.72827000  0.26626000  1.0 0.1298120012
H  H220  1  0.72827000  0.76482000  0.76626000  1.0 0.1298120012
H  H221  1  0.23518000  0.96345000  0.76626000  1.0 0.1298120012
H  H222  1  0.03655000  0.27173000  0.76626000  1.0 0.1298120012
H  H223  1  0.12757000  0.38297000  0.50848000  1.0 0.1195585329
H  H224  1  0.61703000  0.74460000  0.50848000  1.0 0.1195585329
H  H225  1  0.25540000  0.87243000  0.50848000  1.0 0.1195585329
H  H226  1  0.87243000  0.61703000  0.00848000  1.0 0.1195585329
H  H227  1  0.38297000  0.25540000  0.00848000  1.0 0.1195585329
H  H228  1  0.74460000  0.12757000  0.00848000  1.0 0.1195585329
H  H229  1  0.16132000  0.95232000  0.65914000  1.0 0.1195585329
H  H230  1  0.04768000  0.20900000  0.65914000  1.0 0.1195585329
H  H231  1  0.79100000  0.83868000  0.65914000  1.0 0.1195585329
H  H232  1  0.83868000  0.04768000  0.15914000  1.0 0.1195585329
H  H233  1  0.95232000  0.79100000  0.15914000  1.0 0.1195585329
H  H234  1  0.20900000  0.16132000  0.15914000  1.0 0.1195585329
H  H235  1  0.15570000  0.05835000  0.65525000  1.0 0.1195585329
H  H236  1  0.94165000  0.09735000  0.65525000  1.0 0.1195585329
H  H237  1  0.90265000  0.84430000  0.65525000  1.0 0.1124765223
H  H238  1  0.84430000  0.94165000  0.15525000  1.0 0.1195585329
H  H239  1  0.05835000  0.90265000  0.15525000  1.0 0.1124765223
H  H240  1  0.09735000  0.15570000  0.15525000  1.0 0.1195585329
H  H241  1  0.12962000  0.40219000  0.58559000  1.0 0.1298120012
H  H242  1  0.59781000  0.72743000  0.58559000  1.0 0.1298120012
H  H243  1  0.27257000  0.87038000  0.58559000  1.0 0.1298120012
H  H244  1  0.87038000  0.59781000  0.08559000  1.0 0.1298120012
H  H245  1  0.40219000  0.27257000  0.08559000  1.0 0.1298120012
H  H246  1  0.72743000  0.12962000  0.08559000  1.0 0.1298120012
H  H247  1  0.20896000  0.48454000  0.49852000  1.0 0.1195585329
H  H248  1  0.51546000  0.72442000  0.49852000  1.0 0.1195585329
H  H249  1  0.27558000  0.79104000  0.49852000  1.0 0.1195585329
H  H250  1  0.79104000  0.51546000  0.99852000  1.0 0.1195585329
H  H251  1  0.48454000  0.27558000  0.99852000  1.0 0.1195585329
H  H252  1  0.72442000  0.20896000  0.99852000  1.0 0.1195585329
H  H253  1  0.21858000  0.51243000  0.57669000  1.0 0.1493875457
H  H254  1  0.48757000  0.70615000  0.57669000  1.0 0.1493875457
H  H255  1  0.29385000  0.78142000  0.57669000  1.0 0.1493875457
H  H256  1  0.78142000  0.48757000  0.07669000  1.0 0.1493875457
H  H257  1  0.51243000  0.29385000  0.07669000  1.0 0.1493875457
H  H258  1  0.70615000  0.21858000  0.07669000  1.0 0.1493875457
C  C1  1  0.47400000  0.54940000  0.58797000  1.0 0.5918499422
C  C2  1  0.45060000  0.92460000  0.58797000  1.0 0.5918499422
C  C3  1  0.07540000  0.52600000  0.58797000  1.0 0.5918499422
C  C4  1  0.52600000  0.45060000  0.08797000  1.0 0.5918499422
C  C5  1  0.54940000  0.07540000  0.08797000  1.0 0.5918499422
C  C6  1  0.92460000  0.47400000  0.08797000  1.0 0.5918499422
C  C7  1  0.49970000  0.17680000  0.78288000  1.0 0.0580384767
C  C8  1  0.82320000  0.32290000  0.78288000  1.0 0.0580384767
C  C9  1  0.67710000  0.50030000  0.78288000  1.0 0.0580384767
C  C10  1  0.50030000  0.82320000  0.28288000  1.0 0.0580384767
C  C11  1  0.17680000  0.67710000  0.28288000  1.0 0.0580384767
C  C12  1  0.32290000  0.49970000  0.28288000  1.0 0.0580384767
C  C13  1  0.48870000  0.20900000  0.74520000  1.0 0.0409163028
C  C14  1  0.79100000  0.27970000  0.74520000  1.0 0.0409163028
C  C15  1  0.72030000  0.51130000  0.74520000  1.0 0.0409163028
C  C16  1  0.51130000  0.79100000  0.24520000  1.0 0.0409163028
C  C17  1  0.20900000  0.72030000  0.24520000  1.0 0.0409163028
C  C18  1  0.27970000  0.48870000  0.24520000  1.0 0.0409163028
C  C19  1  0.52730000  0.09710000  0.73859000  1.0 -0.1467185981
C  C20  1  0.90290000  0.43020000  0.73859000  1.0 -0.1467185981
C  C21  1  0.56980000  0.47270000  0.73859000  1.0 -0.1467185981
C  C22  1  0.47270000  0.90290000  0.23859000  1.0 -0.1467185981
C  C23  1  0.09710000  0.56980000  0.23859000  1.0 -0.1467185981
C  C24  1  0.43020000  0.52730000  0.23859000  1.0 -0.1467185981
C  C25  1  0.52580000  0.31140000  0.43471000  1.0 0.2502697624
C  C26  1  0.68860000  0.21440000  0.43471000  1.0 0.2502697624
C  C27  1  0.78560000  0.47420000  0.43471000  1.0 0.2502697624
C  C28  1  0.47420000  0.68860000  0.93471000  1.0 0.2502697624
C  C29  1  0.31140000  0.78560000  0.93471000  1.0 0.2502697624
C  C30  1  0.21440000  0.52580000  0.93471000  1.0 0.2502697624
C  C31  1  0.49470000  0.52850000  0.54646000  1.0 -0.1667145399
C  C32  1  0.47150000  0.96620000  0.54646000  1.0 -0.1667145399
C  C33  1  0.03380000  0.50530000  0.54646000  1.0 -0.1667145399
C  C34  1  0.50530000  0.47150000  0.04646000  1.0 -0.1667145399
C  C35  1  0.52850000  0.03380000  0.04646000  1.0 -0.1667145399
C  C36  1  0.96620000  0.49470000  0.04646000  1.0 -0.1667145399
C  C37  1  0.49530000  0.18370000  0.70311000  1.0 -0.0301022066
C  C38  1  0.81630000  0.31160000  0.70311000  1.0 -0.0301022066
C  C39  1  0.68840000  0.50470000  0.70311000  1.0 -0.0301022066
C  C40  1  0.50470000  0.81630000  0.20311000  1.0 -0.0301022066
C  C41  1  0.18370000  0.68840000  0.20311000  1.0 -0.0301022066
C  C42  1  0.31160000  0.49530000  0.20311000  1.0 -0.0301022066
C  C43  1  0.32280000  0.33270000  0.64510000  1.0 0.6095270805
C  C44  1  0.66730000  0.99010000  0.64510000  1.0 0.6095270805
C  C45  1  0.00990000  0.67720000  0.64510000  1.0 0.6095270805
C  C46  1  0.67720000  0.66730000  0.14510000  1.0 0.6095270805
C  C47  1  0.33270000  0.00990000  0.14510000  1.0 0.6095270805
C  C48  1  0.99010000  0.32280000  0.14510000  1.0 0.6095270805
C  C49  1  0.51780000  0.55180000  0.46880000  1.0 0.0523330673
C  C50  1  0.44820000  0.96600000  0.46880000  1.0 0.0523330673
C  C51  1  0.03400000  0.48220000  0.46880000  1.0 0.0523330673
C  C52  1  0.48220000  0.44820000  0.96880000  1.0 0.0523330673
C  C53  1  0.55180000  0.03400000  0.96880000  1.0 0.0523330673
C  C54  1  0.96600000  0.51780000  0.96880000  1.0 0.0523330673
C  C55  1  0.41790000  0.28680000  0.47810000  1.0 0.0409163028
C  C56  1  0.71320000  0.13110000  0.47810000  1.0 0.0409163028
C  C57  1  0.86890000  0.58210000  0.47810000  1.0 0.0409163028
C  C58  1  0.58210000  0.71320000  0.97810000  1.0 0.0409163028
C  C59  1  0.28680000  0.86890000  0.97810000  1.0 0.0409163028
C  C60  1  0.13110000  0.41790000  0.97810000  1.0 0.0409163028
C  C61  1  0.39890000  0.26930000  0.65204000  1.0 0.2422564866
C  C62  1  0.73070000  0.12960000  0.65204000  1.0 0.2422564866
C  C63  1  0.87040000  0.60110000  0.65204000  1.0 0.2422564866
C  C64  1  0.60110000  0.73070000  0.15204000  1.0 0.2422564866
C  C65  1  0.26930000  0.87040000  0.15204000  1.0 0.2422564866
C  C66  1  0.12960000  0.39890000  0.15204000  1.0 0.2422564866
C  C67  1  0.51600000  0.13010000  0.70005000  1.0 0.2502697624
C  C68  1  0.86990000  0.38590000  0.70005000  1.0 0.2502697624
C  C69  1  0.61410000  0.48400000  0.70005000  1.0 0.2502697624
C  C70  1  0.48400000  0.86990000  0.20005000  1.0 0.2502697624
C  C71  1  0.13010000  0.61410000  0.20005000  1.0 0.2502697624
C  C72  1  0.38590000  0.51600000  0.20005000  1.0 0.2502697624
C  C73  1  0.49530000  0.32770000  0.47142000  1.0 -0.0187281708
C  C74  1  0.67230000  0.16760000  0.47142000  1.0 -0.0187281708
C  C75  1  0.83240000  0.50470000  0.47142000  1.0 -0.0187281708
C  C76  1  0.50470000  0.67230000  0.97142000  1.0 -0.0187281708
C  C77  1  0.32770000  0.83240000  0.97142000  1.0 -0.0187281708
C  C78  1  0.16760000  0.49530000  0.97142000  1.0 -0.0187281708
C  C79  1  0.54720000  0.38910000  0.50202000  1.0 -0.2494971042
C  C80  1  0.61090000  0.15810000  0.50202000  1.0 -0.2494971042
C  C81  1  0.84190000  0.45280000  0.50202000  1.0 -0.2494971042
C  C82  1  0.45280000  0.61090000  0.00202000  1.0 -0.2494971042
C  C83  1  0.38910000  0.84190000  0.00202000  1.0 -0.2494971042
C  C84  1  0.15810000  0.54720000  0.00202000  1.0 -0.2494971042
C  C85  1  0.54380000  0.03510000  0.73639000  1.0 0.5918499422
C  C86  1  0.96490000  0.50870000  0.73639000  1.0 0.5918499422
C  C87  1  0.49130000  0.45620000  0.73639000  1.0 0.5918499422
C  C88  1  0.45620000  0.96490000  0.23639000  1.0 0.5918499422
C  C89  1  0.03510000  0.49130000  0.23639000  1.0 0.5918499422
C  C90  1  0.50870000  0.54380000  0.23639000  1.0 0.5918499422
C  C91  1  0.32840000  0.26490000  0.65150000  1.0 -0.1393880991
C  C92  1  0.73510000  0.06350000  0.65150000  1.0 -0.1393880991
C  C93  1  0.93650000  0.67160000  0.65150000  1.0 -0.1393880991
C  C94  1  0.67160000  0.73510000  0.15150000  1.0 -0.1393880991
C  C95  1  0.26490000  0.93650000  0.15150000  1.0 -0.1393880991
C  C96  1  0.06350000  0.32840000  0.15150000  1.0 -0.1393880991
C  C97  1  0.51300000  0.47120000  0.54370000  1.0 0.2422564866
C  C98  1  0.52880000  0.04180000  0.54370000  1.0 0.2422564866
C  C99  1  0.95820000  0.48700000  0.54370000  1.0 0.2422564866
C  C100  1  0.48700000  0.52880000  0.04370000  1.0 0.2422564866
C  C101  1  0.47120000  0.95820000  0.04370000  1.0 0.2422564866
C  C102  1  0.04180000  0.51300000  0.04370000  1.0 0.2422564866
C  C103  1  0.50960000  0.24610000  0.36188000  1.0 0.6095270805
C  C104  1  0.75390000  0.26350000  0.36188000  1.0 0.6095270805
C  C105  1  0.73650000  0.49040000  0.36188000  1.0 0.6095270805
C  C106  1  0.49040000  0.75390000  0.86188000  1.0 0.6095270805
C  C107  1  0.24610000  0.73650000  0.86188000  1.0 0.6095270805
C  C108  1  0.26350000  0.50960000  0.86188000  1.0 0.6095270805
C  C109  1  0.48090000  0.21470000  0.66161000  1.0 -0.2494971042
C  C110  1  0.78530000  0.26620000  0.66161000  1.0 -0.2494971042
C  C111  1  0.73380000  0.51910000  0.66161000  1.0 -0.2494971042
C  C112  1  0.51910000  0.78530000  0.16161000  1.0 -0.2446739979
C  C113  1  0.21470000  0.73380000  0.16161000  1.0 -0.2494971042
C  C114  1  0.26620000  0.48090000  0.16161000  1.0 -0.2494971042
C  C115  1  0.47970000  0.26040000  0.40190000  1.0 -0.1599108419
C  C116  1  0.73960000  0.21930000  0.40190000  1.0 -0.1599108419
C  C117  1  0.78070000  0.52030000  0.40190000  1.0 -0.1599108419
C  C118  1  0.52030000  0.73960000  0.90190000  1.0 -0.1599108419
C  C119  1  0.26040000  0.78070000  0.90190000  1.0 -0.1599108419
C  C120  1  0.21930000  0.47970000  0.90190000  1.0 -0.1599108419
C  C121  1  0.26440000  0.39290000  0.47330000  1.0 0.1357975743
C  C122  1  0.60710000  0.87150000  0.47330000  1.0 0.1357975743
C  C123  1  0.12850000  0.73560000  0.47330000  1.0 0.1357975743
C  C124  1  0.73560000  0.60710000  0.97330000  1.0 0.1357975743
C  C125  1  0.39290000  0.12850000  0.97330000  1.0 0.1357975743
C  C126  1  0.87150000  0.26440000  0.97330000  1.0 0.1357975743
C  C127  1  0.37500000  0.31060000  0.27470000  1.0 0.1493875457
C  C128  1  0.68940000  0.06440000  0.27470000  1.0 0.1493875457
C  C129  1  0.93560000  0.62500000  0.27470000  1.0 0.1493875457
C  C130  1  0.62500000  0.68940000  0.77470000  1.0 0.1493875457
C  C131  1  0.31060000  0.93560000  0.77470000  1.0 0.1493875457
C  C132  1  0.06440000  0.37500000  0.77470000  1.0 0.1493875457
C  C133  1  0.40420000  0.20680000  0.65780000  1.0 -0.0301022066
C  C134  1  0.79320000  0.19740000  0.65780000  1.0 -0.0301022066
C  C135  1  0.80260000  0.59580000  0.65780000  1.0 -0.0301022066
C  C136  1  0.59580000  0.79320000  0.15780000  1.0 -0.0301022066
C  C137  1  0.20680000  0.80260000  0.15780000  1.0 -0.0301022066
C  C138  1  0.19740000  0.40420000  0.15780000  1.0 -0.0301022066
C  C139  1  0.46900000  0.29070000  0.79220000  1.0 -0.091065608
C  C140  1  0.70930000  0.17830000  0.79220000  1.0 -0.091065608
C  C141  1  0.82170000  0.53100000  0.79220000  1.0 -0.091065608
C  C142  1  0.53100000  0.70930000  0.29220000  1.0 -0.091065608
C  C143  1  0.29070000  0.82170000  0.29220000  1.0 -0.091065608
C  C144  1  0.17830000  0.46900000  0.29220000  1.0 -0.091065608
C  C145  1  0.30360000  0.35760000  0.39370000  1.0 0.0695987354
C  C146  1  0.64240000  0.94600000  0.39370000  1.0 0.0695987354
C  C147  1  0.05400000  0.69640000  0.39370000  1.0 0.0695987354
C  C148  1  0.69640000  0.64240000  0.89370000  1.0 0.0695987354
C  C149  1  0.35760000  0.05400000  0.89370000  1.0 0.0695987354
C  C150  1  0.94600000  0.30360000  0.89370000  1.0 0.0695987354
C  C151  1  0.51710000  0.11980000  0.77850000  1.0 -0.1467185981
C  C152  1  0.88020000  0.39730000  0.77850000  1.0 -0.1467185981
C  C153  1  0.60270000  0.48290000  0.77850000  1.0 -0.1467185981
C  C154  1  0.48290000  0.88020000  0.27850000  1.0 -0.1467185981
C  C155  1  0.11980000  0.60270000  0.27850000  1.0 -0.1467185981
C  C156  1  0.39730000  0.51710000  0.27850000  1.0 -0.1467185981
C  C157  1  0.56540000  0.48540000  0.42553000  1.0 -0.1293601482
C  C158  1  0.51460000  0.08000000  0.42553000  1.0 -0.1293601482
C  C159  1  0.92000000  0.43460000  0.42553000  1.0 -0.1293601482
C  C160  1  0.43460000  0.51460000  0.92553000  1.0 -0.1293601482
C  C161  1  0.48540000  0.92000000  0.92553000  1.0 -0.1293601482
C  C162  1  0.08000000  0.56540000  0.92553000  1.0 -0.1293601482
C  C163  1  0.49630000  0.56700000  0.50900000  1.0 -0.1821188127
C  C164  1  0.43300000  0.92930000  0.50900000  1.0 -0.1821188127
C  C165  1  0.07070000  0.50370000  0.50900000  1.0 -0.1821188127
C  C166  1  0.50370000  0.43300000  0.00900000  1.0 -0.1821188127
C  C167  1  0.56700000  0.07070000  0.00900000  1.0 -0.1821188127
C  C168  1  0.92930000  0.49630000  0.00900000  1.0 -0.1821188127
C  C169  1  0.53860000  0.49580000  0.46689000  1.0 0.0409163028
C  C170  1  0.50420000  0.04280000  0.46689000  1.0 0.0409163028
C  C171  1  0.95720000  0.46140000  0.46689000  1.0 0.0409163028
C  C172  1  0.46140000  0.50420000  0.96689000  1.0 0.0409163028
C  C173  1  0.49580000  0.95720000  0.96689000  1.0 0.0409163028
C  C174  1  0.04280000  0.53860000  0.96689000  1.0 0.0409163028
C  C175  1  0.38700000  0.23020000  0.21890000  1.0 0.1011812513
C  C176  1  0.76980000  0.15680000  0.21890000  1.0 0.1011812513
C  C177  1  0.84320000  0.61300000  0.21890000  1.0 0.1011812513
C  C178  1  0.61300000  0.76980000  0.71890000  1.0 0.1011812513
C  C179  1  0.23020000  0.84320000  0.71890000  1.0 0.1011812513
C  C180  1  0.15680000  0.38700000  0.71890000  1.0 0.1011812513
C  C181  1  0.32680000  0.34040000  0.35180000  1.0 0.0695987354
C  C182  1  0.65960000  0.98640000  0.35180000  1.0 0.0695987354
C  C183  1  0.01360000  0.67320000  0.35180000  1.0 0.0695987354
C  C184  1  0.67320000  0.65960000  0.85180000  1.0 0.0695987354
C  C185  1  0.34040000  0.01360000  0.85180000  1.0 0.0695987354
C  C186  1  0.98640000  0.32680000  0.85180000  1.0 0.0695987354
C  C187  1  0.53310000  0.45360000  0.50403000  1.0 -0.0187281708
C  C188  1  0.54640000  0.07950000  0.50403000  1.0 -0.0187281708
C  C189  1  0.92050000  0.46690000  0.50403000  1.0 -0.0187281708
C  C190  1  0.46690000  0.54640000  0.00403000  1.0 -0.0187281708
C  C191  1  0.45360000  0.92050000  0.00403000  1.0 -0.0187281708
C  C192  1  0.07950000  0.53310000  0.00403000  1.0 -0.0187281708
C  C193  1  0.47880000  0.25770000  0.82940000  1.0 -0.0976717977
C  C194  1  0.74230000  0.22110000  0.82940000  1.0 -0.0976717977
C  C195  1  0.77890000  0.52120000  0.82940000  1.0 -0.0976717977
C  C196  1  0.52120000  0.74230000  0.32940000  1.0 -0.0976717977
C  C197  1  0.25770000  0.77890000  0.32940000  1.0 -0.0976717977
C  C198  1  0.22110000  0.47880000  0.32940000  1.0 -0.0976717977
C  C199  1  0.38350000  0.29330000  0.51670000  1.0 -0.1393880991
C  C200  1  0.70670000  0.09020000  0.51670000  1.0 -0.1393880991
C  C201  1  0.90980000  0.61650000  0.51670000  1.0 -0.1393880991
C  C202  1  0.61650000  0.70670000  0.01670000  1.0 -0.1393880991
C  C203  1  0.29330000  0.90980000  0.01670000  1.0 -0.1393880991
C  C204  1  0.09020000  0.38350000  0.01670000  1.0 -0.1393880991
C  C205  1  0.42640000  0.36470000  0.30150000  1.0 -0.1393880991
C  C206  1  0.63530000  0.06170000  0.30150000  1.0 -0.1393880991
C  C207  1  0.93830000  0.57360000  0.30150000  1.0 -0.1393880991
C  C208  1  0.57360000  0.63530000  0.80150000  1.0 -0.1393880991
C  C209  1  0.36470000  0.93830000  0.80150000  1.0 -0.1393880991
C  C210  1  0.06170000  0.42640000  0.80150000  1.0 -0.1393880991
C  C211  1  0.27630000  0.41200000  0.55300000  1.0 -0.0407778942
C  C212  1  0.58800000  0.86430000  0.55300000  1.0 -0.0407778942
C  C213  1  0.13570000  0.72370000  0.55300000  1.0 -0.0407778942
C  C214  1  0.72370000  0.58800000  0.05300000  1.0 -0.0407778942
C  C215  1  0.41200000  0.13570000  0.05300000  1.0 -0.0407778942
C  C216  1  0.86430000  0.27630000  0.05300000  1.0 -0.0407778942
C  C217  1  0.49220000  0.20110000  0.82560000  1.0 -0.1393880991
C  C218  1  0.79890000  0.29110000  0.82560000  1.0 -0.1393880991
C  C219  1  0.70890000  0.50780000  0.82560000  1.0 -0.1467185981
C  C220  1  0.50780000  0.79890000  0.32560000  1.0 -0.1467185981
C  C221  1  0.20110000  0.70890000  0.32560000  1.0 -0.1467185981
C  C222  1  0.29110000  0.49220000  0.32560000  1.0 -0.1467185981
C  C223  1  0.37150000  0.23750000  0.44460000  1.0 0.0523330673
C  C224  1  0.76250000  0.13400000  0.44460000  1.0 0.0523330673
C  C225  1  0.86600000  0.62850000  0.44460000  1.0 0.0523330673
C  C226  1  0.62850000  0.76250000  0.94460000  1.0 0.0523330673
C  C227  1  0.23750000  0.86600000  0.94460000  1.0 0.0523330673
C  C228  1  0.13400000  0.37150000  0.94460000  1.0 0.0523330673
C  C229  1  0.47440000  0.26890000  0.75090000  1.0 -0.1173016965
C  C230  1  0.73110000  0.20550000  0.75090000  1.0 -0.1173016965
C  C231  1  0.79450000  0.52560000  0.75090000  1.0 -0.1173016965
C  C232  1  0.52560000  0.73110000  0.25090000  1.0 -0.1173016965
C  C233  1  0.26890000  0.79450000  0.25090000  1.0 -0.1173016965
C  C234  1  0.20550000  0.47440000  0.25090000  1.0 -0.1173016965
C  C235  1  0.44860000  0.34950000  0.20450000  1.0 -0.091065608
C  C236  1  0.65050000  0.09910000  0.20450000  1.0 -0.091065608
C  C237  1  0.90090000  0.55140000  0.20450000  1.0 -0.091065608
C  C238  1  0.55140000  0.65050000  0.70450000  1.0 -0.091065608
C  C239  1  0.34950000  0.90090000  0.70450000  1.0 -0.091065608
C  C240  1  0.09910000  0.44860000  0.70450000  1.0 -0.091065608
C  C241  1  0.40340000  0.22650000  0.40740000  1.0 -0.1467185981
C  C242  1  0.77350000  0.17690000  0.40740000  1.0 -0.1467185981
C  C243  1  0.82310000  0.59660000  0.40740000  1.0 -0.1467185981
C  C244  1  0.59660000  0.77350000  0.90740000  1.0 -0.1467185981
C  C245  1  0.22650000  0.82310000  0.90740000  1.0 -0.1467185981
C  C246  1  0.17690000  0.40340000  0.90740000  1.0 -0.1467185981
C  C247  1  0.30840000  0.25420000  0.52110000  1.0 -0.0976717977
C  C248  1  0.74580000  0.05420000  0.52110000  1.0 -0.0976717977
C  C249  1  0.94580000  0.69160000  0.52110000  1.0 -0.0976717977
C  C250  1  0.69160000  0.74580000  0.02110000  1.0 -0.0976717977
C  C251  1  0.25420000  0.94580000  0.02110000  1.0 -0.0976717977
C  C252  1  0.05420000  0.30840000  0.02110000  1.0 -0.0976717977
C  C253  1  0.56830000  0.52700000  0.38920000  1.0 -0.0706760005
C  C254  1  0.47300000  0.04130000  0.38920000  1.0 -0.0706760005
C  C255  1  0.95870000  0.43170000  0.38920000  1.0 -0.0706760005
C  C256  1  0.43170000  0.47300000  0.88920000  1.0 -0.0706760005
C  C257  1  0.52700000  0.95870000  0.88920000  1.0 -0.0706760005
C  C258  1  0.04130000  0.56830000  0.88920000  1.0 -0.0706760005
C  C259  1  0.46090000  0.31250000  0.17353000  1.0 -0.0484354206
C  C260  1  0.68750000  0.14840000  0.17353000  1.0 -0.0484354206
C  C261  1  0.85160000  0.53910000  0.17353000  1.0 -0.0484354206
C  C262  1  0.53910000  0.68750000  0.67353000  1.0 -0.0484354206
C  C263  1  0.31250000  0.85160000  0.67353000  1.0 -0.0484354206
C  C264  1  0.14840000  0.46090000  0.67353000  1.0 -0.0484354206
C  C265  1  0.21020000  0.35480000  0.44090000  1.0 -0.1821188127
C  C266  1  0.64520000  0.85540000  0.44090000  1.0 -0.1821188127
C  C267  1  0.14460000  0.78980000  0.44090000  1.0 -0.1821188127
C  C268  1  0.78980000  0.64520000  0.94090000  1.0 -0.1821188127
C  C269  1  0.35480000  0.14460000  0.94090000  1.0 -0.1821188127
C  C270  1  0.85540000  0.21020000  0.94090000  1.0 -0.1821188127
C  C271  1  0.52060000  0.59090000  0.42970000  1.0 -0.1599108419
C  C272  1  0.40910000  0.92970000  0.42970000  1.0 -0.1599108419
C  C273  1  0.07030000  0.47940000  0.42970000  1.0 -0.1599108419
C  C274  1  0.47940000  0.40910000  0.92970000  1.0 -0.1599108419
C  C275  1  0.59090000  0.07030000  0.92970000  1.0 -0.1599108419
C  C276  1  0.92970000  0.52060000  0.92970000  1.0 -0.1599108419
C  C277  1  0.26230000  0.20650000  0.48840000  1.0 -0.1078486783
C  C278  1  0.79350000  0.05580000  0.48840000  1.0 -0.1078486783
C  C279  1  0.94420000  0.73770000  0.48840000  1.0 -0.1078486783
C  C280  1  0.73770000  0.79350000  0.98840000  1.0 -0.1078486783
C  C281  1  0.20650000  0.94420000  0.98840000  1.0 -0.1078486783
C  C282  1  0.05580000  0.26230000  0.98840000  1.0 -0.1078486783
C  C283  1  0.33880000  0.13600000  0.65800000  1.0 0.0523330673
C  C284  1  0.86400000  0.20280000  0.65800000  1.0 0.0523330673
C  C285  1  0.79720000  0.66120000  0.65800000  1.0 0.0523330673
C  C286  1  0.66120000  0.86400000  0.15800000  1.0 0.0523330673
C  C287  1  0.13600000  0.79720000  0.15800000  1.0 0.0523330673
C  C288  1  0.20280000  0.33880000  0.15800000  1.0 0.0523330673
C  C289  1  0.54340000  0.57800000  0.39180000  1.0 -0.091065608
C  C290  1  0.42200000  0.96540000  0.39180000  1.0 -0.091065608
C  C291  1  0.03460000  0.45660000  0.39180000  1.0 -0.091065608
C  C292  1  0.45660000  0.42200000  0.89180000  1.0 -0.091065608
C  C293  1  0.57800000  0.03460000  0.89180000  1.0 -0.091065608
C  C294  1  0.96540000  0.54340000  0.89180000  1.0 -0.091065608
C  C295  1  0.33410000  0.40840000  0.46540000  1.0 -0.1393880991
C  C296  1  0.59160000  0.92570000  0.46540000  1.0 -0.1393880991
C  C297  1  0.07430000  0.66590000  0.46540000  1.0 -0.1393880991
C  C298  1  0.66590000  0.59160000  0.96540000  1.0 -0.1393880991
C  C299  1  0.40840000  0.07430000  0.96540000  1.0 -0.1393880991
C  C300  1  0.92570000  0.33410000  0.96540000  1.0 -0.1393880991
C  C301  1  0.27620000  0.00230000  0.65780000  1.0 -0.0976717977
C  C302  1  0.99770000  0.27390000  0.65780000  1.0 -0.091065608
C  C303  1  0.72610000  0.72380000  0.65780000  1.0 -0.0976717977
C  C304  1  0.72380000  0.99770000  0.15780000  1.0 -0.0976717977
C  C305  1  0.00230000  0.72610000  0.15780000  1.0 -0.091065608
C  C306  1  0.27390000  0.27620000  0.15780000  1.0 -0.091065608
C  C307  1  0.33930000  0.06830000  0.65860000  1.0 -0.1293601482
C  C308  1  0.93170000  0.27100000  0.65860000  1.0 -0.1293601482
C  C309  1  0.72900000  0.66070000  0.65860000  1.0 -0.1293601482
C  C310  1  0.66070000  0.93170000  0.15860000  1.0 -0.1293601482
C  C311  1  0.06830000  0.72900000  0.15860000  1.0 -0.1293601482
C  C312  1  0.27100000  0.33930000  0.15860000  1.0 -0.1293601482
C  C313  1  0.40150000  0.37830000  0.34010000  1.0 -0.1293601482
C  C314  1  0.62170000  0.02320000  0.34010000  1.0 -0.1293601482
C  C315  1  0.97680000  0.59850000  0.34010000  1.0 -0.1293601482
C  C316  1  0.59850000  0.62170000  0.84010000  1.0 -0.1293601482
C  C317  1  0.37830000  0.97680000  0.84010000  1.0 -0.1293601482
C  C318  1  0.02320000  0.40150000  0.84010000  1.0 -0.1293601482
C  C319  1  0.23120000  0.33800000  0.40190000  1.0 -0.1393880991
C  C320  1  0.66200000  0.89320000  0.40190000  1.0 -0.1393880991
C  C321  1  0.10680000  0.76880000  0.40190000  1.0 -0.1393880991
C  C322  1  0.76880000  0.66200000  0.90190000  1.0 -0.1393880991
C  C323  1  0.33800000  0.10680000  0.90190000  1.0 -0.1393880991
C  C324  1  0.89320000  0.23120000  0.90190000  1.0 -0.1393880991
C  C325  1  0.26560000  0.19810000  0.65480000  1.0 -0.1467185981
C  C326  1  0.80190000  0.06750000  0.65480000  1.0 -0.1467185981
C  C327  1  0.93250000  0.73440000  0.65480000  1.0 -0.1467185981
C  C328  1  0.73440000  0.80190000  0.15480000  1.0 -0.1467185981
C  C329  1  0.19810000  0.93250000  0.15480000  1.0 -0.1467185981
C  C330  1  0.06750000  0.26560000  0.15480000  1.0 -0.1467185981
C  C331  1  0.26800000  0.13170000  0.65760000  1.0 0.0580384767
C  C332  1  0.86830000  0.13630000  0.65760000  1.0 0.0580384767
C  C333  1  0.86370000  0.73200000  0.65760000  1.0 0.0580384767
C  C334  1  0.73200000  0.86830000  0.15760000  1.0 0.0580384767
C  C335  1  0.13170000  0.86370000  0.15760000  1.0 0.0580384767
C  C336  1  0.13630000  0.26800000  0.15760000  1.0 0.0580384767
C  C337  1  0.29400000  0.20050000  0.45050000  1.0 -0.1393880991
C  C338  1  0.79950000  0.09350000  0.45050000  1.0 -0.1393880991
C  C339  1  0.90650000  0.70600000  0.45050000  1.0 -0.1393880991
C  C340  1  0.70600000  0.79950000  0.95050000  1.0 -0.1393880991
C  C341  1  0.20050000  0.90650000  0.95050000  1.0 -0.1393880991
C  C342  1  0.09350000  0.29400000  0.95050000  1.0 -0.1393880991
C  C343  1  0.28060000  0.28960000  0.32430000  1.0 -0.1293601482
C  C344  1  0.71040000  0.99100000  0.32430000  1.0 -0.1293601482
C  C345  1  0.00900000  0.71940000  0.32430000  1.0 -0.1293601482
C  C346  1  0.71940000  0.71040000  0.82430000  1.0 -0.1293601482
C  C347  1  0.28960000  0.00900000  0.82430000  1.0 -0.1293601482
C  C348  1  0.99100000  0.28060000  0.82430000  1.0 -0.1293601482
C  C349  1  0.35400000  0.39230000  0.42660000  1.0 -0.1173016965
C  C350  1  0.60770000  0.96170000  0.42660000  1.0 -0.1173016965
C  C351  1  0.03830000  0.64600000  0.42660000  1.0 -0.1173016965
C  C352  1  0.64600000  0.60770000  0.92660000  1.0 -0.1173016965
C  C353  1  0.39230000  0.03830000  0.92660000  1.0 -0.1173016965
C  C354  1  0.96170000  0.35400000  0.92660000  1.0 -0.1078486783
C  C355  1  0.30510000  0.27260000  0.28460000  1.0 -0.1599108419
C  C356  1  0.72740000  0.03250000  0.28460000  1.0 -0.1599108419
C  C357  1  0.96750000  0.69490000  0.28460000  1.0 -0.1599108419
C  C358  1  0.69490000  0.72740000  0.78460000  1.0 -0.1599108419
C  C359  1  0.27260000  0.96750000  0.78460000  1.0 -0.1599108419
C  C360  1  0.03250000  0.30510000  0.78460000  1.0 -0.1599108419
C  C361  1  0.16720000  0.39520000  0.52720000  1.0 -0.0706760005
C  C362  1  0.60480000  0.77200000  0.52720000  1.0 -0.0706760005
C  C363  1  0.22800000  0.83280000  0.52720000  1.0 -0.0706760005
C  C364  1  0.83280000  0.60480000  0.02720000  1.0 -0.0706760005
C  C365  1  0.39520000  0.22800000  0.02720000  1.0 -0.0706760005
C  C366  1  0.77200000  0.16720000  0.02720000  1.0 -0.0706760005
C  C367  1  0.20460000  0.99800000  0.65810000  1.0 -0.1078486783
C  C368  1  0.00200000  0.20660000  0.65810000  1.0 -0.1078486783
C  C369  1  0.79340000  0.79540000  0.65810000  1.0 -0.1078486783
C  C370  1  0.79540000  0.00200000  0.15810000  1.0 -0.1078486783
C  C371  1  0.99800000  0.79340000  0.15810000  1.0 -0.1078486783
C  C372  1  0.20660000  0.20460000  0.15810000  1.0 -0.1078486783
C  C373  1  0.20140000  0.06080000  0.65670000  1.0 -0.1393880991
C  C374  1  0.93920000  0.14060000  0.65670000  1.0 -0.1393880991
C  C375  1  0.85940000  0.79860000  0.65670000  1.0 -0.1393880991
C  C376  1  0.79860000  0.93920000  0.15670000  1.0 -0.1393880991
C  C377  1  0.06080000  0.85940000  0.15670000  1.0 -0.1393880991
C  C378  1  0.14060000  0.20140000  0.15670000  1.0 -0.1393880991
C  C379  1  0.16860000  0.40630000  0.56880000  1.0 -0.0407778942
C  C380  1  0.59370000  0.76230000  0.56880000  1.0 -0.0407778942
C  C381  1  0.23770000  0.83140000  0.56880000  1.0 -0.0407778942
C  C382  1  0.83140000  0.59370000  0.06880000  1.0 -0.0407778942
C  C383  1  0.40630000  0.23770000  0.06880000  1.0 -0.0407778942
C  C384  1  0.76230000  0.16860000  0.06880000  1.0 -0.0407778942
C  C385  1  0.22220000  0.46240000  0.52040000  1.0 -0.0706760005
C  C386  1  0.53760000  0.75980000  0.52040000  1.0 -0.0706760005
C  C387  1  0.24020000  0.77780000  0.52040000  1.0 -0.0706760005
C  C388  1  0.77780000  0.53760000  0.02040000  1.0 -0.0706760005
C  C389  1  0.46240000  0.24020000  0.02040000  1.0 -0.0706760005
C  C390  1  0.75980000  0.22220000  0.02040000  1.0 -0.0706760005
C  C391  1  0.22640000  0.47680000  0.56340000  1.0 -0.0301022066
C  C392  1  0.52320000  0.74960000  0.56340000  1.0 -0.0301022066
C  C393  1  0.25040000  0.77360000  0.56340000  1.0 -0.0301022066
C  C394  1  0.77360000  0.52320000  0.06340000  1.0 -0.0301022066
C  C395  1  0.47680000  0.25040000  0.06340000  1.0 -0.0301022066
C  C396  1  0.74960000  0.22640000  0.06340000  1.0 -0.0301022066
N  N1  1  0.42150000  0.23800000  0.18152000  1.0 -0.291970517
N  N2  1  0.76200000  0.18350000  0.18152000  1.0 -0.291970517
N  N3  1  0.81650000  0.57850000  0.18152000  1.0 -0.291970517
N  N4  1  0.57850000  0.76200000  0.68152000  1.0 -0.291970517
N  N5  1  0.23800000  0.81650000  0.68152000  1.0 -0.291970517
N  N6  1  0.18350000  0.42150000  0.68152000  1.0 -0.291970517
N  N7  1  0.40190000  0.29730000  0.23466000  1.0 0.0157418634
N  N8  1  0.70270000  0.10460000  0.23466000  1.0 0.0157418634
N  N9  1  0.89540000  0.59810000  0.23466000  1.0 0.0157418634
N  N10  1  0.59810000  0.70270000  0.73466000  1.0 0.0157418634
N  N11  1  0.29730000  0.89540000  0.73466000  1.0 0.0157418634
N  N12  1  0.10460000  0.40190000  0.73466000  1.0 0.0157418634
N  N13  1  0.24510000  0.42720000  0.58540000  1.0 -0.1901593067
N  N14  1  0.57280000  0.81790000  0.58540000  1.0 -0.1901593067
N  N15  1  0.18210000  0.75490000  0.58540000  1.0 -0.1901593067
N  N16  1  0.75490000  0.57280000  0.08540000  1.0 -0.1901593067
N  N17  1  0.42720000  0.18210000  0.08540000  1.0 -0.1901593067
N  N18  1  0.81790000  0.24510000  0.08540000  1.0 -0.1901593067
N  N19  1  0.35660000  0.51180000  0.67410000  1.0 -0.7683014579
N  N20  1  0.48820000  0.84480000  0.67410000  1.0 -0.7683014579
N  N21  1  0.15520000  0.64340000  0.67410000  1.0 -0.7683014579
N  N22  1  0.64340000  0.48820000  0.17410000  1.0 -0.7683014579
N  N23  1  0.51180000  0.15520000  0.17410000  1.0 -0.7683014579
N  N24  1  0.84480000  0.35660000  0.17410000  1.0 -0.7683014579
N  N25  1  0.24220000  0.40590000  0.51460000  1.0 0.030470825
N  N26  1  0.59410000  0.83630000  0.51460000  1.0 0.030470825
N  N27  1  0.16370000  0.75780000  0.51460000  1.0 0.030470825
N  N28  1  0.75780000  0.59410000  0.01460000  1.0 0.030470825
N  N29  1  0.40590000  0.16370000  0.01460000  1.0 0.030470825
N  N30  1  0.83630000  0.24220000  0.01460000  1.0 0.030470825
O  O1  1  0.48850000  0.52730000  0.62451000  1.0 -0.640995235
O  O2  1  0.47270000  0.96120000  0.62451000  1.0 -0.640995235
O  O3  1  0.03880000  0.51150000  0.62451000  1.0 -0.640995235
O  O4  1  0.51150000  0.47270000  0.12451000  1.0 -0.640995235
O  O5  1  0.52730000  0.03880000  0.12451000  1.0 -0.640995235
O  O6  1  0.96120000  0.48850000  0.12451000  1.0 -0.640995235
O  O7  1  0.58070000  0.27580000  0.35687000  1.0 -0.6088139191
O  O8  1  0.72420000  0.30490000  0.35687000  1.0 -0.6088139191
O  O9  1  0.69510000  0.41930000  0.35687000  1.0 -0.6088139191
O  O10  1  0.41930000  0.72420000  0.85687000  1.0 -0.6088139191
O  O11  1  0.27580000  0.69510000  0.85687000  1.0 -0.6088139191
O  O12  1  0.30490000  0.58070000  0.85687000  1.0 -0.6088139191
O  O13  1  0.59930000  0.34780000  0.42967000  1.0 -0.5913862494
O  O14  1  0.65220000  0.25150000  0.42967000  1.0 -0.5913862494
O  O15  1  0.74850000  0.40070000  0.42967000  1.0 -0.5913862494
O  O16  1  0.40070000  0.65220000  0.92967000  1.0 -0.5913862494
O  O17  1  0.34780000  0.74850000  0.92967000  1.0 -0.5913862494
O  O18  1  0.25150000  0.59930000  0.92967000  1.0 -0.5913862494
O  O19  1  0.50880000  0.43220000  0.58006000  1.0 -0.6325126497
O  O20  1  0.56780000  0.07660000  0.58006000  1.0 -0.6325126497
O  O21  1  0.92340000  0.49120000  0.58006000  1.0 -0.6325126497
O  O22  1  0.49120000  0.56780000  0.08006000  1.0 -0.6325126497
O  O23  1  0.43220000  0.92340000  0.08006000  1.0 -0.6325126497
O  O24  1  0.07660000  0.50880000  0.08006000  1.0 -0.6325126497
O  O25  1  0.37530000  0.38990000  0.62860000  1.0 -0.5913862494
O  O26  1  0.61010000  0.98540000  0.62860000  1.0 -0.5913862494
O  O27  1  0.01460000  0.62470000  0.62860000  1.0 -0.5913862494
O  O28  1  0.62470000  0.61010000  0.12860000  1.0 -0.5913862494
O  O29  1  0.38990000  0.01460000  0.12860000  1.0 -0.5913862494
O  O30  1  0.98540000  0.37530000  0.12860000  1.0 -0.5913862494
O  O31  1  0.54920000  0.01130000  0.69952000  1.0 -0.6088139191
O  O32  1  0.98870000  0.53790000  0.69952000  1.0 -0.6088139191
O  O33  1  0.46210000  0.45080000  0.69952000  1.0 -0.6088139191
O  O34  1  0.45080000  0.98870000  0.19952000  1.0 -0.6088139191
O  O35  1  0.01130000  0.46210000  0.19952000  1.0 -0.6088139191
O  O36  1  0.53790000  0.54920000  0.19952000  1.0 -0.6088139191
O  O37  1  0.52510000  0.10880000  0.66036000  1.0 -0.6088139191
O  O38  1  0.89120000  0.41630000  0.66036000  1.0 -0.6088139191
O  O39  1  0.58370000  0.47490000  0.66036000  1.0 -0.6088139191
O  O40  1  0.47490000  0.89120000  0.16036000  1.0 -0.6088139191
O  O41  1  0.10880000  0.58370000  0.16036000  1.0 -0.6088139191
O  O42  1  0.41630000  0.52510000  0.16036000  1.0 -0.6088139191
O  O43  1  0.46150000  0.33640000  0.65040000  1.0 -0.6224247722
O  O44  1  0.66360000  0.12510000  0.65040000  1.0 -0.6224247722
O  O45  1  0.87490000  0.53850000  0.65040000  1.0 -0.6224247722
O  O46  1  0.53850000  0.66360000  0.15040000  1.0 -0.6224247722
O  O47  1  0.33640000  0.87490000  0.15040000  1.0 -0.6224247722
O  O48  1  0.12510000  0.46150000  0.15040000  1.0 -0.6224247722
O  O49  1  0.54840000  0.00770000  0.77153000  1.0 -0.5201922928
O  O50  1  0.99230000  0.54070000  0.77153000  1.0 -0.5201922928
O  O51  1  0.45930000  0.45160000  0.77153000  1.0 -0.5201922928
O  O52  1  0.45160000  0.99230000  0.27153000  1.0 -0.5201922928
O  O53  1  0.00770000  0.45930000  0.27153000  1.0 -0.5201922928
O  O54  1  0.54070000  0.54840000  0.27153000  1.0 -0.5201922928
O  O55  1  0.44560000  0.58920000  0.58795000  1.0 -0.5201922928
O  O56  1  0.41080000  0.85640000  0.58795000  1.0 -0.5201922928
O  O57  1  0.14360000  0.55440000  0.58795000  1.0 -0.5201922928
O  O58  1  0.55440000  0.41080000  0.08795000  1.0 -0.5201922928
O  O59  1  0.58920000  0.14360000  0.08795000  1.0 -0.5201922928
O  O60  1  0.85640000  0.44560000  0.08795000  1.0 -0.5201922928
O  O61  1  0.26240000  0.32970000  0.65557000  1.0 -0.5201922928
O  O62  1  0.67030000  0.93270000  0.65557000  1.0 -0.5201922928
O  O63  1  0.06730000  0.73760000  0.65557000  1.0 -0.5201922928
O  O64  1  0.73760000  0.67030000  0.15557000  1.0 -0.5201922928
O  O65  1  0.32970000  0.06730000  0.15557000  1.0 -0.5201922928
O  O66  1  0.93270000  0.26240000  0.15557000  1.0 -0.5201922928
O  O67  1  0.46690000  0.20600000  0.33263000  1.0 -0.5330867954
O  O68  1  0.79400000  0.26090000  0.33263000  1.0 -0.5330867954
O  O69  1  0.73910000  0.53310000  0.33263000  1.0 -0.5330867954
O  O70  1  0.53310000  0.79400000  0.83263000  1.0 -0.5330867954
O  O71  1  0.20600000  0.73910000  0.83263000  1.0 -0.5350196667
O  O72  1  0.26090000  0.46690000  0.83263000  1.0 -0.5330867954
