# DDEC6 charges by PACMAN v1.1 (https://github.com/mtap-research/PACMAN-charge/)
data_UDOLIM_ASR_pacman
_symmetry_space_group_name_H-M   'P 1'
_cell_length_a   20.88070000
_cell_length_b   20.88070000
_cell_length_c   30.63900000
_cell_angle_alpha   90.00000000
_cell_angle_beta   90.00000000
_cell_angle_gamma   120.00000000
_symmetry_Int_Tables_number   1
_chemical_formula_structural   Ti4Zn3H129C198(N5O12)3
_chemical_formula_sum   'Ti8 Zn6 H258 C396 N30 O72'
_cell_volume   11568.98680814
_cell_formula_units_Z   2
loop_
 _symmetry_equiv_pos_site_id
 _symmetry_equiv_pos_as_xyz
  1  'x, y, z'
loop_
 _atom_site_type_symbol
 _atom_site_label
 _atom_site_symmetry_multiplicity
 _atom_site_fract_x
 _atom_site_fract_y
 _atom_site_fract_z
 _atom_site_occupancy
 _atom_site_charge
Ti  Ti1  1  0.33333333  0.66666667  0.20444000  1.0 1.8944829142
Ti  Ti2  1  0.66666667  0.33333333  0.70444000  1.0 1.8944829142
Ti  Ti3  1  0.43458000  0.48855000  0.44600000  1.0 1.909101609
Ti  Ti4  1  0.51145000  0.94603000  0.44600000  1.0 1.909101609
Ti  Ti5  1  0.05397000  0.56542000  0.44600000  1.0 1.909101609
Ti  Ti6  1  0.56542000  0.51145000  0.94600000  1.0 1.909101609
Ti  Ti7  1  0.48855000  0.05397000  0.94600000  1.0 1.909101609
Ti  Ti8  1  0.94603000  0.43458000  0.94600000  1.0 1.909101609
Zn  Zn1  1  0.42889000  0.26957000  0.45530000  1.0 0.7291066086
Zn  Zn2  1  0.73043000  0.15932000  0.45530000  1.0 0.7291066086
Zn  Zn3  1  0.84068000  0.57111000  0.45530000  1.0 0.7291066086
Zn  Zn4  1  0.57111000  0.73043000  0.95530000  1.0 0.7291066086
Zn  Zn5  1  0.26957000  0.84068000  0.95530000  1.0 0.7291066086
Zn  Zn6  1  0.15932000  0.42889000  0.95530000  1.0 0.7291066086
H  H1  1  0.13795000  0.71730000  0.89229000  1.0 0.1198812358
H  H2  1  0.28270000  0.42065000  0.89229000  1.0 0.1198812358
H  H3  1  0.57935000  0.86205000  0.89229000  1.0 0.1198812358
H  H4  1  0.86205000  0.28270000  0.39229000  1.0 0.1198812358
H  H5  1  0.71730000  0.57935000  0.39229000  1.0 0.1198812358
H  H6  1  0.42065000  0.13795000  0.39229000  1.0 0.1198812358
H  H7  1  0.13631000  0.73898000  0.81172000  1.0 0.1103145804
H  H8  1  0.26102000  0.39733000  0.81172000  1.0 0.1103145804
H  H9  1  0.60267000  0.86369000  0.81172000  1.0 0.1103145804
H  H10  1  0.86369000  0.26102000  0.31172000  1.0 0.1103145804
H  H11  1  0.73898000  0.60267000  0.31172000  1.0 0.1103145804
H  H12  1  0.39733000  0.13631000  0.31172000  1.0 0.1103145804
H  H13  1  0.32631000  0.90796000  0.86172000  1.0 0.1365905456
H  H14  1  0.09204000  0.41835000  0.86172000  1.0 0.1365905456
H  H15  1  0.58165000  0.67369000  0.86172000  1.0 0.1365905456
H  H16  1  0.67369000  0.09204000  0.36172000  1.0 0.1365905456
H  H17  1  0.90796000  0.58165000  0.36172000  1.0 0.1365905456
H  H18  1  0.41835000  0.32631000  0.36172000  1.0 0.1365905456
H  H19  1  0.51829000  0.39787000  0.46772000  1.0 0.3000749236
H  H20  1  0.60213000  0.12042000  0.46772000  1.0 0.3000749236
H  H21  1  0.87958000  0.48171000  0.46772000  1.0 0.3000749236
H  H22  1  0.48171000  0.60213000  0.96772000  1.0 0.3000749236
H  H23  1  0.39787000  0.87958000  0.96772000  1.0 0.3000749236
H  H24  1  0.12042000  0.51829000  0.96772000  1.0 0.3000749236
H  H25  1  0.55298000  0.35469000  0.47898000  1.0 0.3000749236
H  H26  1  0.64531000  0.19829000  0.47898000  1.0 0.3000749236
H  H27  1  0.80171000  0.44702000  0.47898000  1.0 0.3000749236
H  H28  1  0.44702000  0.64531000  0.97898000  1.0 0.3000749236
H  H29  1  0.35469000  0.80171000  0.97898000  1.0 0.3000749236
H  H30  1  0.19829000  0.55298000  0.97898000  1.0 0.3000749236
H  H31  1  0.50292000  0.36035000  0.50959000  1.0 0.3169284201
H  H32  1  0.63965000  0.14257000  0.50959000  1.0 0.3169284201
H  H33  1  0.85743000  0.49708000  0.50959000  1.0 0.3169284201
H  H34  1  0.49708000  0.63965000  0.00959000  1.0 0.3169284201
H  H35  1  0.36035000  0.85743000  0.00959000  1.0 0.3169284201
H  H36  1  0.14257000  0.50292000  0.00959000  1.0 0.3169284201
H  H37  1  0.40752000  0.59804000  0.29966000  1.0 0.1365905456
H  H38  1  0.40196000  0.80948000  0.29966000  1.0 0.1365905456
H  H39  1  0.19052000  0.59248000  0.29966000  1.0 0.1365905456
H  H40  1  0.59248000  0.40196000  0.79966000  1.0 0.1365905456
H  H41  1  0.59804000  0.19052000  0.79966000  1.0 0.1365905456
H  H42  1  0.80948000  0.40752000  0.79966000  1.0 0.1365905456
H  H43  1  0.36880000  0.54231000  0.33810000  1.0 0.1303683654
H  H44  1  0.45769000  0.82649000  0.33810000  1.0 0.1303683654
H  H45  1  0.17351000  0.63120000  0.33810000  1.0 0.1303683654
H  H46  1  0.63120000  0.45769000  0.83810000  1.0 0.1303683654
H  H47  1  0.54231000  0.17351000  0.83810000  1.0 0.1303683654
H  H48  1  0.82649000  0.36880000  0.83810000  1.0 0.1303683654
H  H49  1  0.45023000  0.58018000  0.23028000  1.0 0.1303683654
H  H50  1  0.41982000  0.87005000  0.23028000  1.0 0.1303683654
H  H51  1  0.12995000  0.54977000  0.23028000  1.0 0.1303683654
H  H52  1  0.54977000  0.41982000  0.73028000  1.0 0.1303683654
H  H53  1  0.58018000  0.12995000  0.73028000  1.0 0.1303683654
H  H54  1  0.87005000  0.45023000  0.73028000  1.0 0.1303683654
H  H55  1  0.09854000  0.52358000  0.61062000  1.0 0.1198812358
H  H56  1  0.47642000  0.57496000  0.61062000  1.0 0.1198812358
H  H57  1  0.42504000  0.90146000  0.61062000  1.0 0.1198812358
H  H58  1  0.90146000  0.47642000  0.11062000  1.0 0.1198812358
H  H59  1  0.52358000  0.42504000  0.11062000  1.0 0.1198812358
H  H60  1  0.57496000  0.09854000  0.11062000  1.0 0.1198812358
H  H61  1  0.26647000  0.51774000  0.46709000  1.0 0.1303683654
H  H62  1  0.48226000  0.74873000  0.46709000  1.0 0.1303683654
H  H63  1  0.25127000  0.73353000  0.46709000  1.0 0.1303683654
H  H64  1  0.73353000  0.48226000  0.96709000  1.0 0.1303683654
H  H65  1  0.51774000  0.25127000  0.96709000  1.0 0.1303683654
H  H66  1  0.74873000  0.26647000  0.96709000  1.0 0.1303683654
H  H67  1  0.18977000  0.48764000  0.44417000  1.0 0.1303683654
H  H68  1  0.51236000  0.70213000  0.44417000  1.0 0.1303683654
H  H69  1  0.29787000  0.81023000  0.44417000  1.0 0.1303683654
H  H70  1  0.81023000  0.51236000  0.94417000  1.0 0.1303683654
H  H71  1  0.48764000  0.29787000  0.94417000  1.0 0.1303683654
H  H72  1  0.70213000  0.18977000  0.94417000  1.0 0.1303683654
H  H73  1  0.60244000  0.48206000  0.31734000  1.0 0.1007948491
H  H74  1  0.51794000  0.12038000  0.31734000  1.0 0.1007948491
H  H75  1  0.87962000  0.39756000  0.31734000  1.0 0.1007948491
H  H76  1  0.39756000  0.51794000  0.81734000  1.0 0.1007948491
H  H77  1  0.48206000  0.87962000  0.81734000  1.0 0.1007948491
H  H78  1  0.12038000  0.60244000  0.81734000  1.0 0.1007948491
H  H79  1  0.33000000  0.46002000  0.60317000  1.0 0.1198812358
H  H80  1  0.53998000  0.86998000  0.60317000  1.0 0.1198812358
H  H81  1  0.13002000  0.67000000  0.60317000  1.0 0.1198812358
H  H82  1  0.67000000  0.53998000  0.10317000  1.0 0.1198812358
H  H83  1  0.46002000  0.13002000  0.10317000  1.0 0.1198812358
H  H84  1  0.86998000  0.33000000  0.10317000  1.0 0.1198812358
H  H85  1  0.29196000  0.46764000  0.53485000  1.0 0.1198812358
H  H86  1  0.53236000  0.82432000  0.53485000  1.0 0.1198812358
H  H87  1  0.17568000  0.70804000  0.53485000  1.0 0.1198812358
H  H88  1  0.70804000  0.53236000  0.03485000  1.0 0.1198812358
H  H89  1  0.46764000  0.17568000  0.03485000  1.0 0.1198812358
H  H90  1  0.82432000  0.29196000  0.03485000  1.0 0.1198812358
H  H91  1  0.35732000  0.17230000  0.53988000  1.0 0.1303683654
H  H92  1  0.82770000  0.18502000  0.53988000  1.0 0.1303683654
H  H93  1  0.81498000  0.64268000  0.53988000  1.0 0.1303683654
H  H94  1  0.64268000  0.82770000  0.03988000  1.0 0.1303683654
H  H95  1  0.17230000  0.81498000  0.03988000  1.0 0.1303683654
H  H96  1  0.18502000  0.35732000  0.03988000  1.0 0.1303683654
H  H97  1  0.47581000  0.08497000  0.60051000  1.0 0.1505527209
H  H98  1  0.91503000  0.39084000  0.60051000  1.0 0.1505527209
H  H99  1  0.60916000  0.52419000  0.60051000  1.0 0.1505527209
H  H100  1  0.52419000  0.91503000  0.10051000  1.0 0.1505527209
H  H101  1  0.08497000  0.60916000  0.10051000  1.0 0.1505527209
H  H102  1  0.39084000  0.47581000  0.10051000  1.0 0.1505527209
H  H103  1  0.19550000  0.37282000  0.19298000  1.0 0.1198812358
H  H104  1  0.62718000  0.82268000  0.19298000  1.0 0.1198812358
H  H105  1  0.17732000  0.80450000  0.19298000  1.0 0.1198812358
H  H106  1  0.80450000  0.62718000  0.69298000  1.0 0.1198812358
H  H107  1  0.37282000  0.17732000  0.69298000  1.0 0.1198812358
H  H108  1  0.82268000  0.19550000  0.69298000  1.0 0.1198812358
H  H109  1  0.52250000  0.58931000  0.17067000  1.0 0.1303683654
H  H110  1  0.41069000  0.93319000  0.17067000  1.0 0.1303683654
H  H111  1  0.06681000  0.47750000  0.17067000  1.0 0.1303683654
H  H112  1  0.47750000  0.41069000  0.67067000  1.0 0.1303683654
H  H113  1  0.58931000  0.06681000  0.67067000  1.0 0.1303683654
H  H114  1  0.93319000  0.52250000  0.67067000  1.0 0.1303683654
H  H115  1  0.25970000  0.28835000  0.35372000  1.0 0.1198812358
H  H116  1  0.71165000  0.97135000  0.35372000  1.0 0.1198812358
H  H117  1  0.02865000  0.74030000  0.35372000  1.0 0.1198812358
H  H118  1  0.74030000  0.71165000  0.85372000  1.0 0.1198812358
H  H119  1  0.28835000  0.02865000  0.85372000  1.0 0.1198812358
H  H120  1  0.97135000  0.25970000  0.85372000  1.0 0.1198812358
H  H121  1  0.32518000  0.41274000  0.34625000  1.0 0.1198812358
H  H122  1  0.58726000  0.91244000  0.34625000  1.0 0.1198812358
H  H123  1  0.08756000  0.67482000  0.34625000  1.0 0.1198812358
H  H124  1  0.67482000  0.58726000  0.84625000  1.0 0.1198812358
H  H125  1  0.41274000  0.08756000  0.84625000  1.0 0.1198812358
H  H126  1  0.91244000  0.32518000  0.84625000  1.0 0.1198812358
H  H127  1  0.46613000  0.06587000  0.51269000  1.0 0.1505527209
H  H128  1  0.93413000  0.40026000  0.51269000  1.0 0.1505527209
H  H129  1  0.59974000  0.53387000  0.51269000  1.0 0.1505527209
H  H130  1  0.53387000  0.93413000  0.01269000  1.0 0.1505527209
H  H131  1  0.06587000  0.59974000  0.01269000  1.0 0.1505527209
H  H132  1  0.40026000  0.46613000  0.01269000  1.0 0.1505527209
H  H133  1  0.27549000  0.47606000  0.66448000  1.0 0.1103145804
H  H134  1  0.52394000  0.79943000  0.66448000  1.0 0.1103145804
H  H135  1  0.20057000  0.72451000  0.66448000  1.0 0.1103145804
H  H136  1  0.72451000  0.52394000  0.16448000  1.0 0.1103145804
H  H137  1  0.47606000  0.20057000  0.16448000  1.0 0.1103145804
H  H138  1  0.79943000  0.27549000  0.16448000  1.0 0.1103145804
H  H139  1  0.17867000  0.49902000  0.65791000  1.0 0.1103145804
H  H140  1  0.50098000  0.67965000  0.65791000  1.0 0.1103145804
H  H141  1  0.32035000  0.82133000  0.65791000  1.0 0.1103145804
H  H142  1  0.82133000  0.50098000  0.15791000  1.0 0.1103145804
H  H143  1  0.49902000  0.32035000  0.15791000  1.0 0.1103145804
H  H144  1  0.67965000  0.17867000  0.15791000  1.0 0.1103145804
H  H145  1  0.16236000  0.81888000  0.75331000  1.0 0.1303683654
H  H146  1  0.18112000  0.34348000  0.75331000  1.0 0.1303683654
H  H147  1  0.65652000  0.83764000  0.75331000  1.0 0.1303683654
H  H148  1  0.83764000  0.18112000  0.25331000  1.0 0.1303683654
H  H149  1  0.81888000  0.65652000  0.25331000  1.0 0.1303683654
H  H150  1  0.34348000  0.16236000  0.25331000  1.0 0.1303683654
H  H151  1  0.18259000  0.21183000  0.29907000  1.0 0.1198812358
H  H152  1  0.78817000  0.97076000  0.29907000  1.0 0.1198812358
H  H153  1  0.02924000  0.81741000  0.29907000  1.0 0.1198812358
H  H154  1  0.81741000  0.78817000  0.79907000  1.0 0.1198812358
H  H155  1  0.21183000  0.02924000  0.79907000  1.0 0.1198812358
H  H156  1  0.97076000  0.18259000  0.79907000  1.0 0.1198812358
H  H157  1  0.62625000  0.50534000  0.23801000  1.0 0.1103145804
H  H158  1  0.49466000  0.12091000  0.23801000  1.0 0.1103145804
H  H159  1  0.87909000  0.37375000  0.23801000  1.0 0.1103145804
H  H160  1  0.37375000  0.49466000  0.73801000  1.0 0.1103145804
H  H161  1  0.50534000  0.87909000  0.73801000  1.0 0.1103145804
H  H162  1  0.12091000  0.62625000  0.73801000  1.0 0.1103145804
H  H163  1  0.36960000  0.93890000  0.79459000  1.0 0.1303683654
H  H164  1  0.06110000  0.43070000  0.79459000  1.0 0.1303683654
H  H165  1  0.56930000  0.63040000  0.79459000  1.0 0.1303683654
H  H166  1  0.63040000  0.06110000  0.29459000  1.0 0.1303683654
H  H167  1  0.93890000  0.56930000  0.29459000  1.0 0.1303683654
H  H168  1  0.43070000  0.36960000  0.29459000  1.0 0.1303683654
H  H169  1  0.49063000  0.15604000  0.45610000  1.0 0.1303683654
H  H170  1  0.84396000  0.33459000  0.45610000  1.0 0.1303683654
H  H171  1  0.66541000  0.50937000  0.45610000  1.0 0.1303683654
H  H172  1  0.50937000  0.84396000  0.95610000  1.0 0.1303683654
H  H173  1  0.15604000  0.66541000  0.95610000  1.0 0.1303683654
H  H174  1  0.33459000  0.49063000  0.95610000  1.0 0.1303683654
H  H175  1  0.19704000  0.22031000  0.46235000  1.0 0.1198812358
H  H176  1  0.77969000  0.97673000  0.46235000  1.0 0.1198812358
H  H177  1  0.02327000  0.80296000  0.46235000  1.0 0.1198812358
H  H178  1  0.80296000  0.77969000  0.96235000  1.0 0.1198812358
H  H179  1  0.22031000  0.02327000  0.96235000  1.0 0.1198812358
H  H180  1  0.97673000  0.19704000  0.96235000  1.0 0.1198812358
H  H181  1  0.60279000  0.54310000  0.17364000  1.0 0.1198812358
H  H182  1  0.45690000  0.05969000  0.17364000  1.0 0.1198812358
H  H183  1  0.94031000  0.39721000  0.17364000  1.0 0.1198812358
H  H184  1  0.39721000  0.45690000  0.67364000  1.0 0.1198812358
H  H185  1  0.54310000  0.94031000  0.67364000  1.0 0.1198812358
H  H186  1  0.05969000  0.60279000  0.67364000  1.0 0.1198812358
H  H187  1  0.95974000  0.27690000  0.46627000  1.0 0.1007948491
H  H188  1  0.72310000  0.68284000  0.46627000  1.0 0.1007948491
H  H189  1  0.31716000  0.04026000  0.46627000  1.0 0.1007948491
H  H190  1  0.04026000  0.72310000  0.96627000  1.0 0.1007948491
H  H191  1  0.27690000  0.31716000  0.96627000  1.0 0.1007948491
H  H192  1  0.68284000  0.95974000  0.96627000  1.0 0.1007948491
H  H193  1  0.06961000  0.38367000  0.46673000  1.0 0.1198812358
H  H194  1  0.61633000  0.68594000  0.46673000  1.0 0.1198812358
H  H195  1  0.31406000  0.93039000  0.46673000  1.0 0.1198812358
H  H196  1  0.93039000  0.61633000  0.96673000  1.0 0.1198812358
H  H197  1  0.38367000  0.31406000  0.96673000  1.0 0.1198812358
H  H198  1  0.68594000  0.06961000  0.96673000  1.0 0.1198812358
H  H199  1  0.19512000  0.88275000  0.68787000  1.0 0.1198812358
H  H200  1  0.11725000  0.31237000  0.68787000  1.0 0.1198812358
H  H201  1  0.68763000  0.80488000  0.68787000  1.0 0.1198812358
H  H202  1  0.80488000  0.11725000  0.18787000  1.0 0.1198812358
H  H203  1  0.88275000  0.68763000  0.18787000  1.0 0.1198812358
H  H204  1  0.31237000  0.19512000  0.18787000  1.0 0.1198812358
H  H205  1  0.16896000  0.26326000  0.23527000  1.0 0.1198812358
H  H206  1  0.73674000  0.90570000  0.23527000  1.0 0.1198812358
H  H207  1  0.09430000  0.83104000  0.23527000  1.0 0.1198812358
H  H208  1  0.83104000  0.73674000  0.73527000  1.0 0.1198812358
H  H209  1  0.26326000  0.09430000  0.73527000  1.0 0.1198812358
H  H210  1  0.90570000  0.16896000  0.73527000  1.0 0.1198812358
H  H211  1  0.43541000  0.01699000  0.66412000  1.0 0.1198812358
H  H212  1  0.98301000  0.41842000  0.66412000  1.0 0.1198812358
H  H213  1  0.58158000  0.56459000  0.66412000  1.0 0.1198812358
H  H214  1  0.56459000  0.98301000  0.16412000  1.0 0.1198812358
H  H215  1  0.01699000  0.58158000  0.16412000  1.0 0.1198812358
H  H216  1  0.41842000  0.43541000  0.16412000  1.0 0.1198812358
H  H217  1  0.40396000  0.99974000  0.72902000  1.0 0.1198812358
H  H218  1  0.00026000  0.40422000  0.72902000  1.0 0.1198812358
H  H219  1  0.59578000  0.59604000  0.72902000  1.0 0.1198812358
H  H220  1  0.59604000  0.00026000  0.22902000  1.0 0.1198812358
H  H221  1  0.99974000  0.59578000  0.22902000  1.0 0.1198812358
H  H222  1  0.40422000  0.40396000  0.22902000  1.0 0.1198812358
H  H223  1  0.23107000  0.97533000  0.64129000  1.0 0.1198812358
H  H224  1  0.02467000  0.25574000  0.64129000  1.0 0.1198812358
H  H225  1  0.74426000  0.76893000  0.64129000  1.0 0.1198812358
H  H226  1  0.76893000  0.02467000  0.14129000  1.0 0.1198812358
H  H227  1  0.97533000  0.74426000  0.14129000  1.0 0.1198812358
H  H228  1  0.25574000  0.23107000  0.14129000  1.0 0.1198812358
H  H229  1  0.27203000  0.04205000  0.57547000  1.0 0.1303683654
H  H230  1  0.95795000  0.22998000  0.57547000  1.0 0.1303683654
H  H231  1  0.77002000  0.72797000  0.57547000  1.0 0.1303683654
H  H232  1  0.72797000  0.95795000  0.07547000  1.0 0.1303683654
H  H233  1  0.04205000  0.77002000  0.07547000  1.0 0.1303683654
H  H234  1  0.22998000  0.27203000  0.07547000  1.0 0.1303683654
H  H235  1  0.95331000  0.15998000  0.46529000  1.0 0.1198812358
H  H236  1  0.84002000  0.79333000  0.46529000  1.0 0.1198812358
H  H237  1  0.20667000  0.04669000  0.46529000  1.0 0.1198812358
H  H238  1  0.04669000  0.84002000  0.96529000  1.0 0.1198812358
H  H239  1  0.15998000  0.20667000  0.96529000  1.0 0.1198812358
H  H240  1  0.79333000  0.95331000  0.96529000  1.0 0.1198812358
H  H241  1  0.06011000  0.15584000  0.46526000  1.0 0.1198812358
H  H242  1  0.84416000  0.90427000  0.46526000  1.0 0.1198812358
H  H243  1  0.09573000  0.93989000  0.46526000  1.0 0.1198812358
H  H244  1  0.93989000  0.84416000  0.96526000  1.0 0.1198812358
H  H245  1  0.15584000  0.09573000  0.96526000  1.0 0.1198812358
H  H246  1  0.90427000  0.06011000  0.96526000  1.0 0.1198812358
H  H247  1  0.21269000  0.72667000  0.80421000  1.0 0.1198812358
H  H248  1  0.27333000  0.48602000  0.80421000  1.0 0.1198812358
H  H249  1  0.51398000  0.78731000  0.80421000  1.0 0.1198812358
H  H250  1  0.78731000  0.27333000  0.30421000  1.0 0.1198812358
H  H251  1  0.72667000  0.51398000  0.30421000  1.0 0.1198812358
H  H252  1  0.48602000  0.21269000  0.30421000  1.0 0.1198812358
H  H253  1  0.21907000  0.70681000  0.88316000  1.0 0.1505527209
H  H254  1  0.29319000  0.51226000  0.88316000  1.0 0.1505527209
H  H255  1  0.48774000  0.78093000  0.88316000  1.0 0.1505527209
H  H256  1  0.78093000  0.29319000  0.38316000  1.0 0.1505527209
H  H257  1  0.70681000  0.48774000  0.38316000  1.0 0.1505527209
H  H258  1  0.51226000  0.21907000  0.38316000  1.0 0.1505527209
C  C1  1  0.17750000  0.50010000  0.59010000  1.0 0.0615608132
C  C2  1  0.49990000  0.67740000  0.59010000  1.0 0.0615608132
C  C3  1  0.32260000  0.82250000  0.59010000  1.0 0.0615608132
C  C4  1  0.82250000  0.49990000  0.09010000  1.0 0.0615608132
C  C5  1  0.50010000  0.32260000  0.09010000  1.0 0.0615608132
C  C6  1  0.67740000  0.17750000  0.09010000  1.0 0.0615608132
C  C7  1  0.54970000  0.47430000  0.39525000  1.0 0.5841120716
C  C8  1  0.52570000  0.07540000  0.39525000  1.0 0.5841120716
C  C9  1  0.92460000  0.45030000  0.39525000  1.0 0.5841120716
C  C10  1  0.45030000  0.52570000  0.89525000  1.0 0.5841120716
C  C11  1  0.47430000  0.92460000  0.89525000  1.0 0.5841120716
C  C12  1  0.07540000  0.54970000  0.89525000  1.0 0.5841120716
C  C13  1  0.20950000  0.48890000  0.55260000  1.0 0.0416505548
C  C14  1  0.51110000  0.72060000  0.55260000  1.0 0.0416505548
C  C15  1  0.27940000  0.79050000  0.55260000  1.0 0.0416505548
C  C16  1  0.79050000  0.51110000  0.05260000  1.0 0.0416505548
C  C17  1  0.48890000  0.27940000  0.05260000  1.0 0.0416505548
C  C18  1  0.72060000  0.20950000  0.05260000  1.0 0.0416505548
C  C19  1  0.31120000  0.52520000  0.24170000  1.0 0.2343266517
C  C20  1  0.47480000  0.78600000  0.24170000  1.0 0.2343266517
C  C21  1  0.21400000  0.68880000  0.24170000  1.0 0.2343266517
C  C22  1  0.68880000  0.47480000  0.74170000  1.0 0.2343266517
C  C23  1  0.52520000  0.21400000  0.74170000  1.0 0.2343266517
C  C24  1  0.78600000  0.31120000  0.74170000  1.0 0.2343266517
C  C25  1  0.09730000  0.52700000  0.54580000  1.0 -0.1480696964
C  C26  1  0.47300000  0.57030000  0.54580000  1.0 -0.1480696964
C  C27  1  0.42970000  0.90270000  0.54580000  1.0 -0.1480696964
C  C28  1  0.90270000  0.47300000  0.04580000  1.0 -0.1480696964
C  C29  1  0.52700000  0.42970000  0.04580000  1.0 -0.1480696964
C  C30  1  0.57030000  0.09730000  0.04580000  1.0 -0.1480696964
C  C31  1  0.52830000  0.49460000  0.35379000  1.0 -0.1680233369
C  C32  1  0.50540000  0.03370000  0.35379000  1.0 -0.1680233369
C  C33  1  0.96630000  0.47170000  0.35379000  1.0 -0.1680233369
C  C34  1  0.47170000  0.50540000  0.85379000  1.0 -0.1680233369
C  C35  1  0.49460000  0.96630000  0.85379000  1.0 -0.1680233369
C  C36  1  0.03370000  0.52830000  0.85379000  1.0 -0.1680233369
C  C37  1  0.32760000  0.49560000  0.27820000  1.0 -0.0221552441
C  C38  1  0.50440000  0.83200000  0.27820000  1.0 -0.0221552441
C  C39  1  0.16800000  0.67240000  0.27820000  1.0 -0.0221552441
C  C40  1  0.67240000  0.50440000  0.77820000  1.0 -0.0221552441
C  C41  1  0.49560000  0.16800000  0.77820000  1.0 -0.0221552441
C  C42  1  0.83200000  0.32760000  0.77820000  1.0 -0.0221552441
C  C43  1  0.18320000  0.49450000  0.51038000  1.0 -0.0221552441
C  C44  1  0.50550000  0.68870000  0.51038000  1.0 -0.0221552441
C  C45  1  0.31130000  0.81680000  0.51038000  1.0 -0.0221552441
C  C46  1  0.81680000  0.50550000  0.01038000  1.0 -0.0221552441
C  C47  1  0.49450000  0.31130000  0.01038000  1.0 -0.0221552441
C  C48  1  0.68870000  0.18320000  0.01038000  1.0 -0.0221552441
C  C49  1  0.17440000  0.75700000  0.87670000  1.0 -0.0221552441
C  C50  1  0.24300000  0.41740000  0.87670000  1.0 -0.0221552441
C  C51  1  0.58260000  0.82560000  0.87670000  1.0 -0.0221552441
C  C52  1  0.82560000  0.24300000  0.37670000  1.0 -0.0221552441
C  C53  1  0.75700000  0.58260000  0.37670000  1.0 -0.0221552441
C  C54  1  0.41740000  0.17440000  0.37670000  1.0 -0.0221552441
C  C55  1  0.17350000  0.76920000  0.83110000  1.0 -0.0274744393
C  C56  1  0.23080000  0.40430000  0.83110000  1.0 -0.0274744393
C  C57  1  0.59570000  0.82650000  0.83110000  1.0 -0.0274744393
C  C58  1  0.82650000  0.23080000  0.33110000  1.0 -0.0274744393
C  C59  1  0.76920000  0.59570000  0.33110000  1.0 -0.0274744393
C  C60  1  0.40430000  0.17350000  0.33110000  1.0 -0.0274744393
C  C61  1  0.28080000  0.86470000  0.85938000  1.0 -0.1082731174
C  C62  1  0.13530000  0.41610000  0.85938000  1.0 -0.1082731174
C  C63  1  0.58390000  0.71920000  0.85938000  1.0 -0.1082731174
C  C64  1  0.71920000  0.13530000  0.35938000  1.0 -0.1082731174
C  C65  1  0.86470000  0.58390000  0.35938000  1.0 -0.1082731174
C  C66  1  0.41610000  0.28080000  0.35938000  1.0 -0.1082731174
C  C67  1  0.28680000  0.41820000  0.28510000  1.0 0.0416505548
C  C68  1  0.58180000  0.86860000  0.28510000  1.0 0.0416505548
C  C69  1  0.13140000  0.71320000  0.28510000  1.0 0.0416505548
C  C70  1  0.71320000  0.58180000  0.78510000  1.0 0.0416505548
C  C71  1  0.41820000  0.13140000  0.78510000  1.0 0.0416505548
C  C72  1  0.86860000  0.28680000  0.78510000  1.0 0.0416505548
C  C73  1  0.13010000  0.51600000  0.50738000  1.0 0.2420710858
C  C74  1  0.48400000  0.61410000  0.50738000  1.0 0.2420710858
C  C75  1  0.38590000  0.86990000  0.50738000  1.0 0.2420710858
C  C76  1  0.86990000  0.48400000  0.00738000  1.0 0.2420710858
C  C77  1  0.51600000  0.38590000  0.00738000  1.0 0.2420710858
C  C78  1  0.61410000  0.13010000  0.00738000  1.0 0.2420710858
C  C79  1  0.03540000  0.54370000  0.54370000  1.0 0.5930322444
C  C80  1  0.45630000  0.49170000  0.54370000  1.0 0.5930322444
C  C81  1  0.50830000  0.96460000  0.54370000  1.0 0.5930322444
C  C82  1  0.96460000  0.45630000  0.04370000  1.0 0.5930322444
C  C83  1  0.54370000  0.50830000  0.04370000  1.0 0.5930322444
C  C84  1  0.49170000  0.03540000  0.04370000  1.0 0.5930322444
C  C85  1  0.26590000  0.32880000  0.45880000  1.0 -0.1480696964
C  C86  1  0.67120000  0.93710000  0.45880000  1.0 -0.1480696964
C  C87  1  0.06290000  0.73410000  0.45880000  1.0 -0.1480696964
C  C88  1  0.73410000  0.67120000  0.95880000  1.0 -0.1480696964
C  C89  1  0.32880000  0.06290000  0.95880000  1.0 -0.1480696964
C  C90  1  0.93710000  0.26590000  0.95880000  1.0 -0.1480696964
C  C91  1  0.38920000  0.54740000  0.30901000  1.0 -0.2489755193
C  C92  1  0.45260000  0.84180000  0.30901000  1.0 -0.2489755193
C  C93  1  0.15820000  0.61080000  0.30901000  1.0 -0.2489755193
C  C94  1  0.61080000  0.45260000  0.80901000  1.0 -0.2489755193
C  C95  1  0.54740000  0.15820000  0.80901000  1.0 -0.2489755193
C  C96  1  0.84180000  0.38920000  0.80901000  1.0 -0.2489755193
C  C97  1  0.47120000  0.51310000  0.35069000  1.0 0.2464062061
C  C98  1  0.48690000  0.95810000  0.35069000  1.0 0.2464062061
C  C99  1  0.04190000  0.52880000  0.35069000  1.0 0.2464062061
C  C100  1  0.52880000  0.48690000  0.85069000  1.0 0.2464062061
C  C101  1  0.51310000  0.04190000  0.85069000  1.0 0.2464062061
C  C102  1  0.95810000  0.47120000  0.85069000  1.0 0.2464062061
C  C103  1  0.33320000  0.32320000  0.45210000  1.0 0.6109375692
C  C104  1  0.67680000  0.01000000  0.45210000  1.0 0.6109375692
C  C105  1  0.99000000  0.66680000  0.45210000  1.0 0.6109375692
C  C106  1  0.66680000  0.67680000  0.95210000  1.0 0.6109375692
C  C107  1  0.32320000  0.99000000  0.95210000  1.0 0.6109375692
C  C108  1  0.01000000  0.33320000  0.95210000  1.0 0.6109375692
C  C109  1  0.20710000  0.40430000  0.46540000  1.0 -0.0274744393
C  C110  1  0.59570000  0.80280000  0.46540000  1.0 -0.0274744393
C  C111  1  0.19720000  0.79290000  0.46540000  1.0 -0.0274744393
C  C112  1  0.79290000  0.59570000  0.96540000  1.0 -0.0274744393
C  C113  1  0.40430000  0.19720000  0.96540000  1.0 -0.0274744393
C  C114  1  0.80280000  0.20710000  0.96540000  1.0 -0.0274744393
C  C115  1  0.48540000  0.56540000  0.23270000  1.0 -0.1312571878
C  C116  1  0.43460000  0.92000000  0.23270000  1.0 -0.1312571878
C  C117  1  0.08000000  0.51460000  0.23270000  1.0 -0.1312571878
C  C118  1  0.51460000  0.43460000  0.73270000  1.0 -0.1312571878
C  C119  1  0.56540000  0.08000000  0.73270000  1.0 -0.1312571878
C  C120  1  0.92000000  0.48540000  0.73270000  1.0 -0.1312571878
C  C121  1  0.12060000  0.51790000  0.58570000  1.0 -0.1480696964
C  C122  1  0.48210000  0.60270000  0.58570000  1.0 -0.1480696964
C  C123  1  0.39730000  0.87940000  0.58570000  1.0 -0.1480696964
C  C124  1  0.87940000  0.48210000  0.08570000  1.0 -0.1480696964
C  C125  1  0.51790000  0.39730000  0.08570000  1.0 -0.1480696964
C  C126  1  0.60270000  0.12060000  0.08570000  1.0 -0.1480696964
C  C127  1  0.26080000  0.47970000  0.20900000  1.0 -0.1480696964
C  C128  1  0.52030000  0.78110000  0.20900000  1.0 -0.1480696964
C  C129  1  0.21890000  0.73920000  0.20900000  1.0 -0.1480696964
C  C130  1  0.73920000  0.52030000  0.70900000  1.0 -0.1480696964
C  C131  1  0.47970000  0.21890000  0.70900000  1.0 -0.1480696964
C  C132  1  0.78110000  0.26080000  0.70900000  1.0 -0.1480696964
C  C133  1  0.30370000  0.94600000  0.70080000  1.0 0.0702234542
C  C134  1  0.05400000  0.35770000  0.70080000  1.0 0.0702234542
C  C135  1  0.64230000  0.69630000  0.70080000  1.0 0.0702234542
C  C136  1  0.69630000  0.05400000  0.20080000  1.0 0.0702234542
C  C137  1  0.94600000  0.64230000  0.20080000  1.0 0.0702234542
C  C138  1  0.35770000  0.30370000  0.20080000  1.0 0.0702234542
C  C139  1  0.21450000  0.48070000  0.46900000  1.0 -0.2489755193
C  C140  1  0.51930000  0.73380000  0.46900000  1.0 -0.2489755193
C  C141  1  0.26620000  0.78550000  0.46900000  1.0 -0.2489755193
C  C142  1  0.78550000  0.51930000  0.96900000  1.0 -0.2489755193
C  C143  1  0.48070000  0.26620000  0.96900000  1.0 -0.2489755193
C  C144  1  0.73380000  0.21450000  0.96900000  1.0 -0.2489755193
C  C145  1  0.27010000  0.39920000  0.45970000  1.0 0.2464062061
C  C146  1  0.60080000  0.87090000  0.45970000  1.0 0.2464062061
C  C147  1  0.12910000  0.72990000  0.45970000  1.0 0.2464062061
C  C148  1  0.72990000  0.60080000  0.95970000  1.0 0.2464062061
C  C149  1  0.39920000  0.12910000  0.95970000  1.0 0.2464062061
C  C150  1  0.87090000  0.27010000  0.95970000  1.0 0.2464062061
C  C151  1  0.55150000  0.51760000  0.27620000  1.0 0.0534311881
C  C152  1  0.48240000  0.03390000  0.27620000  1.0 0.0534311881
C  C153  1  0.96610000  0.44850000  0.27620000  1.0 0.0534311881
C  C154  1  0.44850000  0.48240000  0.77620000  1.0 0.0534311881
C  C155  1  0.51760000  0.96610000  0.77620000  1.0 0.0534311881
C  C156  1  0.03390000  0.55150000  0.77620000  1.0 0.0534311881
C  C157  1  0.24660000  0.50990000  0.16870000  1.0 0.6109375692
C  C158  1  0.49010000  0.73670000  0.16870000  1.0 0.6109375692
C  C159  1  0.26330000  0.75340000  0.16870000  1.0 0.6109375692
C  C160  1  0.75340000  0.49010000  0.66870000  1.0 0.6109375692
C  C161  1  0.50990000  0.26330000  0.66870000  1.0 0.6109375692
C  C162  1  0.73670000  0.24660000  0.66870000  1.0 0.6109375692
C  C163  1  0.49590000  0.53860000  0.27390000  1.0 0.0416505548
C  C164  1  0.46140000  0.95730000  0.27390000  1.0 0.0416505548
C  C165  1  0.04270000  0.50410000  0.27390000  1.0 0.0416505548
C  C166  1  0.50410000  0.46140000  0.77390000  1.0 0.0416505548
C  C167  1  0.53860000  0.04270000  0.77390000  1.0 0.0416505548
C  C168  1  0.95730000  0.49590000  0.77390000  1.0 0.0416505548
C  C169  1  0.26510000  0.87150000  0.78010000  1.0 0.1365905456
C  C170  1  0.12850000  0.39360000  0.78010000  1.0 0.1365905456
C  C171  1  0.60640000  0.73490000  0.78010000  1.0 0.1365905456
C  C172  1  0.73490000  0.12850000  0.28010000  1.0 0.1365905456
C  C173  1  0.87150000  0.60640000  0.28010000  1.0 0.1365905456
C  C174  1  0.39360000  0.26510000  0.28010000  1.0 0.1365905456
C  C175  1  0.32710000  0.98750000  0.65890000  1.0 0.0702234542
C  C176  1  0.01250000  0.33960000  0.65890000  1.0 0.0702234542
C  C177  1  0.66040000  0.67290000  0.65890000  1.0 0.0702234542
C  C178  1  0.67290000  0.01250000  0.15890000  1.0 0.0702234542
C  C179  1  0.98750000  0.66040000  0.15890000  1.0 0.0702234542
C  C180  1  0.33960000  0.32710000  0.15890000  1.0 0.0702234542
C  C181  1  0.56650000  0.49590000  0.31590000  1.0 -0.1874814594
C  C182  1  0.50410000  0.07060000  0.31590000  1.0 -0.1874814594
C  C183  1  0.92940000  0.43350000  0.31590000  1.0 -0.1874814594
C  C184  1  0.43350000  0.50410000  0.81590000  1.0 -0.1874814594
C  C185  1  0.49590000  0.92940000  0.81590000  1.0 -0.1874814594
C  C186  1  0.07060000  0.56650000  0.81590000  1.0 -0.1874814594
C  C187  1  0.29140000  0.46980000  0.59990000  1.0 -0.089499062
C  C188  1  0.53020000  0.82160000  0.59990000  1.0 -0.089499062
C  C189  1  0.17840000  0.70860000  0.59990000  1.0 -0.089499062
C  C190  1  0.70860000  0.53020000  0.09990000  1.0 -0.089499062
C  C191  1  0.46980000  0.17840000  0.09990000  1.0 -0.089499062
C  C192  1  0.82160000  0.29140000  0.09990000  1.0 -0.089499062
C  C193  1  0.45350000  0.53280000  0.31105000  1.0 -0.0221552441
C  C194  1  0.46720000  0.92070000  0.31105000  1.0 -0.0221552441
C  C195  1  0.07930000  0.54650000  0.31105000  1.0 -0.0221552441
C  C196  1  0.54650000  0.46720000  0.81105000  1.0 -0.0221552441
C  C197  1  0.53280000  0.07930000  0.81105000  1.0 -0.0221552441
C  C198  1  0.92070000  0.45350000  0.81105000  1.0 -0.0221552441
C  C199  1  0.37580000  0.06530000  0.58170000  1.0 0.1505527209
C  C200  1  0.93470000  0.31050000  0.58170000  1.0 0.1505527209
C  C201  1  0.68950000  0.62420000  0.58170000  1.0 0.1505527209
C  C202  1  0.62420000  0.93470000  0.08170000  1.0 0.1505527209
C  C203  1  0.06530000  0.68950000  0.08170000  1.0 0.1505527209
C  C204  1  0.31050000  0.37580000  0.08170000  1.0 0.1505527209
C  C205  1  0.26870000  0.47420000  0.55890000  1.0 -0.1199515542
C  C206  1  0.52580000  0.79450000  0.55890000  1.0 -0.1199515542
C  C207  1  0.20550000  0.73130000  0.55890000  1.0 -0.1199515542
C  C208  1  0.73130000  0.52580000  0.05890000  1.0 -0.1199515542
C  C209  1  0.47420000  0.20550000  0.05890000  1.0 -0.1199515542
C  C210  1  0.79450000  0.26870000  0.05890000  1.0 -0.1199515542
C  C211  1  0.38740000  0.15750000  0.52600000  1.0 0.1103145804
C  C212  1  0.84250000  0.22990000  0.52600000  1.0 0.1103145804
C  C213  1  0.77010000  0.61260000  0.52600000  1.0 0.1103145804
C  C214  1  0.61260000  0.84250000  0.02600000  1.0 0.1103145804
C  C215  1  0.15750000  0.77010000  0.02600000  1.0 0.1103145804
C  C216  1  0.22990000  0.38740000  0.02600000  1.0 0.1103145804
C  C217  1  0.42600000  0.06130000  0.60810000  1.0 -0.1384447287
C  C218  1  0.93870000  0.36470000  0.60810000  1.0 -0.1384447287
C  C219  1  0.63530000  0.57400000  0.60810000  1.0 -0.1384447287
C  C220  1  0.57400000  0.93870000  0.10810000  1.0 -0.1384447287
C  C221  1  0.06130000  0.63530000  0.10810000  1.0 -0.1384447287
C  C222  1  0.36470000  0.42600000  0.10810000  1.0 -0.1384447287
C  C223  1  0.22680000  0.40360000  0.21480000  1.0 -0.1480696964
C  C224  1  0.59640000  0.82320000  0.21480000  1.0 -0.1480696964
C  C225  1  0.17680000  0.77320000  0.21480000  1.0 -0.1480696964
C  C226  1  0.77320000  0.59640000  0.71480000  1.0 -0.1480696964
C  C227  1  0.40360000  0.17680000  0.71480000  1.0 -0.1480696964
C  C228  1  0.82320000  0.22680000  0.71480000  1.0 -0.1480696964
C  C229  1  0.23750000  0.37180000  0.25150000  1.0 0.0534311881
C  C230  1  0.62820000  0.86570000  0.25150000  1.0 0.0534311881
C  C231  1  0.13430000  0.76250000  0.25150000  1.0 0.0534311881
C  C232  1  0.76250000  0.62820000  0.75150000  1.0 0.0534311881
C  C233  1  0.37180000  0.13430000  0.75150000  1.0 0.0534311881
C  C234  1  0.86570000  0.23750000  0.75150000  1.0 0.0534311881
C  C235  1  0.52780000  0.56930000  0.19660000  1.0 -0.0693731272
C  C236  1  0.43070000  0.95850000  0.19660000  1.0 -0.0693731272
C  C237  1  0.04150000  0.47220000  0.19660000  1.0 -0.0693731272
C  C238  1  0.47220000  0.43070000  0.69660000  1.0 -0.0693731272
C  C239  1  0.56930000  0.04150000  0.69660000  1.0 -0.0693731272
C  C240  1  0.95850000  0.52780000  0.69660000  1.0 -0.0693731272
C  C241  1  0.25500000  0.30950000  0.32810000  1.0 -0.089499062
C  C242  1  0.69050000  0.94550000  0.32810000  1.0 -0.089499062
C  C243  1  0.05450000  0.74500000  0.32810000  1.0 -0.089499062
C  C244  1  0.74500000  0.69050000  0.82810000  1.0 -0.089499062
C  C245  1  0.30950000  0.05450000  0.82810000  1.0 -0.089499062
C  C246  1  0.94550000  0.25500000  0.82810000  1.0 -0.089499062
C  C247  1  0.29380000  0.38380000  0.32390000  1.0 -0.1312571878
C  C248  1  0.61620000  0.91000000  0.32390000  1.0 -0.1312571878
C  C249  1  0.09000000  0.70620000  0.32390000  1.0 -0.1312571878
C  C250  1  0.70620000  0.61620000  0.82390000  1.0 -0.1312571878
C  C251  1  0.38380000  0.09000000  0.82390000  1.0 -0.1312571878
C  C252  1  0.91000000  0.29380000  0.82390000  1.0 -0.1312571878
C  C253  1  0.44780000  0.09830000  0.51140000  1.0 -0.089499062
C  C254  1  0.90170000  0.34950000  0.51140000  1.0 -0.089499062
C  C255  1  0.65050000  0.55220000  0.51140000  1.0 -0.089499062
C  C256  1  0.55220000  0.90170000  0.01140000  1.0 -0.089499062
C  C257  1  0.09830000  0.65050000  0.01140000  1.0 -0.089499062
C  C258  1  0.34950000  0.44780000  0.01140000  1.0 -0.089499062
C  C259  1  0.25860000  0.47940000  0.63700000  1.0 -0.1046625415
C  C260  1  0.52060000  0.77920000  0.63700000  1.0 -0.1046625415
C  C261  1  0.22080000  0.74140000  0.63700000  1.0 -0.1046625415
C  C262  1  0.74140000  0.52060000  0.13700000  1.0 -0.1046625415
C  C263  1  0.47940000  0.22080000  0.13700000  1.0 -0.1046625415
C  C264  1  0.77920000  0.25860000  0.13700000  1.0 -0.1046625415
C  C265  1  0.20140000  0.49360000  0.63320000  1.0 -0.1480696964
C  C266  1  0.50640000  0.70780000  0.63320000  1.0 -0.1480696964
C  C267  1  0.29220000  0.79860000  0.63320000  1.0 -0.1480696964
C  C268  1  0.79860000  0.50640000  0.13320000  1.0 -0.1480696964
C  C269  1  0.49360000  0.29220000  0.13320000  1.0 -0.1480696964
C  C270  1  0.70780000  0.20140000  0.13320000  1.0 -0.1480696964
C  C271  1  0.21120000  0.85510000  0.74820000  1.0 -0.1798487617
C  C272  1  0.14490000  0.35610000  0.74820000  1.0 -0.1798487617
C  C273  1  0.64390000  0.78880000  0.74820000  1.0 -0.1798487617
C  C274  1  0.78880000  0.14490000  0.24820000  1.0 -0.1798487617
C  C275  1  0.85510000  0.64390000  0.24820000  1.0 -0.1798487617
C  C276  1  0.35610000  0.21120000  0.24820000  1.0 -0.1798487617
C  C277  1  0.20790000  0.26290000  0.29530000  1.0 -0.1082731174
C  C278  1  0.73710000  0.94500000  0.29530000  1.0 -0.1082731174
C  C279  1  0.05500000  0.79210000  0.29530000  1.0 -0.1082731174
C  C280  1  0.79210000  0.73710000  0.79530000  1.0 -0.1082731174
C  C281  1  0.26290000  0.05500000  0.79530000  1.0 -0.1082731174
C  C282  1  0.94500000  0.20790000  0.79530000  1.0 -0.1082731174
C  C283  1  0.59110000  0.52020000  0.23690000  1.0 -0.1680233369
C  C284  1  0.47980000  0.07090000  0.23690000  1.0 -0.1680233369
C  C285  1  0.92910000  0.40890000  0.23690000  1.0 -0.1680233369
C  C286  1  0.40890000  0.47980000  0.73690000  1.0 -0.1680233369
C  C287  1  0.52020000  0.92910000  0.73690000  1.0 -0.1680233369
C  C288  1  0.07090000  0.59110000  0.73690000  1.0 -0.1680233369
C  C289  1  0.13690000  0.33820000  0.46620000  1.0 0.0534311881
C  C290  1  0.66180000  0.79870000  0.46620000  1.0 0.0534311881
C  C291  1  0.20130000  0.86310000  0.46620000  1.0 0.0534311881
C  C292  1  0.86310000  0.66180000  0.96620000  1.0 0.0534311881
C  C293  1  0.33820000  0.20130000  0.96620000  1.0 0.0534311881
C  C294  1  0.79870000  0.13690000  0.96620000  1.0 0.0534311881
C  C295  1  0.33440000  0.92590000  0.77270000  1.0 -0.1384447287
C  C296  1  0.07410000  0.40850000  0.77270000  1.0 -0.1384447287
C  C297  1  0.59150000  0.66560000  0.77270000  1.0 -0.1384447287
C  C298  1  0.66560000  0.07410000  0.27270000  1.0 -0.1384447287
C  C299  1  0.92590000  0.59150000  0.27270000  1.0 -0.1384447287
C  C300  1  0.40850000  0.33440000  0.27270000  1.0 -0.1384447287
C  C301  1  0.46030000  0.14750000  0.48020000  1.0 -0.056299722
C  C302  1  0.85250000  0.31280000  0.48020000  1.0 -0.056299722
C  C303  1  0.68720000  0.53970000  0.48020000  1.0 -0.056299722
C  C304  1  0.53970000  0.85250000  0.98020000  1.0 -0.056299722
C  C305  1  0.14750000  0.68720000  0.98020000  1.0 -0.056299722
C  C306  1  0.31280000  0.46030000  0.98020000  1.0 -0.056299722
C  C307  1  0.19910000  0.26580000  0.46210000  1.0 -0.1384447287
C  C308  1  0.73420000  0.93330000  0.46210000  1.0 -0.1384447287
C  C309  1  0.06670000  0.80090000  0.46210000  1.0 -0.1384447287
C  C310  1  0.80090000  0.73420000  0.96210000  1.0 -0.1384447287
C  C311  1  0.26580000  0.06670000  0.96210000  1.0 -0.1384447287
C  C312  1  0.93330000  0.19910000  0.96210000  1.0 -0.1384447287
C  C313  1  0.57810000  0.54380000  0.19870000  1.0 -0.089499062
C  C314  1  0.45620000  0.03430000  0.19870000  1.0 -0.089499062
C  C315  1  0.96570000  0.42190000  0.19870000  1.0 -0.089499062
C  C316  1  0.42190000  0.45620000  0.69870000  1.0 -0.089499062
C  C317  1  0.54380000  0.96570000  0.69870000  1.0 -0.089499062
C  C318  1  0.03430000  0.57810000  0.69870000  1.0 -0.089499062
C  C319  1  0.00320000  0.27490000  0.46610000  1.0 -0.089499062
C  C320  1  0.72510000  0.72830000  0.46610000  1.0 -0.089499062
C  C321  1  0.27170000  0.99680000  0.46610000  1.0 -0.089499062
C  C322  1  0.99680000  0.72510000  0.96610000  1.0 -0.089499062
C  C323  1  0.27490000  0.27170000  0.96610000  1.0 -0.089499062
C  C324  1  0.72830000  0.00320000  0.96610000  1.0 -0.089499062
C  C325  1  0.06880000  0.33880000  0.46640000  1.0 -0.1312571878
C  C326  1  0.66120000  0.73000000  0.46640000  1.0 -0.1312571878
C  C327  1  0.27000000  0.93120000  0.46640000  1.0 -0.1312571878
C  C328  1  0.93120000  0.66120000  0.96640000  1.0 -0.1312571878
C  C329  1  0.33880000  0.27000000  0.96640000  1.0 -0.1312571878
C  C330  1  0.73000000  0.06880000  0.96640000  1.0 -0.1312571878
C  C331  1  0.23100000  0.89300000  0.70890000  1.0 -0.1312571878
C  C332  1  0.10700000  0.33800000  0.70890000  1.0 -0.1312571878
C  C333  1  0.66200000  0.76900000  0.70890000  1.0 -0.1312571878
C  C334  1  0.76900000  0.10700000  0.20890000  1.0 -0.1312571878
C  C335  1  0.89300000  0.66200000  0.20890000  1.0 -0.1312571878
C  C336  1  0.33800000  0.23100000  0.20890000  1.0 -0.1312571878
C  C337  1  0.13280000  0.26800000  0.46500000  1.0 0.0534311881
C  C338  1  0.73200000  0.86480000  0.46500000  1.0 0.0534311881
C  C339  1  0.13520000  0.86720000  0.46500000  1.0 0.0534311881
C  C340  1  0.86720000  0.73200000  0.96500000  1.0 0.0534311881
C  C341  1  0.26800000  0.13520000  0.96500000  1.0 0.0534311881
C  C342  1  0.86480000  0.13280000  0.96500000  1.0 0.0534311881
C  C343  1  0.19960000  0.29380000  0.25730000  1.0 -0.1480696964
C  C344  1  0.70620000  0.90580000  0.25730000  1.0 -0.1480696964
C  C345  1  0.09420000  0.80040000  0.25730000  1.0 -0.1480696964
C  C346  1  0.80040000  0.70620000  0.75730000  1.0 -0.1480696964
C  C347  1  0.29380000  0.09420000  0.75730000  1.0 -0.1480696964
C  C348  1  0.90580000  0.19960000  0.75730000  1.0 -0.1480696964
C  C349  1  0.40180000  0.02150000  0.64630000  1.0 -0.1199515542
C  C350  1  0.97850000  0.38030000  0.64630000  1.0 -0.1199515542
C  C351  1  0.61970000  0.59820000  0.64630000  1.0 -0.1199515542
C  C352  1  0.59820000  0.97850000  0.14630000  1.0 -0.1199515542
C  C353  1  0.02150000  0.61970000  0.14630000  1.0 -0.1199515542
C  C354  1  0.38030000  0.40180000  0.14630000  1.0 -0.1199515542
C  C355  1  0.35510000  0.96300000  0.73350000  1.0 -0.1082731174
C  C356  1  0.03700000  0.39210000  0.73350000  1.0 -0.1082731174
C  C357  1  0.60790000  0.64490000  0.73350000  1.0 -0.1082731174
C  C358  1  0.64490000  0.03700000  0.23350000  1.0 -0.1082731174
C  C359  1  0.96300000  0.60790000  0.23350000  1.0 -0.1082731174
C  C360  1  0.39210000  0.35510000  0.23350000  1.0 -0.1082731174
C  C361  1  0.28040000  0.99600000  0.63310000  1.0 -0.1199515542
C  C362  1  0.00400000  0.28440000  0.63310000  1.0 -0.1199515542
C  C363  1  0.71560000  0.71960000  0.63310000  1.0 -0.1199515542
C  C364  1  0.71960000  0.00400000  0.13310000  1.0 -0.1199515542
C  C365  1  0.99600000  0.71560000  0.13310000  1.0 -0.1199515542
C  C366  1  0.28440000  0.28040000  0.13310000  1.0 -0.1199515542
C  C367  1  0.30490000  0.03620000  0.59320000  1.0 -0.163935243
C  C368  1  0.96380000  0.26870000  0.59320000  1.0 -0.163935243
C  C369  1  0.73130000  0.69510000  0.59320000  1.0 -0.163935243
C  C370  1  0.69510000  0.96380000  0.09320000  1.0 -0.163935243
C  C371  1  0.03620000  0.73130000  0.09320000  1.0 -0.163935243
C  C372  1  0.26870000  0.30490000  0.09320000  1.0 -0.163935243
C  C373  1  0.99890000  0.20340000  0.46550000  1.0 -0.1082731174
C  C374  1  0.79660000  0.79550000  0.46550000  1.0 -0.1082731174
C  C375  1  0.20450000  0.00110000  0.46550000  1.0 -0.1082731174
C  C376  1  0.00110000  0.79660000  0.96550000  1.0 -0.1082731174
C  C377  1  0.20340000  0.20450000  0.96550000  1.0 -0.1082731174
C  C378  1  0.79550000  0.99890000  0.96550000  1.0 -0.1082731174
C  C379  1  0.06210000  0.20130000  0.46530000  1.0 -0.1384447287
C  C380  1  0.79870000  0.86080000  0.46530000  1.0 -0.1384447287
C  C381  1  0.13920000  0.93790000  0.46530000  1.0 -0.1384447287
C  C382  1  0.93790000  0.79870000  0.96530000  1.0 -0.1384447287
C  C383  1  0.20130000  0.13920000  0.96530000  1.0 -0.1384447287
C  C384  1  0.86080000  0.06210000  0.96530000  1.0 -0.1384447287
C  C385  1  0.22310000  0.76130000  0.82620000  1.0 -0.056299722
C  C386  1  0.23870000  0.46180000  0.82620000  1.0 -0.056299722
C  C387  1  0.53820000  0.77690000  0.82620000  1.0 -0.056299722
C  C388  1  0.77690000  0.23870000  0.32620000  1.0 -0.056299722
C  C389  1  0.76130000  0.53820000  0.32620000  1.0 -0.056299722
C  C390  1  0.46180000  0.22310000  0.32620000  1.0 -0.056299722
C  C391  1  0.22580000  0.75020000  0.87050000  1.0 -0.0274744393
C  C392  1  0.24980000  0.47560000  0.87050000  1.0 -0.0274744393
C  C393  1  0.52440000  0.77420000  0.87050000  1.0 -0.0274744393
C  C394  1  0.77420000  0.24980000  0.37050000  1.0 -0.0274744393
C  C395  1  0.75020000  0.52440000  0.37050000  1.0 -0.0274744393
C  C396  1  0.47560000  0.22580000  0.37050000  1.0 -0.0274744393
N  N1  1  0.42150000  0.18410000  0.48863000  1.0 -0.2941015327
N  N2  1  0.81590000  0.23740000  0.48863000  1.0 -0.2941015327
N  N3  1  0.76260000  0.57850000  0.48863000  1.0 -0.2941015327
N  N4  1  0.57850000  0.81590000  0.98863000  1.0 -0.2941015327
N  N5  1  0.18410000  0.76260000  0.98863000  1.0 -0.2941015327
N  N6  1  0.23740000  0.42150000  0.98863000  1.0 -0.2941015327
N  N7  1  0.40230000  0.10500000  0.54159000  1.0 0.0141141228
N  N8  1  0.89500000  0.29730000  0.54159000  1.0 0.0141141228
N  N9  1  0.70270000  0.59770000  0.54159000  1.0 0.0141141228
N  N10  1  0.59770000  0.89500000  0.04159000  1.0 0.0141141228
N  N11  1  0.10500000  0.70270000  0.04159000  1.0 0.0141141228
N  N12  1  0.29730000  0.40230000  0.04159000  1.0 0.0141141228
N  N13  1  0.24070000  0.81600000  0.89412000  1.0 -0.23736785
N  N14  1  0.18400000  0.42470000  0.89412000  1.0 -0.23736785
N  N15  1  0.57530000  0.75930000  0.89412000  1.0 -0.23736785
N  N16  1  0.75930000  0.18400000  0.39412000  1.0 -0.23736785
N  N17  1  0.81600000  0.57530000  0.39412000  1.0 -0.23736785
N  N18  1  0.42470000  0.24070000  0.39412000  1.0 -0.23736785
N  N19  1  0.23920000  0.83580000  0.82046000  1.0 0.0241035035
N  N20  1  0.16420000  0.40340000  0.82046000  1.0 0.0241035035
N  N21  1  0.59660000  0.76080000  0.82046000  1.0 0.0241035035
N  N22  1  0.76080000  0.16420000  0.32046000  1.0 0.0241035035
N  N23  1  0.83580000  0.59660000  0.32046000  1.0 0.0241035035
N  N24  1  0.40340000  0.23920000  0.32046000  1.0 0.0241035035
N  N25  1  0.51210000  0.35770000  0.48150000  1.0 -0.7652330363
N  N26  1  0.64230000  0.15440000  0.48150000  1.0 -0.7652330363
N  N27  1  0.84560000  0.48790000  0.48150000  1.0 -0.7652330363
N  N28  1  0.48790000  0.64230000  0.98150000  1.0 -0.7652330363
N  N29  1  0.35770000  0.84560000  0.98150000  1.0 -0.7652330363
N  N30  1  0.15440000  0.51210000  0.98150000  1.0 -0.7652330363
O  O1  1  0.52740000  0.48910000  0.43171000  1.0 -0.6431138877
O  O2  1  0.51090000  0.03830000  0.43171000  1.0 -0.6431138877
O  O3  1  0.96170000  0.47260000  0.43171000  1.0 -0.6431138877
O  O4  1  0.47260000  0.51090000  0.93171000  1.0 -0.6431138877
O  O5  1  0.48910000  0.96170000  0.93171000  1.0 -0.6431138877
O  O6  1  0.03830000  0.52740000  0.93171000  1.0 -0.6431138877
O  O7  1  0.39030000  0.37590000  0.43557000  1.0 -0.5902765358
O  O8  1  0.62410000  0.01440000  0.43557000  1.0 -0.5902765358
O  O9  1  0.98560000  0.60970000  0.43557000  1.0 -0.5902765358
O  O10  1  0.60970000  0.62410000  0.93557000  1.0 -0.5902765358
O  O11  1  0.37590000  0.98560000  0.93557000  1.0 -0.5902765358
O  O12  1  0.01440000  0.39030000  0.93557000  1.0 -0.5902765358
O  O13  1  0.43260000  0.50940000  0.38702000  1.0 -0.6319774949
O  O14  1  0.49060000  0.92320000  0.38702000  1.0 -0.6319774949
O  O15  1  0.07680000  0.56740000  0.38702000  1.0 -0.6319774949
O  O16  1  0.56740000  0.49060000  0.88702000  1.0 -0.6319774949
O  O17  1  0.50940000  0.07680000  0.88702000  1.0 -0.6319774949
O  O18  1  0.92320000  0.43260000  0.88702000  1.0 -0.6319774949
O  O19  1  0.27580000  0.58060000  0.16376000  1.0 -0.6014788314
O  O20  1  0.41940000  0.69520000  0.16376000  1.0 -0.6014788314
O  O21  1  0.30480000  0.72420000  0.16376000  1.0 -0.6014788314
O  O22  1  0.72420000  0.41940000  0.66376000  1.0 -0.6014788314
O  O23  1  0.58060000  0.30480000  0.66376000  1.0 -0.6014788314
O  O24  1  0.69520000  0.27580000  0.66376000  1.0 -0.6014788314
O  O25  1  0.01120000  0.54900000  0.50671000  1.0 -0.6198977048
O  O26  1  0.45100000  0.46220000  0.50671000  1.0 -0.6198977048
O  O27  1  0.53780000  0.98880000  0.50671000  1.0 -0.6198977048
O  O28  1  0.98880000  0.45100000  0.00671000  1.0 -0.6198977048
O  O29  1  0.54900000  0.53780000  0.00671000  1.0 -0.6198977048
O  O30  1  0.46220000  0.01120000  0.00671000  1.0 -0.6198977048
O  O31  1  0.34790000  0.59960000  0.23682000  1.0 -0.6014788314
O  O32  1  0.40040000  0.74830000  0.23682000  1.0 -0.6014788314
O  O33  1  0.25170000  0.65210000  0.23682000  1.0 -0.6014788314
O  O34  1  0.65210000  0.40040000  0.73682000  1.0 -0.6014788314
O  O35  1  0.59960000  0.25170000  0.73682000  1.0 -0.6014788314
O  O36  1  0.74830000  0.34790000  0.73682000  1.0 -0.6014788314
O  O37  1  0.10880000  0.52480000  0.46749000  1.0 -0.6109389628
O  O38  1  0.47520000  0.58400000  0.46749000  1.0 -0.6109389628
O  O39  1  0.41600000  0.89120000  0.46749000  1.0 -0.6109389628
O  O40  1  0.89120000  0.47520000  0.96749000  1.0 -0.6109389628
O  O41  1  0.52480000  0.41600000  0.96749000  1.0 -0.6109389628
O  O42  1  0.58400000  0.10880000  0.96749000  1.0 -0.6109389628
O  O43  1  0.33670000  0.46170000  0.45762000  1.0 -0.6198977048
O  O44  1  0.53830000  0.87500000  0.45762000  1.0 -0.6198977048
O  O45  1  0.12500000  0.66330000  0.45762000  1.0 -0.6198977048
O  O46  1  0.66330000  0.53830000  0.95762000  1.0 -0.6198977048
O  O47  1  0.46170000  0.12500000  0.95762000  1.0 -0.6198977048
O  O48  1  0.87500000  0.33670000  0.95762000  1.0 -0.6198977048
O  O49  1  0.00820000  0.54870000  0.57885000  1.0 -0.5194478596
O  O50  1  0.45130000  0.45950000  0.57885000  1.0 -0.5194478596
O  O51  1  0.54050000  0.99180000  0.57885000  1.0 -0.5194478596
O  O52  1  0.99180000  0.45130000  0.07885000  1.0 -0.5194478596
O  O53  1  0.54870000  0.54050000  0.07885000  1.0 -0.5194478596
O  O54  1  0.45950000  0.00820000  0.07885000  1.0 -0.5194478596
O  O55  1  0.58830000  0.44500000  0.39526000  1.0 -0.5194478596
O  O56  1  0.55500000  0.14330000  0.39526000  1.0 -0.5194478596
O  O57  1  0.85670000  0.41170000  0.39526000  1.0 -0.5194478596
O  O58  1  0.41170000  0.55500000  0.89526000  1.0 -0.5194478596
O  O59  1  0.44500000  0.85670000  0.89526000  1.0 -0.5194478596
O  O60  1  0.14330000  0.58830000  0.89526000  1.0 -0.5194478596
O  O61  1  0.33070000  0.26280000  0.46185000  1.0 -0.5103384221
O  O62  1  0.73720000  0.06790000  0.46185000  1.0 -0.5103384221
O  O63  1  0.93210000  0.66930000  0.46185000  1.0 -0.5103384221
O  O64  1  0.66930000  0.73720000  0.96185000  1.0 -0.5103384221
O  O65  1  0.26280000  0.93210000  0.96185000  1.0 -0.5103384221
O  O66  1  0.06790000  0.33070000  0.96185000  1.0 -0.5103384221
O  O67  1  0.20640000  0.46670000  0.13965000  1.0 -0.5368073348
O  O68  1  0.53330000  0.73970000  0.13965000  1.0 -0.5368073348
O  O69  1  0.26030000  0.79360000  0.13965000  1.0 -0.5368073348
O  O70  1  0.79360000  0.53330000  0.63965000  1.0 -0.5368073348
O  O71  1  0.46670000  0.26030000  0.63965000  1.0 -0.5368073348
O  O72  1  0.73970000  0.20640000  0.63965000  1.0 -0.5368073348
