# DDEC6 charges by PACMAN v1.1 (https://github.com/mtap-research/PACMAN-charge/)
data_UDOMAF_FSR_pacman
_symmetry_space_group_name_H-M   'P 1'
_cell_length_a   20.96180000
_cell_length_b   20.96180000
_cell_length_c   30.63600000
_cell_angle_alpha   90.00000000
_cell_angle_beta   90.00000000
_cell_angle_gamma   120.00000000
_symmetry_Int_Tables_number   1
_chemical_formula_structural   Ti4Zn4H183C222N19O42
_chemical_formula_sum   'Ti8 Zn8 H366 C444 N38 O84'
_cell_volume   11657.88692345
_cell_formula_units_Z   2
loop_
 _symmetry_equiv_pos_site_id
 _symmetry_equiv_pos_as_xyz
  1  'x, y, z'
loop_
 _atom_site_type_symbol
 _atom_site_label
 _atom_site_symmetry_multiplicity
 _atom_site_fract_x
 _atom_site_fract_y
 _atom_site_fract_z
 _atom_site_occupancy
 _atom_site_charge
Ti  Ti1  1  0.43462000  0.48939000  0.44810000  1.0 1.9087439384
Ti  Ti2  1  0.51061000  0.94523000  0.44810000  1.0 1.9087439384
Ti  Ti3  1  0.05477000  0.56538000  0.44810000  1.0 1.9087439384
Ti  Ti4  1  0.56538000  0.51061000  0.94810000  1.0 1.9087439384
Ti  Ti5  1  0.48939000  0.05477000  0.94810000  1.0 1.9087439384
Ti  Ti6  1  0.94523000  0.43462000  0.94810000  1.0 1.9087439384
Ti  Ti7  1  0.33333333  0.66666667  0.20608000  1.0 1.9087439384
Ti  Ti8  1  0.66666667  0.33333333  0.70608000  1.0 1.9087439384
Zn  Zn1  1  0.66666667  0.33333333  0.54995000  1.0 0.7469240185
Zn  Zn2  1  0.33333333  0.66666667  0.04995000  1.0 0.7469240185
Zn  Zn3  1  0.42991000  0.27097000  0.45621000  1.0 0.7469240185
Zn  Zn4  1  0.72903000  0.15894000  0.45621000  1.0 0.7469240185
Zn  Zn5  1  0.84106000  0.57009000  0.45621000  1.0 0.7469240185
Zn  Zn6  1  0.57009000  0.72903000  0.95621000  1.0 0.7469240185
Zn  Zn7  1  0.27097000  0.84106000  0.95621000  1.0 0.7469240185
Zn  Zn8  1  0.15894000  0.42991000  0.95621000  1.0 0.7469240185
H  H1  1  0.53958000  0.23509000  0.55438000  1.0 0.2700765387
H  H2  1  0.76491000  0.30449000  0.55438000  1.0 0.2700765387
H  H3  1  0.69551000  0.46042000  0.55438000  1.0 0.2700765387
H  H4  1  0.46042000  0.76491000  0.05438000  1.0 0.2700765387
H  H5  1  0.23509000  0.69551000  0.05438000  1.0 0.2700765387
H  H6  1  0.30449000  0.53958000  0.05438000  1.0 0.2700765387
H  H7  1  0.56830000  0.25134000  0.59864000  1.0 0.2990575141
H  H8  1  0.74866000  0.31696000  0.59864000  1.0 0.2990575141
H  H9  1  0.68304000  0.43170000  0.59864000  1.0 0.2990575141
H  H10  1  0.43170000  0.74866000  0.09864000  1.0 0.2990575141
H  H11  1  0.25134000  0.68304000  0.09864000  1.0 0.2990575141
H  H12  1  0.31696000  0.56830000  0.09864000  1.0 0.2990575141
H  H13  1  0.58498000  0.20581000  0.57048000  1.0 0.2990575141
H  H14  1  0.79419000  0.37917000  0.57048000  1.0 0.2990575141
H  H15  1  0.62083000  0.41502000  0.57048000  1.0 0.2990575141
H  H16  1  0.41502000  0.79419000  0.07048000  1.0 0.2990575141
H  H17  1  0.20581000  0.62083000  0.07048000  1.0 0.2990575141
H  H18  1  0.37917000  0.58498000  0.07048000  1.0 0.2990575141
H  H19  1  0.64484000  0.35771000  0.45812000  1.0 0.2580965217
H  H20  1  0.64229000  0.28713000  0.45812000  1.0 0.2580965217
H  H21  1  0.71287000  0.35516000  0.45812000  1.0 0.2580965217
H  H22  1  0.35516000  0.64229000  0.95812000  1.0 0.2700765387
H  H23  1  0.35771000  0.71287000  0.95812000  1.0 0.2700765387
H  H24  1  0.28713000  0.64484000  0.95812000  1.0 0.2700765387
H  H25  1  0.50162000  0.40187000  0.59085000  1.0 0.3128452357
H  H26  1  0.59813000  0.09975000  0.59085000  1.0 0.3128452357
H  H27  1  0.90025000  0.49838000  0.59085000  1.0 0.3128452357
H  H28  1  0.49838000  0.59813000  0.09085000  1.0 0.3128452357
H  H29  1  0.40187000  0.90025000  0.09085000  1.0 0.3128452357
H  H30  1  0.09975000  0.50162000  0.09085000  1.0 0.3128452357
H  H31  1  0.49578000  0.33581000  0.59778000  1.0 0.3128452357
H  H32  1  0.66419000  0.15997000  0.59778000  1.0 0.3128452357
H  H33  1  0.84003000  0.50422000  0.59778000  1.0 0.3128452357
H  H34  1  0.50422000  0.66419000  0.09778000  1.0 0.3128452357
H  H35  1  0.33581000  0.84003000  0.09778000  1.0 0.3128452357
H  H36  1  0.15997000  0.49578000  0.09778000  1.0 0.3128452357
H  H37  1  0.36741000  0.22644000  0.61903000  1.0 0.336880004
H  H38  1  0.77356000  0.14097000  0.61903000  1.0 0.336880004
H  H39  1  0.85903000  0.63259000  0.61903000  1.0 0.336880004
H  H40  1  0.63259000  0.77356000  0.11903000  1.0 0.336880004
H  H41  1  0.22644000  0.85903000  0.11903000  1.0 0.336880004
H  H42  1  0.14097000  0.36741000  0.11903000  1.0 0.336880004
H  H43  1  0.32408000  0.29197000  0.63714000  1.0 0.0708473424
H  H44  1  0.70803000  0.03211000  0.63714000  1.0 0.0708473424
H  H45  1  0.96789000  0.67592000  0.63714000  1.0 0.0708473424
H  H46  1  0.67592000  0.70803000  0.13714000  1.0 0.0708473424
H  H47  1  0.29197000  0.96789000  0.13714000  1.0 0.0708473424
H  H48  1  0.03211000  0.32408000  0.13714000  1.0 0.0708473424
H  H49  1  0.22958000  0.26191000  0.69603000  1.0 0.1197756751
H  H50  1  0.73809000  0.96767000  0.69603000  1.0 0.1197756751
H  H51  1  0.03233000  0.77042000  0.69603000  1.0 0.1197756751
H  H52  1  0.77042000  0.73809000  0.19603000  1.0 0.1197756751
H  H53  1  0.26191000  0.03233000  0.19603000  1.0 0.1197756751
H  H54  1  0.96767000  0.22958000  0.19603000  1.0 0.1197756751
H  H55  1  0.13498000  0.18047000  0.74128000  1.0 0.1097921061
H  H56  1  0.81953000  0.95451000  0.74128000  1.0 0.1097921061
H  H57  1  0.04549000  0.86502000  0.74128000  1.0 0.1097921061
H  H58  1  0.86502000  0.81953000  0.24128000  1.0 0.1097921061
H  H59  1  0.18047000  0.04549000  0.24128000  1.0 0.1097921061
H  H60  1  0.95451000  0.13498000  0.24128000  1.0 0.1097921061
H  H61  1  0.07792000  0.05471000  0.72842000  1.0 0.1097921061
H  H62  1  0.94529000  0.02321000  0.72842000  1.0 0.1097921061
H  H63  1  0.97679000  0.92208000  0.72842000  1.0 0.1097921061
H  H64  1  0.92208000  0.94529000  0.22842000  1.0 0.1097921061
H  H65  1  0.05471000  0.97679000  0.22842000  1.0 0.1097921061
H  H66  1  0.02321000  0.07792000  0.22842000  1.0 0.1097921061
H  H67  1  0.11545000  0.01038000  0.67031000  1.0 0.1097921061
H  H68  1  0.98962000  0.10507000  0.67031000  1.0 0.1097921061
H  H69  1  0.89493000  0.88455000  0.67031000  1.0 0.1097921061
H  H70  1  0.88455000  0.98962000  0.17031000  1.0 0.1097921061
H  H71  1  0.01038000  0.89493000  0.17031000  1.0 0.1097921061
H  H72  1  0.10507000  0.11545000  0.17031000  1.0 0.1097921061
H  H73  1  0.21005000  0.09181000  0.62507000  1.0 0.1197756751
H  H74  1  0.90819000  0.11824000  0.62507000  1.0 0.1197756751
H  H75  1  0.88176000  0.78995000  0.62507000  1.0 0.1197756751
H  H76  1  0.78995000  0.90819000  0.12507000  1.0 0.1197756751
H  H77  1  0.09181000  0.88176000  0.12507000  1.0 0.1197756751
H  H78  1  0.11824000  0.21005000  0.12507000  1.0 0.1197756751
H  H79  1  0.09008000  0.23837000  0.59326000  1.0 0.1097921061
H  H80  1  0.76163000  0.85171000  0.59326000  1.0 0.1097921061
H  H81  1  0.14829000  0.90992000  0.59326000  1.0 0.1097921061
H  H82  1  0.90992000  0.76163000  0.09326000  1.0 0.1097921061
H  H83  1  0.23837000  0.14829000  0.09326000  1.0 0.1097921061
H  H84  1  0.85171000  0.09008000  0.09326000  1.0 0.1097921061
H  H85  1  0.09947000  0.18169000  0.56456000  1.0 0.1197756751
H  H86  1  0.81831000  0.91778000  0.56456000  1.0 0.1197756751
H  H87  1  0.08222000  0.90053000  0.56456000  1.0 0.1197756751
H  H88  1  0.90053000  0.81831000  0.06456000  1.0 0.1197756751
H  H89  1  0.18169000  0.08222000  0.06456000  1.0 0.1197756751
H  H90  1  0.91778000  0.09947000  0.06456000  1.0 0.1197756751
H  H91  1  0.10825000  0.18187000  0.61538000  1.0 0.1197756751
H  H92  1  0.81813000  0.92638000  0.61538000  1.0 0.1197756751
H  H93  1  0.07362000  0.89175000  0.61538000  1.0 0.1197756751
H  H94  1  0.89175000  0.81813000  0.11538000  1.0 0.1197756751
H  H95  1  0.18187000  0.07362000  0.11538000  1.0 0.1197756751
H  H96  1  0.92638000  0.10825000  0.11538000  1.0 0.1197756751
H  H97  1  0.28835000  0.29312000  0.56351000  1.0 0.1197756751
H  H98  1  0.70688000  0.99523000  0.56351000  1.0 0.1197756751
H  H99  1  0.00477000  0.71165000  0.56351000  1.0 0.1197756751
H  H100  1  0.71165000  0.70688000  0.06351000  1.0 0.1197756751
H  H101  1  0.29312000  0.00477000  0.06351000  1.0 0.1197756751
H  H102  1  0.99523000  0.28835000  0.06351000  1.0 0.1197756751
H  H103  1  0.22980000  0.20955000  0.56506000  1.0 0.1197756751
H  H104  1  0.79045000  0.02025000  0.56506000  1.0 0.1197756751
H  H105  1  0.97975000  0.77020000  0.56506000  1.0 0.1197756751
H  H106  1  0.77020000  0.79045000  0.06506000  1.0 0.1197756751
H  H107  1  0.20955000  0.97975000  0.06506000  1.0 0.1197756751
H  H108  1  0.02025000  0.22980000  0.06506000  1.0 0.1197756751
H  H109  1  0.20355000  0.30286000  0.56233000  1.0 0.101874372
H  H110  1  0.69714000  0.90069000  0.56233000  1.0 0.101874372
H  H111  1  0.09931000  0.79645000  0.56233000  1.0 0.101874372
H  H112  1  0.79645000  0.69714000  0.06233000  1.0 0.101874372
H  H113  1  0.30286000  0.09931000  0.06233000  1.0 0.101874372
H  H114  1  0.90069000  0.20355000  0.06233000  1.0 0.101874372
H  H115  1  0.21129000  0.30116000  0.61272000  1.0 0.0935912139
H  H116  1  0.69884000  0.91013000  0.61272000  1.0 0.0935912139
H  H117  1  0.08987000  0.78871000  0.61272000  1.0 0.0935912139
H  H118  1  0.78871000  0.69884000  0.11272000  1.0 0.0935912139
H  H119  1  0.30116000  0.08987000  0.11272000  1.0 0.0935912139
H  H120  1  0.91013000  0.21129000  0.11272000  1.0 0.0935912139
H  H121  1  0.52204000  0.39975000  0.46836000  1.0 0.2990575141
H  H122  1  0.60025000  0.12229000  0.46836000  1.0 0.2990575141
H  H123  1  0.87771000  0.47796000  0.46836000  1.0 0.2990575141
H  H124  1  0.47796000  0.60025000  0.96836000  1.0 0.2990575141
H  H125  1  0.39975000  0.87771000  0.96836000  1.0 0.2990575141
H  H126  1  0.12229000  0.52204000  0.96836000  1.0 0.2990575141
H  H127  1  0.50299000  0.36308000  0.51050000  1.0 0.3128452357
H  H128  1  0.63692000  0.13991000  0.51050000  1.0 0.3128452357
H  H129  1  0.86009000  0.49701000  0.51050000  1.0 0.3128452357
H  H130  1  0.49701000  0.63692000  0.01050000  1.0 0.3128452357
H  H131  1  0.36308000  0.86009000  0.01050000  1.0 0.3128452357
H  H132  1  0.13991000  0.50299000  0.01050000  1.0 0.3128452357
H  H133  1  0.55417000  0.35553000  0.48198000  1.0 0.2700765387
H  H134  1  0.64447000  0.19864000  0.48198000  1.0 0.2700765387
H  H135  1  0.80136000  0.44583000  0.48198000  1.0 0.2700765387
H  H136  1  0.44583000  0.64447000  0.98198000  1.0 0.2700765387
H  H137  1  0.35553000  0.80136000  0.98198000  1.0 0.2700765387
H  H138  1  0.19864000  0.55417000  0.98198000  1.0 0.2700765387
H  H139  1  0.31425000  0.91671000  0.86585000  1.0 0.129413654
H  H140  1  0.08329000  0.39754000  0.86585000  1.0 0.129413654
H  H141  1  0.60246000  0.68575000  0.86585000  1.0 0.129413654
H  H142  1  0.68575000  0.08329000  0.36585000  1.0 0.129413654
H  H143  1  0.91671000  0.60246000  0.36585000  1.0 0.129413654
H  H144  1  0.39754000  0.31425000  0.36585000  1.0 0.129413654
H  H145  1  0.18986000  0.48644000  0.44611000  1.0 0.129413654
H  H146  1  0.51356000  0.70342000  0.44611000  1.0 0.129413654
H  H147  1  0.29658000  0.81014000  0.44611000  1.0 0.129413654
H  H148  1  0.81014000  0.51356000  0.94611000  1.0 0.129413654
H  H149  1  0.48644000  0.29658000  0.94611000  1.0 0.129413654
H  H150  1  0.70342000  0.18986000  0.94611000  1.0 0.129413654
H  H151  1  0.26606000  0.51612000  0.46919000  1.0 0.129413654
H  H152  1  0.48388000  0.74994000  0.46919000  1.0 0.129413654
H  H153  1  0.25006000  0.73394000  0.46919000  1.0 0.129413654
H  H154  1  0.73394000  0.48388000  0.96919000  1.0 0.129413654
H  H155  1  0.51612000  0.25006000  0.96919000  1.0 0.129413654
H  H156  1  0.74994000  0.26606000  0.96919000  1.0 0.129413654
H  H157  1  0.25706000  0.28831000  0.35486000  1.0 0.1097921061
H  H158  1  0.71169000  0.96875000  0.35486000  1.0 0.1097921061
H  H159  1  0.03125000  0.74294000  0.35486000  1.0 0.1097921061
H  H160  1  0.74294000  0.71169000  0.85486000  1.0 0.1097921061
H  H161  1  0.28831000  0.03125000  0.85486000  1.0 0.1097921061
H  H162  1  0.96875000  0.25706000  0.85486000  1.0 0.1097921061
H  H163  1  0.40326000  0.59770000  0.30279000  1.0 0.129413654
H  H164  1  0.40230000  0.80556000  0.30279000  1.0 0.129413654
H  H165  1  0.19444000  0.59674000  0.30279000  1.0 0.129413654
H  H166  1  0.59674000  0.40230000  0.80279000  1.0 0.129413654
H  H167  1  0.59770000  0.19444000  0.80279000  1.0 0.129413654
H  H168  1  0.80556000  0.40326000  0.80279000  1.0 0.129413654
H  H169  1  0.36519000  0.54020000  0.34039000  1.0 0.129413654
H  H170  1  0.45980000  0.82499000  0.34039000  1.0 0.129413654
H  H171  1  0.17501000  0.63481000  0.34039000  1.0 0.129413654
H  H172  1  0.63481000  0.45980000  0.84039000  1.0 0.129413654
H  H173  1  0.54020000  0.17501000  0.84039000  1.0 0.129413654
H  H174  1  0.82499000  0.36519000  0.84039000  1.0 0.129413654
H  H175  1  0.46470000  0.06642000  0.51346000  1.0 0.1488464698
H  H176  1  0.93358000  0.39828000  0.51346000  1.0 0.1488464698
H  H177  1  0.60172000  0.53530000  0.51346000  1.0 0.1488464698
H  H178  1  0.53530000  0.93358000  0.01346000  1.0 0.1488464698
H  H179  1  0.06642000  0.60172000  0.01346000  1.0 0.1488464698
H  H180  1  0.39828000  0.46470000  0.01346000  1.0 0.1488464698
H  H181  1  0.35960000  0.17375000  0.54139000  1.0 0.129413654
H  H182  1  0.82625000  0.18585000  0.54139000  1.0 0.129413654
H  H183  1  0.81415000  0.64040000  0.54139000  1.0 0.129413654
H  H184  1  0.64040000  0.82625000  0.04139000  1.0 0.129413654
H  H185  1  0.17375000  0.81415000  0.04139000  1.0 0.129413654
H  H186  1  0.18585000  0.35960000  0.04139000  1.0 0.129413654
H  H187  1  0.32417000  0.41365000  0.34691000  1.0 0.1197756751
H  H188  1  0.58635000  0.91052000  0.34691000  1.0 0.1197756751
H  H189  1  0.08948000  0.67583000  0.34691000  1.0 0.1197756751
H  H190  1  0.67583000  0.58635000  0.84691000  1.0 0.1197756751
H  H191  1  0.41365000  0.08948000  0.84691000  1.0 0.1197756751
H  H192  1  0.91052000  0.32417000  0.84691000  1.0 0.1197756751
H  H193  1  0.09788000  0.52202000  0.61275000  1.0 0.1097921061
H  H194  1  0.47798000  0.57586000  0.61275000  1.0 0.1097921061
H  H195  1  0.42414000  0.90212000  0.61275000  1.0 0.1097921061
H  H196  1  0.90212000  0.47798000  0.11275000  1.0 0.1097921061
H  H197  1  0.52202000  0.42414000  0.11275000  1.0 0.1097921061
H  H198  1  0.57586000  0.09788000  0.11275000  1.0 0.1097921061
H  H199  1  0.45154000  0.58721000  0.23247000  1.0 0.1197756751
H  H200  1  0.41279000  0.86433000  0.23247000  1.0 0.1197756751
H  H201  1  0.13567000  0.54846000  0.23247000  1.0 0.1197756751
H  H202  1  0.54846000  0.41279000  0.73247000  1.0 0.1197756751
H  H203  1  0.58721000  0.13567000  0.73247000  1.0 0.1197756751
H  H204  1  0.86433000  0.45154000  0.73247000  1.0 0.1197756751
H  H205  1  0.19767000  0.37468000  0.19289000  1.0 0.1197756751
H  H206  1  0.62532000  0.82299000  0.19289000  1.0 0.1197756751
H  H207  1  0.17701000  0.80233000  0.19289000  1.0 0.1197756751
H  H208  1  0.80233000  0.62532000  0.69289000  1.0 0.1197756751
H  H209  1  0.37468000  0.17701000  0.69289000  1.0 0.1197756751
H  H210  1  0.82299000  0.19767000  0.69289000  1.0 0.1197756751
H  H211  1  0.96106000  0.27590000  0.46408000  1.0 0.1097921061
H  H212  1  0.72410000  0.68516000  0.46408000  1.0 0.1097921061
H  H213  1  0.31484000  0.03894000  0.46408000  1.0 0.1097921061
H  H214  1  0.03894000  0.72410000  0.96408000  1.0 0.1097921061
H  H215  1  0.27590000  0.31484000  0.96408000  1.0 0.1097921061
H  H216  1  0.68516000  0.96106000  0.96408000  1.0 0.1097921061
H  H217  1  0.47652000  0.08180000  0.59942000  1.0 0.129413654
H  H218  1  0.91820000  0.39472000  0.59942000  1.0 0.129413654
H  H219  1  0.60528000  0.52348000  0.59942000  1.0 0.129413654
H  H220  1  0.52348000  0.91820000  0.09942000  1.0 0.129413654
H  H221  1  0.08180000  0.60528000  0.09942000  1.0 0.129413654
H  H222  1  0.39472000  0.47652000  0.09942000  1.0 0.129413654
H  H223  1  0.18402000  0.21238000  0.29788000  1.0 0.1097921061
H  H224  1  0.78762000  0.97164000  0.29788000  1.0 0.1097921061
H  H225  1  0.02836000  0.81598000  0.29788000  1.0 0.1097921061
H  H226  1  0.81598000  0.78762000  0.79788000  1.0 0.1097921061
H  H227  1  0.21238000  0.02836000  0.79788000  1.0 0.1097921061
H  H228  1  0.97164000  0.18402000  0.79788000  1.0 0.1097921061
H  H229  1  0.48865000  0.15462000  0.45518000  1.0 0.129413654
H  H230  1  0.84538000  0.33403000  0.45518000  1.0 0.129413654
H  H231  1  0.66597000  0.51135000  0.45518000  1.0 0.129413654
H  H232  1  0.51135000  0.84538000  0.95518000  1.0 0.129413654
H  H233  1  0.15462000  0.66597000  0.95518000  1.0 0.129413654
H  H234  1  0.33403000  0.48865000  0.95518000  1.0 0.129413654
H  H235  1  0.60375000  0.48975000  0.31924000  1.0 0.1097921061
H  H236  1  0.51025000  0.11400000  0.31924000  1.0 0.1097921061
H  H237  1  0.88600000  0.39625000  0.31924000  1.0 0.1097921061
H  H238  1  0.39625000  0.51025000  0.81924000  1.0 0.1097921061
H  H239  1  0.48975000  0.88600000  0.81924000  1.0 0.1097921061
H  H240  1  0.11400000  0.60375000  0.81924000  1.0 0.1097921061
H  H241  1  0.29181000  0.46765000  0.53631000  1.0 0.1197756751
H  H242  1  0.53235000  0.82416000  0.53631000  1.0 0.1197756751
H  H243  1  0.17584000  0.70819000  0.53631000  1.0 0.1197756751
H  H244  1  0.70819000  0.53235000  0.03631000  1.0 0.1197756751
H  H245  1  0.46765000  0.17584000  0.03631000  1.0 0.1197756751
H  H246  1  0.82416000  0.29181000  0.03631000  1.0 0.1197756751
H  H247  1  0.06990000  0.38223000  0.46776000  1.0 0.1197756751
H  H248  1  0.61777000  0.68767000  0.46776000  1.0 0.1197756751
H  H249  1  0.31233000  0.93010000  0.46776000  1.0 0.1197756751
H  H250  1  0.93010000  0.61777000  0.96776000  1.0 0.1197756751
H  H251  1  0.38223000  0.31233000  0.96776000  1.0 0.1197756751
H  H252  1  0.68767000  0.06990000  0.96776000  1.0 0.1197756751
H  H253  1  0.32771000  0.45546000  0.60473000  1.0 0.1097921061
H  H254  1  0.54454000  0.87225000  0.60473000  1.0 0.1097921061
H  H255  1  0.12775000  0.67229000  0.60473000  1.0 0.1097921061
H  H256  1  0.67229000  0.54454000  0.10473000  1.0 0.1097921061
H  H257  1  0.45546000  0.12775000  0.10473000  1.0 0.1097921061
H  H258  1  0.87225000  0.32771000  0.10473000  1.0 0.1097921061
H  H259  1  0.37788000  0.94329000  0.79595000  1.0 0.1197756751
H  H260  1  0.05671000  0.43459000  0.79595000  1.0 0.1197756751
H  H261  1  0.56541000  0.62212000  0.79595000  1.0 0.1197756751
H  H262  1  0.62212000  0.05671000  0.29595000  1.0 0.1197756751
H  H263  1  0.94329000  0.56541000  0.29595000  1.0 0.1197756751
H  H264  1  0.43459000  0.37788000  0.29595000  1.0 0.1197756751
H  H265  1  0.52232000  0.59734000  0.17400000  1.0 0.1197756751
H  H266  1  0.40266000  0.92498000  0.17400000  1.0 0.1197756751
H  H267  1  0.07502000  0.47768000  0.17400000  1.0 0.1197756751
H  H268  1  0.47768000  0.40266000  0.67400000  1.0 0.1197756751
H  H269  1  0.59734000  0.07502000  0.67400000  1.0 0.1197756751
H  H270  1  0.92498000  0.52232000  0.67400000  1.0 0.1197756751
H  H271  1  0.16934000  0.82310000  0.75604000  1.0 0.129413654
H  H272  1  0.17690000  0.34624000  0.75604000  1.0 0.129413654
H  H273  1  0.65376000  0.83066000  0.75604000  1.0 0.129413654
H  H274  1  0.83066000  0.17690000  0.25604000  1.0 0.129413654
H  H275  1  0.82310000  0.65376000  0.25604000  1.0 0.129413654
H  H276  1  0.34624000  0.16934000  0.25604000  1.0 0.129413654
H  H277  1  0.19787000  0.22045000  0.46298000  1.0 0.1197756751
H  H278  1  0.77955000  0.97742000  0.46298000  1.0 0.1197756751
H  H279  1  0.02258000  0.80213000  0.46298000  1.0 0.1197756751
H  H280  1  0.80213000  0.77955000  0.96298000  1.0 0.1197756751
H  H281  1  0.22045000  0.02258000  0.96298000  1.0 0.1197756751
H  H282  1  0.97742000  0.19787000  0.96298000  1.0 0.1197756751
H  H283  1  0.63037000  0.51779000  0.24090000  1.0 0.1097921061
H  H284  1  0.48221000  0.11258000  0.24090000  1.0 0.1097921061
H  H285  1  0.88742000  0.36963000  0.24090000  1.0 0.1097921061
H  H286  1  0.36963000  0.48221000  0.74090000  1.0 0.1097921061
H  H287  1  0.51779000  0.88742000  0.74090000  1.0 0.1097921061
H  H288  1  0.11258000  0.63037000  0.74090000  1.0 0.1097921061
H  H289  1  0.17866000  0.49584000  0.65993000  1.0 0.1097921061
H  H290  1  0.50416000  0.68282000  0.65993000  1.0 0.1097921061
H  H291  1  0.31718000  0.82134000  0.65993000  1.0 0.1097921061
H  H292  1  0.82134000  0.50416000  0.15993000  1.0 0.1097921061
H  H293  1  0.49584000  0.31718000  0.15993000  1.0 0.1097921061
H  H294  1  0.68282000  0.17866000  0.15993000  1.0 0.1097921061
H  H295  1  0.60603000  0.55605000  0.17627000  1.0 0.1097921061
H  H296  1  0.44395000  0.04998000  0.17627000  1.0 0.1097921061
H  H297  1  0.95002000  0.39397000  0.17627000  1.0 0.1097921061
H  H298  1  0.39397000  0.44395000  0.67627000  1.0 0.1097921061
H  H299  1  0.55605000  0.95002000  0.67627000  1.0 0.1097921061
H  H300  1  0.04998000  0.60603000  0.67627000  1.0 0.1097921061
H  H301  1  0.27258000  0.47162000  0.66666667  1.0 0.1097921061
H  H302  1  0.52838000  0.80096000  0.66666667  1.0 0.1097921061
H  H303  1  0.19904000  0.72742000  0.66666667  1.0 0.1097921061
H  H304  1  0.72742000  0.52838000  0.16667000  1.0 0.1097921061
H  H305  1  0.47162000  0.19904000  0.16667000  1.0 0.1097921061
H  H306  1  0.80096000  0.27258000  0.16667000  1.0 0.1097921061
H  H307  1  0.41039000  0.00434000  0.73014000  1.0 0.1097921061
H  H308  1  0.99566000  0.40605000  0.73014000  1.0 0.1097921061
H  H309  1  0.59395000  0.58961000  0.73014000  1.0 0.1097921061
H  H310  1  0.58961000  0.99566000  0.23014000  1.0 0.1097921061
H  H311  1  0.00434000  0.59395000  0.23014000  1.0 0.1097921061
H  H312  1  0.40605000  0.41039000  0.23014000  1.0 0.1097921061
H  H313  1  0.17293000  0.26404000  0.23499000  1.0 0.1097921061
H  H314  1  0.73596000  0.90889000  0.23499000  1.0 0.1097921061
H  H315  1  0.09111000  0.82707000  0.23499000  1.0 0.1097921061
H  H316  1  0.82707000  0.73596000  0.73499000  1.0 0.1097921061
H  H317  1  0.26404000  0.09111000  0.73499000  1.0 0.1097921061
H  H318  1  0.90889000  0.17293000  0.73499000  1.0 0.1097921061
H  H319  1  0.20103000  0.88725000  0.69034000  1.0 0.1197756751
H  H320  1  0.11275000  0.31378000  0.69034000  1.0 0.1197756751
H  H321  1  0.68622000  0.79897000  0.69034000  1.0 0.1197756751
H  H322  1  0.79897000  0.11275000  0.19034000  1.0 0.1197756751
H  H323  1  0.88725000  0.68622000  0.19034000  1.0 0.1197756751
H  H324  1  0.31378000  0.20103000  0.19034000  1.0 0.1197756751
H  H325  1  0.43783000  0.01824000  0.66428000  1.0 0.1097921061
H  H326  1  0.98176000  0.41959000  0.66428000  1.0 0.1097921061
H  H327  1  0.58041000  0.56217000  0.66428000  1.0 0.1097921061
H  H328  1  0.56217000  0.98176000  0.16428000  1.0 0.1097921061
H  H329  1  0.01824000  0.58041000  0.16428000  1.0 0.1097921061
H  H330  1  0.41959000  0.43783000  0.16428000  1.0 0.1097921061
H  H331  1  0.95450000  0.16120000  0.46526000  1.0 0.1197756751
H  H332  1  0.83880000  0.79330000  0.46526000  1.0 0.1197756751
H  H333  1  0.20670000  0.04550000  0.46526000  1.0 0.1197756751
H  H334  1  0.04550000  0.83880000  0.96526000  1.0 0.1197756751
H  H335  1  0.16120000  0.20670000  0.96526000  1.0 0.1197756751
H  H336  1  0.79330000  0.95450000  0.96526000  1.0 0.1197756751
H  H337  1  0.06288000  0.15745000  0.46314000  1.0 0.1097921061
H  H338  1  0.84255000  0.90543000  0.46314000  1.0 0.1097921061
H  H339  1  0.09457000  0.93712000  0.46314000  1.0 0.1097921061
H  H340  1  0.93712000  0.84255000  0.96314000  1.0 0.1097921061
H  H341  1  0.15745000  0.09457000  0.96314000  1.0 0.1097921061
H  H342  1  0.90543000  0.06288000  0.96314000  1.0 0.1097921061
H  H343  1  0.23445000  0.97802000  0.64285000  1.0 0.1097921061
H  H344  1  0.02198000  0.25643000  0.64285000  1.0 0.1097921061
H  H345  1  0.74357000  0.76555000  0.64285000  1.0 0.1097921061
H  H346  1  0.76555000  0.02198000  0.14285000  1.0 0.1097921061
H  H347  1  0.97802000  0.74357000  0.14285000  1.0 0.1097921061
H  H348  1  0.25643000  0.23445000  0.14285000  1.0 0.1097921061
H  H349  1  0.27290000  0.04200000  0.57682000  1.0 0.129413654
H  H350  1  0.95800000  0.23090000  0.57682000  1.0 0.129413654
H  H351  1  0.76910000  0.72710000  0.57682000  1.0 0.129413654
H  H352  1  0.72710000  0.95800000  0.07682000  1.0 0.129413654
H  H353  1  0.04200000  0.76910000  0.07682000  1.0 0.129413654
H  H354  1  0.23090000  0.27290000  0.07682000  1.0 0.129413654
H  H355  1  0.18867000  0.70749000  0.88545000  1.0 0.129413654
H  H356  1  0.29251000  0.48118000  0.88545000  1.0 0.129413654
H  H357  1  0.51882000  0.81133000  0.88545000  1.0 0.129413654
H  H358  1  0.81133000  0.29251000  0.38545000  1.0 0.129413654
H  H359  1  0.70749000  0.51882000  0.38545000  1.0 0.129413654
H  H360  1  0.48118000  0.18867000  0.38545000  1.0 0.129413654
H  H361  1  0.18809000  0.72935000  0.80728000  1.0 0.129413654
H  H362  1  0.27065000  0.45874000  0.80728000  1.0 0.129413654
H  H363  1  0.54126000  0.81191000  0.80728000  1.0 0.129413654
H  H364  1  0.81191000  0.27065000  0.30728000  1.0 0.129413654
H  H365  1  0.72935000  0.54126000  0.30728000  1.0 0.129413654
H  H366  1  0.45874000  0.18809000  0.30728000  1.0 0.129413654
C  C1  1  0.29070000  0.24510000  0.62280000  1.0 0.1488464698
C  C2  1  0.75490000  0.04560000  0.62280000  1.0 0.1488464698
C  C3  1  0.95440000  0.70930000  0.62280000  1.0 0.1488464698
C  C4  1  0.70930000  0.75490000  0.12280000  1.0 0.1488464698
C  C5  1  0.24510000  0.95440000  0.12280000  1.0 0.1488464698
C  C6  1  0.04560000  0.29070000  0.12280000  1.0 0.1488464698
C  C7  1  0.22920000  0.18490000  0.65610000  1.0 0.0502442679
C  C8  1  0.81510000  0.04430000  0.65610000  1.0 0.0502442679
C  C9  1  0.95570000  0.77080000  0.65610000  1.0 0.0502442679
C  C10  1  0.77080000  0.81510000  0.15610000  1.0 0.0502442679
C  C11  1  0.18490000  0.95570000  0.15610000  1.0 0.0502442679
C  C12  1  0.04430000  0.22920000  0.15610000  1.0 0.0502442679
C  C13  1  0.20670000  0.21150000  0.69090000  1.0 -0.1589149608
C  C14  1  0.78850000  0.99520000  0.69090000  1.0 -0.1589149608
C  C15  1  0.00480000  0.79330000  0.69090000  1.0 -0.1589149608
C  C16  1  0.79330000  0.78850000  0.19090000  1.0 -0.1589149608
C  C17  1  0.21150000  0.00480000  0.19090000  1.0 -0.1589149608
C  C18  1  0.99520000  0.20670000  0.19090000  1.0 -0.1589149608
C  C19  1  0.15000000  0.16270000  0.71800000  1.0 -0.1005197825
C  C20  1  0.83730000  0.98730000  0.71800000  1.0 -0.1005197825
C  C21  1  0.01270000  0.85000000  0.71800000  1.0 -0.1005197825
C  C22  1  0.85000000  0.83730000  0.21800000  1.0 -0.1005197825
C  C23  1  0.16270000  0.01270000  0.21800000  1.0 -0.1005197825
C  C24  1  0.98730000  0.15000000  0.21800000  1.0 -0.1005197825
C  C25  1  0.11580000  0.08740000  0.71030000  1.0 -0.1185612169
C  C26  1  0.91260000  0.02840000  0.71030000  1.0 -0.1185612169
C  C27  1  0.97160000  0.88420000  0.71030000  1.0 -0.1185612169
C  C28  1  0.88420000  0.91260000  0.21030000  1.0 -0.1185612169
C  C29  1  0.08740000  0.97160000  0.21030000  1.0 -0.1185612169
C  C30  1  0.02840000  0.11580000  0.21030000  1.0 -0.1185612169
C  C31  1  0.13830000  0.06080000  0.67550000  1.0 -0.1005197825
C  C32  1  0.93920000  0.07750000  0.67550000  1.0 -0.1005197825
C  C33  1  0.92250000  0.86170000  0.67550000  1.0 -0.1005197825
C  C34  1  0.86170000  0.93920000  0.17550000  1.0 -0.1005197825
C  C35  1  0.06080000  0.92250000  0.17550000  1.0 -0.1005197825
C  C36  1  0.07750000  0.13830000  0.17550000  1.0 -0.1005197825
C  C37  1  0.19500000  0.10960000  0.64840000  1.0 -0.1300088324
C  C38  1  0.89040000  0.08540000  0.64840000  1.0 -0.1300088324
C  C39  1  0.91460000  0.80500000  0.64840000  1.0 -0.1300088324
C  C40  1  0.80500000  0.89040000  0.14840000  1.0 -0.1300088324
C  C41  1  0.10960000  0.91460000  0.14840000  1.0 -0.1300088324
C  C42  1  0.08540000  0.19500000  0.14840000  1.0 -0.1300088324
C  C43  1  0.11650000  0.21200000  0.59000000  1.0 -0.3694441263
C  C44  1  0.78800000  0.90450000  0.59000000  1.0 -0.3694441263
C  C45  1  0.09550000  0.88350000  0.59000000  1.0 -0.3694441263
C  C46  1  0.88350000  0.78800000  0.09000000  1.0 -0.3694441263
C  C47  1  0.21200000  0.09550000  0.09000000  1.0 -0.3694441263
C  C48  1  0.90450000  0.11650000  0.09000000  1.0 -0.3694441263
C  C49  1  0.25060000  0.25500000  0.58170000  1.0 -0.2332612816
C  C50  1  0.74500000  0.99560000  0.58170000  1.0 -0.2332612816
C  C51  1  0.00440000  0.74940000  0.58170000  1.0 -0.2332612816
C  C52  1  0.74940000  0.74500000  0.08170000  1.0 -0.2332612816
C  C53  1  0.25500000  0.00440000  0.08170000  1.0 -0.2332612816
C  C54  1  0.99560000  0.25060000  0.08170000  1.0 -0.2332612816
C  C55  1  0.19920000  0.27100000  0.58660000  1.0 -0.1005197825
C  C56  1  0.72900000  0.92820000  0.58660000  1.0 -0.1005197825
C  C57  1  0.07180000  0.80080000  0.58660000  1.0 -0.1005197825
C  C58  1  0.80080000  0.72900000  0.08660000  1.0 -0.1005197825
C  C59  1  0.27100000  0.07180000  0.08660000  1.0 -0.1005197825
C  C60  1  0.92820000  0.19920000  0.08660000  1.0 -0.1005197825
C  C61  1  0.54830000  0.47550000  0.39674000  1.0 0.5933361705
C  C62  1  0.52450000  0.07280000  0.39674000  1.0 0.5933361705
C  C63  1  0.92720000  0.45170000  0.39674000  1.0 0.5933361705
C  C64  1  0.45170000  0.52450000  0.89674000  1.0 0.5933361705
C  C65  1  0.47550000  0.92720000  0.89674000  1.0 0.5933361705
C  C66  1  0.07280000  0.54830000  0.89674000  1.0 0.5933361705
C  C67  1  0.28730000  0.41870000  0.28600000  1.0 0.0418936453
C  C68  1  0.58130000  0.86860000  0.28600000  1.0 0.0418936453
C  C69  1  0.13140000  0.71270000  0.28600000  1.0 0.0418936453
C  C70  1  0.71270000  0.58130000  0.78600000  1.0 0.0418936453
C  C71  1  0.41870000  0.13140000  0.78600000  1.0 0.0418936453
C  C72  1  0.86860000  0.28730000  0.78600000  1.0 0.0418936453
C  C73  1  0.32680000  0.49580000  0.27987000  1.0 -0.0303578023
C  C74  1  0.50420000  0.83100000  0.27987000  1.0 -0.0303578023
C  C75  1  0.16900000  0.67320000  0.27987000  1.0 -0.0303578023
C  C76  1  0.67320000  0.50420000  0.77987000  1.0 -0.0303578023
C  C77  1  0.49580000  0.16900000  0.77987000  1.0 -0.0303578023
C  C78  1  0.83100000  0.32680000  0.77987000  1.0 -0.0303578023
C  C79  1  0.26150000  0.47980000  0.21015000  1.0 -0.1674975763
C  C80  1  0.52020000  0.78170000  0.21015000  1.0 -0.1674975763
C  C81  1  0.21830000  0.73850000  0.21015000  1.0 -0.1674975763
C  C82  1  0.73850000  0.52020000  0.71015000  1.0 -0.1674975763
C  C83  1  0.47980000  0.21830000  0.71015000  1.0 -0.1674975763
C  C84  1  0.78170000  0.26150000  0.71015000  1.0 -0.1674975763
C  C85  1  0.52760000  0.49720000  0.35511000  1.0 -0.1674975763
C  C86  1  0.50280000  0.03040000  0.35511000  1.0 -0.1674975763
C  C87  1  0.96960000  0.47240000  0.35511000  1.0 -0.1674975763
C  C88  1  0.47240000  0.50280000  0.85511000  1.0 -0.1674975763
C  C89  1  0.49720000  0.96960000  0.85511000  1.0 -0.1674975763
C  C90  1  0.03040000  0.52760000  0.85511000  1.0 -0.1674975763
C  C91  1  0.28040000  0.86720000  0.86120000  1.0 0.1197756751
C  C92  1  0.13280000  0.41320000  0.86120000  1.0 0.1197756751
C  C93  1  0.58680000  0.71960000  0.86120000  1.0 0.1197756751
C  C94  1  0.71960000  0.13280000  0.36120000  1.0 0.1197756751
C  C95  1  0.86720000  0.58680000  0.36120000  1.0 0.1197756751
C  C96  1  0.41320000  0.28040000  0.36120000  1.0 0.1197756751
C  C97  1  0.31160000  0.52640000  0.24302000  1.0 0.2580965217
C  C98  1  0.47360000  0.78520000  0.24302000  1.0 0.2580965217
C  C99  1  0.21480000  0.68840000  0.24302000  1.0 0.2580965217
C  C100  1  0.68840000  0.47360000  0.74302000  1.0 0.2580965217
C  C101  1  0.52640000  0.21480000  0.74302000  1.0 0.2580965217
C  C102  1  0.78520000  0.31160000  0.74302000  1.0 0.2580965217
C  C103  1  0.18260000  0.49220000  0.51250000  1.0 -0.0303578023
C  C104  1  0.50780000  0.69040000  0.51250000  1.0 -0.0303578023
C  C105  1  0.30960000  0.81740000  0.51250000  1.0 -0.0303578023
C  C106  1  0.81740000  0.50780000  0.01250000  1.0 -0.0303578023
C  C107  1  0.49220000  0.30960000  0.01250000  1.0 -0.0303578023
C  C108  1  0.69040000  0.18260000  0.01250000  1.0 -0.0303578023
C  C109  1  0.21430000  0.47910000  0.47088000  1.0 -0.2435799297
C  C110  1  0.52090000  0.73520000  0.47088000  1.0 -0.2435799297
C  C111  1  0.26480000  0.78570000  0.47088000  1.0 -0.2435799297
C  C112  1  0.78570000  0.52090000  0.97088000  1.0 -0.2435799297
C  C113  1  0.47910000  0.26480000  0.97088000  1.0 -0.2435799297
C  C114  1  0.73520000  0.21430000  0.97088000  1.0 -0.2435799297
C  C115  1  0.25400000  0.30950000  0.32890000  1.0 -0.1005197825
C  C116  1  0.69050000  0.94450000  0.32890000  1.0 -0.1005197825
C  C117  1  0.05550000  0.74600000  0.32890000  1.0 -0.1005197825
C  C118  1  0.74600000  0.69050000  0.82890000  1.0 -0.1005197825
C  C119  1  0.30950000  0.05550000  0.82890000  1.0 -0.1005197825
C  C120  1  0.94450000  0.25400000  0.82890000  1.0 -0.1005197825
C  C121  1  0.46980000  0.51500000  0.35301000  1.0 0.2580965217
C  C122  1  0.48500000  0.95480000  0.35301000  1.0 0.2580965217
C  C123  1  0.04520000  0.53020000  0.35301000  1.0 0.2580965217
C  C124  1  0.53020000  0.48500000  0.85301000  1.0 0.2580965217
C  C125  1  0.51500000  0.04520000  0.85301000  1.0 0.2580965217
C  C126  1  0.95480000  0.46980000  0.85301000  1.0 0.2580965217
C  C127  1  0.33400000  0.32410000  0.45410000  1.0 0.6096296366
C  C128  1  0.67590000  0.00990000  0.45410000  1.0 0.6096296366
C  C129  1  0.99010000  0.66600000  0.45410000  1.0 0.6096296366
C  C130  1  0.66600000  0.67590000  0.95410000  1.0 0.6096296366
C  C131  1  0.32410000  0.99010000  0.95410000  1.0 0.6096296366
C  C132  1  0.00990000  0.33400000  0.95410000  1.0 0.6096296366
C  C133  1  0.17550000  0.49710000  0.59281000  1.0 0.0617239208
C  C134  1  0.50290000  0.67840000  0.59281000  1.0 0.0617239208
C  C135  1  0.32160000  0.82450000  0.59281000  1.0 0.0617239208
C  C136  1  0.82450000  0.50290000  0.09281000  1.0 0.0617239208
C  C137  1  0.49710000  0.32160000  0.09281000  1.0 0.0617239208
C  C138  1  0.67840000  0.17550000  0.09281000  1.0 0.0617239208
C  C139  1  0.38640000  0.54720000  0.31142000  1.0 -0.2435799297
C  C140  1  0.45280000  0.83920000  0.31142000  1.0 -0.2435799297
C  C141  1  0.16080000  0.61360000  0.31142000  1.0 -0.2435799297
C  C142  1  0.61360000  0.45280000  0.81142000  1.0 -0.2435799297
C  C143  1  0.54720000  0.16080000  0.81142000  1.0 -0.2435799297
C  C144  1  0.83920000  0.38640000  0.81142000  1.0 -0.2435799297
C  C145  1  0.09740000  0.52510000  0.54758000  1.0 -0.1589149608
C  C146  1  0.47490000  0.57230000  0.54758000  1.0 -0.1589149608
C  C147  1  0.42770000  0.90260000  0.54758000  1.0 -0.1589149608
C  C148  1  0.90260000  0.47490000  0.04758000  1.0 -0.1589149608
C  C149  1  0.52510000  0.42770000  0.04758000  1.0 -0.1589149608
C  C150  1  0.57230000  0.09740000  0.04758000  1.0 -0.1589149608
C  C151  1  0.20790000  0.48580000  0.55442000  1.0 0.0502442679
C  C152  1  0.51420000  0.72210000  0.55442000  1.0 0.0502442679
C  C153  1  0.27790000  0.79210000  0.55442000  1.0 0.0502442679
C  C154  1  0.79210000  0.51420000  0.05442000  1.0 0.0502442679
C  C155  1  0.48580000  0.27790000  0.05442000  1.0 0.0502442679
C  C156  1  0.72210000  0.20790000  0.05442000  1.0 0.0502442679
C  C157  1  0.27060000  0.39930000  0.46164000  1.0 0.2536830958
C  C158  1  0.60070000  0.87130000  0.46164000  1.0 0.2536830958
C  C159  1  0.12870000  0.72940000  0.46164000  1.0 0.2536830958
C  C160  1  0.72940000  0.60070000  0.96164000  1.0 0.2536830958
C  C161  1  0.39930000  0.12870000  0.96164000  1.0 0.2536830958
C  C162  1  0.87130000  0.27060000  0.96164000  1.0 0.2536830958
C  C163  1  0.27150000  0.87620000  0.78120000  1.0 0.1488464698
C  C164  1  0.12380000  0.39530000  0.78120000  1.0 0.1488464698
C  C165  1  0.60470000  0.72850000  0.78120000  1.0 0.1488464698
C  C166  1  0.72850000  0.12380000  0.28120000  1.0 0.1488464698
C  C167  1  0.87620000  0.60470000  0.28120000  1.0 0.1488464698
C  C168  1  0.39530000  0.27150000  0.28120000  1.0 0.1488464698
C  C169  1  0.03640000  0.54300000  0.54591000  1.0 0.597656494
C  C170  1  0.45700000  0.49340000  0.54591000  1.0 0.597656494
C  C171  1  0.50660000  0.96360000  0.54591000  1.0 0.597656494
C  C172  1  0.96360000  0.45700000  0.04591000  1.0 0.597656494
C  C173  1  0.54300000  0.50660000  0.04591000  1.0 0.597656494
C  C174  1  0.49340000  0.03640000  0.04591000  1.0 0.597656494
C  C175  1  0.13020000  0.51490000  0.50939000  1.0 0.2434248533
C  C176  1  0.48510000  0.61530000  0.50939000  1.0 0.2434248533
C  C177  1  0.38470000  0.86980000  0.50939000  1.0 0.2434248533
C  C178  1  0.86980000  0.48510000  0.00939000  1.0 0.2434248533
C  C179  1  0.51490000  0.38470000  0.00939000  1.0 0.2434248533
C  C180  1  0.61530000  0.13020000  0.00939000  1.0 0.2434248533
C  C181  1  0.44650000  0.09880000  0.51180000  1.0 -0.0818786615
C  C182  1  0.90120000  0.34770000  0.51180000  1.0 -0.0818786615
C  C183  1  0.65230000  0.55350000  0.51180000  1.0 -0.0818786615
C  C184  1  0.55350000  0.90120000  0.01180000  1.0 -0.0818786615
C  C185  1  0.09880000  0.65230000  0.01180000  1.0 -0.0818786615
C  C186  1  0.34770000  0.44650000  0.01180000  1.0 -0.0818786615
C  C187  1  0.38840000  0.15810000  0.52699000  1.0 0.0935912139
C  C188  1  0.84190000  0.23030000  0.52699000  1.0 0.0935912139
C  C189  1  0.76970000  0.61160000  0.52699000  1.0 0.0935912139
C  C190  1  0.61160000  0.84190000  0.02699000  1.0 0.0935912139
C  C191  1  0.15810000  0.76970000  0.02699000  1.0 0.0935912139
C  C192  1  0.23030000  0.38840000  0.02699000  1.0 0.0935912139
C  C193  1  0.49550000  0.54430000  0.27578000  1.0 0.0418936453
C  C194  1  0.45570000  0.95120000  0.27578000  1.0 0.0418936453
C  C195  1  0.04880000  0.50450000  0.27578000  1.0 0.0418936453
C  C196  1  0.50450000  0.45570000  0.77578000  1.0 0.0418936453
C  C197  1  0.54430000  0.04880000  0.77578000  1.0 0.0418936453
C  C198  1  0.95120000  0.49550000  0.77578000  1.0 0.0418936453
C  C199  1  0.26690000  0.32960000  0.45980000  1.0 -0.1589149608
C  C200  1  0.67040000  0.93730000  0.45980000  1.0 -0.1589149608
C  C201  1  0.06270000  0.73310000  0.45980000  1.0 -0.1589149608
C  C202  1  0.73310000  0.67040000  0.95980000  1.0 -0.1589149608
C  C203  1  0.32960000  0.06270000  0.95980000  1.0 -0.1589149608
C  C204  1  0.93730000  0.26690000  0.95980000  1.0 -0.1589149608
C  C205  1  0.29330000  0.38480000  0.32450000  1.0 -0.1300088324
C  C206  1  0.61520000  0.90850000  0.32450000  1.0 -0.1300088324
C  C207  1  0.09150000  0.70670000  0.32450000  1.0 -0.1300088324
C  C208  1  0.70670000  0.61520000  0.82450000  1.0 -0.1300088324
C  C209  1  0.38480000  0.09150000  0.82450000  1.0 -0.1300088324
C  C210  1  0.90850000  0.29330000  0.82450000  1.0 -0.1300088324
C  C211  1  0.11980000  0.51580000  0.58797000  1.0 -0.147397439
C  C212  1  0.48420000  0.60400000  0.58797000  1.0 -0.147397439
C  C213  1  0.39600000  0.88020000  0.58797000  1.0 -0.147397439
C  C214  1  0.88020000  0.48420000  0.08797000  1.0 -0.147397439
C  C215  1  0.51580000  0.39600000  0.08797000  1.0 -0.147397439
C  C216  1  0.60400000  0.11980000  0.08797000  1.0 -0.147397439
C  C217  1  0.48650000  0.57240000  0.23493000  1.0 -0.1300088324
C  C218  1  0.42760000  0.91410000  0.23493000  1.0 -0.1300088324
C  C219  1  0.08590000  0.51350000  0.23493000  1.0 -0.1300088324
C  C220  1  0.51350000  0.42760000  0.73493000  1.0 -0.1300088324
C  C221  1  0.57240000  0.08590000  0.73493000  1.0 -0.1300088324
C  C222  1  0.91410000  0.48650000  0.73493000  1.0 -0.1300088324
C  C223  1  0.20750000  0.40440000  0.46655000  1.0 -0.0303578023
C  C224  1  0.59560000  0.80310000  0.46655000  1.0 -0.0303578023
C  C225  1  0.19690000  0.79250000  0.46655000  1.0 -0.0303578023
C  C226  1  0.79250000  0.59560000  0.96655000  1.0 -0.0303578023
C  C227  1  0.40440000  0.19690000  0.96655000  1.0 -0.0303578023
C  C228  1  0.80310000  0.20750000  0.96655000  1.0 -0.0303578023
C  C229  1  0.55200000  0.52420000  0.27760000  1.0 0.0502442679
C  C230  1  0.47580000  0.02780000  0.27760000  1.0 0.0502442679
C  C231  1  0.97220000  0.44800000  0.27760000  1.0 0.0502442679
C  C232  1  0.44800000  0.47580000  0.77760000  1.0 0.0502442679
C  C233  1  0.52420000  0.97220000  0.77760000  1.0 0.0502442679
C  C234  1  0.02780000  0.55200000  0.77760000  1.0 0.0502442679
C  C235  1  0.37660000  0.06610000  0.58220000  1.0 0.1488464698
C  C236  1  0.93390000  0.31050000  0.58220000  1.0 0.1488464698
C  C237  1  0.68950000  0.62340000  0.58220000  1.0 0.1488464698
C  C238  1  0.62340000  0.93390000  0.08220000  1.0 0.1488464698
C  C239  1  0.06610000  0.68950000  0.08220000  1.0 0.1488464698
C  C240  1  0.31050000  0.37660000  0.08220000  1.0 0.1488464698
C  C241  1  0.24660000  0.51020000  0.16968000  1.0 0.6096296366
C  C242  1  0.48980000  0.73640000  0.16968000  1.0 0.6096296366
C  C243  1  0.26360000  0.75340000  0.16968000  1.0 0.6096296366
C  C244  1  0.75340000  0.48980000  0.66968000  1.0 0.6096296366
C  C245  1  0.51020000  0.26360000  0.66968000  1.0 0.6096296366
C  C246  1  0.73640000  0.24660000  0.66968000  1.0 0.6096296366
C  C247  1  0.22810000  0.40490000  0.21500000  1.0 -0.1408768799
C  C248  1  0.59510000  0.82320000  0.21500000  1.0 -0.1408768799
C  C249  1  0.17680000  0.77190000  0.21500000  1.0 -0.1408768799
C  C250  1  0.77190000  0.59510000  0.71500000  1.0 -0.1408768799
C  C251  1  0.40490000  0.17680000  0.71500000  1.0 -0.1408768799
C  C252  1  0.82320000  0.22810000  0.71500000  1.0 -0.1408768799
C  C253  1  0.33130000  0.99070000  0.66060000  1.0 0.0617239208
C  C254  1  0.00930000  0.34060000  0.66060000  1.0 0.0617239208
C  C255  1  0.65940000  0.66870000  0.66060000  1.0 0.0617239208
C  C256  1  0.66870000  0.00930000  0.16060000  1.0 0.0617239208
C  C257  1  0.99070000  0.65940000  0.16060000  1.0 0.0617239208
C  C258  1  0.34060000  0.33130000  0.16060000  1.0 0.0617239208
C  C259  1  0.00440000  0.27390000  0.46500000  1.0 -0.0885803085
C  C260  1  0.72610000  0.73050000  0.46500000  1.0 -0.0885803085
C  C261  1  0.26950000  0.99560000  0.46500000  1.0 -0.0885803085
C  C262  1  0.99560000  0.72610000  0.96500000  1.0 -0.0885803085
C  C263  1  0.27390000  0.26950000  0.96500000  1.0 -0.0885803085
C  C264  1  0.73050000  0.00440000  0.96500000  1.0 -0.0885803085
C  C265  1  0.42750000  0.06050000  0.60800000  1.0 -0.147397439
C  C266  1  0.93950000  0.36700000  0.60800000  1.0 -0.147397439
C  C267  1  0.63300000  0.57250000  0.60800000  1.0 -0.147397439
C  C268  1  0.57250000  0.93950000  0.10800000  1.0 -0.147397439
C  C269  1  0.06050000  0.63300000  0.10800000  1.0 -0.147397439
C  C270  1  0.36700000  0.42750000  0.10800000  1.0 -0.147397439
C  C271  1  0.13710000  0.33720000  0.46610000  1.0 0.0418936453
C  C272  1  0.66280000  0.79990000  0.46610000  1.0 0.0418936453
C  C273  1  0.20010000  0.86290000  0.46610000  1.0 0.0418936453
C  C274  1  0.86290000  0.66280000  0.96610000  1.0 0.0418936453
C  C275  1  0.33720000  0.20010000  0.96610000  1.0 0.0418936453
C  C276  1  0.79990000  0.13710000  0.96610000  1.0 0.0418936453
C  C277  1  0.20870000  0.26330000  0.29470000  1.0 -0.1005197825
C  C278  1  0.73670000  0.94540000  0.29470000  1.0 -0.1005197825
C  C279  1  0.05460000  0.79130000  0.29470000  1.0 -0.1005197825
C  C280  1  0.79130000  0.73670000  0.79470000  1.0 -0.1005197825
C  C281  1  0.26330000  0.05460000  0.79470000  1.0 -0.1005197825
C  C282  1  0.94540000  0.20870000  0.79470000  1.0 -0.1005197825
C  C283  1  0.45950000  0.14730000  0.47967000  1.0 -0.0472342223
C  C284  1  0.85270000  0.31220000  0.47967000  1.0 -0.0472342223
C  C285  1  0.68780000  0.54050000  0.47967000  1.0 -0.0472342223
C  C286  1  0.54050000  0.85270000  0.97967000  1.0 -0.0472342223
C  C287  1  0.14730000  0.68780000  0.97967000  1.0 -0.0472342223
C  C288  1  0.31220000  0.45950000  0.97967000  1.0 -0.0472342223
C  C289  1  0.56670000  0.50180000  0.31770000  1.0 -0.1674975763
C  C290  1  0.49820000  0.06490000  0.31770000  1.0 -0.1674975763
C  C291  1  0.93510000  0.43330000  0.31770000  1.0 -0.1674975763
C  C292  1  0.43330000  0.49820000  0.81770000  1.0 -0.1674975763
C  C293  1  0.50180000  0.93510000  0.81770000  1.0 -0.1674975763
C  C294  1  0.06490000  0.56670000  0.81770000  1.0 -0.1674975763
C  C295  1  0.30870000  0.95030000  0.70260000  1.0 0.0708473424
C  C296  1  0.04970000  0.35840000  0.70260000  1.0 0.0708473424
C  C297  1  0.64160000  0.69130000  0.70260000  1.0 0.0708473424
C  C298  1  0.69130000  0.04970000  0.20260000  1.0 0.0708473424
C  C299  1  0.95030000  0.64160000  0.20260000  1.0 0.0708473424
C  C300  1  0.35840000  0.30870000  0.20260000  1.0 0.0708473424
C  C301  1  0.23850000  0.37220000  0.25260000  1.0 0.0617239208
C  C302  1  0.62780000  0.86630000  0.25260000  1.0 0.0617239208
C  C303  1  0.13370000  0.76150000  0.25260000  1.0 0.0617239208
C  C304  1  0.76150000  0.62780000  0.75260000  1.0 0.0617239208
C  C305  1  0.37220000  0.13370000  0.75260000  1.0 0.0617239208
C  C306  1  0.86630000  0.23850000  0.75260000  1.0 0.0617239208
C  C307  1  0.45210000  0.53530000  0.31338000  1.0 -0.0364442002
C  C308  1  0.46470000  0.91680000  0.31338000  1.0 -0.0364442002
C  C309  1  0.08320000  0.54790000  0.31338000  1.0 -0.0364442002
C  C310  1  0.54790000  0.46470000  0.81338000  1.0 -0.0364442002
C  C311  1  0.53530000  0.08320000  0.81338000  1.0 -0.0364442002
C  C312  1  0.91680000  0.45210000  0.81338000  1.0 -0.0364442002
C  C313  1  0.26770000  0.47230000  0.56050000  1.0 -0.1300088324
C  C314  1  0.52770000  0.79540000  0.56050000  1.0 -0.1300088324
C  C315  1  0.20460000  0.73230000  0.56050000  1.0 -0.1300088324
C  C316  1  0.73230000  0.52770000  0.06050000  1.0 -0.1300088324
C  C317  1  0.47230000  0.20460000  0.06050000  1.0 -0.1300088324
C  C318  1  0.79540000  0.26770000  0.06050000  1.0 -0.1300088324
C  C319  1  0.06930000  0.33760000  0.46650000  1.0 -0.1300088324
C  C320  1  0.66240000  0.73170000  0.46650000  1.0 -0.1300088324
C  C321  1  0.26830000  0.93070000  0.46650000  1.0 -0.1300088324
C  C322  1  0.93070000  0.66240000  0.96650000  1.0 -0.1300088324
C  C323  1  0.33760000  0.26830000  0.96650000  1.0 -0.1300088324
C  C324  1  0.73170000  0.06930000  0.96650000  1.0 -0.1300088324
C  C325  1  0.28990000  0.46610000  0.60150000  1.0 -0.1005197825
C  C326  1  0.53390000  0.82380000  0.60150000  1.0 -0.1005197825
C  C327  1  0.17620000  0.71010000  0.60150000  1.0 -0.1005197825
C  C328  1  0.71010000  0.53390000  0.10150000  1.0 -0.1005197825
C  C329  1  0.46610000  0.17620000  0.10150000  1.0 -0.1005197825
C  C330  1  0.82380000  0.28990000  0.10150000  1.0 -0.1005197825
C  C331  1  0.34270000  0.93100000  0.77420000  1.0 -0.147397439
C  C332  1  0.06900000  0.41170000  0.77420000  1.0 -0.147397439
C  C333  1  0.58830000  0.65730000  0.77420000  1.0 -0.147397439
C  C334  1  0.65730000  0.06900000  0.27420000  1.0 -0.147397439
C  C335  1  0.93100000  0.58830000  0.27420000  1.0 -0.147397439
C  C336  1  0.41170000  0.34270000  0.27420000  1.0 -0.147397439
C  C337  1  0.52840000  0.57780000  0.19990000  1.0 -0.0885803085
C  C338  1  0.42220000  0.95060000  0.19990000  1.0 -0.0885803085
C  C339  1  0.04940000  0.47160000  0.19990000  1.0 -0.0885803085
C  C340  1  0.47160000  0.42220000  0.69990000  1.0 -0.0885803085
C  C341  1  0.57780000  0.04940000  0.69990000  1.0 -0.0885803085
C  C342  1  0.95060000  0.52840000  0.69990000  1.0 -0.0885803085
C  C343  1  0.21780000  0.85930000  0.75060000  1.0 -0.1765030567
C  C344  1  0.14070000  0.35850000  0.75060000  1.0 -0.1765030567
C  C345  1  0.64150000  0.78220000  0.75060000  1.0 -0.1765030567
C  C346  1  0.78220000  0.14070000  0.25060000  1.0 -0.1765030567
C  C347  1  0.85930000  0.64150000  0.25060000  1.0 -0.1765030567
C  C348  1  0.35850000  0.21780000  0.25060000  1.0 -0.1765030567
C  C349  1  0.19980000  0.26570000  0.46260000  1.0 -0.1408768799
C  C350  1  0.73430000  0.93410000  0.46260000  1.0 -0.1408768799
C  C351  1  0.06590000  0.80020000  0.46260000  1.0 -0.1408768799
C  C352  1  0.80020000  0.73430000  0.96260000  1.0 -0.1408768799
C  C353  1  0.26570000  0.06590000  0.96260000  1.0 -0.1408768799
C  C354  1  0.93410000  0.19980000  0.96260000  1.0 -0.1408768799
C  C355  1  0.59370000  0.53040000  0.23960000  1.0 -0.1589149608
C  C356  1  0.46960000  0.06330000  0.23960000  1.0 -0.1589149608
C  C357  1  0.93670000  0.40630000  0.23960000  1.0 -0.1589149608
C  C358  1  0.40630000  0.46960000  0.73960000  1.0 -0.1589149608
C  C359  1  0.53040000  0.93670000  0.73960000  1.0 -0.1589149608
C  C360  1  0.06330000  0.59370000  0.73960000  1.0 -0.1589149608
C  C361  1  0.20080000  0.49020000  0.63500000  1.0 -0.147397439
C  C362  1  0.50980000  0.71060000  0.63500000  1.0 -0.147397439
C  C363  1  0.28940000  0.79920000  0.63500000  1.0 -0.147397439
C  C364  1  0.79920000  0.50980000  0.13500000  1.0 -0.147397439
C  C365  1  0.49020000  0.28940000  0.13500000  1.0 -0.147397439
C  C366  1  0.71060000  0.20080000  0.13500000  1.0 -0.147397439
C  C367  1  0.58050000  0.55480000  0.20140000  1.0 -0.108004136
C  C368  1  0.44520000  0.02570000  0.20140000  1.0 -0.108004136
C  C369  1  0.97430000  0.41950000  0.20140000  1.0 -0.108004136
C  C370  1  0.41950000  0.44520000  0.70140000  1.0 -0.108004136
C  C371  1  0.55480000  0.97430000  0.70140000  1.0 -0.108004136
C  C372  1  0.02570000  0.58050000  0.70140000  1.0 -0.108004136
C  C373  1  0.13400000  0.26830000  0.46480000  1.0 0.0502442679
C  C374  1  0.73170000  0.86570000  0.46480000  1.0 0.0502442679
C  C375  1  0.13430000  0.86600000  0.46480000  1.0 0.0502442679
C  C376  1  0.86600000  0.73170000  0.96480000  1.0 0.0502442679
C  C377  1  0.26830000  0.13430000  0.96480000  1.0 0.0502442679
C  C378  1  0.86570000  0.13400000  0.96480000  1.0 0.0502442679
C  C379  1  0.25640000  0.47550000  0.63910000  1.0 -0.108004136
C  C380  1  0.52450000  0.78090000  0.63910000  1.0 -0.108004136
C  C381  1  0.21910000  0.74360000  0.63910000  1.0 -0.108004136
C  C382  1  0.74360000  0.52450000  0.13910000  1.0 -0.108004136
C  C383  1  0.47550000  0.21910000  0.13910000  1.0 -0.108004136
C  C384  1  0.78090000  0.25640000  0.13910000  1.0 -0.108004136
C  C385  1  0.36190000  0.96780000  0.73510000  1.0 -0.108004136
C  C386  1  0.03220000  0.39410000  0.73510000  1.0 -0.108004136
C  C387  1  0.60590000  0.63810000  0.73510000  1.0 -0.108004136
C  C388  1  0.63810000  0.03220000  0.23510000  1.0 -0.108004136
C  C389  1  0.96780000  0.60590000  0.23510000  1.0 -0.108004136
C  C390  1  0.39410000  0.36190000  0.23510000  1.0 -0.108004136
C  C391  1  0.20190000  0.29420000  0.25760000  1.0 -0.1408768799
C  C392  1  0.70580000  0.90770000  0.25760000  1.0 -0.1408768799
C  C393  1  0.09230000  0.79810000  0.25760000  1.0 -0.1408768799
C  C394  1  0.79810000  0.70580000  0.75760000  1.0 -0.1408768799
C  C395  1  0.29420000  0.09230000  0.75760000  1.0 -0.1408768799
C  C396  1  0.90770000  0.20190000  0.75760000  1.0 -0.1408768799
C  C397  1  0.23720000  0.89760000  0.71120000  1.0 -0.1408768799
C  C398  1  0.10240000  0.33960000  0.71120000  1.0 -0.1408768799
C  C399  1  0.66040000  0.76280000  0.71120000  1.0 -0.1408768799
C  C400  1  0.76280000  0.10240000  0.21120000  1.0 -0.1408768799
C  C401  1  0.89760000  0.66040000  0.21120000  1.0 -0.1408768799
C  C402  1  0.33960000  0.23720000  0.21120000  1.0 -0.1408768799
C  C403  1  0.40400000  0.02260000  0.64680000  1.0 -0.1185612169
C  C404  1  0.97740000  0.38140000  0.64680000  1.0 -0.1185612169
C  C405  1  0.61860000  0.59600000  0.64680000  1.0 -0.1185612169
C  C406  1  0.59600000  0.97740000  0.14680000  1.0 -0.1185612169
C  C407  1  0.02260000  0.61860000  0.14680000  1.0 -0.1185612169
C  C408  1  0.38140000  0.40400000  0.14680000  1.0 -0.1185612169
C  C409  1  0.99990000  0.20450000  0.46490000  1.0 -0.108004136
C  C410  1  0.79550000  0.79540000  0.46490000  1.0 -0.108004136
C  C411  1  0.20460000  0.00010000  0.46490000  1.0 -0.108004136
C  C412  1  0.00010000  0.79550000  0.96490000  1.0 -0.108004136
C  C413  1  0.20450000  0.20460000  0.96490000  1.0 -0.108004136
C  C414  1  0.79540000  0.99990000  0.96490000  1.0 -0.108004136
C  C415  1  0.06470000  0.20270000  0.46410000  1.0 -0.147397439
C  C416  1  0.79730000  0.86200000  0.46410000  1.0 -0.147397439
C  C417  1  0.13800000  0.93530000  0.46410000  1.0 -0.147397439
C  C418  1  0.93530000  0.79730000  0.96410000  1.0 -0.147397439
C  C419  1  0.20270000  0.13800000  0.96410000  1.0 -0.147397439
C  C420  1  0.86200000  0.06470000  0.96410000  1.0 -0.147397439
C  C421  1  0.28340000  0.99850000  0.63430000  1.0 -0.1300088324
C  C422  1  0.00150000  0.28490000  0.63430000  1.0 -0.1300088324
C  C423  1  0.71510000  0.71660000  0.63430000  1.0 -0.1300088324
C  C424  1  0.71660000  0.00150000  0.13430000  1.0 -0.1300088324
C  C425  1  0.99850000  0.71510000  0.13430000  1.0 -0.1300088324
C  C426  1  0.28490000  0.28340000  0.13430000  1.0 -0.1300088324
C  C427  1  0.30630000  0.03700000  0.59440000  1.0 -0.1589149608
C  C428  1  0.96300000  0.26930000  0.59440000  1.0 -0.1589149608
C  C429  1  0.73070000  0.69370000  0.59440000  1.0 -0.1589149608
C  C430  1  0.69370000  0.96300000  0.09440000  1.0 -0.1589149608
C  C431  1  0.03700000  0.73070000  0.09440000  1.0 -0.1589149608
C  C432  1  0.26930000  0.30630000  0.09440000  1.0 -0.1589149608
C  C433  1  0.21290000  0.75330000  0.87190000  1.0 -0.0168771014
C  C434  1  0.24670000  0.45960000  0.87190000  1.0 -0.0168771014
C  C435  1  0.54040000  0.78710000  0.87190000  1.0 -0.0168771014
C  C436  1  0.78710000  0.24670000  0.37190000  1.0 -0.0168771014
C  C437  1  0.75330000  0.54040000  0.37190000  1.0 -0.0168771014
C  C438  1  0.45960000  0.21290000  0.37190000  1.0 -0.0168771014
C  C439  1  0.21230000  0.76500000  0.82870000  1.0 -0.1005197825
C  C440  1  0.23500000  0.44730000  0.82870000  1.0 -0.1005197825
C  C441  1  0.55270000  0.78770000  0.82870000  1.0 -0.1005197825
C  C442  1  0.78770000  0.23500000  0.32870000  1.0 -0.1005197825
C  C443  1  0.76500000  0.55270000  0.32870000  1.0 -0.1005197825
C  C444  1  0.44730000  0.21230000  0.32870000  1.0 -0.1005197825
N  N1  1  0.57770000  0.24410000  0.57130000  1.0 -0.8232995738
N  N2  1  0.75590000  0.33360000  0.57130000  1.0 -0.8232995738
N  N3  1  0.66640000  0.42230000  0.57130000  1.0 -0.8232995738
N  N4  1  0.42230000  0.75590000  0.07130000  1.0 -0.8232995738
N  N5  1  0.24410000  0.66640000  0.07130000  1.0 -0.8232995738
N  N6  1  0.33360000  0.57770000  0.07130000  1.0 -0.8232995738
N  N7  1  0.66666667  0.33333333  0.46780000  1.0 -0.8232995738
N  N8  1  0.33333333  0.66666667  0.96780000  1.0 -0.8232995738
N  N9  1  0.42210000  0.18480000  0.48920000  1.0 -0.2913560811
N  N10  1  0.81520000  0.23730000  0.48920000  1.0 -0.2913560811
N  N11  1  0.76270000  0.57790000  0.48920000  1.0 -0.2913560811
N  N12  1  0.57790000  0.81520000  0.98920000  1.0 -0.2913560811
N  N13  1  0.18480000  0.76270000  0.98920000  1.0 -0.2913560811
N  N14  1  0.23730000  0.42210000  0.98920000  1.0 -0.2913560811
N  N15  1  0.25360000  0.81760000  0.89246000  1.0 -0.273839036
N  N16  1  0.18240000  0.43600000  0.89246000  1.0 -0.273839036
N  N17  1  0.56400000  0.74640000  0.89246000  1.0 -0.273839036
N  N18  1  0.74640000  0.18240000  0.39246000  1.0 -0.273839036
N  N19  1  0.81760000  0.56400000  0.39246000  1.0 -0.273839036
N  N20  1  0.43600000  0.25360000  0.39246000  1.0 -0.273839036
N  N21  1  0.40160000  0.10550000  0.54163000  1.0 0.0012679289
N  N22  1  0.89450000  0.29610000  0.54163000  1.0 0.0012679289
N  N23  1  0.70390000  0.59840000  0.54163000  1.0 0.0012679289
N  N24  1  0.59840000  0.89450000  0.04163000  1.0 0.0012679289
N  N25  1  0.10550000  0.70390000  0.04163000  1.0 0.0012679289
N  N26  1  0.29610000  0.40160000  0.04163000  1.0 0.0012679289
N  N27  1  0.51390000  0.35960000  0.48286000  1.0 -0.8008188252
N  N28  1  0.64040000  0.15430000  0.48286000  1.0 -0.8008188252
N  N29  1  0.84570000  0.48610000  0.48286000  1.0 -0.8008188252
N  N30  1  0.48610000  0.64040000  0.98286000  1.0 -0.8008188252
N  N31  1  0.35960000  0.84570000  0.98286000  1.0 -0.8008188252
N  N32  1  0.15430000  0.51390000  0.98286000  1.0 -0.8008188252
N  N33  1  0.25390000  0.83860000  0.82244000  1.0 0.0085055698
N  N34  1  0.16140000  0.41530000  0.82244000  1.0 0.0085055698
N  N35  1  0.58470000  0.74610000  0.82244000  1.0 0.0085055698
N  N36  1  0.74610000  0.16140000  0.32244000  1.0 0.0085055698
N  N37  1  0.83860000  0.58470000  0.32244000  1.0 0.0085055698
N  N38  1  0.41530000  0.25390000  0.32244000  1.0 0.0085055698
O  O1  1  0.51170000  0.37090000  0.57948000  1.0 -0.6784180347
O  O2  1  0.62910000  0.14080000  0.57948000  1.0 -0.6784180347
O  O3  1  0.85920000  0.48830000  0.57948000  1.0 -0.6784180347
O  O4  1  0.48830000  0.62910000  0.07948000  1.0 -0.6784180347
O  O5  1  0.37090000  0.85920000  0.07948000  1.0 -0.6784180347
O  O6  1  0.14080000  0.51170000  0.07948000  1.0 -0.6784180347
O  O7  1  0.32710000  0.20890000  0.60710000  1.0 -0.4890267147
O  O8  1  0.79110000  0.11820000  0.60710000  1.0 -0.4890267147
O  O9  1  0.88180000  0.67290000  0.60710000  1.0 -0.4890267147
O  O10  1  0.67290000  0.79110000  0.10710000  1.0 -0.4890267147
O  O11  1  0.20890000  0.88180000  0.10710000  1.0 -0.4890267147
O  O12  1  0.11820000  0.32710000  0.10710000  1.0 -0.4890267147
O  O13  1  0.52752000  0.49100000  0.43300000  1.0 -0.6386955921
O  O14  1  0.50900000  0.03652000  0.43300000  1.0 -0.6386955921
O  O15  1  0.96348000  0.47248000  0.43300000  1.0 -0.6386955921
O  O16  1  0.47248000  0.50900000  0.93300000  1.0 -0.6386955921
O  O17  1  0.49100000  0.96348000  0.93300000  1.0 -0.6386955921
O  O18  1  0.03652000  0.52752000  0.93300000  1.0 -0.6386955921
O  O19  1  0.43156000  0.50977000  0.38886000  1.0 -0.610649439
O  O20  1  0.49023000  0.92179000  0.38886000  1.0 -0.610649439
O  O21  1  0.07821000  0.56844000  0.38886000  1.0 -0.610649439
O  O22  1  0.56844000  0.49023000  0.88886000  1.0 -0.610649439
O  O23  1  0.50977000  0.07821000  0.88886000  1.0 -0.610649439
O  O24  1  0.92179000  0.43156000  0.88886000  1.0 -0.610649439
O  O25  1  0.11011000  0.52490000  0.46948000  1.0 -0.610649439
O  O26  1  0.47510000  0.58521000  0.46948000  1.0 -0.610649439
O  O27  1  0.41479000  0.88989000  0.46948000  1.0 -0.610649439
O  O28  1  0.88989000  0.47510000  0.96948000  1.0 -0.610649439
O  O29  1  0.52490000  0.41479000  0.96948000  1.0 -0.610649439
O  O30  1  0.58521000  0.11011000  0.96948000  1.0 -0.610649439
O  O31  1  0.39188000  0.37770000  0.43769000  1.0 -0.6205964344
O  O32  1  0.62230000  0.01418000  0.43769000  1.0 -0.6205964344
O  O33  1  0.98582000  0.60812000  0.43769000  1.0 -0.6205964344
O  O34  1  0.60812000  0.62230000  0.93769000  1.0 -0.6205964344
O  O35  1  0.37770000  0.98582000  0.93769000  1.0 -0.6205964344
O  O36  1  0.01418000  0.39188000  0.93769000  1.0 -0.6205964344
O  O37  1  0.58650000  0.44590000  0.39626000  1.0 -0.5239515547
O  O38  1  0.55410000  0.14060000  0.39626000  1.0 -0.5239515547
O  O39  1  0.85940000  0.41350000  0.39626000  1.0 -0.5239515547
O  O40  1  0.41350000  0.55410000  0.89626000  1.0 -0.5239515547
O  O41  1  0.44590000  0.85940000  0.89626000  1.0 -0.5239515547
O  O42  1  0.14060000  0.58650000  0.89626000  1.0 -0.5239515547
O  O43  1  0.33675000  0.46120000  0.46067000  1.0 -0.6205964344
O  O44  1  0.53880000  0.87555000  0.46067000  1.0 -0.6205964344
O  O45  1  0.12445000  0.66325000  0.46067000  1.0 -0.6205964344
O  O46  1  0.66325000  0.53880000  0.96067000  1.0 -0.6205964344
O  O47  1  0.46120000  0.12445000  0.96067000  1.0 -0.6205964344
O  O48  1  0.87555000  0.33675000  0.96067000  1.0 -0.6205964344
O  O49  1  0.34683000  0.59951000  0.23826000  1.0 -0.610649439
O  O50  1  0.40049000  0.74732000  0.23826000  1.0 -0.610649439
O  O51  1  0.25268000  0.65317000  0.23826000  1.0 -0.610649439
O  O52  1  0.65317000  0.40049000  0.73826000  1.0 -0.610649439
O  O53  1  0.59951000  0.25268000  0.73826000  1.0 -0.610649439
O  O54  1  0.74732000  0.34683000  0.73826000  1.0 -0.610649439
O  O55  1  0.01120000  0.54710000  0.50844000  1.0 -0.610649439
O  O56  1  0.45290000  0.46410000  0.50844000  1.0 -0.6205964344
O  O57  1  0.53590000  0.98880000  0.50844000  1.0 -0.6205964344
O  O58  1  0.98880000  0.45290000  0.00844000  1.0 -0.6205964344
O  O59  1  0.54710000  0.53590000  0.00844000  1.0 -0.6205964344
O  O60  1  0.46410000  0.01120000  0.00844000  1.0 -0.6205964344
O  O61  1  0.27480000  0.58030000  0.16551000  1.0 -0.6205964344
O  O62  1  0.41970000  0.69450000  0.16551000  1.0 -0.6205964344
O  O63  1  0.30550000  0.72520000  0.16551000  1.0 -0.6205964344
O  O64  1  0.72520000  0.41970000  0.66551000  1.0 -0.6205964344
O  O65  1  0.58030000  0.30550000  0.66551000  1.0 -0.6205964344
O  O66  1  0.69450000  0.27480000  0.66551000  1.0 -0.6205964344
O  O67  1  0.33220000  0.26450000  0.46392000  1.0 -0.5239515547
O  O68  1  0.73550000  0.06770000  0.46392000  1.0 -0.5239515547
O  O69  1  0.93230000  0.66780000  0.46392000  1.0 -0.5239515547
O  O70  1  0.66780000  0.73550000  0.96392000  1.0 -0.5239515547
O  O71  1  0.26450000  0.93230000  0.96392000  1.0 -0.5239515547
O  O72  1  0.06770000  0.33220000  0.96392000  1.0 -0.5239515547
O  O73  1  0.01050000  0.55020000  0.58069000  1.0 -0.5307771111
O  O74  1  0.44980000  0.46030000  0.58069000  1.0 -0.5307771111
O  O75  1  0.53970000  0.98950000  0.58069000  1.0 -0.5307771111
O  O76  1  0.98950000  0.44980000  0.08069000  1.0 -0.5307771111
O  O77  1  0.55020000  0.53970000  0.08069000  1.0 -0.5307771111
O  O78  1  0.46030000  0.01050000  0.08069000  1.0 -0.5307771111
O  O79  1  0.20950000  0.46780000  0.13963000  1.0 -0.5355396513
O  O80  1  0.53220000  0.74170000  0.13963000  1.0 -0.5355396513
O  O81  1  0.25830000  0.79050000  0.13963000  1.0 -0.5355396513
O  O82  1  0.79050000  0.53220000  0.63963000  1.0 -0.5355396513
O  O83  1  0.46780000  0.25830000  0.63963000  1.0 -0.5355396513
O  O84  1  0.74170000  0.20950000  0.63963000  1.0 -0.5355396513
