# DDEC6 charges by PACMAN v1.1 (https://github.com/mtap-research/PACMAN-charge/)
data_UDOMEJ_FSR_pacman
_symmetry_space_group_name_H-M   'P 1'
_cell_length_a   20.97920000
_cell_length_b   20.97920000
_cell_length_c   30.61360000
_cell_angle_alpha   90.00000000
_cell_angle_beta   90.00000000
_cell_angle_gamma   120.00000000
_symmetry_Int_Tables_number   1
_chemical_formula_structural   Ti4Zn4H183C222N19O42
_chemical_formula_sum   'Ti8 Zn8 H366 C444 N38 O84'
_cell_volume   11668.71093922
_cell_formula_units_Z   2
loop_
 _symmetry_equiv_pos_site_id
 _symmetry_equiv_pos_as_xyz
  1  'x, y, z'
loop_
 _atom_site_type_symbol
 _atom_site_label
 _atom_site_symmetry_multiplicity
 _atom_site_fract_x
 _atom_site_fract_y
 _atom_site_fract_z
 _atom_site_occupancy
 _atom_site_charge
Ti  Ti1  1  0.48999000  0.05518000  0.36120000  1.0 1.9066527158
Ti  Ti2  1  0.94482000  0.43481000  0.36120000  1.0 1.9066527158
Ti  Ti3  1  0.56519000  0.51001000  0.36120000  1.0 1.9066527158
Ti  Ti4  1  0.51001000  0.94482000  0.86120000  1.0 1.9066527158
Ti  Ti5  1  0.05518000  0.56519000  0.86120000  1.0 1.9066527158
Ti  Ti6  1  0.43481000  0.48999000  0.86120000  1.0 1.9066527158
Ti  Ti7  1  0.66666667  0.33333333  0.60358000  1.0 1.9066527158
Ti  Ti8  1  0.33333333  0.66666667  0.10358000  1.0 1.9066527158
Zn  Zn1  1  0.33333333  0.66666667  0.25932000  1.0 0.7443961834
Zn  Zn2  1  0.66666667  0.33333333  0.75932000  1.0 0.7443961834
Zn  Zn3  1  0.27213000  0.84145000  0.35337000  1.0 0.7443961834
Zn  Zn4  1  0.15855000  0.43068000  0.35337000  1.0 0.7443961834
Zn  Zn5  1  0.56932000  0.72787000  0.35337000  1.0 0.7443961834
Zn  Zn6  1  0.72787000  0.15855000  0.85337000  1.0 0.7443961834
Zn  Zn7  1  0.84145000  0.56932000  0.85337000  1.0 0.7454309285
Zn  Zn8  1  0.43068000  0.27213000  0.85337000  1.0 0.7443961834
H  H1  1  0.41490000  0.79390000  0.23992000  1.0 0.2927133213
H  H2  1  0.20610000  0.62100000  0.23992000  1.0 0.2927133213
H  H3  1  0.37900000  0.58510000  0.23992000  1.0 0.2927133213
H  H4  1  0.58510000  0.20610000  0.73992000  1.0 0.2927133213
H  H5  1  0.79390000  0.37900000  0.73992000  1.0 0.2927133213
H  H6  1  0.62100000  0.41490000  0.73992000  1.0 0.2927133213
H  H7  1  0.46064000  0.76354000  0.25354000  1.0 0.2711457357
H  H8  1  0.23646000  0.69710000  0.25354000  1.0 0.2711457357
H  H9  1  0.30290000  0.53936000  0.25354000  1.0 0.2711457357
H  H10  1  0.53936000  0.23646000  0.75354000  1.0 0.2711457357
H  H11  1  0.76354000  0.30290000  0.75354000  1.0 0.2711457357
H  H12  1  0.69710000  0.46064000  0.75354000  1.0 0.2711457357
H  H13  1  0.42855000  0.74818000  0.21008000  1.0 0.2993762464
H  H14  1  0.25182000  0.68037000  0.21008000  1.0 0.2993762464
H  H15  1  0.31963000  0.57145000  0.21008000  1.0 0.2993762464
H  H16  1  0.57145000  0.25182000  0.71008000  1.0 0.2993762464
H  H17  1  0.74818000  0.31963000  0.71008000  1.0 0.2993762464
H  H18  1  0.68037000  0.42855000  0.71008000  1.0 0.2993762464
H  H19  1  0.31073000  0.62049000  0.34969000  1.0 0.257707434
H  H20  1  0.37951000  0.69024000  0.34969000  1.0 0.257707434
H  H21  1  0.30976000  0.68927000  0.34969000  1.0 0.257707434
H  H22  1  0.68927000  0.37951000  0.84969000  1.0 0.257707434
H  H23  1  0.62049000  0.30976000  0.84969000  1.0 0.257707434
H  H24  1  0.69024000  0.31073000  0.84969000  1.0 0.257707434
H  H25  1  0.40449000  0.90031000  0.21963000  1.0 0.3105492116
H  H26  1  0.09969000  0.50418000  0.21963000  1.0 0.3105492116
H  H27  1  0.49582000  0.59551000  0.21963000  1.0 0.3105492116
H  H28  1  0.59551000  0.09969000  0.71963000  1.0 0.3105492116
H  H29  1  0.90031000  0.49582000  0.71963000  1.0 0.3105492116
H  H30  1  0.50418000  0.40449000  0.71963000  1.0 0.3105492116
H  H31  1  0.33948000  0.84126000  0.20916000  1.0 0.3105492116
H  H32  1  0.15874000  0.49822000  0.20916000  1.0 0.3105492116
H  H33  1  0.50178000  0.66052000  0.20916000  1.0 0.3105492116
H  H34  1  0.66052000  0.15874000  0.70916000  1.0 0.3105492116
H  H35  1  0.84126000  0.50178000  0.70916000  1.0 0.3105492116
H  H36  1  0.49822000  0.33948000  0.70916000  1.0 0.3105492116
H  H37  1  0.36810000  0.22915000  0.69069000  1.0 0.3361910304
H  H38  1  0.77085000  0.13895000  0.69069000  1.0 0.3361910304
H  H39  1  0.86105000  0.63190000  0.69069000  1.0 0.3361910304
H  H40  1  0.63190000  0.77085000  0.19069000  1.0 0.3361910304
H  H41  1  0.22915000  0.86105000  0.19069000  1.0 0.3361910304
H  H42  1  0.13895000  0.36810000  0.19069000  1.0 0.3361910304
H  H43  1  0.32081000  0.28671000  0.67013000  1.0 0.0770211191
H  H44  1  0.71329000  0.03410000  0.67013000  1.0 0.0770211191
H  H45  1  0.96590000  0.67919000  0.67013000  1.0 0.0770211191
H  H46  1  0.67919000  0.71329000  0.17013000  1.0 0.0770211191
H  H47  1  0.28671000  0.96590000  0.17013000  1.0 0.0770211191
H  H48  1  0.03410000  0.32081000  0.17013000  1.0 0.0770211191
H  H49  1  0.23551000  0.22111000  0.74502000  1.0 0.1190813308
H  H50  1  0.77889000  0.01440000  0.74502000  1.0 0.1190813308
H  H51  1  0.98560000  0.76449000  0.74502000  1.0 0.1190813308
H  H52  1  0.76449000  0.77889000  0.24502000  1.0 0.1190813308
H  H53  1  0.22111000  0.98560000  0.24502000  1.0 0.1190813308
H  H54  1  0.01440000  0.23551000  0.24502000  1.0 0.1190813308
H  H55  1  0.29552000  0.30410000  0.73917000  1.0 0.1190813308
H  H56  1  0.69590000  0.99142000  0.73917000  1.0 0.1190813308
H  H57  1  0.00858000  0.70448000  0.73917000  1.0 0.1190813308
H  H58  1  0.70448000  0.69590000  0.23917000  1.0 0.1190813308
H  H59  1  0.30410000  0.00858000  0.23917000  1.0 0.1190813308
H  H60  1  0.99142000  0.29552000  0.23917000  1.0 0.1190813308
H  H61  1  0.07739000  0.05337000  0.58249000  1.0 0.1113158146
H  H62  1  0.94663000  0.02402000  0.58249000  1.0 0.1113158146
H  H63  1  0.97598000  0.92261000  0.58249000  1.0 0.1113158146
H  H64  1  0.92261000  0.94663000  0.08249000  1.0 0.1113158146
H  H65  1  0.05337000  0.97598000  0.08249000  1.0 0.1113158146
H  H66  1  0.02402000  0.07739000  0.08249000  1.0 0.1113158146
H  H67  1  0.13628000  0.17836000  0.56720000  1.0 0.1190813308
H  H68  1  0.82164000  0.95792000  0.56720000  1.0 0.1190813308
H  H69  1  0.04208000  0.86372000  0.56720000  1.0 0.1190813308
H  H70  1  0.86372000  0.82164000  0.06720000  1.0 0.1190813308
H  H71  1  0.17836000  0.04208000  0.06720000  1.0 0.1190813308
H  H72  1  0.95792000  0.13628000  0.06720000  1.0 0.1190813308
H  H73  1  0.23051000  0.26122000  0.61208000  1.0 0.1190813308
H  H74  1  0.73878000  0.96929000  0.61208000  1.0 0.1190813308
H  H75  1  0.03071000  0.76949000  0.61208000  1.0 0.1190813308
H  H76  1  0.76949000  0.73878000  0.11208000  1.0 0.1190813308
H  H77  1  0.26122000  0.03071000  0.11208000  1.0 0.1190813308
H  H78  1  0.96929000  0.23051000  0.11208000  1.0 0.1190813308
H  H79  1  0.20699000  0.09409000  0.68757000  1.0 0.1190813308
H  H80  1  0.90591000  0.11290000  0.68757000  1.0 0.1190813308
H  H81  1  0.88710000  0.79301000  0.68757000  1.0 0.1190813308
H  H82  1  0.79301000  0.90591000  0.18757000  1.0 0.1190813308
H  H83  1  0.09409000  0.88710000  0.18757000  1.0 0.1190813308
H  H84  1  0.11290000  0.20699000  0.18757000  1.0 0.1190813308
H  H85  1  0.11275000  0.01123000  0.64268000  1.0 0.1113158146
H  H86  1  0.98877000  0.10152000  0.64268000  1.0 0.1113158146
H  H87  1  0.89848000  0.88725000  0.64268000  1.0 0.1113158146
H  H88  1  0.88725000  0.98877000  0.14268000  1.0 0.1113158146
H  H89  1  0.01123000  0.89848000  0.14268000  1.0 0.1113158146
H  H90  1  0.10152000  0.11275000  0.14268000  1.0 0.1113158146
H  H91  1  0.22051000  0.33107000  0.70437000  1.0 0.0903469605
H  H92  1  0.66893000  0.88944000  0.70437000  1.0 0.0903469605
H  H93  1  0.11056000  0.77949000  0.70437000  1.0 0.0903469605
H  H94  1  0.77949000  0.66893000  0.20437000  1.0 0.0903469605
H  H95  1  0.33107000  0.11056000  0.20437000  1.0 0.0903469605
H  H96  1  0.88944000  0.22051000  0.20437000  1.0 0.0903469605
H  H97  1  0.17278000  0.25132000  0.68560000  1.0 0.073088957
H  H98  1  0.74868000  0.92146000  0.68560000  1.0 0.073088957
H  H99  1  0.07854000  0.82722000  0.68560000  1.0 0.073088957
H  H100  1  0.82722000  0.74868000  0.18560000  1.0 0.073088957
H  H101  1  0.25132000  0.07854000  0.18560000  1.0 0.073088957
H  H102  1  0.92146000  0.17278000  0.18560000  1.0 0.073088957
H  H103  1  0.10849000  0.27466000  0.73288000  1.0 0.1190813308
H  H104  1  0.72534000  0.83383000  0.73288000  1.0 0.1190813308
H  H105  1  0.16617000  0.89151000  0.73288000  1.0 0.1190813308
H  H106  1  0.89151000  0.72534000  0.23288000  1.0 0.1190813308
H  H107  1  0.27466000  0.16617000  0.23288000  1.0 0.1190813308
H  H108  1  0.83383000  0.10849000  0.23288000  1.0 0.1190813308
H  H109  1  0.16332000  0.29275000  0.77191000  1.0 0.1113158146
H  H110  1  0.70725000  0.87057000  0.77191000  1.0 0.1113158146
H  H111  1  0.12943000  0.83668000  0.77191000  1.0 0.1113158146
H  H112  1  0.83668000  0.70725000  0.27191000  1.0 0.1113158146
H  H113  1  0.29275000  0.12943000  0.27191000  1.0 0.1113158146
H  H114  1  0.87057000  0.16332000  0.27191000  1.0 0.1113158146
H  H115  1  0.11485000  0.21130000  0.75588000  1.0 0.1190813308
H  H116  1  0.78870000  0.90355000  0.75588000  1.0 0.1190813308
H  H117  1  0.09645000  0.88515000  0.75588000  1.0 0.1190813308
H  H118  1  0.88515000  0.78870000  0.25588000  1.0 0.1190813308
H  H119  1  0.21130000  0.09645000  0.25588000  1.0 0.1190813308
H  H120  1  0.90355000  0.11485000  0.25588000  1.0 0.1190813308
H  H121  1  0.36242000  0.80622000  0.33318000  1.0 0.2711457357
H  H122  1  0.19378000  0.55620000  0.33318000  1.0 0.2711457357
H  H123  1  0.44380000  0.63758000  0.33318000  1.0 0.2711457357
H  H124  1  0.63758000  0.19378000  0.83318000  1.0 0.2711457357
H  H125  1  0.80622000  0.44380000  0.83318000  1.0 0.2711457357
H  H126  1  0.55620000  0.36242000  0.83318000  1.0 0.2711457357
H  H127  1  0.40089000  0.88597000  0.33658000  1.0 0.2993762464
H  H128  1  0.11403000  0.51492000  0.33658000  1.0 0.2993762464
H  H129  1  0.48508000  0.59911000  0.33658000  1.0 0.2993762464
H  H130  1  0.59911000  0.11403000  0.83658000  1.0 0.2993762464
H  H131  1  0.88597000  0.48508000  0.83658000  1.0 0.2993762464
H  H132  1  0.51492000  0.40089000  0.83658000  1.0 0.2993762464
H  H133  1  0.35842000  0.85004000  0.29761000  1.0 0.3105492116
H  H134  1  0.14996000  0.50838000  0.29761000  1.0 0.3105492116
H  H135  1  0.49162000  0.64158000  0.29761000  1.0 0.3105492116
H  H136  1  0.64158000  0.14996000  0.79761000  1.0 0.3105492116
H  H137  1  0.85004000  0.49162000  0.79761000  1.0 0.3105492116
H  H138  1  0.50838000  0.35842000  0.79761000  1.0 0.3105492116
H  H139  1  0.31358000  0.91893000  0.44343000  1.0 0.1301226113
H  H140  1  0.08107000  0.39465000  0.44343000  1.0 0.1301226113
H  H141  1  0.60535000  0.68642000  0.44343000  1.0 0.1301226113
H  H142  1  0.68642000  0.08107000  0.94343000  1.0 0.1301226113
H  H143  1  0.91893000  0.60535000  0.94343000  1.0 0.1301226113
H  H144  1  0.39465000  0.31358000  0.94343000  1.0 0.1301226113
H  H145  1  0.28923000  0.03219000  0.45398000  1.0 0.1113158146
H  H146  1  0.96781000  0.25704000  0.45398000  1.0 0.1113158146
H  H147  1  0.74296000  0.71077000  0.45398000  1.0 0.1113158146
H  H148  1  0.71077000  0.96781000  0.95398000  1.0 0.1113158146
H  H149  1  0.03219000  0.74296000  0.95398000  1.0 0.1113158146
H  H150  1  0.25704000  0.28923000  0.95398000  1.0 0.1113158146
H  H151  1  0.51640000  0.25001000  0.33996000  1.0 0.1301226113
H  H152  1  0.74999000  0.26639000  0.33996000  1.0 0.1301226113
H  H153  1  0.73361000  0.48360000  0.33996000  1.0 0.1301226113
H  H154  1  0.48360000  0.74999000  0.83996000  1.0 0.1301226113
H  H155  1  0.25001000  0.73361000  0.83996000  1.0 0.1301226113
H  H156  1  0.26639000  0.51640000  0.83996000  1.0 0.1301226113
H  H157  1  0.48679000  0.29648000  0.36312000  1.0 0.1301226113
H  H158  1  0.70352000  0.19031000  0.36312000  1.0 0.1301226113
H  H159  1  0.80969000  0.51321000  0.36312000  1.0 0.1301226113
H  H160  1  0.51321000  0.70352000  0.86312000  1.0 0.1301226113
H  H161  1  0.29648000  0.80969000  0.86312000  1.0 0.1301226113
H  H162  1  0.19031000  0.48679000  0.86312000  1.0 0.1301226113
H  H163  1  0.36001000  0.17488000  0.76835000  1.0 0.1301226113
H  H164  1  0.82512000  0.18513000  0.76835000  1.0 0.1301226113
H  H165  1  0.81487000  0.63999000  0.76835000  1.0 0.1301226113
H  H166  1  0.63999000  0.82512000  0.26835000  1.0 0.1301226113
H  H167  1  0.17488000  0.81487000  0.26835000  1.0 0.1301226113
H  H168  1  0.18513000  0.36001000  0.26835000  1.0 0.1301226113
H  H169  1  0.59798000  0.19520000  0.50632000  1.0 0.1301226113
H  H170  1  0.80480000  0.40278000  0.50632000  1.0 0.1301226113
H  H171  1  0.59722000  0.40202000  0.50632000  1.0 0.1301226113
H  H172  1  0.40202000  0.80480000  0.00632000  1.0 0.1301226113
H  H173  1  0.19520000  0.59722000  0.00632000  1.0 0.1301226113
H  H174  1  0.40278000  0.59798000  0.00632000  1.0 0.1301226113
H  H175  1  0.54005000  0.17553000  0.46897000  1.0 0.1301226113
H  H176  1  0.82447000  0.36452000  0.46897000  1.0 0.1301226113
H  H177  1  0.63548000  0.45995000  0.46897000  1.0 0.1301226113
H  H178  1  0.45995000  0.82447000  0.96897000  1.0 0.1301226113
H  H179  1  0.17553000  0.63548000  0.96897000  1.0 0.1301226113
H  H180  1  0.36452000  0.54005000  0.96897000  1.0 0.1301226113
H  H181  1  0.41396000  0.09151000  0.46211000  1.0 0.1190813308
H  H182  1  0.90849000  0.32245000  0.46211000  1.0 0.1190813308
H  H183  1  0.67755000  0.58604000  0.46211000  1.0 0.1190813308
H  H184  1  0.58604000  0.90849000  0.96211000  1.0 0.1190813308
H  H185  1  0.09151000  0.67755000  0.96211000  1.0 0.1190813308
H  H186  1  0.32245000  0.41396000  0.96211000  1.0 0.1190813308
H  H187  1  0.27554000  0.31429000  0.34463000  1.0 0.1113158146
H  H188  1  0.68571000  0.96125000  0.34463000  1.0 0.1113158146
H  H189  1  0.03875000  0.72446000  0.34463000  1.0 0.1113158146
H  H190  1  0.72446000  0.68571000  0.84463000  1.0 0.1113158146
H  H191  1  0.31429000  0.03875000  0.84463000  1.0 0.1113158146
H  H192  1  0.96125000  0.27554000  0.84463000  1.0 0.1113158146
H  H193  1  0.58840000  0.13758000  0.57616000  1.0 0.1190813308
H  H194  1  0.86242000  0.45082000  0.57616000  1.0 0.1190813308
H  H195  1  0.54918000  0.41160000  0.57616000  1.0 0.1190813308
H  H196  1  0.41160000  0.86242000  0.07616000  1.0 0.1190813308
H  H197  1  0.13758000  0.54918000  0.07616000  1.0 0.1190813308
H  H198  1  0.45082000  0.58840000  0.07616000  1.0 0.1190813308
H  H199  1  0.47603000  0.08017000  0.71169000  1.0 0.1301226113
H  H200  1  0.91983000  0.39586000  0.71169000  1.0 0.1301226113
H  H201  1  0.60414000  0.52397000  0.71169000  1.0 0.1301226113
H  H202  1  0.52397000  0.91983000  0.21169000  1.0 0.1301226113
H  H203  1  0.08017000  0.60414000  0.21169000  1.0 0.1301226113
H  H204  1  0.39586000  0.47603000  0.21169000  1.0 0.1301226113
H  H205  1  0.46399000  0.06632000  0.79678000  1.0 0.1508308562
H  H206  1  0.93368000  0.39767000  0.79678000  1.0 0.1508308562
H  H207  1  0.60233000  0.53601000  0.79678000  1.0 0.1508308562
H  H208  1  0.53601000  0.93368000  0.29678000  1.0 0.1508308562
H  H209  1  0.06632000  0.60233000  0.29678000  1.0 0.1508308562
H  H210  1  0.39767000  0.46399000  0.29678000  1.0 0.1508308562
H  H211  1  0.37493000  0.17728000  0.61669000  1.0 0.1190813308
H  H212  1  0.82272000  0.19765000  0.61669000  1.0 0.1190813308
H  H213  1  0.80235000  0.62507000  0.61669000  1.0 0.1190813308
H  H214  1  0.62507000  0.82272000  0.11669000  1.0 0.1190813308
H  H215  1  0.17728000  0.80235000  0.11669000  1.0 0.1190813308
H  H216  1  0.19765000  0.37493000  0.11669000  1.0 0.1190813308
H  H217  1  0.52133000  0.42329000  0.19628000  1.0 0.1113158146
H  H218  1  0.57671000  0.09804000  0.19628000  1.0 0.1113158146
H  H219  1  0.90196000  0.47867000  0.19628000  1.0 0.1113158146
H  H220  1  0.47867000  0.57671000  0.69628000  1.0 0.1113158146
H  H221  1  0.42329000  0.90196000  0.69628000  1.0 0.1113158146
H  H222  1  0.09804000  0.52133000  0.69628000  1.0 0.1113158146
H  H223  1  0.21338000  0.02948000  0.51101000  1.0 0.1113158146
H  H224  1  0.97052000  0.18390000  0.51101000  1.0 0.1113158146
H  H225  1  0.81610000  0.78662000  0.51101000  1.0 0.1113158146
H  H226  1  0.78662000  0.97052000  0.01101000  1.0 0.1113158146
H  H227  1  0.02948000  0.81610000  0.01101000  1.0 0.1113158146
H  H228  1  0.18390000  0.21338000  0.01101000  1.0 0.1113158146
H  H229  1  0.17078000  0.82352000  0.55363000  1.0 0.1301226113
H  H230  1  0.17648000  0.34726000  0.55363000  1.0 0.1301226113
H  H231  1  0.65274000  0.82922000  0.55363000  1.0 0.1301226113
H  H232  1  0.82922000  0.17648000  0.05363000  1.0 0.1301226113
H  H233  1  0.82352000  0.65274000  0.05363000  1.0 0.1301226113
H  H234  1  0.34726000  0.17078000  0.05363000  1.0 0.1301226113
H  H235  1  0.48920000  0.88636000  0.49073000  1.0 0.1113158146
H  H236  1  0.11364000  0.60284000  0.49073000  1.0 0.1113158146
H  H237  1  0.39716000  0.51080000  0.49073000  1.0 0.1113158146
H  H238  1  0.51080000  0.11364000  0.99073000  1.0 0.1113158146
H  H239  1  0.88636000  0.39716000  0.99073000  1.0 0.1113158146
H  H240  1  0.60284000  0.48920000  0.99073000  1.0 0.1113158146
H  H241  1  0.37909000  0.94561000  0.51345000  1.0 0.1190813308
H  H242  1  0.05439000  0.43348000  0.51345000  1.0 0.1190813308
H  H243  1  0.56652000  0.62091000  0.51345000  1.0 0.1190813308
H  H244  1  0.62091000  0.05439000  0.01345000  1.0 0.1190813308
H  H245  1  0.94561000  0.56652000  0.01345000  1.0 0.1190813308
H  H246  1  0.43348000  0.37909000  0.01345000  1.0 0.1190813308
H  H247  1  0.38252000  0.31200000  0.34188000  1.0 0.1190813308
H  H248  1  0.68800000  0.07052000  0.34188000  1.0 0.1190813308
H  H249  1  0.92948000  0.61748000  0.34188000  1.0 0.1190813308
H  H250  1  0.61748000  0.68800000  0.84188000  1.0 0.1190813308
H  H251  1  0.31200000  0.92948000  0.84188000  1.0 0.1190813308
H  H252  1  0.07052000  0.38252000  0.84188000  1.0 0.1190813308
H  H253  1  0.41081000  0.00706000  0.57950000  1.0 0.1113158146
H  H254  1  0.99294000  0.40375000  0.57950000  1.0 0.1113158146
H  H255  1  0.59625000  0.58919000  0.57950000  1.0 0.1113158146
H  H256  1  0.58919000  0.99294000  0.07950000  1.0 0.1113158146
H  H257  1  0.00706000  0.59625000  0.07950000  1.0 0.1113158146
H  H258  1  0.40375000  0.41081000  0.07950000  1.0 0.1113158146
H  H259  1  0.59840000  0.07657000  0.63579000  1.0 0.1190813308
H  H260  1  0.92343000  0.52183000  0.63579000  1.0 0.1190813308
H  H261  1  0.47817000  0.40160000  0.63579000  1.0 0.1190813308
H  H262  1  0.40160000  0.92343000  0.13579000  1.0 0.1190813308
H  H263  1  0.07657000  0.47817000  0.13579000  1.0 0.1190813308
H  H264  1  0.52183000  0.59840000  0.13579000  1.0 0.1190813308
H  H265  1  0.48835000  0.15534000  0.85486000  1.0 0.1301226113
H  H266  1  0.84466000  0.33301000  0.85486000  1.0 0.1301226113
H  H267  1  0.66699000  0.51165000  0.85486000  1.0 0.1301226113
H  H268  1  0.51165000  0.84466000  0.35486000  1.0 0.1301226113
H  H269  1  0.15534000  0.66699000  0.35486000  1.0 0.1301226113
H  H270  1  0.33301000  0.48835000  0.35486000  1.0 0.1301226113
H  H271  1  0.51873000  0.88871000  0.56853000  1.0 0.1113158146
H  H272  1  0.11129000  0.63002000  0.56853000  1.0 0.1113158146
H  H273  1  0.36998000  0.48127000  0.56853000  1.0 0.1113158146
H  H274  1  0.48127000  0.11129000  0.06853000  1.0 0.1113158146
H  H275  1  0.88871000  0.36998000  0.06853000  1.0 0.1113158146
H  H276  1  0.63002000  0.51873000  0.06853000  1.0 0.1113158146
H  H277  1  0.20283000  0.88426000  0.61981000  1.0 0.1190813308
H  H278  1  0.11574000  0.31857000  0.61981000  1.0 0.1190813308
H  H279  1  0.68143000  0.79717000  0.61981000  1.0 0.1190813308
H  H280  1  0.79717000  0.11574000  0.11981000  1.0 0.1190813308
H  H281  1  0.88426000  0.68143000  0.11981000  1.0 0.1190813308
H  H282  1  0.31857000  0.20283000  0.11981000  1.0 0.1190813308
H  H283  1  0.22110000  0.02287000  0.34722000  1.0 0.1190813308
H  H284  1  0.97713000  0.19823000  0.34722000  1.0 0.1190813308
H  H285  1  0.80177000  0.77890000  0.34722000  1.0 0.1190813308
H  H286  1  0.77890000  0.97713000  0.84722000  1.0 0.1190813308
H  H287  1  0.02287000  0.80177000  0.84722000  1.0 0.1190813308
H  H288  1  0.19823000  0.22110000  0.84722000  1.0 0.1190813308
H  H289  1  0.46701000  0.17575000  0.27281000  1.0 0.1190813308
H  H290  1  0.82425000  0.29126000  0.27281000  1.0 0.1190813308
H  H291  1  0.70874000  0.53299000  0.27281000  1.0 0.1190813308
H  H292  1  0.53299000  0.82425000  0.77281000  1.0 0.1190813308
H  H293  1  0.17575000  0.70874000  0.77281000  1.0 0.1190813308
H  H294  1  0.29126000  0.46701000  0.77281000  1.0 0.1190813308
H  H295  1  0.55948000  0.95159000  0.63279000  1.0 0.1190813308
H  H296  1  0.04841000  0.60789000  0.63279000  1.0 0.1190813308
H  H297  1  0.39211000  0.44052000  0.63279000  1.0 0.1190813308
H  H298  1  0.44052000  0.04841000  0.13279000  1.0 0.1190813308
H  H299  1  0.95159000  0.39211000  0.13279000  1.0 0.1190813308
H  H300  1  0.60789000  0.55948000  0.13279000  1.0 0.1190813308
H  H301  1  0.26499000  0.09245000  0.57403000  1.0 0.1113158146
H  H302  1  0.90755000  0.17254000  0.57403000  1.0 0.1113158146
H  H303  1  0.82746000  0.73501000  0.57403000  1.0 0.1113158146
H  H304  1  0.73501000  0.90755000  0.07403000  1.0 0.1113158146
H  H305  1  0.09245000  0.82746000  0.07403000  1.0 0.1113158146
H  H306  1  0.17254000  0.26499000  0.07403000  1.0 0.1113158146
H  H307  1  0.46029000  0.12963000  0.20413000  1.0 0.1113158146
H  H308  1  0.87037000  0.33066000  0.20413000  1.0 0.1113158146
H  H309  1  0.66934000  0.53971000  0.20413000  1.0 0.1113158146
H  H310  1  0.53971000  0.87037000  0.70413000  1.0 0.1113158146
H  H311  1  0.12963000  0.66934000  0.70413000  1.0 0.1113158146
H  H312  1  0.33066000  0.46029000  0.70413000  1.0 0.1113158146
H  H313  1  0.49550000  0.31720000  0.14953000  1.0 0.1113158146
H  H314  1  0.68280000  0.17830000  0.14953000  1.0 0.1113158146
H  H315  1  0.82170000  0.50450000  0.14953000  1.0 0.1113158146
H  H316  1  0.50450000  0.68280000  0.64953000  1.0 0.1113158146
H  H317  1  0.31720000  0.82170000  0.64953000  1.0 0.1113158146
H  H318  1  0.17830000  0.49550000  0.64953000  1.0 0.1113158146
H  H319  1  0.43880000  0.01710000  0.64662000  1.0 0.1113158146
H  H320  1  0.98290000  0.42170000  0.64662000  1.0 0.1113158146
H  H321  1  0.57830000  0.56120000  0.64662000  1.0 0.1113158146
H  H322  1  0.56120000  0.98290000  0.14662000  1.0 0.1113158146
H  H323  1  0.01710000  0.57830000  0.14662000  1.0 0.1113158146
H  H324  1  0.42170000  0.43880000  0.14662000  1.0 0.1113158146
H  H325  1  0.47197000  0.19937000  0.14237000  1.0 0.1113158146
H  H326  1  0.80063000  0.27260000  0.14237000  1.0 0.1113158146
H  H327  1  0.72740000  0.52803000  0.14237000  1.0 0.1113158146
H  H328  1  0.52803000  0.80063000  0.64237000  1.0 0.1113158146
H  H329  1  0.19937000  0.72740000  0.64237000  1.0 0.1113158146
H  H330  1  0.27260000  0.47197000  0.64237000  1.0 0.1113158146
H  H331  1  0.23537000  0.98249000  0.66531000  1.0 0.1190813308
H  H332  1  0.01751000  0.25288000  0.66531000  1.0 0.1190813308
H  H333  1  0.74712000  0.76463000  0.66531000  1.0 0.1190813308
H  H334  1  0.76463000  0.01751000  0.16531000  1.0 0.1190813308
H  H335  1  0.98249000  0.74712000  0.16531000  1.0 0.1190813308
H  H336  1  0.25288000  0.23537000  0.16531000  1.0 0.1190813308
H  H337  1  0.16239000  0.20723000  0.34551000  1.0 0.1113158146
H  H338  1  0.79277000  0.95516000  0.34551000  1.0 0.1190813308
H  H339  1  0.04484000  0.83761000  0.34551000  1.0 0.1190813308
H  H340  1  0.83761000  0.79277000  0.84551000  1.0 0.1190813308
H  H341  1  0.20723000  0.04484000  0.84551000  1.0 0.1190813308
H  H342  1  0.95516000  0.16239000  0.84551000  1.0 0.1113158146
H  H343  1  0.15738000  0.09453000  0.34739000  1.0 0.1113158146
H  H344  1  0.90547000  0.06285000  0.34739000  1.0 0.1113158146
H  H345  1  0.93715000  0.84262000  0.34739000  1.0 0.1113158146
H  H346  1  0.84262000  0.90547000  0.84739000  1.0 0.1113158146
H  H347  1  0.09453000  0.93715000  0.84739000  1.0 0.1113158146
H  H348  1  0.06285000  0.15738000  0.84739000  1.0 0.1113158146
H  H349  1  0.18744000  0.70818000  0.42398000  1.0 0.1301226113
H  H350  1  0.29182000  0.47926000  0.42398000  1.0 0.1301226113
H  H351  1  0.52074000  0.81256000  0.42398000  1.0 0.1301226113
H  H352  1  0.81256000  0.29182000  0.92398000  1.0 0.1301226113
H  H353  1  0.70818000  0.52074000  0.92398000  1.0 0.1301226113
H  H354  1  0.47926000  0.18744000  0.92398000  1.0 0.1301226113
H  H355  1  0.27274000  0.04391000  0.73233000  1.0 0.1301226113
H  H356  1  0.95609000  0.22883000  0.73233000  1.0 0.1301226113
H  H357  1  0.77117000  0.72726000  0.73233000  1.0 0.1301226113
H  H358  1  0.72726000  0.95609000  0.23233000  1.0 0.1301226113
H  H359  1  0.04391000  0.77117000  0.23233000  1.0 0.1301226113
H  H360  1  0.22883000  0.27274000  0.23233000  1.0 0.1301226113
H  H361  1  0.19289000  0.72991000  0.50292000  1.0 0.1301226113
H  H362  1  0.27009000  0.46298000  0.50292000  1.0 0.1301226113
H  H363  1  0.53702000  0.80711000  0.50292000  1.0 0.1301226113
H  H364  1  0.80711000  0.27009000  0.00292000  1.0 0.1301226113
H  H365  1  0.72991000  0.53702000  0.00292000  1.0 0.1301226113
H  H366  1  0.46298000  0.19289000  0.00292000  1.0 0.1301226113
C  C1  1  0.28740000  0.24180000  0.68620000  1.0 0.1352530316
C  C2  1  0.75820000  0.04560000  0.68620000  1.0 0.1352530316
C  C3  1  0.95440000  0.71260000  0.68620000  1.0 0.1352530316
C  C4  1  0.71260000  0.75820000  0.18620000  1.0 0.1352530316
C  C5  1  0.24180000  0.95440000  0.18620000  1.0 0.1352530316
C  C6  1  0.04560000  0.28740000  0.18620000  1.0 0.1352530316
C  C7  1  0.25610000  0.26180000  0.72450000  1.0 -0.2459589098
C  C8  1  0.73820000  0.99430000  0.72450000  1.0 -0.2459589098
C  C9  1  0.00570000  0.74390000  0.72450000  1.0 -0.2459589098
C  C10  1  0.74390000  0.73820000  0.22450000  1.0 -0.2459589098
C  C11  1  0.26180000  0.00570000  0.22450000  1.0 -0.2459589098
C  C12  1  0.99430000  0.25610000  0.22450000  1.0 -0.2459589098
C  C13  1  0.11520000  0.08660000  0.60050000  1.0 -0.1297216515
C  C14  1  0.91340000  0.02860000  0.60050000  1.0 -0.1297216515
C  C15  1  0.97140000  0.88480000  0.60050000  1.0 -0.1297216515
C  C16  1  0.88480000  0.91340000  0.10050000  1.0 -0.1297216515
C  C17  1  0.08660000  0.97140000  0.10050000  1.0 -0.1297216515
C  C18  1  0.02860000  0.11520000  0.10050000  1.0 -0.1297216515
C  C19  1  0.15040000  0.16150000  0.59130000  1.0 -0.1017408236
C  C20  1  0.83850000  0.98890000  0.59130000  1.0 -0.1017408236
C  C21  1  0.01110000  0.84960000  0.59130000  1.0 -0.1017408236
C  C22  1  0.84960000  0.83850000  0.09130000  1.0 -0.1017408236
C  C23  1  0.16150000  0.01110000  0.09130000  1.0 -0.1017408236
C  C24  1  0.98890000  0.15040000  0.09130000  1.0 -0.1017408236
C  C25  1  0.20690000  0.21110000  0.61820000  1.0 -0.1603728467
C  C26  1  0.78890000  0.99580000  0.61820000  1.0 -0.1603728467
C  C27  1  0.00420000  0.79310000  0.61820000  1.0 -0.1603728467
C  C28  1  0.79310000  0.78890000  0.11820000  1.0 -0.1603728467
C  C29  1  0.21110000  0.00420000  0.11820000  1.0 -0.1603728467
C  C30  1  0.99580000  0.20690000  0.11820000  1.0 -0.1603728467
C  C31  1  0.22810000  0.18590000  0.65430000  1.0 0.0604776173
C  C32  1  0.81410000  0.04220000  0.65430000  1.0 0.0604776173
C  C33  1  0.95780000  0.77190000  0.65430000  1.0 0.0604776173
C  C34  1  0.77190000  0.81410000  0.15430000  1.0 0.0604776173
C  C35  1  0.18590000  0.95780000  0.15430000  1.0 0.0604776173
C  C36  1  0.04220000  0.22810000  0.15430000  1.0 0.0604776173
C  C37  1  0.19280000  0.11100000  0.66340000  1.0 -0.1297216515
C  C38  1  0.88900000  0.08180000  0.66340000  1.0 -0.1297216515
C  C39  1  0.91820000  0.80720000  0.66340000  1.0 -0.1297216515
C  C40  1  0.80720000  0.88900000  0.16340000  1.0 -0.1297216515
C  C41  1  0.11100000  0.91820000  0.16340000  1.0 -0.1297216515
C  C42  1  0.08180000  0.19280000  0.16340000  1.0 -0.1297216515
C  C43  1  0.13630000  0.06130000  0.63660000  1.0 -0.1017408236
C  C44  1  0.93870000  0.07500000  0.63660000  1.0 -0.1017408236
C  C45  1  0.92500000  0.86370000  0.63660000  1.0 -0.1017408236
C  C46  1  0.86370000  0.93870000  0.13660000  1.0 -0.1017408236
C  C47  1  0.06130000  0.92500000  0.13660000  1.0 -0.1017408236
C  C48  1  0.07500000  0.13630000  0.13660000  1.0 -0.1017408236
C  C49  1  0.19750000  0.27920000  0.71160000  1.0 -0.1094469391
C  C50  1  0.72080000  0.91830000  0.71160000  1.0 -0.1094469391
C  C51  1  0.08170000  0.80250000  0.71160000  1.0 -0.1094469391
C  C52  1  0.80250000  0.72080000  0.21160000  1.0 -0.1094469391
C  C53  1  0.27920000  0.08170000  0.21160000  1.0 -0.1094469391
C  C54  1  0.91830000  0.19750000  0.21160000  1.0 -0.1094469391
C  C55  1  0.14150000  0.26200000  0.74680000  1.0 -0.37971026
C  C56  1  0.73800000  0.87950000  0.74680000  1.0 -0.37971026
C  C57  1  0.12050000  0.85850000  0.74680000  1.0 -0.37971026
C  C58  1  0.85850000  0.73800000  0.24680000  1.0 -0.37971026
C  C59  1  0.26200000  0.12050000  0.24680000  1.0 -0.37971026
C  C60  1  0.87950000  0.14150000  0.24680000  1.0 -0.37971026
C  C61  1  0.47620000  0.92803000  0.41282000  1.0 0.5935766866
C  C62  1  0.07197000  0.54817000  0.41282000  1.0 0.5935766866
C  C63  1  0.45183000  0.52380000  0.41282000  1.0 0.5935766866
C  C64  1  0.52380000  0.07197000  0.91282000  1.0 0.5935766866
C  C65  1  0.92803000  0.45183000  0.91282000  1.0 0.5935766866
C  C66  1  0.54817000  0.47620000  0.91282000  1.0 0.5935766866
C  C67  1  0.49800000  0.97080000  0.45440000  1.0 -0.1675152593
C  C68  1  0.02920000  0.52720000  0.45440000  1.0 -0.1675152593
C  C69  1  0.47280000  0.50200000  0.45440000  1.0 -0.1675152593
C  C70  1  0.50200000  0.02920000  0.95440000  1.0 -0.1675152593
C  C71  1  0.97080000  0.47280000  0.95440000  1.0 -0.1675152593
C  C72  1  0.52720000  0.49800000  0.95440000  1.0 -0.1675152593
C  C73  1  0.41940000  0.13210000  0.52341000  1.0 0.041023278
C  C74  1  0.86790000  0.28730000  0.52341000  1.0 0.041023278
C  C75  1  0.71270000  0.58060000  0.52341000  1.0 0.041023278
C  C76  1  0.58060000  0.86790000  0.02341000  1.0 0.041023278
C  C77  1  0.13210000  0.71270000  0.02341000  1.0 0.041023278
C  C78  1  0.28730000  0.41940000  0.02341000  1.0 0.041023278
C  C79  1  0.48010000  0.21820000  0.59936000  1.0 -0.1675152593
C  C80  1  0.78180000  0.26190000  0.59936000  1.0 -0.1675152593
C  C81  1  0.73810000  0.51990000  0.59936000  1.0 -0.1675152593
C  C82  1  0.51990000  0.78180000  0.09936000  1.0 -0.1675152593
C  C83  1  0.21820000  0.73810000  0.09936000  1.0 -0.1675152593
C  C84  1  0.26190000  0.48010000  0.09936000  1.0 -0.1675152593
C  C85  1  0.49640000  0.16974000  0.52973000  1.0 -0.0321815768
C  C86  1  0.83026000  0.32666000  0.52973000  1.0 -0.0321815768
C  C87  1  0.67334000  0.50360000  0.52973000  1.0 -0.0321815768
C  C88  1  0.50360000  0.83026000  0.02973000  1.0 -0.0321815768
C  C89  1  0.16974000  0.67334000  0.02973000  1.0 -0.0321815768
C  C90  1  0.32666000  0.49640000  0.02973000  1.0 -0.0321815768
C  C91  1  0.28160000  0.86910000  0.44829000  1.0 0.1190813308
C  C92  1  0.13090000  0.41250000  0.44829000  1.0 0.1190813308
C  C93  1  0.58750000  0.71840000  0.44829000  1.0 0.1190813308
C  C94  1  0.71840000  0.13090000  0.94829000  1.0 0.1190813308
C  C95  1  0.86910000  0.58750000  0.94829000  1.0 0.1190813308
C  C96  1  0.41250000  0.28160000  0.94829000  1.0 0.1190813308
C  C97  1  0.32509000  0.99028000  0.35526000  1.0 0.6081195693
C  C98  1  0.00972000  0.33481000  0.35526000  1.0 0.6081195693
C  C99  1  0.66519000  0.67491000  0.35526000  1.0 0.6081195693
C  C100  1  0.67491000  0.00972000  0.85526000  1.0 0.6081195693
C  C101  1  0.99028000  0.66519000  0.85526000  1.0 0.6081195693
C  C102  1  0.33481000  0.32509000  0.85526000  1.0 0.6081195693
C  C103  1  0.52670000  0.21506000  0.56644000  1.0 0.257707434
C  C104  1  0.78494000  0.31164000  0.56644000  1.0 0.257707434
C  C105  1  0.68836000  0.47330000  0.56644000  1.0 0.257707434
C  C106  1  0.47330000  0.78494000  0.06644000  1.0 0.257707434
C  C107  1  0.21506000  0.68836000  0.06644000  1.0 0.257707434
C  C108  1  0.31164000  0.52670000  0.06644000  1.0 0.257707434
C  C109  1  0.49250000  0.30940000  0.29688000  1.0 -0.0321815768
C  C110  1  0.69060000  0.18310000  0.29688000  1.0 -0.0321815768
C  C111  1  0.81690000  0.50750000  0.29688000  1.0 -0.0321815768
C  C112  1  0.50750000  0.69060000  0.79688000  1.0 -0.0321815768
C  C113  1  0.30940000  0.81690000  0.79688000  1.0 -0.0321815768
C  C114  1  0.18310000  0.49250000  0.79688000  1.0 -0.0321815768
C  C115  1  0.31020000  0.05650000  0.48000000  1.0 -0.1017408236
C  C116  1  0.94350000  0.25370000  0.48000000  1.0 -0.1017408236
C  C117  1  0.74630000  0.68980000  0.48000000  1.0 -0.1017408236
C  C118  1  0.68980000  0.94350000  0.98000000  1.0 -0.1017408236
C  C119  1  0.05650000  0.74630000  0.98000000  1.0 -0.1017408236
C  C120  1  0.25370000  0.31020000  0.98000000  1.0 -0.1017408236
C  C121  1  0.27320000  0.87740000  0.52826000  1.0 0.1508308562
C  C122  1  0.12260000  0.39580000  0.52826000  1.0 0.1508308562
C  C123  1  0.60420000  0.72680000  0.52826000  1.0 0.1508308562
C  C124  1  0.72680000  0.12260000  0.02826000  1.0 0.1508308562
C  C125  1  0.87740000  0.60420000  0.02826000  1.0 0.1508308562
C  C126  1  0.39580000  0.27320000  0.02826000  1.0 0.1508308562
C  C127  1  0.47940000  0.26480000  0.33829000  1.0 -0.2417507176
C  C128  1  0.73520000  0.21460000  0.33829000  1.0 -0.2417507176
C  C129  1  0.78540000  0.52060000  0.33829000  1.0 -0.2417507176
C  C130  1  0.52060000  0.73520000  0.83829000  1.0 -0.2417507176
C  C131  1  0.26480000  0.78540000  0.83829000  1.0 -0.2417507176
C  C132  1  0.21460000  0.47940000  0.83829000  1.0 -0.2417507176
C  C133  1  0.40000000  0.12880000  0.34754000  1.0 0.2503988117
C  C134  1  0.87120000  0.27120000  0.34754000  1.0 0.2503988117
C  C135  1  0.72880000  0.60000000  0.34754000  1.0 0.2503988117
C  C136  1  0.60000000  0.87120000  0.84754000  1.0 0.2503988117
C  C137  1  0.12880000  0.72880000  0.84754000  1.0 0.2503988117
C  C138  1  0.27120000  0.40000000  0.84754000  1.0 0.2503988117
C  C139  1  0.38870000  0.15910000  0.78277000  1.0 0.0903469605
C  C140  1  0.84090000  0.22960000  0.78277000  1.0 0.0903469605
C  C141  1  0.77040000  0.61130000  0.78277000  1.0 0.0903469605
C  C142  1  0.61130000  0.84090000  0.28277000  1.0 0.0903469605
C  C143  1  0.15910000  0.77040000  0.28277000  1.0 0.0903469605
C  C144  1  0.22960000  0.38870000  0.28277000  1.0 0.0903469605
C  C145  1  0.51470000  0.38405000  0.29988000  1.0 0.244319888
C  C146  1  0.61595000  0.13065000  0.29988000  1.0 0.244319888
C  C147  1  0.86935000  0.48530000  0.29988000  1.0 0.244319888
C  C148  1  0.48530000  0.61595000  0.79988000  1.0 0.244319888
C  C149  1  0.38405000  0.86935000  0.79988000  1.0 0.244319888
C  C150  1  0.13065000  0.51470000  0.79988000  1.0 0.244319888
C  C151  1  0.54280000  0.50630000  0.26319000  1.0 0.5935766866
C  C152  1  0.49370000  0.03650000  0.26319000  1.0 0.5935766866
C  C153  1  0.96350000  0.45720000  0.26319000  1.0 0.5935766866
C  C154  1  0.45720000  0.49370000  0.76319000  1.0 0.5935766866
C  C155  1  0.50630000  0.96350000  0.76319000  1.0 0.5935766866
C  C156  1  0.03650000  0.54280000  0.76319000  1.0 0.5935766866
C  C157  1  0.49800000  0.32200000  0.21645000  1.0 0.0604776173
C  C158  1  0.67800000  0.17600000  0.21645000  1.0 0.0604776173
C  C159  1  0.82400000  0.50200000  0.21645000  1.0 0.0604776173
C  C160  1  0.50200000  0.67800000  0.71645000  1.0 0.0604776173
C  C161  1  0.32200000  0.82400000  0.71645000  1.0 0.0604776173
C  C162  1  0.17600000  0.49800000  0.71645000  1.0 0.0604776173
C  C163  1  0.54740000  0.16153000  0.49791000  1.0 -0.2417507176
C  C164  1  0.83847000  0.38587000  0.49791000  1.0 -0.2417507176
C  C165  1  0.61413000  0.45260000  0.49791000  1.0 -0.2417507176
C  C166  1  0.45260000  0.83847000  0.99791000  1.0 -0.2417507176
C  C167  1  0.16153000  0.61413000  0.99791000  1.0 -0.2417507176
C  C168  1  0.38587000  0.54740000  0.99791000  1.0 -0.2417507176
C  C169  1  0.32990000  0.06270000  0.34920000  1.0 -0.1506276045
C  C170  1  0.93730000  0.26720000  0.34920000  1.0 -0.1506276045
C  C171  1  0.73280000  0.67010000  0.34920000  1.0 -0.1506276045
C  C172  1  0.67010000  0.93730000  0.84920000  1.0 -0.1506276045
C  C173  1  0.06270000  0.73280000  0.84920000  1.0 -0.1506276045
C  C174  1  0.26720000  0.32990000  0.84920000  1.0 -0.1506276045
C  C175  1  0.51534000  0.04572000  0.45657000  1.0 0.2503988117
C  C176  1  0.95428000  0.46962000  0.45657000  1.0 0.2503988117
C  C177  1  0.53038000  0.48466000  0.45657000  1.0 0.2503988117
C  C178  1  0.48466000  0.95428000  0.95657000  1.0 0.2503988117
C  C179  1  0.04572000  0.53038000  0.95657000  1.0 0.2503988117
C  C180  1  0.46962000  0.51534000  0.95657000  1.0 0.2503988117
C  C181  1  0.40470000  0.19690000  0.34252000  1.0 -0.0357255133
C  C182  1  0.80310000  0.20780000  0.34252000  1.0 -0.0357255133
C  C183  1  0.79220000  0.59530000  0.34252000  1.0 -0.0357255133
C  C184  1  0.59530000  0.80310000  0.84252000  1.0 -0.0357255133
C  C185  1  0.19690000  0.79220000  0.84252000  1.0 -0.0357255133
C  C186  1  0.20780000  0.40470000  0.84252000  1.0 -0.0357255133
C  C187  1  0.38500000  0.09270000  0.48475000  1.0 -0.1297216515
C  C188  1  0.90730000  0.29230000  0.48475000  1.0 -0.1297216515
C  C189  1  0.70770000  0.61500000  0.48475000  1.0 -0.1297216515
C  C190  1  0.61500000  0.90730000  0.98475000  1.0 -0.1297216515
C  C191  1  0.09270000  0.70770000  0.98475000  1.0 -0.1297216515
C  C192  1  0.29230000  0.38500000  0.98475000  1.0 -0.1297216515
C  C193  1  0.54490000  0.04970000  0.53351000  1.0 0.041023278
C  C194  1  0.95030000  0.49520000  0.53351000  1.0 0.041023278
C  C195  1  0.50480000  0.45510000  0.53351000  1.0 0.041023278
C  C196  1  0.45510000  0.95030000  0.03351000  1.0 0.041023278
C  C197  1  0.04970000  0.50480000  0.03351000  1.0 0.041023278
C  C198  1  0.49520000  0.54490000  0.03351000  1.0 0.041023278
C  C199  1  0.52520000  0.42750000  0.26171000  1.0 -0.1603728467
C  C200  1  0.57250000  0.09770000  0.26171000  1.0 -0.1603728467
C  C201  1  0.90230000  0.47480000  0.26171000  1.0 -0.1603728467
C  C202  1  0.47480000  0.57250000  0.76171000  1.0 -0.1603728467
C  C203  1  0.42750000  0.90230000  0.76171000  1.0 -0.1603728467
C  C204  1  0.09770000  0.52520000  0.76171000  1.0 -0.1603728467
C  C205  1  0.27380000  0.26910000  0.34430000  1.0 -0.0891800275
C  C206  1  0.73090000  0.00470000  0.34430000  1.0 -0.0891800275
C  C207  1  0.99530000  0.72620000  0.34430000  1.0 -0.0891800275
C  C208  1  0.72620000  0.73090000  0.84430000  1.0 -0.0891800275
C  C209  1  0.26910000  0.99530000  0.84430000  1.0 -0.0891800275
C  C210  1  0.00470000  0.27380000  0.84430000  1.0 -0.0891800275
C  C211  1  0.57360000  0.08790000  0.57401000  1.0 -0.1297216515
C  C212  1  0.91210000  0.48570000  0.57401000  1.0 -0.1297216515
C  C213  1  0.51430000  0.42640000  0.57401000  1.0 -0.1297216515
C  C214  1  0.42640000  0.91210000  0.07401000  1.0 -0.1297216515
C  C215  1  0.08790000  0.51430000  0.07401000  1.0 -0.1297216515
C  C216  1  0.48570000  0.57360000  0.07401000  1.0 -0.1297216515
C  C217  1  0.42740000  0.05990000  0.70253000  1.0 -0.1506276045
C  C218  1  0.94010000  0.36750000  0.70253000  1.0 -0.1506276045
C  C219  1  0.63250000  0.57260000  0.70253000  1.0 -0.1506276045
C  C220  1  0.57260000  0.94010000  0.20253000  1.0 -0.1506276045
C  C221  1  0.05990000  0.63250000  0.20253000  1.0 -0.1506276045
C  C222  1  0.36750000  0.42740000  0.20253000  1.0 -0.1506276045
C  C223  1  0.44620000  0.09890000  0.79828000  1.0 -0.0831967174
C  C224  1  0.90110000  0.34730000  0.79828000  1.0 -0.0831967174
C  C225  1  0.65270000  0.55380000  0.79828000  1.0 -0.0831967174
C  C226  1  0.55380000  0.90110000  0.29828000  1.0 -0.0831967174
C  C227  1  0.09890000  0.65270000  0.29828000  1.0 -0.0831967174
C  C228  1  0.34730000  0.44620000  0.29828000  1.0 -0.0831967174
C  C229  1  0.33240000  0.99190000  0.64914000  1.0 0.0604776173
C  C230  1  0.00810000  0.34050000  0.64914000  1.0 0.0604776173
C  C231  1  0.65950000  0.66760000  0.64914000  1.0 0.0604776173
C  C232  1  0.66760000  0.00810000  0.14914000  1.0 0.0604776173
C  C233  1  0.99190000  0.65950000  0.14914000  1.0 0.0604776173
C  C234  1  0.34050000  0.33240000  0.14914000  1.0 0.0604776173
C  C235  1  0.40510000  0.17680000  0.59456000  1.0 -0.1405627861
C  C236  1  0.82320000  0.22830000  0.59456000  1.0 -0.1405627861
C  C237  1  0.77170000  0.59490000  0.59456000  1.0 -0.1405627861
C  C238  1  0.59490000  0.82320000  0.09456000  1.0 -0.1405627861
C  C239  1  0.17680000  0.77170000  0.09456000  1.0 -0.1405627861
C  C240  1  0.22830000  0.40510000  0.09456000  1.0 -0.1405627861
C  C241  1  0.48630000  0.27830000  0.25468000  1.0 0.0516534071
C  C242  1  0.72170000  0.20800000  0.25468000  1.0 0.0516534071
C  C243  1  0.79200000  0.51370000  0.25468000  1.0 0.0516534071
C  C244  1  0.51370000  0.72170000  0.75468000  1.0 0.0516534071
C  C245  1  0.27830000  0.79200000  0.75468000  1.0 0.0516534071
C  C246  1  0.20800000  0.48630000  0.75468000  1.0 0.0516534071
C  C247  1  0.30970000  0.95200000  0.60695000  1.0 0.073088957
C  C248  1  0.04800000  0.35770000  0.60695000  1.0 0.0604776173
C  C249  1  0.64230000  0.69030000  0.60695000  1.0 0.0604776173
C  C250  1  0.69030000  0.04800000  0.10695000  1.0 0.0604776173
C  C251  1  0.95200000  0.64230000  0.10695000  1.0 0.0604776173
C  C252  1  0.35770000  0.30970000  0.10695000  1.0 0.0604776173
C  C253  1  0.37250000  0.13370000  0.55707000  1.0 0.0604776173
C  C254  1  0.86630000  0.23880000  0.55707000  1.0 0.0604776173
C  C255  1  0.76120000  0.62750000  0.55707000  1.0 0.0604776173
C  C256  1  0.62750000  0.86630000  0.05707000  1.0 0.0604776173
C  C257  1  0.13370000  0.76120000  0.05707000  1.0 0.0604776173
C  C258  1  0.23880000  0.37250000  0.05707000  1.0 0.0604776173
C  C259  1  0.33790000  0.19990000  0.34316000  1.0 0.041023278
C  C260  1  0.80010000  0.13800000  0.34316000  1.0 0.041023278
C  C261  1  0.86200000  0.66210000  0.34316000  1.0 0.041023278
C  C262  1  0.66210000  0.80010000  0.84316000  1.0 0.041023278
C  C263  1  0.19990000  0.86200000  0.84316000  1.0 0.041023278
C  C264  1  0.13800000  0.33790000  0.84316000  1.0 0.041023278
C  C265  1  0.51570000  0.39540000  0.22112000  1.0 -0.1506276045
C  C266  1  0.60460000  0.12030000  0.22112000  1.0 -0.1506276045
C  C267  1  0.87970000  0.48430000  0.22112000  1.0 -0.1506276045
C  C268  1  0.48430000  0.60460000  0.72112000  1.0 -0.1506276045
C  C269  1  0.39540000  0.87970000  0.72112000  1.0 -0.1506276045
C  C270  1  0.12030000  0.51570000  0.72112000  1.0 -0.1506276045
C  C271  1  0.52550000  0.97350000  0.53184000  1.0 0.0516534071
C  C272  1  0.02650000  0.55200000  0.53184000  1.0 0.0516534071
C  C273  1  0.44800000  0.47450000  0.53184000  1.0 0.0516534071
C  C274  1  0.47450000  0.02650000  0.03184000  1.0 0.0516534071
C  C275  1  0.97350000  0.44800000  0.03184000  1.0 0.0516534071
C  C276  1  0.55200000  0.52550000  0.03184000  1.0 0.0516534071
C  C277  1  0.26430000  0.05560000  0.51420000  1.0 -0.1017408236
C  C278  1  0.94440000  0.20870000  0.51420000  1.0 -0.1017408236
C  C279  1  0.79130000  0.73570000  0.51420000  1.0 -0.1017408236
C  C280  1  0.73570000  0.94440000  0.01420000  1.0 -0.1017408236
C  C281  1  0.05560000  0.79130000  0.01420000  1.0 -0.1017408236
C  C282  1  0.20870000  0.26430000  0.01420000  1.0 -0.1017408236
C  C283  1  0.37710000  0.06700000  0.72773000  1.0 0.1508308562
C  C284  1  0.93300000  0.31010000  0.72773000  1.0 0.1508308562
C  C285  1  0.68990000  0.62290000  0.72773000  1.0 0.1508308562
C  C286  1  0.62290000  0.93300000  0.22773000  1.0 0.1508308562
C  C287  1  0.06700000  0.68990000  0.22773000  1.0 0.1508308562
C  C288  1  0.31010000  0.37710000  0.22773000  1.0 0.1508308562
C  C289  1  0.51040000  0.26320000  0.64000000  1.0 0.6081195693
C  C290  1  0.73680000  0.24720000  0.64000000  1.0 0.6081195693
C  C291  1  0.75280000  0.48960000  0.64000000  1.0 0.6081195693
C  C292  1  0.48960000  0.73680000  0.14000000  1.0 0.6081195693
C  C293  1  0.26320000  0.75280000  0.14000000  1.0 0.6081195693
C  C294  1  0.24720000  0.51040000  0.14000000  1.0 0.6081195693
C  C295  1  0.21920000  0.85970000  0.55913000  1.0 -0.1755488495
C  C296  1  0.14030000  0.35950000  0.55913000  1.0 -0.1755488495
C  C297  1  0.64050000  0.78080000  0.55913000  1.0 -0.1755488495
C  C298  1  0.78080000  0.14030000  0.05913000  1.0 -0.1755488495
C  C299  1  0.85970000  0.64050000  0.05913000  1.0 -0.1755488495
C  C300  1  0.35950000  0.21920000  0.05913000  1.0 -0.1755488495
C  C301  1  0.50210000  0.93570000  0.49203000  1.0 -0.1675152593
C  C302  1  0.06430000  0.56640000  0.49203000  1.0 -0.1675152593
C  C303  1  0.43360000  0.49790000  0.49203000  1.0 -0.1675152593
C  C304  1  0.49790000  0.06430000  0.99203000  1.0 -0.1675152593
C  C305  1  0.93570000  0.43360000  0.99203000  1.0 -0.1675152593
C  C306  1  0.56640000  0.50210000  0.99203000  1.0 -0.1675152593
C  C307  1  0.34380000  0.93290000  0.53520000  1.0 -0.1506276045
C  C308  1  0.06710000  0.41090000  0.53520000  1.0 -0.1506276045
C  C309  1  0.58910000  0.65620000  0.53520000  1.0 -0.1506276045
C  C310  1  0.65620000  0.06710000  0.03520000  1.0 -0.1506276045
C  C311  1  0.93290000  0.58910000  0.03520000  1.0 -0.1506276045
C  C312  1  0.41090000  0.34380000  0.03520000  1.0 -0.1506276045
C  C313  1  0.33800000  0.26790000  0.34297000  1.0 -0.1297216515
C  C314  1  0.73210000  0.07010000  0.34297000  1.0 -0.1297216515
C  C315  1  0.92990000  0.66200000  0.34297000  1.0 -0.1297216515
C  C316  1  0.66200000  0.73210000  0.84297000  1.0 -0.1297216515
C  C317  1  0.26790000  0.92990000  0.84297000  1.0 -0.1297216515
C  C318  1  0.07010000  0.33800000  0.84297000  1.0 -0.1297216515
C  C319  1  0.53567000  0.08397000  0.49596000  1.0 -0.0357255133
C  C320  1  0.91603000  0.45170000  0.49596000  1.0 -0.0357255133
C  C321  1  0.54830000  0.46433000  0.49596000  1.0 -0.0357255133
C  C322  1  0.46433000  0.91603000  0.99596000  1.0 -0.0357255133
C  C323  1  0.08397000  0.54830000  0.99596000  1.0 -0.0357255133
C  C324  1  0.45170000  0.53567000  0.99596000  1.0 -0.0357255133
C  C325  1  0.36260000  0.96990000  0.57459000  1.0 -0.1094469391
C  C326  1  0.03010000  0.39270000  0.57459000  1.0 -0.1094469391
C  C327  1  0.60730000  0.63740000  0.57459000  1.0 -0.1094469391
C  C328  1  0.63740000  0.03010000  0.07459000  1.0 -0.1094469391
C  C329  1  0.96990000  0.60730000  0.07459000  1.0 -0.1094469391
C  C330  1  0.39270000  0.36260000  0.07459000  1.0 -0.1094469391
C  C331  1  0.57940000  0.05100000  0.60981000  1.0 -0.0891800275
C  C332  1  0.94900000  0.52840000  0.60981000  1.0 -0.0891800275
C  C333  1  0.47160000  0.42060000  0.60981000  1.0 -0.0891800275
C  C334  1  0.42060000  0.94900000  0.10981000  1.0 -0.0891800275
C  C335  1  0.05100000  0.47160000  0.10981000  1.0 -0.0891800275
C  C336  1  0.52840000  0.57940000  0.10981000  1.0 -0.0891800275
C  C337  1  0.45940000  0.14790000  0.83030000  1.0 -0.0472168579
C  C338  1  0.85210000  0.31150000  0.83030000  1.0 -0.0472168579
C  C339  1  0.68850000  0.54060000  0.83030000  1.0 -0.0472168579
C  C340  1  0.54060000  0.85210000  0.33030000  1.0 -0.0472168579
C  C341  1  0.14790000  0.68850000  0.33030000  1.0 -0.0472168579
C  C342  1  0.31150000  0.45940000  0.33030000  1.0 -0.0472168579
C  C343  1  0.53190000  0.93810000  0.56980000  1.0 -0.1603728467
C  C344  1  0.06190000  0.59380000  0.56980000  1.0 -0.1603728467
C  C345  1  0.40620000  0.46810000  0.56980000  1.0 -0.1603728467
C  C346  1  0.46810000  0.06190000  0.06980000  1.0 -0.1506276045
C  C347  1  0.93810000  0.40620000  0.06980000  1.0 -0.1506276045
C  C348  1  0.59380000  0.53190000  0.06980000  1.0 -0.1603728467
C  C349  1  0.23860000  0.89680000  0.59843000  1.0 -0.1405627861
C  C350  1  0.10320000  0.34180000  0.59843000  1.0 -0.1405627861
C  C351  1  0.65820000  0.76140000  0.59843000  1.0 -0.1405627861
C  C352  1  0.76140000  0.10320000  0.09843000  1.0 -0.1405627861
C  C353  1  0.89680000  0.65820000  0.09843000  1.0 -0.1405627861
C  C354  1  0.34180000  0.23860000  0.09843000  1.0 -0.1405627861
C  C355  1  0.26640000  0.06610000  0.34710000  1.0 -0.1297216515
C  C356  1  0.93390000  0.20030000  0.34710000  1.0 -0.1297216515
C  C357  1  0.79970000  0.73360000  0.34710000  1.0 -0.1297216515
C  C358  1  0.73360000  0.93390000  0.84710000  1.0 -0.1297216515
C  C359  1  0.06610000  0.79970000  0.84710000  1.0 -0.1297216515
C  C360  1  0.20030000  0.26640000  0.84710000  1.0 -0.1297216515
C  C361  1  0.47290000  0.20500000  0.24860000  1.0 -0.1216537516
C  C362  1  0.79500000  0.26790000  0.24860000  1.0 -0.1216537516
C  C363  1  0.73210000  0.52710000  0.24860000  1.0 -0.1216537516
C  C364  1  0.52710000  0.79500000  0.74860000  1.0 -0.1216537516
C  C365  1  0.20500000  0.73210000  0.74860000  1.0 -0.1216537516
C  C366  1  0.26790000  0.47290000  0.74860000  1.0 -0.1216537516
C  C367  1  0.55700000  0.97570000  0.60790000  1.0 -0.1094469391
C  C368  1  0.02430000  0.58130000  0.60790000  1.0 -0.1094469391
C  C369  1  0.41870000  0.44300000  0.60790000  1.0 -0.1094469391
C  C370  1  0.44300000  0.02430000  0.10790000  1.0 -0.1094469391
C  C371  1  0.97570000  0.41870000  0.10790000  1.0 -0.1094469391
C  C372  1  0.58130000  0.55700000  0.10790000  1.0 -0.1094469391
C  C373  1  0.29520000  0.09330000  0.55160000  1.0 -0.1405627861
C  C374  1  0.90670000  0.20190000  0.55160000  1.0 -0.1405627861
C  C375  1  0.79810000  0.70480000  0.55160000  1.0 -0.1405627861
C  C376  1  0.70480000  0.90670000  0.05160000  1.0 -0.1405627861
C  C377  1  0.09330000  0.79810000  0.05160000  1.0 -0.1405627861
C  C378  1  0.20190000  0.29520000  0.05160000  1.0 -0.1405627861
C  C379  1  0.26920000  0.13410000  0.34490000  1.0 0.0516534071
C  C380  1  0.86590000  0.13510000  0.34490000  1.0 0.0516534071
C  C381  1  0.86490000  0.73080000  0.34490000  1.0 0.0516534071
C  C382  1  0.73080000  0.86590000  0.84490000  1.0 0.0516534071
C  C383  1  0.13410000  0.86490000  0.84490000  1.0 0.0516534071
C  C384  1  0.13510000  0.26920000  0.84490000  1.0 0.0516534071
C  C385  1  0.46860000  0.17730000  0.20738000  1.0 -0.0891800275
C  C386  1  0.82270000  0.29130000  0.20738000  1.0 -0.0891800275
C  C387  1  0.70870000  0.53140000  0.20738000  1.0 -0.0891800275
C  C388  1  0.53140000  0.82270000  0.70738000  1.0 -0.0891800275
C  C389  1  0.17730000  0.70870000  0.70738000  1.0 -0.0891800275
C  C390  1  0.29130000  0.46860000  0.70738000  1.0 -0.0891800275
C  C391  1  0.49060000  0.28960000  0.17440000  1.0 -0.1405627861
C  C392  1  0.71040000  0.20100000  0.17440000  1.0 -0.1405627861
C  C393  1  0.79900000  0.50940000  0.17440000  1.0 -0.1405627861
C  C394  1  0.50940000  0.71040000  0.67440000  1.0 -0.1405627861
C  C395  1  0.28960000  0.79900000  0.67440000  1.0 -0.1405627861
C  C396  1  0.20100000  0.49060000  0.67440000  1.0 -0.1405627861
C  C397  1  0.40500000  0.02230000  0.66364000  1.0 -0.1094469391
C  C398  1  0.97770000  0.38270000  0.66364000  1.0 -0.1094469391
C  C399  1  0.61730000  0.59500000  0.66364000  1.0 -0.1094469391
C  C400  1  0.59500000  0.97770000  0.16364000  1.0 -0.1094469391
C  C401  1  0.02230000  0.61730000  0.16364000  1.0 -0.1094469391
C  C402  1  0.38270000  0.40500000  0.16364000  1.0 -0.1094469391
C  C403  1  0.47640000  0.21950000  0.17000000  1.0 -0.1094469391
C  C404  1  0.78050000  0.25690000  0.17000000  1.0 -0.1094469391
C  C405  1  0.74310000  0.52360000  0.17000000  1.0 -0.1094469391
C  C406  1  0.52360000  0.78050000  0.67000000  1.0 -0.1094469391
C  C407  1  0.21950000  0.74310000  0.67000000  1.0 -0.1094469391
C  C408  1  0.25690000  0.47640000  0.67000000  1.0 -0.1094469391
C  C409  1  0.28360000  0.00120000  0.67470000  1.0 -0.1216537516
C  C410  1  0.99880000  0.28240000  0.67470000  1.0 -0.1216537516
C  C411  1  0.71760000  0.71640000  0.67470000  1.0 -0.1216537516
C  C412  1  0.71640000  0.99880000  0.17470000  1.0 -0.1216537516
C  C413  1  0.00120000  0.71760000  0.17470000  1.0 -0.1216537516
C  C414  1  0.28240000  0.28360000  0.17470000  1.0 -0.1216537516
C  C415  1  0.20550000  0.20490000  0.34530000  1.0 -0.1094469391
C  C416  1  0.79510000  0.00060000  0.34530000  1.0 -0.1094469391
C  C417  1  0.99940000  0.79450000  0.34530000  1.0 -0.1094469391
C  C418  1  0.79450000  0.79510000  0.84530000  1.0 -0.1094469391
C  C419  1  0.20490000  0.99940000  0.84530000  1.0 -0.1094469391
C  C420  1  0.00060000  0.20550000  0.84530000  1.0 -0.1094469391
C  C421  1  0.20270000  0.13770000  0.34610000  1.0 -0.1405627861
C  C422  1  0.86230000  0.06500000  0.34610000  1.0 -0.1405627861
C  C423  1  0.93500000  0.79730000  0.34610000  1.0 -0.1405627861
C  C424  1  0.79730000  0.86230000  0.84610000  1.0 -0.1405627861
C  C425  1  0.13770000  0.93500000  0.84610000  1.0 -0.1405627861
C  C426  1  0.06500000  0.20270000  0.84610000  1.0 -0.1405627861
C  C427  1  0.21360000  0.75370000  0.43770000  1.0 -0.0181112244
C  C428  1  0.24630000  0.45990000  0.43770000  1.0 -0.0181112244
C  C429  1  0.54010000  0.78640000  0.43770000  1.0 -0.0181112244
C  C430  1  0.78640000  0.24630000  0.93770000  1.0 -0.0181112244
C  C431  1  0.75370000  0.54010000  0.93770000  1.0 -0.0181112244
C  C432  1  0.45990000  0.21360000  0.93770000  1.0 -0.0181112244
C  C433  1  0.30610000  0.03870000  0.71490000  1.0 -0.1603728467
C  C434  1  0.96130000  0.26740000  0.71490000  1.0 -0.1603728467
C  C435  1  0.73260000  0.69390000  0.71490000  1.0 -0.1603728467
C  C436  1  0.69390000  0.96130000  0.21490000  1.0 -0.1603728467
C  C437  1  0.03870000  0.73260000  0.21490000  1.0 -0.1603728467
C  C438  1  0.26740000  0.30610000  0.21490000  1.0 -0.1603728467
C  C439  1  0.21520000  0.76550000  0.48130000  1.0 -0.1017408236
C  C440  1  0.23450000  0.44970000  0.48130000  1.0 -0.1017408236
C  C441  1  0.55030000  0.78480000  0.48130000  1.0 -0.1017408236
C  C442  1  0.78480000  0.23450000  0.98130000  1.0 -0.1017408236
C  C443  1  0.76550000  0.55030000  0.98130000  1.0 -0.1017408236
C  C444  1  0.44970000  0.21520000  0.98130000  1.0 -0.1017408236
N  N1  1  0.42150000  0.75520000  0.23790000  1.0 -0.8179930712
N  N2  1  0.24480000  0.66630000  0.23790000  1.0 -0.8179930712
N  N3  1  0.33370000  0.57850000  0.23790000  1.0 -0.8179930712
N  N4  1  0.57850000  0.24480000  0.73790000  1.0 -0.8179930712
N  N5  1  0.75520000  0.33370000  0.73790000  1.0 -0.8179930712
N  N6  1  0.66630000  0.42150000  0.73790000  1.0 -0.8179930712
N  N7  1  0.33333333  0.66666667  0.34000000  1.0 -0.8266187488
N  N8  1  0.66666667  0.33333333  0.84000000  1.0 -0.8179930712
N  N9  1  0.42250000  0.18555000  0.82055000  1.0 -0.2900822639
N  N10  1  0.81445000  0.23695000  0.82055000  1.0 -0.2900822639
N  N11  1  0.76305000  0.57750000  0.82055000  1.0 -0.2900822639
N  N12  1  0.57750000  0.81445000  0.32055000  1.0 -0.2900822639
N  N13  1  0.18555000  0.76305000  0.32055000  1.0 -0.2900822639
N  N14  1  0.23695000  0.42250000  0.32055000  1.0 -0.2900822639
N  N15  1  0.25610000  0.81853000  0.41721000  1.0 -0.2760678708
N  N16  1  0.18147000  0.43757000  0.41721000  1.0 -0.2760678708
N  N17  1  0.56243000  0.74390000  0.41721000  1.0 -0.2760678708
N  N18  1  0.74390000  0.18147000  0.91721000  1.0 -0.2760678708
N  N19  1  0.81853000  0.56243000  0.91721000  1.0 -0.2760678708
N  N20  1  0.43757000  0.25610000  0.91721000  1.0 -0.2760678708
N  N21  1  0.40170000  0.10610000  0.76828000  1.0 0.0001959946
N  N22  1  0.89390000  0.29560000  0.76828000  1.0 0.0001959946
N  N23  1  0.70440000  0.59830000  0.76828000  1.0 0.0001959946
N  N24  1  0.59830000  0.89390000  0.26828000  1.0 0.0001959946
N  N25  1  0.10610000  0.70440000  0.26828000  1.0 0.0001959946
N  N26  1  0.29560000  0.40170000  0.26828000  1.0 0.0001959946
N  N27  1  0.36070000  0.84666000  0.32648000  1.0 -0.7967733224
N  N28  1  0.15334000  0.51404000  0.32648000  1.0 -0.7967733224
N  N29  1  0.48596000  0.63930000  0.32648000  1.0 -0.7967733224
N  N30  1  0.63930000  0.15334000  0.82648000  1.0 -0.7967733224
N  N31  1  0.84666000  0.48596000  0.82648000  1.0 -0.7967733224
N  N32  1  0.51404000  0.36070000  0.82648000  1.0 -0.7967733224
N  N33  1  0.25570000  0.83980000  0.48736000  1.0 0.0094637637
N  N34  1  0.16020000  0.41590000  0.48736000  1.0 0.0094637637
N  N35  1  0.58410000  0.74430000  0.48736000  1.0 0.0094637637
N  N36  1  0.74430000  0.16020000  0.98736000  1.0 0.0094637637
N  N37  1  0.83980000  0.58410000  0.98736000  1.0 0.0094637637
N  N38  1  0.41590000  0.25570000  0.98736000  1.0 0.0094637637
O  O1  1  0.37070000  0.85960000  0.22976000  1.0 -0.6789809445
O  O2  1  0.14040000  0.51110000  0.22976000  1.0 -0.6789809445
O  O3  1  0.48890000  0.62930000  0.22976000  1.0 -0.6789809445
O  O4  1  0.62930000  0.14040000  0.72976000  1.0 -0.6789809445
O  O5  1  0.85960000  0.48890000  0.72976000  1.0 -0.6789809445
O  O6  1  0.51110000  0.37070000  0.72976000  1.0 -0.6789809445
O  O7  1  0.32810000  0.20980000  0.70300000  1.0 -0.4956160366
O  O8  1  0.79020000  0.11830000  0.70300000  1.0 -0.4945762634
O  O9  1  0.88170000  0.67190000  0.70300000  1.0 -0.4956160366
O  O10  1  0.67190000  0.79020000  0.20300000  1.0 -0.4956160366
O  O11  1  0.20980000  0.88170000  0.20300000  1.0 -0.4956160366
O  O12  1  0.11830000  0.32810000  0.20300000  1.0 -0.4956160366
O  O13  1  0.49163000  0.96404000  0.37647000  1.0 -0.6382206857
O  O14  1  0.03596000  0.52759000  0.37647000  1.0 -0.6382206857
O  O15  1  0.47241000  0.50837000  0.37647000  1.0 -0.6382206857
O  O16  1  0.50837000  0.03596000  0.87647000  1.0 -0.6382206857
O  O17  1  0.96404000  0.47241000  0.87647000  1.0 -0.6382206857
O  O18  1  0.52759000  0.49163000  0.87647000  1.0 -0.6382206857
O  O19  1  0.51004000  0.07878000  0.42049000  1.0 -0.6173438171
O  O20  1  0.92122000  0.43126000  0.42049000  1.0 -0.6173438171
O  O21  1  0.56874000  0.48996000  0.42049000  1.0 -0.6173438171
O  O22  1  0.48996000  0.92122000  0.92049000  1.0 -0.6173438171
O  O23  1  0.07878000  0.56874000  0.92049000  1.0 -0.6173438171
O  O24  1  0.43126000  0.51004000  0.92049000  1.0 -0.6173438171
O  O25  1  0.52497000  0.41436000  0.33967000  1.0 -0.6061823121
O  O26  1  0.58564000  0.11061000  0.33967000  1.0 -0.6061823121
O  O27  1  0.88939000  0.47503000  0.33967000  1.0 -0.6061823121
O  O28  1  0.47503000  0.58564000  0.83967000  1.0 -0.6061823121
O  O29  1  0.41436000  0.88939000  0.83967000  1.0 -0.6061823121
O  O30  1  0.11061000  0.52497000  0.83967000  1.0 -0.6061823121
O  O31  1  0.54659000  0.53519000  0.30084000  1.0 -0.6173438171
O  O32  1  0.46481000  0.01140000  0.30084000  1.0 -0.6173438171
O  O33  1  0.98860000  0.45341000  0.30084000  1.0 -0.6173438171
O  O34  1  0.45341000  0.46481000  0.80084000  1.0 -0.6173438171
O  O35  1  0.53519000  0.98860000  0.80084000  1.0 -0.6173438171
O  O36  1  0.01140000  0.54659000  0.80084000  1.0 -0.6173438171
O  O37  1  0.59956000  0.25270000  0.57115000  1.0 -0.6061823121
O  O38  1  0.74730000  0.34686000  0.57115000  1.0 -0.6043312728
O  O39  1  0.65314000  0.40044000  0.57115000  1.0 -0.6043312728
O  O40  1  0.40044000  0.74730000  0.07115000  1.0 -0.6043312728
O  O41  1  0.25270000  0.65314000  0.07115000  1.0 -0.6043312728
O  O42  1  0.34686000  0.59956000  0.07115000  1.0 -0.6043312728
O  O43  1  0.44611000  0.86015000  0.41343000  1.0 -0.521722371
O  O44  1  0.13985000  0.58596000  0.41343000  1.0 -0.521722371
O  O45  1  0.41404000  0.55389000  0.41343000  1.0 -0.521722371
O  O46  1  0.55389000  0.13985000  0.91343000  1.0 -0.521722371
O  O47  1  0.86015000  0.41404000  0.91343000  1.0 -0.521722371
O  O48  1  0.58596000  0.44611000  0.91343000  1.0 -0.521722371
O  O49  1  0.37826000  0.98603000  0.37162000  1.0 -0.6173438171
O  O50  1  0.01397000  0.39223000  0.37162000  1.0 -0.6173438171
O  O51  1  0.60777000  0.62174000  0.37162000  1.0 -0.6173438171
O  O52  1  0.62174000  0.01397000  0.87162000  1.0 -0.6173438171
O  O53  1  0.98603000  0.60777000  0.87162000  1.0 -0.6173438171
O  O54  1  0.39223000  0.37826000  0.87162000  1.0 -0.6173438171
O  O55  1  0.46179000  0.12469000  0.34842000  1.0 -0.6173438171
O  O56  1  0.87531000  0.33710000  0.34842000  1.0 -0.6173438171
O  O57  1  0.66290000  0.53821000  0.34842000  1.0 -0.6173438171
O  O58  1  0.53821000  0.87531000  0.84842000  1.0 -0.6173438171
O  O59  1  0.12469000  0.66290000  0.84842000  1.0 -0.6173438171
O  O60  1  0.33710000  0.46179000  0.84842000  1.0 -0.6173438171
O  O61  1  0.26536000  0.93249000  0.34547000  1.0 -0.521722371
O  O62  1  0.06751000  0.33287000  0.34547000  1.0 -0.521722371
O  O63  1  0.66713000  0.73464000  0.34547000  1.0 -0.521722371
O  O64  1  0.73464000  0.06751000  0.84547000  1.0 -0.521722371
O  O65  1  0.93249000  0.66713000  0.84547000  1.0 -0.521722371
O  O66  1  0.33287000  0.26536000  0.84547000  1.0 -0.521722371
O  O67  1  0.58032000  0.30521000  0.64417000  1.0 -0.6173438171
O  O68  1  0.69479000  0.27511000  0.64417000  1.0 -0.6173438171
O  O69  1  0.72489000  0.41968000  0.64417000  1.0 -0.6173438171
O  O70  1  0.41968000  0.69479000  0.14417000  1.0 -0.6173438171
O  O71  1  0.30521000  0.72489000  0.14417000  1.0 -0.6173438171
O  O72  1  0.27511000  0.58032000  0.14417000  1.0 -0.6173438171
O  O73  1  0.55012000  0.53923000  0.22867000  1.0 -0.521722371
O  O74  1  0.46077000  0.01089000  0.22867000  1.0 -0.521722371
O  O75  1  0.98911000  0.44988000  0.22867000  1.0 -0.521722371
O  O76  1  0.44988000  0.46077000  0.72867000  1.0 -0.521722371
O  O77  1  0.53923000  0.98911000  0.72867000  1.0 -0.521722371
O  O78  1  0.01089000  0.55012000  0.72867000  1.0 -0.521722371
O  O79  1  0.46800000  0.25830000  0.66997000  1.0 -0.5326110899
O  O80  1  0.74170000  0.20970000  0.66997000  1.0 -0.5326110899
O  O81  1  0.79030000  0.53200000  0.66997000  1.0 -0.5326110899
O  O82  1  0.53200000  0.74170000  0.16997000  1.0 -0.5326110899
O  O83  1  0.25830000  0.79030000  0.16997000  1.0 -0.5326110899
O  O84  1  0.20970000  0.46800000  0.16997000  1.0 -0.5326110899
