# DDEC6 charges by PACMAN v1.1 (https://github.com/mtap-research/PACMAN-charge/)
data_UDUQUJ_FSR_pacman
_symmetry_space_group_name_H-M   'P 1'
_cell_length_a   23.08130000
_cell_length_b   23.08130000
_cell_length_c   23.08130000
_cell_angle_alpha   137.94700000
_cell_angle_beta   102.64000000
_cell_angle_gamma   92.21450000
_symmetry_Int_Tables_number   1
_chemical_formula_structural   Ca5H102C111N8O25F9
_chemical_formula_sum   'Ca10 H204 C222 N16 O50 F18'
_cell_volume   7646.80545109
_cell_formula_units_Z   2
loop_
 _symmetry_equiv_pos_site_id
 _symmetry_equiv_pos_as_xyz
  1  'x, y, z'
loop_
 _atom_site_type_symbol
 _atom_site_label
 _atom_site_symmetry_multiplicity
 _atom_site_fract_x
 _atom_site_fract_y
 _atom_site_fract_z
 _atom_site_occupancy
 _atom_site_charge
Ca  Ca1  1  0.67559000  0.34415000  0.51974000  1.0 1.3840280846
Ca  Ca2  1  0.17559000  0.65585000  0.33144000  1.0 1.3840280846
Ca  Ca3  1  0.63700000  0.24757000  0.58897000  1.0 1.3281282559
Ca  Ca4  1  0.34140000  0.75243000  0.38943000  1.0 1.3281282559
Ca  Ca5  1  0.13700000  0.54803000  0.38943000  1.0 1.3281282559
Ca  Ca6  1  0.84140000  0.45197000  0.58897000  1.0 1.3281282559
Ca  Ca7  1  0.51470000  0.02541000  0.42479000  1.0 1.3218298629
Ca  Ca8  1  0.39938000  0.97459000  0.48929000  1.0 1.3218298629
Ca  Ca9  1  0.01470000  0.58991000  0.48929000  1.0 1.3218298629
Ca  Ca10  1  0.89938000  0.41009000  0.42479000  1.0 1.3218298629
H  H1  1  0.86751000  0.36981000  0.68926000  1.0 0.0998811469
H  H2  1  0.31945000  0.63019000  0.49770000  1.0 0.0998811469
H  H3  1  0.36751000  0.67825000  0.49770000  1.0 0.0998811469
H  H4  1  0.81945000  0.32175000  0.68926000  1.0 0.0998811469
H  H5  1  0.64032000  0.57907000  0.64141000  1.0 0.12020096
H  H6  1  0.06234000  0.42093000  0.06125000  1.0 0.12020096
H  H7  1  0.14032000  0.49891000  0.06125000  1.0 0.12020096
H  H8  1  0.56234000  0.50109000  0.64141000  1.0 0.12020096
H  H9  1  0.81472000  0.73946000  0.79614000  1.0 0.12020096
H  H10  1  0.05668000  0.26054000  0.07526000  1.0 0.12020096
H  H11  1  0.31472000  0.51858000  0.07526000  1.0 0.12020096
H  H12  1  0.55668000  0.48142000  0.79614000  1.0 0.12020096
H  H13  1  0.66592000  0.19355000  0.68775000  1.0 0.0998811469
H  H14  1  0.49420000  0.80645000  0.47237000  1.0 0.0998811469
H  H15  1  0.16592000  0.47817000  0.47237000  1.0 0.0998811469
H  H16  1  0.99420000  0.52183000  0.68775000  1.0 0.0998811469
H  H17  1  0.75289000  0.32086000  0.27967000  1.0 0.1105082635
H  H18  1  0.95881000  0.67914000  0.43203000  1.0 0.1105082635
H  H19  1  0.25289000  0.97322000  0.43203000  1.0 0.1105082635
H  H20  1  0.45881000  0.02678000  0.27967000  1.0 0.1105082635
H  H21  1  0.69314000  0.14589000  0.26761000  1.0 0.1105082635
H  H22  1  0.12172000  0.85411000  0.54725000  1.0 0.1105082635
H  H23  1  0.19314000  0.92553000  0.54725000  1.0 0.1105082635
H  H24  1  0.62172000  0.07447000  0.26761000  1.0 0.1105082635
H  H25  1  0.60537000  0.70397000  0.71530000  1.0 0.1105082635
H  H26  1  0.01133000  0.29603000  0.90140000  1.0 0.1105082635
H  H27  1  0.10537000  0.39007000  0.90140000  1.0 0.1105082635
H  H28  1  0.51133000  0.60993000  0.71530000  1.0 0.1105082635
H  H29  1  0.78045000  0.86517000  0.87252000  1.0 0.12020096
H  H30  1  0.00735000  0.13483000  0.91528000  1.0 0.12020096
H  H31  1  0.28045000  0.40793000  0.91528000  1.0 0.12020096
H  H32  1  0.50735000  0.59207000  0.87252000  1.0 0.12020096
H  H33  1  0.71383000  0.20502000  0.11949000  1.0 0.1105082635
H  H34  1  0.91447000  0.79498000  0.50881000  1.0 0.1105082635
H  H35  1  0.21383000  0.09434000  0.50881000  1.0 0.1105082635
H  H36  1  0.41447000  0.90566000  0.11949000  1.0 0.1105082635
H  H37  1  0.66071000  0.02850000  0.10857000  1.0 0.1105082635
H  H38  1  0.08007000  0.97150000  0.63221000  1.0 0.1105082635
H  H39  1  0.16071000  0.05214000  0.63221000  1.0 0.1105082635
H  H40  1  0.58007000  0.94786000  0.10857000  1.0 0.1105082635
H  H41  1  0.57374000  0.34691000  0.75775000  1.0 0.12020096
H  H42  1  0.41084000  0.65309000  0.22684000  1.0 0.12020096
H  H43  1  0.07374000  0.31600000  0.22684000  1.0 0.12020096
H  H44  1  0.91084000  0.68400000  0.75775000  1.0 0.12020096
H  H45  1  0.51432000  0.14821000  0.71533000  1.0 0.12020096
H  H46  1  0.56712000  0.85179000  0.36611000  1.0 0.12020096
H  H47  1  0.01432000  0.29899000  0.36611000  1.0 0.12020096
H  H48  1  0.06712000  0.70101000  0.71533000  1.0 0.12020096
H  H49  1  0.68895000  0.24489000  0.85402000  1.0 0.0998811469
H  H50  1  0.60913000  0.75511000  0.44406000  1.0 0.0998811469
H  H51  1  0.18896000  0.33493000  0.44406000  1.0 0.0998811469
H  H52  1  0.10913000  0.66507000  0.85402000  1.0 0.0998811469
H  H53  1  0.69350000  0.16103000  0.75691000  1.0 0.0902658151
H  H54  1  0.59588000  0.83897000  0.53247000  1.0 0.0902658151
H  H55  1  0.19350000  0.43659000  0.53247000  1.0 0.0902658151
H  H56  1  0.09588000  0.56341000  0.75691000  1.0 0.0902658151
H  H57  1  0.75366000  0.22815000  0.84767000  1.0 0.0902658151
H  H58  1  0.61952000  0.77185000  0.52551000  1.0 0.0902658151
H  H59  1  0.25366000  0.40599000  0.52551000  1.0 0.0902658151
H  H60  1  0.11952000  0.59401000  0.84767000  1.0 0.0902658151
H  H61  1  0.74901000  0.40532000  0.89219000  1.0 0.0998811469
H  H62  1  0.48687000  0.59468000  0.34369000  1.0 0.0998811469
H  H63  1  0.24901000  0.35682000  0.34369000  1.0 0.0998811469
H  H64  1  0.98687000  0.64318000  0.89219000  1.0 0.0998811469
H  H65  1  0.77089000  0.38282000  0.94137000  1.0 0.0504330124
H  H66  1  0.55855000  0.61718000  0.38807000  1.0 0.0504330124
H  H67  1  0.27089000  0.32952000  0.38807000  1.0 0.0504330124
H  H68  1  0.05855000  0.67048000  0.94137000  1.0 0.0504330124
H  H69  1  0.80546000  0.36657000  0.88091000  1.0 0.0407225461
H  H70  1  0.51434000  0.63343000  0.43889000  1.0 0.0407225461
H  H71  1  0.30546000  0.42455000  0.43889000  1.0 0.0407225461
H  H72  1  0.01434000  0.57545000  0.88091000  1.0 0.0407225461
H  H73  1  0.54639000  0.06998000  0.74935000  1.0 0.1289989327
H  H74  1  0.67937000  0.93002000  0.47641000  1.0 0.1289989327
H  H75  1  0.04639000  0.29703000  0.47641000  1.0 0.1289989327
H  H76  1  0.17937000  0.70296000  0.74935000  1.0 0.1289989327
H  H77  1  0.43254000  0.83390000  0.60760000  1.0 0.12020096
H  H78  1  0.77370000  0.16610000  0.59864000  1.0 0.12020096
H  H79  1  0.93254000  0.32494000  0.59864000  1.0 0.12020096
H  H80  1  0.27370000  0.67506000  0.60760000  1.0 0.12020096
H  H81  1  0.59830000  0.45399000  0.91591000  1.0 0.1289989327
H  H82  1  0.46192000  0.54601000  0.14431000  1.0 0.1289989327
H  H83  1  0.09830000  0.18239000  0.14431000  1.0 0.1289989327
H  H84  1  0.96192000  0.81761000  0.91591000  1.0 0.1289989327
H  H85  1  0.54449000  0.25388000  0.87349000  1.0 0.1289989327
H  H86  1  0.61961000  0.74612000  0.29061000  1.0 0.1289989327
H  H87  1  0.04449000  0.17100000  0.29061000  1.0 0.1289989327
H  H88  1  0.11961000  0.82900000  0.87349000  1.0 0.1289989327
H  H89  1  0.61154000  0.07603000  0.84571000  1.0 0.12020096
H  H90  1  0.76968000  0.92397000  0.53551000  1.0 0.12020096
H  H91  1  0.11154000  0.26583000  0.53551000  1.0 0.12020096
H  H92  1  0.26968000  0.73417000  0.84571000  1.0 0.12020096
H  H93  1  0.49867000  0.83884000  0.70163000  1.0 0.12020096
H  H94  1  0.86279000  0.16116000  0.65983000  1.0 0.12020096
H  H95  1  0.99867000  0.29704000  0.65983000  1.0 0.12020096
H  H96  1  0.36279000  0.70296000  0.70163000  1.0 0.12020096
H  H97  1  0.75560000  0.37190000  0.21850000  1.0 0.0998811469
H  H98  1  0.84660000  0.62810000  0.38370000  1.0 0.0998811469
H  H99  1  0.25560000  0.03710000  0.38370000  1.0 0.0998811469
H  H100  1  0.34660000  0.96290000  0.21850000  1.0 0.0998811469
H  H101  1  0.67710000  0.37102000  0.13716000  1.0 0.0998811469
H  H102  1  0.76614000  0.62898000  0.30608000  1.0 0.0998811469
H  H103  1  0.17710000  0.03994000  0.30608000  1.0 0.0998811469
H  H104  1  0.26614000  0.96006000  0.13716000  1.0 0.0998811469
H  H105  1  0.59789000  0.89821000  0.27044000  1.0 0.0677285281
H  H106  1  0.37223000  0.10179000  0.69968000  1.0 0.0677285281
H  H107  1  0.09789000  0.82745000  0.69968000  1.0 0.0677285281
H  H108  1  0.87223000  0.17255000  0.27044000  1.0 0.0677285281
H  H109  1  0.46476000  0.69458000  0.04676000  1.0 0.0608442426
H  H110  1  0.35218000  0.30542000  0.77018000  1.0 0.0608442426
H  H111  1  0.96476000  0.91800000  0.77018000  1.0 0.0608442426
H  H112  1  0.85218000  0.08200000  0.04676000  1.0 0.0608442426
H  H113  1  0.46772000  0.70060000  0.11966000  1.0 0.0677285281
H  H114  1  0.41906000  0.29940000  0.76712000  1.0 0.0677285281
H  H115  1  0.96772000  0.84806000  0.76712000  1.0 0.0677285281
H  H116  1  0.91906000  0.15194000  0.11966000  1.0 0.0677285281
H  H117  1  0.45391000  0.77814000  0.13811000  1.0 0.0407225461
H  H118  1  0.35997000  0.22186000  0.67577000  1.0 0.0407225461
H  H119  1  0.95391000  0.81580000  0.67577000  1.0 0.0407225461
H  H120  1  0.85997000  0.18420000  0.13811000  1.0 0.0407225461
H  H121  1  0.62336000  0.76938000  0.16578000  1.0 0.0504330124
H  H122  1  0.39640000  0.23062000  0.85398000  1.0 0.0504330124
H  H123  1  0.12336000  0.95758000  0.85398000  1.0 0.0504330124
H  H124  1  0.89640000  0.04242000  0.16578000  1.0 0.0504330124
H  H125  1  0.58549000  0.73653000  0.07598000  1.0 0.0504330124
H  H126  1  0.33945000  0.26347000  0.84896000  1.0 0.0504330124
H  H127  1  0.08549000  0.00951000  0.84896000  1.0 0.0504330124
H  H128  1  0.83945000  0.99049000  0.07598000  1.0 0.0504330124
H  H129  1  0.56976000  0.67637000  0.08385000  1.0 0.0608442426
H  H130  1  0.40748000  0.32363000  0.89339000  1.0 0.0608442426
H  H131  1  0.06976000  0.98591000  0.89339000  1.0 0.0608442426
H  H132  1  0.90748000  0.01409000  0.08385000  1.0 0.0608442426
H  H133  1  0.46003000  0.80045000  0.18458000  1.0 0.0504330124
H  H134  1  0.38413000  0.19955000  0.65958000  1.0 0.0504330124
H  H135  1  0.96003000  0.77545000  0.65958000  1.0 0.0504330124
H  H136  1  0.88413000  0.22455000  0.18458000  1.0 0.0504330124
H  H137  1  0.61278000  0.81121000  0.14913000  1.0 0.0504330124
H  H138  1  0.33792000  0.18879000  0.80157000  1.0 0.0504330124
H  H139  1  0.11278000  0.96365000  0.80157000  1.0 0.0504330124
H  H140  1  0.83792000  0.03635000  0.14913000  1.0 0.0504330124
H  H141  1  0.62260000  0.83534000  0.23518000  1.0 0.0677285281
H  H142  1  0.39984000  0.16466000  0.78726000  1.0 0.0677285281
H  H143  1  0.12260000  0.88742000  0.78726000  1.0 0.0677285281
H  H144  1  0.89984000  0.11258000  0.23518000  1.0 0.0677285281
H  H145  1  0.59806000  0.89699000  0.23405000  1.0 0.0504330124
H  H146  1  0.33706000  0.10301000  0.70107000  1.0 0.0504330124
H  H147  1  0.09806000  0.86401000  0.70107000  1.0 0.0504330124
H  H148  1  0.83706000  0.13599000  0.23405000  1.0 0.0504330124
H  H149  1  0.50247000  0.65735000  0.08066000  1.0 0.0677285281
H  H150  1  0.42331000  0.34265000  0.84512000  1.0 0.0677285281
H  H151  1  0.00247000  0.92181000  0.84512000  1.0 0.0677285281
H  H152  1  0.92331000  0.07819000  0.08066000  1.0 0.0677285281
H  H153  1  0.54545000  0.67012000  0.04477000  1.0 0.0504330124
H  H154  1  0.37465000  0.32988000  0.87533000  1.0 0.0504330124
H  H155  1  0.04545000  0.00068000  0.87533000  1.0 0.0504330124
H  H156  1  0.87465000  0.99932000  0.04477000  1.0 0.0504330124
H  H157  1  0.47731000  0.67537000  0.02786000  1.0 0.0504330124
H  H158  1  0.35249000  0.32463000  0.80194000  1.0 0.0504330124
H  H159  1  0.97731000  0.94945000  0.80194000  1.0 0.0504330124
H  H160  1  0.85249000  0.05055000  0.02786000  1.0 0.0504330124
H  H161  1  0.71076000  0.41132000  0.82434000  1.0 0.1105082635
H  H162  1  0.41302000  0.58868000  0.29944000  1.0 0.1105082635
H  H163  1  0.21076000  0.38642000  0.29944000  1.0 0.1105082635
H  H164  1  0.91302000  0.61358000  0.82434000  1.0 0.1105082635
H  H165  1  0.72127000  0.24643000  0.79456000  1.0 0.1105082635
H  H166  1  0.54813000  0.75357000  0.47484000  1.0 0.1105082635
H  H167  1  0.22127000  0.42671000  0.47484000  1.0 0.1105082635
H  H168  1  0.04813000  0.57329000  0.79456000  1.0 0.1105082635
H  H169  1  0.79181000  0.28790000  0.82403000  1.0 0.0677285281
H  H170  1  0.53613000  0.71210000  0.50391000  1.0 0.0677285281
H  H171  1  0.29181000  0.46778000  0.50391000  1.0 0.0677285281
H  H172  1  0.03613000  0.53222000  0.82403000  1.0 0.0677285281
H  H173  1  0.76753000  0.31362000  0.89701000  1.0 0.0504330124
H  H174  1  0.58339000  0.68638000  0.45391000  1.0 0.0504330124
H  H175  1  0.26753000  0.37052000  0.45391000  1.0 0.0504330124
H  H176  1  0.08339000  0.62948000  0.89701000  1.0 0.0504330124
H  H177  1  0.79307000  0.50055000  0.98094000  1.0 0.0902658151
H  H178  1  0.48039000  0.49945000  0.29252000  1.0 0.0902658151
H  H179  1  0.29307000  0.31213000  0.29252000  1.0 0.0902658151
H  H180  1  0.98039000  0.68787000  0.98094000  1.0 0.0902658151
H  H181  1  0.72623000  0.47796000  0.97669000  1.0 0.0998811469
H  H182  1  0.49873000  0.52204000  0.24827000  1.0 0.0902658151
H  H183  1  0.22623000  0.24954000  0.24827000  1.0 0.0902658151
H  H184  1  0.99873000  0.75046000  0.97669000  1.0 0.0998811469
H  H185  1  0.77870000  0.45025000  0.00021000  1.0 0.0677285281
H  H186  1  0.54996000  0.54975000  0.32845000  1.0 0.0677285281
H  H187  1  0.27870000  0.27849000  0.32845000  1.0 0.0677285281
H  H188  1  0.04996000  0.72151000  0.00021000  1.0 0.0677285281
H  H189  1  0.65944000  0.45119000  0.23399000  1.0 0.0998811469
H  H190  1  0.78280000  0.54881000  0.20825000  1.0 0.0998811469
H  H191  1  0.15944000  0.92545000  0.20825000  1.0 0.0998811469
H  H192  1  0.28280000  0.07455000  0.23399000  1.0 0.0998811469
H  H193  1  0.73943000  0.44082000  0.30287000  1.0 0.0998811469
H  H194  1  0.86205000  0.55918000  0.29861000  1.0 0.0998811469
H  H195  1  0.23943000  0.93656000  0.29861000  1.0 0.0998811469
H  H196  1  0.36205000  0.06344000  0.30287000  1.0 0.0998811469
H  H197  1  0.81842000  0.32382000  0.69208000  1.0 0.0998811469
H  H198  1  0.36826000  0.67618000  0.49460000  1.0 0.0998811469
H  H199  1  0.31842000  0.62634000  0.49460000  1.0 0.0998811469
H  H200  1  0.86826000  0.37366000  0.69208000  1.0 0.0998811469
H  H201  1  0.84030000  0.42978000  0.76830000  1.0 0.1105082635
H  H202  1  0.33852000  0.57022000  0.41052000  1.0 0.1105082635
H  H203  1  0.34030000  0.57200000  0.41052000  1.0 0.1105082635
H  H204  1  0.83852000  0.42800000  0.76830000  1.0 0.1105082635
C  C1  1  0.75336000  0.56546000  0.66270000  1.0 0.5928117111
C  C2  1  0.09724000  0.43454000  0.18790000  1.0 0.5928117111
C  C3  1  0.25336000  0.59066000  0.18790000  1.0 0.5928117111
C  C4  1  0.59724000  0.40934000  0.66270000  1.0 0.5928117111
C  C5  1  0.77887000  0.36510000  0.64397000  1.0 0.6528703645
C  C6  1  0.27887000  0.63490000  0.41377000  1.0 0.6528703645
C  C7  1  0.75648000  0.31880000  0.39370000  1.0 0.6025838777
C  C8  1  0.07490000  0.68120000  0.43768000  1.0 0.6025838777
C  C9  1  0.25648000  0.86278000  0.43768000  1.0 0.6025838777
C  C10  1  0.57490000  0.13722000  0.39370000  1.0 0.6025838777
C  C11  1  0.72962000  0.64648000  0.71154000  1.0 -0.027224352
C  C12  1  0.06506000  0.35352000  0.08314000  1.0 -0.027224352
C  C13  1  0.22962000  0.51808000  0.08314000  1.0 -0.027224352
C  C14  1  0.56506000  0.48192000  0.71154000  1.0 -0.027224352
C  C15  1  0.83100000  0.37280000  0.70380000  1.0 -0.5355712996
C  C16  1  0.33100000  0.62720000  0.45820000  1.0 -0.5355712996
C  C17  1  0.72686000  0.24517000  0.29041000  1.0 -0.0414991565
C  C18  1  0.04524000  0.75483000  0.48169000  1.0 -0.0414991565
C  C19  1  0.22686000  0.93645000  0.48169000  1.0 -0.0414991565
C  C20  1  0.54524000  0.06355000  0.29041000  1.0 -0.0414991565
C  C21  1  0.66907000  0.63687000  0.68820000  1.0 -0.0909038559
C  C22  1  0.05133000  0.36313000  0.03220000  1.0 -0.0909038559
C  C23  1  0.16907000  0.48087000  0.03220000  1.0 -0.0909038559
C  C24  1  0.55133000  0.51913000  0.68820000  1.0 -0.0909038559
C  C25  1  0.77216000  0.73216000  0.78020000  1.0 -0.1005256145
C  C26  1  0.04804000  0.26784000  0.04000000  1.0 -0.1005256145
C  C27  1  0.27216000  0.49196000  0.04000000  1.0 -0.1005256145
C  C28  1  0.54804000  0.50804000  0.78020000  1.0 -0.1005256145
C  C29  1  0.52630000  0.16740000  0.61784000  1.0 0.5781772211
C  C30  1  0.45044000  0.83260000  0.35890000  1.0 0.5781772211
C  C31  1  0.02630000  0.40846000  0.35890000  1.0 0.5781772211
C  C32  1  0.95044000  0.59154000  0.61784000  1.0 0.5781772211
C  C33  1  0.69490000  0.25140000  0.73630000  1.0 0.0407225461
C  C34  1  0.48490000  0.74860000  0.44350000  1.0 0.0407225461
C  C35  1  0.19490000  0.45860000  0.44350000  1.0 0.0407225461
C  C36  1  0.98490000  0.54140000  0.73630000  1.0 0.0407225461
C  C37  1  0.44243000  0.94172000  0.59991000  1.0 0.5616374488
C  C38  1  0.65819000  0.05828000  0.50071000  1.0 0.5616374488
C  C39  1  0.94243000  0.34252000  0.50071000  1.0 0.5616374488
C  C40  1  0.15819000  0.65748000  0.59991000  1.0 0.5616374488
C  C41  1  0.73319000  0.26219000  0.24500000  1.0 -0.1097807903
C  C42  1  0.98281000  0.73781000  0.47100000  1.0 -0.1097807903
C  C43  1  0.23319000  0.98819000  0.47100000  1.0 -0.1097807903
C  C44  1  0.48281000  0.01181000  0.24500000  1.0 -0.1097807903
C  C45  1  0.69846000  0.15765000  0.23801000  1.0 -0.0909038559
C  C46  1  0.08036000  0.84235000  0.54081000  1.0 -0.0909038559
C  C47  1  0.19846000  0.96045000  0.54081000  1.0 -0.0909038559
C  C48  1  0.58036000  0.03955000  0.23801000  1.0 -0.0909038559
C  C49  1  0.64797000  0.71217000  0.73280000  1.0 -0.1486194501
C  C50  1  0.02063000  0.28783000  0.93580000  1.0 -0.1486194501
C  C51  1  0.14797000  0.41517000  0.93580000  1.0 -0.1486194501
C  C52  1  0.52063000  0.58483000  0.73280000  1.0 -0.1486194501
C  C53  1  0.75149000  0.80751000  0.82558000  1.0 -0.1486194501
C  C54  1  0.01807000  0.19249000  0.94398000  1.0 -0.1486194501
C  C55  1  0.25149000  0.42591000  0.94398000  1.0 -0.1486194501
C  C56  1  0.51807000  0.57409000  0.82558000  1.0 -0.1486194501
C  C57  1  0.54163000  0.23633000  0.72010000  1.0 -0.0095327746
C  C58  1  0.48377000  0.76367000  0.30530000  1.0 -0.0095327746
C  C59  1  0.04163000  0.32153000  0.30530000  1.0 -0.0095327746
C  C60  1  0.98377000  0.67847000  0.72010000  1.0 -0.0095327746
C  C61  1  0.48382000  0.94985000  0.66657000  1.0 -0.0246665962
C  C62  1  0.71672000  0.05015000  0.53397000  1.0 -0.0246665962
C  C63  1  0.98382000  0.31725000  0.53397000  1.0 -0.0246665962
C  C64  1  0.21672000  0.68275000  0.66657000  1.0 -0.0246665962
C  C65  1  0.71048000  0.19262000  0.14906000  1.0 -0.172819333
C  C66  1  0.95644000  0.80738000  0.51786000  1.0 -0.172819333
C  C67  1  0.21048000  0.06142000  0.51786000  1.0 -0.172819333
C  C68  1  0.45644000  0.93858000  0.14906000  1.0 -0.172819333
C  C69  1  0.67794000  0.08761000  0.14273000  1.0 -0.1408164911
C  C70  1  0.05512000  0.91239000  0.59033000  1.0 -0.1408164911
C  C71  1  0.17794000  0.03521000  0.59033000  1.0 -0.1408164911
C  C72  1  0.55512000  0.96479000  0.14273000  1.0 -0.1408164911
C  C73  1  0.68932000  0.79821000  0.80231000  1.0 0.0902658151
C  C74  1  0.00410000  0.20179000  0.89111000  1.0 0.0902658151
C  C75  1  0.18932000  0.38701000  0.89111000  1.0 0.0902658151
C  C76  1  0.50410000  0.61299000  0.80231000  1.0 0.0902658151
C  C77  1  0.56711000  0.32842000  0.78101000  1.0 -0.157578939
C  C78  1  0.45259000  0.67158000  0.23869000  1.0 -0.157578939
C  C79  1  0.06711000  0.28610000  0.23869000  1.0 -0.157578939
C  C80  1  0.95259000  0.71390000  0.78101000  1.0 -0.157578939
C  C81  1  0.53230000  0.20932000  0.75558000  1.0 -0.172819333
C  C82  1  0.54626000  0.79068000  0.32298000  1.0 -0.172819333
C  C83  1  0.03230000  0.27672000  0.32298000  1.0 -0.172819333
C  C84  1  0.04626000  0.72328000  0.75558000  1.0 -0.1831576661
C  C85  1  0.71440000  0.22340000  0.81740000  1.0 -0.2720538154
C  C86  1  0.59400000  0.77660000  0.49100000  1.0 -0.2720538154
C  C87  1  0.21440000  0.39700000  0.49100000  1.0 -0.2720538154
C  C88  1  0.09400000  0.60300000  0.81740000  1.0 -0.2720538154
C  C89  1  0.76580000  0.36480000  0.88700000  1.0 0.0115496292
C  C90  1  0.52220000  0.63520000  0.40100000  1.0 0.0115496292
C  C91  1  0.26580000  0.37880000  0.40100000  1.0 0.0115496292
C  C92  1  0.02220000  0.62120000  0.88700000  1.0 0.0115496292
C  C93  1  0.86198000  0.50000000  0.36198000  1.0 0.5616374488
C  C94  1  0.36198000  0.00000000  0.36198000  1.0 0.5616374488
C  C95  1  0.53685000  0.02296000  0.73929000  1.0 -0.1005256145
C  C96  1  0.71633000  0.97704000  0.51389000  1.0 -0.1005256145
C  C97  1  0.03685000  0.29756000  0.51389000  1.0 -0.1005256145
C  C98  1  0.21633000  0.70244000  0.73929000  1.0 -0.1005256145
C  C99  1  0.46922000  0.88216000  0.65466000  1.0 -0.1408164911
C  C100  1  0.77250000  0.11784000  0.58706000  1.0 -0.1408164911
C  C101  1  0.96922000  0.31456000  0.58706000  1.0 -0.1408164911
C  C102  1  0.27250000  0.68544000  0.65466000  1.0 -0.1408164911
C  C103  1  0.68267000  0.10420000  0.09627000  1.0 0.0998811469
C  C104  1  0.99207000  0.89580000  0.57847000  1.0 0.0998811469
C  C105  1  0.18267000  0.08640000  0.57847000  1.0 0.0998811469
C  C106  1  0.49207000  0.91360000  0.09627000  1.0 0.0998811469
C  C107  1  0.66780000  0.87957000  0.85103000  1.0 -0.1486194501
C  C108  1  0.97146000  0.12043000  0.78823000  1.0 -0.1486194501
C  C109  1  0.16780000  0.31677000  0.78823000  1.0 -0.1486194501
C  C110  1  0.47146000  0.68323000  0.85103000  1.0 -0.1486194501
C  C111  1  0.58259000  0.39251000  0.87584000  1.0 -0.2134628054
C  C112  1  0.48333000  0.60749000  0.19008000  1.0 -0.2134628054
C  C113  1  0.08259000  0.20675000  0.19008000  1.0 -0.2134628054
C  C114  1  0.98333000  0.79325000  0.87584000  1.0 -0.2134628054
C  C115  1  0.54963000  0.27290000  0.85033000  1.0 -0.2134628054
C  C116  1  0.57743000  0.72710000  0.27673000  1.0 -0.2134628054
C  C117  1  0.04963000  0.19930000  0.27673000  1.0 -0.2134628054
C  C118  1  0.07743000  0.80070000  0.85033000  1.0 -0.2134628054
C  C119  1  0.80970000  0.50000000  0.30970000  1.0 -0.027224352
C  C120  1  0.30970000  0.00000000  0.30970000  1.0 -0.027224352
C  C121  1  0.57569000  0.02666000  0.79703000  1.0 -0.1408164911
C  C122  1  0.77037000  0.97334000  0.54903000  1.0 -0.1408164911
C  C123  1  0.07569000  0.27866000  0.54903000  1.0 -0.1408164911
C  C124  1  0.27037000  0.72134000  0.79703000  1.0 -0.1408164911
C  C125  1  0.50844000  0.88579000  0.71165000  1.0 -0.1486194501
C  C126  1  0.82586000  0.11421000  0.62265000  1.0 -0.1486194501
C  C127  1  0.00844000  0.29679000  0.62265000  1.0 -0.1486194501
C  C128  1  0.32586000  0.70321000  0.71165000  1.0 -0.1486194501
C  C129  1  0.66409000  0.02887000  0.99442000  1.0 -0.172819333
C  C130  1  0.96555000  0.97113000  0.63522000  1.0 -0.172819333
C  C131  1  0.16409000  0.16967000  0.63522000  1.0 -0.172819333
C  C132  1  0.46555000  0.83033000  0.99442000  1.0 -0.172819333
C  C133  1  0.68389000  0.95249000  0.94640000  1.0 0.1937621422
C  C134  1  0.99391000  0.04751000  0.73140000  1.0 0.1937621422
C  C135  1  0.18389000  0.23749000  0.73140000  1.0 0.1937621422
C  C136  1  0.49391000  0.76251000  0.94640000  1.0 0.1937621422
C  C137  1  0.62836000  0.88553000  0.80203000  1.0 0.2210202291
C  C138  1  0.91650000  0.11447000  0.74283000  1.0 0.2210202291
C  C139  1  0.12836000  0.32633000  0.74283000  1.0 0.2210202291
C  C140  1  0.41650000  0.67367000  0.80203000  1.0 0.2210202291
C  C141  1  0.57455000  0.36453000  0.91152000  1.0 0.0998811469
C  C142  1  0.54699000  0.63547000  0.21002000  1.0 0.0998811469
C  C143  1  0.07455000  0.16303000  0.21002000  1.0 0.0998811469
C  C144  1  0.04699000  0.83697000  0.91152000  1.0 0.0998811469
C  C145  1  0.75819000  0.42360000  0.23579000  1.0 -0.0595434439
C  C146  1  0.81219000  0.57640000  0.33459000  1.0 -0.0595434439
C  C147  1  0.25819000  0.02240000  0.33459000  1.0 -0.0595434439
C  C148  1  0.31219000  0.97760000  0.23579000  1.0 -0.0595434439
C  C149  1  0.56186000  0.95721000  0.78325000  1.0 0.0902658151
C  C150  1  0.82604000  0.04279000  0.60465000  1.0 0.0902658151
C  C151  1  0.06186000  0.27861000  0.60465000  1.0 0.0902658151
C  C152  1  0.32604000  0.72139000  0.78325000  1.0 0.0902658151
C  C153  1  0.62435000  0.02793000  0.93842000  1.0 0.2210202291
C  C154  1  0.91049000  0.97207000  0.59642000  1.0 0.2210202291
C  C155  1  0.12435000  0.18593000  0.59642000  1.0 0.2210202291
C  C156  1  0.41049000  0.81407000  0.93842000  1.0 0.2210202291
C  C157  1  0.60543000  0.95753000  0.84150000  1.0 -0.1831576661
C  C158  1  0.88397000  0.04247000  0.64790000  1.0 -0.1831576661
C  C159  1  0.10543000  0.26393000  0.64790000  1.0 -0.1831576661
C  C160  1  0.38397000  0.73607000  0.84150000  1.0 -0.1831576661
C  C161  1  0.59347000  0.43266000  0.01357000  1.0 -0.1486194501
C  C162  1  0.58091000  0.56734000  0.16081000  1.0 -0.1486194501
C  C163  1  0.09347000  0.07990000  0.16081000  1.0 -0.1486194501
C  C164  1  0.08091000  0.92010000  0.01357000  1.0 -0.1486194501
C  C165  1  0.71085000  0.42350000  0.18755000  1.0 -0.0511491531
C  C166  1  0.76405000  0.57650000  0.28735000  1.0 -0.0511491531
C  C167  1  0.21085000  0.02330000  0.28735000  1.0 -0.0511491531
C  C168  1  0.26405000  0.97670000  0.18755000  1.0 -0.0511491531
C  C169  1  0.64078000  0.43620000  0.06546000  1.0 0.1618071223
C  C170  1  0.62926000  0.56380000  0.20458000  1.0 0.1618071223
C  C171  1  0.14078000  0.07532000  0.20458000  1.0 0.1618071223
C  C172  1  0.12926000  0.92468000  0.06546000  1.0 0.1618071223
C  C173  1  0.56463000  0.50000000  0.06463000  1.0 0.1618071223
C  C174  1  0.06463000  0.00000000  0.06463000  1.0 0.1618071223
C  C175  1  0.71248000  0.50000000  0.21248000  1.0 0.0504330124
C  C176  1  0.21248000  0.00000000  0.21248000  1.0 0.0504330124
C  C177  1  0.66123000  0.50000000  0.16123000  1.0 -0.172819333
C  C178  1  0.16123000  0.00000000  0.16123000  1.0 -0.172819333
C  C179  1  0.55550000  0.86640000  0.23890000  1.0 0.0902658151
C  C180  1  0.37250000  0.13360000  0.68910000  1.0 0.0840827003
C  C181  1  0.05550000  0.81660000  0.68910000  1.0 0.0840827003
C  C182  1  0.87250000  0.18340000  0.23890000  1.0 0.0902658151
C  C183  1  0.47670000  0.73490000  0.11180000  1.0 -0.0743887244
C  C184  1  0.37690000  0.26510000  0.74180000  1.0 -0.0743887244
C  C185  1  0.97670000  0.86490000  0.74180000  1.0 -0.0743887244
C  C186  1  0.87690000  0.13510000  0.11180000  1.0 -0.0743887244
C  C187  1  0.58300000  0.73750000  0.11770000  1.0 -0.0743887244
C  C188  1  0.38020000  0.26250000  0.84550000  1.0 -0.0743887244
C  C189  1  0.08300000  0.96530000  0.84550000  1.0 -0.0808112588
C  C190  1  0.88020000  0.03470000  0.11770000  1.0 -0.0743887244
C  C191  1  0.50140000  0.82980000  0.20600000  1.0 0.1105082635
C  C192  1  0.37620000  0.17020000  0.67160000  1.0 0.1105082635
C  C193  1  0.00140000  0.79540000  0.67160000  1.0 0.1105082635
C  C194  1  0.87620000  0.20460000  0.20600000  1.0 0.1105082635
C  C195  1  0.59710000  0.83570000  0.19660000  1.0 -0.0808112588
C  C196  1  0.36090000  0.16430000  0.76140000  1.0 -0.0808112588
C  C197  1  0.09710000  0.90050000  0.76140000  1.0 -0.0808112588
C  C198  1  0.86090000  0.09950000  0.19660000  1.0 -0.0808112588
C  C199  1  0.51340000  0.68900000  0.07040000  1.0 -0.1005256145
C  C200  1  0.38140000  0.31100000  0.82440000  1.0 -0.1005256145
C  C201  1  0.01340000  0.94300000  0.82440000  1.0 -0.1005256145
C  C202  1  0.88140000  0.05700000  0.07040000  1.0 -0.1005256145
C  C203  1  0.71700000  0.35990000  0.80410000  1.0 0.0313953515
C  C204  1  0.44420000  0.64010000  0.35710000  1.0 0.0313953515
C  C205  1  0.21700000  0.41290000  0.35710000  1.0 0.0313953515
C  C206  1  0.94420000  0.58710000  0.80410000  1.0 0.0313953515
C  C207  1  0.75700000  0.29900000  0.84400000  1.0 0.0115496292
C  C208  1  0.54500000  0.70100000  0.45800000  1.0 0.0115496292
C  C209  1  0.25700000  0.41300000  0.45800000  1.0 0.0115496292
C  C210  1  0.04500000  0.58700000  0.84400000  1.0 0.0115496292
C  C211  1  0.76190000  0.45710000  0.96420000  1.0 -0.2720538154
C  C212  1  0.50710000  0.54290000  0.30480000  1.0 -0.2720538154
C  C213  1  0.26190000  0.29770000  0.30480000  1.0 -0.2720538154
C  C214  1  0.00710000  0.70230000  0.96420000  1.0 -0.2720538154
C  C215  1  0.70030000  0.46970000  0.24300000  1.0 -0.0808112588
C  C216  1  0.77330000  0.53030000  0.23060000  1.0 -0.0808112588
C  C217  1  0.20030000  0.95730000  0.23060000  1.0 -0.0808112588
C  C218  1  0.27330000  0.04270000  0.24300000  1.0 -0.0808112588
C  C219  1  0.74890000  0.46700000  0.28790000  1.0 -0.0595434439
C  C220  1  0.82090000  0.53300000  0.28190000  1.0 -0.0595434439
C  C221  1  0.24890000  0.96100000  0.28190000  1.0 -0.0595434439
C  C222  1  0.32090000  0.03900000  0.28790000  1.0 -0.0595434439
N  N1  1  0.72480000  0.27630000  0.80830000  1.0 0.0206623939
N  N2  1  0.53200000  0.72370000  0.44850000  1.0 0.0206623939
N  N3  1  0.22480000  0.41650000  0.44850000  1.0 0.0206623939
N  N4  1  0.03200000  0.58350000  0.80830000  1.0 0.0206623939
N  N5  1  0.54080000  0.78120000  0.15720000  1.0 -0.1486194501
N  N6  1  0.37600000  0.21880000  0.75960000  1.0 -0.1486194501
N  N7  1  0.04080000  0.88360000  0.75960000  1.0 -0.1486194501
N  N8  1  0.87600000  0.11640000  0.15720000  1.0 -0.1486194501
N  N9  1  0.53520000  0.78240000  0.15480000  1.0 -0.157578939
N  N10  1  0.37240000  0.21760000  0.75280000  1.0 -0.157578939
N  N11  1  0.03520000  0.88040000  0.75280000  1.0 -0.157578939
N  N12  1  0.87240000  0.11960000  0.15480000  1.0 -0.157578939
N  N13  1  0.74400000  0.37320000  0.86940000  1.0 0.0206623939
N  N14  1  0.49620000  0.62680000  0.37080000  1.0 0.0206623939
N  N15  1  0.24400000  0.37460000  0.37080000  1.0 0.0206623939
N  N16  1  0.99620000  0.62540000  0.86940000  1.0 0.0206623939
O  O1  1  0.71330000  0.48886000  0.59984000  1.0 -0.6078156797
O  O2  1  0.11098000  0.51114000  0.22444000  1.0 -0.6078156797
O  O3  1  0.21330000  0.61346000  0.22444000  1.0 -0.6078156797
O  O4  1  0.61098000  0.38654000  0.59984000  1.0 -0.6078156797
O  O5  1  0.72488000  0.32734000  0.61774000  1.0 -0.5792789087
O  O6  1  0.29040000  0.67266000  0.39754000  1.0 -0.5792789087
O  O7  1  0.22488000  0.60714000  0.39754000  1.0 -0.5792789087
O  O8  1  0.79040000  0.39286000  0.61774000  1.0 -0.5792789087
O  O9  1  0.59701000  0.31120000  0.40821000  1.0 -0.6078156797
O  O10  1  0.09701000  0.68880000  0.28581000  1.0 -0.6078156797
O  O11  1  0.73858000  0.31252000  0.43718000  1.0 -0.6292227507
O  O12  1  0.12466000  0.68748000  0.42606000  1.0 -0.6292227507
O  O13  1  0.23858000  0.80140000  0.42606000  1.0 -0.6292227507
O  O14  1  0.62466000  0.19860000  0.43718000  1.0 -0.6292227507
O  O15  1  0.80927000  0.57866000  0.68661000  1.0 -0.5792789087
O  O16  1  0.10795000  0.42134000  0.23061000  1.0 -0.5792789087
O  O17  1  0.30927000  0.62266000  0.23061000  1.0 -0.5792789087
O  O18  1  0.60795000  0.37734000  0.68661000  1.0 -0.5792789087
O  O19  1  0.80082000  0.38557000  0.43557000  1.0 -0.6404656097
O  O20  1  0.05000000  0.61443000  0.41525000  1.0 -0.6404656097
O  O21  1  0.30082000  0.86525000  0.41525000  1.0 -0.6404656097
O  O22  1  0.55000000  0.13475000  0.43557000  1.0 -0.6404656097
O  O23  1  0.38987000  0.88467000  0.54700000  1.0 -0.6078156797
O  O24  1  0.66233000  0.11533000  0.50520000  1.0 -0.6078156797
O  O25  1  0.88987000  0.34287000  0.50520000  1.0 -0.6078156797
O  O26  1  0.16233000  0.65713000  0.54700000  1.0 -0.6078156797
O  O27  1  0.55609000  0.18482000  0.59087000  1.0 -0.6292227507
O  O28  1  0.40605000  0.81518000  0.37127000  1.0 -0.6292227507
O  O29  1  0.05609000  0.46522000  0.37127000  1.0 -0.6292227507
O  O30  1  0.90605000  0.53478000  0.59087000  1.0 -0.6292227507
O  O31  1  0.69850000  0.29231000  0.72139000  1.0 -0.2960094884
O  O32  1  0.42908000  0.70769000  0.40619000  1.0 -0.2960094884
O  O33  1  0.19850000  0.47711000  0.40619000  1.0 -0.2960094884
O  O34  1  0.92908000  0.52289000  0.72139000  1.0 -0.2960094884
O  O35  1  0.48530000  0.09260000  0.56134000  1.0 -0.6078156797
O  O36  1  0.46874000  0.90740000  0.39270000  1.0 -0.6078156797
O  O37  1  0.98530000  0.42396000  0.39270000  1.0 -0.6078156797
O  O38  1  0.96874000  0.57604000  0.56134000  1.0 -0.6078156797
O  O39  1  0.46437000  0.99156000  0.59881000  1.0 -0.6021304951
O  O40  1  0.60725000  0.00844000  0.47281000  1.0 -0.6021304951
O  O41  1  0.96437000  0.36556000  0.47281000  1.0 -0.6021304951
O  O42  1  0.10725000  0.63444000  0.59881000  1.0 -0.6021304951
O  O43  1  0.84904000  0.44523000  0.35953000  1.0 -0.573510699
O  O44  1  0.91430000  0.55477000  0.40381000  1.0 -0.573510699
O  O45  1  0.34904000  0.98951000  0.40381000  1.0 -0.573510699
O  O46  1  0.41430000  0.01049000  0.35953000  1.0 -0.573510699
O  O47  1  0.52274000  0.90936000  0.27902000  1.0 -0.3269546256
O  O48  1  0.36966000  0.09064000  0.61338000  1.0 -0.3246227727
O  O49  1  0.02274000  0.74372000  0.61338000  1.0 -0.3269546256
O  O50  1  0.86966000  0.25628000  0.27902000  1.0 -0.3269546256
F  F1  1  0.72193000  0.94933000  0.99698000  1.0 -0.118302092
F  F2  1  0.04765000  0.05067000  0.77260000  1.0 -0.118302092
F  F3  1  0.22193000  0.22495000  0.77260000  1.0 -0.118302092
F  F4  1  0.54765000  0.77505000  0.99698000  1.0 -0.118302092
F  F5  1  0.61307000  0.81721000  0.70894000  1.0 -0.1408164911
F  F6  1  0.89173000  0.18279000  0.79586000  1.0 -0.1408164911
F  F7  1  0.11307000  0.40413000  0.79586000  1.0 -0.1408164911
F  F8  1  0.39173000  0.59587000  0.70894000  1.0 -0.1408164911
F  F9  1  0.60231000  0.09936000  0.98063000  1.0 -0.1486194501
F  F10  1  0.88127000  0.90064000  0.50295000  1.0 -0.1486194501
F  F11  1  0.10231000  0.12168000  0.50295000  1.0 -0.1486194501
F  F12  1  0.38127000  0.87832000  0.98063000  1.0 -0.1486194501
F  F13  1  0.67044000  0.37232000  0.01866000  1.0 -0.157578939
F  F14  1  0.64634000  0.62768000  0.29812000  1.0 -0.157578939
F  F15  1  0.17044000  0.15178000  0.29812000  1.0 -0.157578939
F  F16  1  0.14634000  0.84822000  0.01866000  1.0 -0.157578939
F  F17  1  0.51801000  0.50000000  0.01801000  1.0 -0.1294003465
F  F18  1  0.01801000  0.00000000  0.01801000  1.0 -0.1294003465
